MODEL 1
REMARK VINA RESULT:    -4.552      0.000      0.000
REMARK INTER + INTRA:          -7.042
REMARK INTER:                  -5.617
REMARK INTRA:                  -1.426
REMARK UNBOUND:                -1.426
REMARK SMILES CC(C)=CCC[C@@H](C)[C@@H]1C=CC(C)=CC1
REMARK SMILES IDX 6 1 7 2 8 3 9 4 13 5 12 6 14 7 11 8 15 9 10 10 5 11 4 12
REMARK SMILES IDX 2 13 1 14 3 15
REMARK H PARENT
REMARK Flexibility Score: inf
ROOT
ATOM      1  C   UNL     1      13.268   7.753  17.462  1.00  0.00     0.008 C 
ENDROOT
BRANCH   1   2
ATOM      2  C   UNL     1      11.732   7.604  17.306  1.00  0.00    -0.007 C 
ATOM      3  C   UNL     1      11.361   7.131  15.886  1.00  0.00     0.008 C 
BRANCH   2   4
ATOM      4  C   UNL     1      11.150   6.682  18.423  1.00  0.00     0.018 C 
ATOM      5  C   UNL     1      14.077   3.551  19.305  1.00  0.00     0.044 C 
ATOM      6  C   UNL     1      12.935   4.506  19.117  1.00  0.00    -0.055 C 
ATOM      7  C   UNL     1      12.060   4.321  18.119  1.00  0.00    -0.023 C 
ATOM      8  C   UNL     1      12.837   5.706  19.975  1.00  0.00    -0.001 C 
ATOM      9  C   UNL     1      10.875   5.233  17.942  1.00  0.00     0.035 C 
ATOM     10  C   UNL     1      11.992   6.698  19.683  1.00  0.00    -0.023 C 
ENDBRANCH   2   4
ENDBRANCH   1   2
BRANCH   1  11
ATOM     11  C   UNL     1      14.045   7.307  16.213  1.00  0.00     0.027 C 
BRANCH  11  12
ATOM     12  C   UNL     1      15.353   6.661  16.602  1.00  0.00    -0.028 C 
ATOM     13  C   UNL     1      15.637   5.352  16.433  1.00  0.00    -0.080 C 
ATOM     14  C   UNL     1      17.003   4.855  16.831  1.00  0.00     0.039 C 
ATOM     15  C   UNL     1      14.625   4.378  15.875  1.00  0.00     0.039 C 
ENDBRANCH  11  12
ENDBRANCH   1  11
TORSDOF 4
ENDMDL
MODEL 2
REMARK VINA RESULT:    -4.415      1.348      3.843
REMARK INTER + INTRA:          -6.872
REMARK INTER:                  -5.101
REMARK INTRA:                  -1.771
REMARK UNBOUND:                -1.426
REMARK SMILES CC(C)=CCC[C@@H](C)[C@@H]1C=CC(C)=CC1
REMARK SMILES IDX 6 1 7 2 8 3 9 4 13 5 12 6 14 7 11 8 15 9 10 10 5 11 4 12
REMARK SMILES IDX 2 13 1 14 3 15
REMARK H PARENT
REMARK Flexibility Score: inf
ROOT
ATOM      1  C   UNL     1      13.467   5.199  16.476  1.00  0.00     0.008 C 
ENDROOT
BRANCH   1   2
ATOM      2  C   UNL     1      12.629   4.765  17.706  1.00  0.00    -0.007 C 
ATOM      3  C   UNL     1      13.349   5.115  19.023  1.00  0.00     0.008 C 
BRANCH   2   4
ATOM      4  C   UNL     1      11.187   5.357  17.629  1.00  0.00     0.018 C 
ATOM      5  C   UNL     1      11.490   9.647  16.817  1.00  0.00     0.044 C 
ATOM      6  C   UNL     1      11.179   8.215  17.140  1.00  0.00    -0.055 C 
ATOM      7  C   UNL     1      11.236   7.783  18.408  1.00  0.00    -0.023 C 
ATOM      8  C   UNL     1      10.908   7.260  16.044  1.00  0.00    -0.001 C 
ATOM      9  C   UNL     1      10.875   6.366  18.765  1.00  0.00     0.035 C 
ATOM     10  C   UNL     1      10.875   5.943  16.266  1.00  0.00    -0.023 C 
ENDBRANCH   2   4
ENDBRANCH   1   2
BRANCH   1  11
ATOM     11  C   UNL     1      14.785   5.890  16.862  1.00  0.00     0.027 C 
BRANCH  11  12
ATOM     12  C   UNL     1      14.910   7.225  16.167  1.00  0.00    -0.028 C 
ATOM     13  C   UNL     1      14.964   8.414  16.805  1.00  0.00    -0.080 C 
ATOM     14  C   UNL     1      15.131   9.665  15.980  1.00  0.00     0.039 C 
ATOM     15  C   UNL     1      14.847   8.524  18.308  1.00  0.00     0.039 C 
ENDBRANCH  11  12
ENDBRANCH   1  11
TORSDOF 4
ENDMDL
MODEL 3
REMARK VINA RESULT:    -4.198      1.400      4.298
REMARK INTER + INTRA:          -6.605
REMARK INTER:                  -4.838
REMARK INTRA:                  -1.767
REMARK UNBOUND:                -1.426
REMARK SMILES CC(C)=CCC[C@@H](C)[C@@H]1C=CC(C)=CC1
REMARK SMILES IDX 6 1 7 2 8 3 9 4 13 5 12 6 14 7 11 8 15 9 10 10 5 11 4 12
REMARK SMILES IDX 2 13 1 14 3 15
REMARK H PARENT
REMARK Flexibility Score: inf
ROOT
ATOM      1  C   UNL     1      13.070   3.839  17.948  1.00  0.00     0.008 C 
ENDROOT
BRANCH   1   2
ATOM      2  C   UNL     1      13.608   4.939  16.996  1.00  0.00    -0.007 C 
ATOM      3  C   UNL     1      14.532   4.339  15.918  1.00  0.00     0.008 C 
BRANCH   2   4
ATOM      4  C   UNL     1      12.433   5.771  16.393  1.00  0.00     0.018 C 
ATOM      5  C   UNL     1      11.127   8.694  19.378  1.00  0.00     0.044 C 
ATOM      6  C   UNL     1      11.394   7.742  18.249  1.00  0.00    -0.055 C 
ATOM      7  C   UNL     1      10.877   6.505  18.273  1.00  0.00    -0.023 C 
ATOM      8  C   UNL     1      12.311   8.139  17.159  1.00  0.00    -0.001 C 
ATOM      9  C   UNL     1      11.085   5.551  17.128  1.00  0.00     0.035 C 
ATOM     10  C   UNL     1      12.768   7.245  16.278  1.00  0.00    -0.023 C 
ENDBRANCH   2   4
ENDBRANCH   1   2
BRANCH   1  11
ATOM     11  C   UNL     1      13.864   3.740  19.261  1.00  0.00     0.027 C 
BRANCH  11  12
ATOM     12  C   UNL     1      13.099   4.379  20.395  1.00  0.00    -0.028 C 
ATOM     13  C   UNL     1      13.276   5.651  20.812  1.00  0.00    -0.080 C 
ATOM     14  C   UNL     1      12.410   6.167  21.933  1.00  0.00     0.039 C 
ATOM     15  C   UNL     1      14.321   6.557  20.202  1.00  0.00     0.039 C 
ENDBRANCH  11  12
ENDBRANCH   1  11
TORSDOF 4
ENDMDL
MODEL 4
REMARK VINA RESULT:    -4.136      1.305      4.069
REMARK INTER + INTRA:          -6.528
REMARK INTER:                  -4.838
REMARK INTRA:                  -1.690
REMARK UNBOUND:                -1.426
REMARK SMILES CC(C)=CCC[C@@H](C)[C@@H]1C=CC(C)=CC1
REMARK SMILES IDX 6 1 7 2 8 3 9 4 13 5 12 6 14 7 11 8 15 9 10 10 5 11 4 12
REMARK SMILES IDX 2 13 1 14 3 15
REMARK H PARENT
REMARK Flexibility Score: inf
ROOT
ATOM      1  C   UNL     1      11.921   6.026  16.489  1.00  0.00     0.008 C 
ENDROOT
BRANCH   1   2
ATOM      2  C   UNL     1      13.121   6.794  15.877  1.00  0.00    -0.007 C 
ATOM      3  C   UNL     1      13.239   8.210  16.476  1.00  0.00     0.008 C 
BRANCH   2   4
ATOM      4  C   UNL     1      14.436   5.966  16.016  1.00  0.00     0.018 C 
ATOM      5  C   UNL     1      14.197   3.585  19.680  1.00  0.00     0.044 C 
ATOM      6  C   UNL     1      14.488   4.349  18.422  1.00  0.00    -0.055 C 
ATOM      7  C   UNL     1      14.943   5.608  18.488  1.00  0.00    -0.023 C 
ATOM      8  C   UNL     1      14.176   3.742  17.110  1.00  0.00    -0.001 C 
ATOM      9  C   UNL     1      15.294   6.376  17.242  1.00  0.00     0.035 C 
ATOM     10  C   UNL     1      14.184   4.472  15.991  1.00  0.00    -0.023 C 
ENDBRANCH   2   4
ENDBRANCH   1   2
BRANCH   1  11
ATOM     11  C   UNL     1      11.179   6.831  17.568  1.00  0.00     0.027 C 
BRANCH  11  12
ATOM     12  C   UNL     1      11.329   6.175  18.920  1.00  0.00    -0.028 C 
ATOM     13  C   UNL     1      11.868   6.776  20.003  1.00  0.00    -0.080 C 
ATOM     14  C   UNL     1      11.915   6.010  21.300  1.00  0.00     0.039 C 
ATOM     15  C   UNL     1      12.434   8.176  19.945  1.00  0.00     0.039 C 
ENDBRANCH  11  12
ENDBRANCH   1  11
TORSDOF 4
ENDMDL
MODEL 5
REMARK VINA RESULT:    -4.074      1.343      3.676
REMARK INTER + INTRA:          -6.452
REMARK INTER:                  -4.673
REMARK INTRA:                  -1.779
REMARK UNBOUND:                -1.426
REMARK SMILES CC(C)=CCC[C@@H](C)[C@@H]1C=CC(C)=CC1
REMARK SMILES IDX 6 1 7 2 8 3 9 4 13 5 12 6 14 7 11 8 15 9 10 10 5 11 4 12
REMARK SMILES IDX 2 13 1 14 3 15
REMARK H PARENT
REMARK Flexibility Score: inf
ROOT
ATOM      1  C   UNL     1      13.640   5.292  16.219  1.00  0.00     0.008 C 
ENDROOT
BRANCH   1   2
ATOM      2  C   UNL     1      13.932   4.308  17.381  1.00  0.00    -0.007 C 
ATOM      3  C   UNL     1      15.172   4.748  18.185  1.00  0.00     0.008 C 
BRANCH   2   4
ATOM      4  C   UNL     1      12.666   4.118  18.276  1.00  0.00     0.018 C 
ATOM      5  C   UNL     1      11.467   8.029  19.832  1.00  0.00     0.044 C 
ATOM      6  C   UNL     1      11.742   6.606  19.443  1.00  0.00    -0.055 C 
ATOM      7  C   UNL     1      12.662   5.891  20.106  1.00  0.00    -0.023 C 
ATOM      8  C   UNL     1      11.065   6.027  18.262  1.00  0.00    -0.001 C 
ATOM      9  C   UNL     1      12.917   4.446  19.771  1.00  0.00     0.035 C 
ATOM     10  C   UNL     1      11.462   4.864  17.738  1.00  0.00    -0.023 C 
ENDBRANCH   2   4
ENDBRANCH   1   2
BRANCH   1  11
ATOM     11  C   UNL     1      14.602   6.490  16.190  1.00  0.00     0.027 C 
BRANCH  11  12
ATOM     12  C   UNL     1      13.840   7.789  16.293  1.00  0.00    -0.028 C 
ATOM     13  C   UNL     1      14.006   8.694  17.281  1.00  0.00    -0.080 C 
ATOM     14  C   UNL     1      13.202   9.968  17.231  1.00  0.00     0.039 C 
ATOM     15  C   UNL     1      14.955   8.458  18.434  1.00  0.00     0.039 C 
ENDBRANCH  11  12
ENDBRANCH   1  11
TORSDOF 4
ENDMDL
MODEL 6
REMARK VINA RESULT:    -4.051      1.567      3.904
REMARK INTER + INTRA:          -6.424
REMARK INTER:                  -4.887
REMARK INTRA:                  -1.537
REMARK UNBOUND:                -1.426
REMARK SMILES CC(C)=CCC[C@@H](C)[C@@H]1C=CC(C)=CC1
REMARK SMILES IDX 6 1 7 2 8 3 9 4 13 5 12 6 14 7 11 8 15 9 10 10 5 11 4 12
REMARK SMILES IDX 2 13 1 14 3 15
REMARK H PARENT
REMARK Flexibility Score: inf
ROOT
ATOM      1  C   UNL     1      11.009   7.875  18.552  1.00  0.00     0.008 C 
ENDROOT
BRANCH   1   2
ATOM      2  C   UNL     1      11.669   8.057  17.161  1.00  0.00    -0.007 C 
ATOM      3  C   UNL     1      13.047   8.738  17.283  1.00  0.00     0.008 C 
BRANCH   2   4
ATOM      4  C   UNL     1      11.731   6.697  16.397  1.00  0.00     0.018 C 
ATOM      5  C   UNL     1      13.418   3.676  19.077  1.00  0.00     0.044 C 
ATOM      6  C   UNL     1      12.871   4.567  18.001  1.00  0.00    -0.055 C 
ATOM      7  C   UNL     1      13.697   5.334  17.275  1.00  0.00    -0.023 C 
ATOM      8  C   UNL     1      11.408   4.672  17.813  1.00  0.00    -0.001 C 
ATOM      9  C   UNL     1      13.179   6.195  16.155  1.00  0.00     0.035 C 
ATOM     10  C   UNL     1      10.875   5.629  17.047  1.00  0.00    -0.023 C 
ENDBRANCH   2   4
ENDBRANCH   1   2
BRANCH   1  11
ATOM     11  C   UNL     1      12.019   7.940  19.710  1.00  0.00     0.027 C 
BRANCH  11  12
ATOM     12  C   UNL     1      11.658   6.948  20.788  1.00  0.00    -0.028 C 
ATOM     13  C   UNL     1      12.557   6.289  21.551  1.00  0.00    -0.080 C 
ATOM     14  C   UNL     1      12.047   5.357  22.620  1.00  0.00     0.039 C 
ATOM     15  C   UNL     1      14.046   6.449  21.352  1.00  0.00     0.039 C 
ENDBRANCH  11  12
ENDBRANCH   1  11
TORSDOF 4
ENDMDL
MODEL 7
REMARK VINA RESULT:    -4.048      1.127      4.658
REMARK INTER + INTRA:          -6.420
REMARK INTER:                  -4.510
REMARK INTRA:                  -1.910
REMARK UNBOUND:                -1.426
REMARK SMILES CC(C)=CCC[C@@H](C)[C@@H]1C=CC(C)=CC1
REMARK SMILES IDX 6 1 7 2 8 3 9 4 13 5 12 6 14 7 11 8 15 9 10 10 5 11 4 12
REMARK SMILES IDX 2 13 1 14 3 15
REMARK H PARENT
REMARK Flexibility Score: inf
ROOT
ATOM      1  C   UNL     1      12.323   4.154  18.192  1.00  0.00     0.008 C 
ENDROOT
BRANCH   1   2
ATOM      2  C   UNL     1      13.748   4.323  18.780  1.00  0.00    -0.007 C 
ATOM      3  C   UNL     1      14.041   3.249  19.847  1.00  0.00     0.008 C 
BRANCH   2   4
ATOM      4  C   UNL     1      14.816   4.352  17.642  1.00  0.00     0.018 C 
ATOM      5  C   UNL     1      14.914   8.381  15.935  1.00  0.00     0.044 C 
ATOM      6  C   UNL     1      14.997   6.941  16.349  1.00  0.00    -0.055 C 
ATOM      7  C   UNL     1      14.111   6.052  15.879  1.00  0.00    -0.023 C 
ATOM      8  C   UNL     1      15.998   6.527  17.356  1.00  0.00    -0.001 C 
ATOM      9  C   UNL     1      14.206   4.593  16.235  1.00  0.00     0.035 C 
ATOM     10  C   UNL     1      15.943   5.322  17.931  1.00  0.00    -0.023 C 
ENDBRANCH   2   4
ENDBRANCH   1   2
BRANCH   1  11
ATOM     11  C   UNL     1      11.391   5.329  18.532  1.00  0.00     0.027 C 
BRANCH  11  12
ATOM     12  C   UNL     1      12.186   6.519  19.012  1.00  0.00    -0.028 C 
ATOM     13  C   UNL     1      12.121   7.751  18.464  1.00  0.00    -0.080 C 
ATOM     14  C   UNL     1      12.944   8.855  19.076  1.00  0.00     0.039 C 
ATOM     15  C   UNL     1      11.264   8.046  17.254  1.00  0.00     0.039 C 
ENDBRANCH  11  12
ENDBRANCH   1  11
TORSDOF 4
ENDMDL
MODEL 8
REMARK VINA RESULT:    -4.043      1.422      2.959
REMARK INTER + INTRA:          -6.414
REMARK INTER:                  -4.723
REMARK INTRA:                  -1.691
REMARK UNBOUND:                -1.426
REMARK SMILES CC(C)=CCC[C@@H](C)[C@@H]1C=CC(C)=CC1
REMARK SMILES IDX 6 1 7 2 8 3 9 4 13 5 12 6 14 7 11 8 15 9 10 10 5 11 4 12
REMARK SMILES IDX 2 13 1 14 3 15
REMARK H PARENT
REMARK Flexibility Score: inf
ROOT
ATOM      1  C   UNL     1      12.200   6.652  19.805  1.00  0.00     0.008 C 
ENDROOT
BRANCH   1   2
ATOM      2  C   UNL     1      11.008   6.831  18.828  1.00  0.00    -0.007 C 
ATOM      3  C   UNL     1      11.066   8.201  18.125  1.00  0.00     0.008 C 
BRANCH   2   4
ATOM      4  C   UNL     1      10.933   5.637  17.825  1.00  0.00     0.018 C 
ATOM      5  C   UNL     1      14.828   5.215  15.876  1.00  0.00     0.044 C 
ATOM      6  C   UNL     1      13.420   5.225  16.392  1.00  0.00    -0.055 C 
ATOM      7  C   UNL     1      12.520   6.078  15.881  1.00  0.00    -0.023 C 
ATOM      8  C   UNL     1      13.054   4.362  17.536  1.00  0.00    -0.001 C 
ATOM      9  C   UNL     1      11.088   6.071  16.344  1.00  0.00     0.035 C 
ATOM     10  C   UNL     1      11.895   4.522  18.180  1.00  0.00    -0.023 C 
ENDBRANCH   2   4
ENDBRANCH   1   2
BRANCH   1  11
ATOM     11  C   UNL     1      13.205   7.814  19.746  1.00  0.00     0.027 C 
BRANCH  11  12
ATOM     12  C   UNL     1      14.564   7.321  19.313  1.00  0.00    -0.028 C 
ATOM     13  C   UNL     1      15.279   7.848  18.296  1.00  0.00    -0.080 C 
ATOM     14  C   UNL     1      16.643   7.278  18.004  1.00  0.00     0.039 C 
ATOM     15  C   UNL     1      14.745   8.975  17.441  1.00  0.00     0.039 C 
ENDBRANCH  11  12
ENDBRANCH   1  11
TORSDOF 4
ENDMDL
MODEL 9
REMARK VINA RESULT:    -3.397      1.163      4.560
REMARK INTER + INTRA:          -5.617
REMARK INTER:                  -4.310
REMARK INTRA:                  -1.306
REMARK UNBOUND:                -1.426
REMARK SMILES CC(C)=CCC[C@@H](C)[C@@H]1C=CC(C)=CC1
REMARK SMILES IDX 6 1 7 2 8 3 9 4 13 5 12 6 14 7 11 8 15 9 10 10 5 11 4 12
REMARK SMILES IDX 2 13 1 14 3 15
REMARK H PARENT
REMARK Flexibility Score: inf
ROOT
ATOM      1  C   UNL     1      11.585   4.579  17.882  1.00  0.00     0.008 C 
ENDROOT
BRANCH   1   2
ATOM      2  C   UNL     1      13.090   4.597  18.254  1.00  0.00    -0.007 C 
ATOM      3  C   UNL     1      13.348   3.833  19.568  1.00  0.00     0.008 C 
BRANCH   2   4
ATOM      4  C   UNL     1      13.958   4.072  17.068  1.00  0.00     0.018 C 
ATOM      5  C   UNL     1      17.693   6.351  16.966  1.00  0.00     0.044 C 
ATOM      6  C   UNL     1      16.469   5.498  16.806  1.00  0.00    -0.055 C 
ATOM      7  C   UNL     1      15.391   5.979  16.171  1.00  0.00    -0.023 C 
ATOM      8  C   UNL     1      16.421   4.162  17.437  1.00  0.00    -0.001 C 
ATOM      9  C   UNL     1      14.171   5.125  15.949  1.00  0.00     0.035 C 
ATOM     10  C   UNL     1      15.275   3.482  17.532  1.00  0.00    -0.023 C 
ENDBRANCH   2   4
ENDBRANCH   1   2
BRANCH   1  11
ATOM     11  C   UNL     1      10.887   5.925  18.141  1.00  0.00     0.027 C 
BRANCH  11  12
ATOM     12  C   UNL     1      11.163   6.893  17.016  1.00  0.00    -0.028 C 
ATOM     13  C   UNL     1      12.032   7.924  17.095  1.00  0.00    -0.080 C 
ATOM     14  C   UNL     1      12.237   8.786  15.875  1.00  0.00     0.039 C 
ATOM     15  C   UNL     1      12.785   8.243  18.365  1.00  0.00     0.039 C 
ENDBRANCH  11  12
ENDBRANCH   1  11
TORSDOF 4
ENDMDL
