MODEL 1
REMARK VINA RESULT:    -4.556      0.000      0.000
REMARK INTER + INTRA:          -6.379
REMARK INTER:                  -6.420
REMARK INTRA:                   0.041
REMARK UNBOUND:                 0.041
REMARK SMILES CC1=CCC(=C(C)C)C(=O)CC(C)=CCC1
REMARK SMILES IDX 12 1 14 2 13 3 15 4 16 5 2 6 1 7 3 8 11 10 9 11 10 12 5 13
REMARK SMILES IDX 6 14 7 15 8 16 4 17
REMARK H PARENT
REMARK Flexibility Score: 60.00
ROOT
ATOM      1  C   UNL     1     -20.691 -53.364  24.043  1.00  0.00    -0.070 C 
ATOM      2  C   UNL     1     -21.809 -53.818  23.433  1.00  0.00    -0.027 C 
ATOM      3  C   UNL     1     -19.844 -52.352  23.314  1.00  0.00     0.039 C 
ENDROOT
BRANCH   2   4
ATOM      4  C   UNL     1     -22.840 -54.713  24.073  1.00  0.00     0.032 C 
BRANCH   4   5
ATOM      5  C   UNL     1     -24.082 -53.894  24.441  1.00  0.00     0.034 C 
BRANCH   5   6
ATOM      6  C   UNL     1     -24.224 -53.697  25.937  1.00  0.00    -0.077 C 
ATOM      7  C   UNL     1     -25.011 -54.710  26.729  1.00  0.00     0.039 C 
ATOM      8  C   UNL     1     -23.742 -52.615  26.600  1.00  0.00    -0.023 CG0
ATOM      9  G   UNL     1     -22.876 -51.501  26.039  1.00  0.00     0.000 G0
ENDBRANCH   5   6
ENDBRANCH   4   5
ENDBRANCH   2   4
BRANCH   1  10
ATOM     10  C   UNL     1     -20.236 -53.836  25.410  1.00  0.00     0.111 C 
BRANCH  10  11
ATOM     11  C   UNL     1     -20.777 -52.961  26.516  1.00  0.00     0.163 C 
ATOM     12  O   UNL     1     -20.739 -53.428  27.687  1.00  0.00    -0.294 OA
BRANCH  11  13
ATOM     13  C   UNL     1     -21.364 -51.598  26.292  1.00  0.00    -0.002 C 
ATOM     14  C   UNL     1     -20.601 -50.475  26.464  1.00  0.00    -0.069 C 
ATOM     15  C   UNL     1     -21.207 -49.089  26.477  1.00  0.00     0.039 C 
ATOM     16  C   UNL     1     -19.098 -50.555  26.603  1.00  0.00     0.039 C 
BRANCH  13  17
ATOM     17  C   UNL     1     -22.866 -51.502  26.048  1.00  0.00     0.066 CG0
ATOM     18  G   UNL     1     -23.717 -52.619  26.624  1.00  0.00     0.000 G0
ENDBRANCH  13  17
ENDBRANCH  11  13
ENDBRANCH  10  11
ENDBRANCH   1  10
TORSDOF 0
ENDMDL
MODEL 2
REMARK VINA RESULT:    -4.512      1.584      2.745
REMARK INTER + INTRA:          -6.318
REMARK INTER:                  -6.178
REMARK INTRA:                  -0.139
REMARK UNBOUND:                 0.041
REMARK SMILES CC1=CCC(=C(C)C)C(=O)CC(C)=CCC1
REMARK SMILES IDX 12 1 14 2 13 3 15 4 16 5 2 6 1 7 3 8 11 10 9 11 10 12 5 13
REMARK SMILES IDX 6 14 7 15 8 16 4 17
REMARK H PARENT
REMARK Flexibility Score: 60.00
ROOT
ATOM      1  C   UNL     1     -23.630 -55.209  25.051  1.00  0.00    -0.070 C 
ATOM      2  C   UNL     1     -24.769 -55.336  25.770  1.00  0.00    -0.027 C 
ATOM      3  C   UNL     1     -22.923 -56.466  24.611  1.00  0.00     0.039 C 
ENDROOT
BRANCH   2   4
ATOM      4  C   UNL     1     -25.674 -54.197  26.162  1.00  0.00     0.032 C 
BRANCH   4   5
ATOM      5  C   UNL     1     -25.255 -53.647  27.530  1.00  0.00     0.034 C 
BRANCH   5   6
ATOM      6  C   UNL     1     -25.245 -52.132  27.568  1.00  0.00    -0.077 C 
ATOM      7  C   UNL     1     -26.562 -51.399  27.549  1.00  0.00     0.039 C 
ATOM      8  C   UNL     1     -24.109 -51.389  27.545  1.00  0.00    -0.023 CG0
ATOM      9  G   UNL     1     -22.678 -51.890  27.620  1.00  0.00     0.000 G0
ENDBRANCH   5   6
ENDBRANCH   4   5
ENDBRANCH   2   4
BRANCH   1  10
ATOM     10  C   UNL     1     -23.021 -53.870  24.684  1.00  0.00     0.111 C 
BRANCH  10  11
ATOM     11  C   UNL     1     -21.974 -53.435  25.681  1.00  0.00     0.163 C 
ATOM     12  O   UNL     1     -21.105 -54.288  26.010  1.00  0.00    -0.294 OA
BRANCH  11  13
ATOM     13  C   UNL     1     -21.930 -52.070  26.305  1.00  0.00    -0.002 C 
ATOM     14  C   UNL     1     -21.125 -51.093  25.784  1.00  0.00    -0.069 C 
ATOM     15  C   UNL     1     -20.874 -49.790  26.510  1.00  0.00     0.039 C 
ATOM     16  C   UNL     1     -20.479 -51.243  24.425  1.00  0.00     0.039 C 
BRANCH  13  17
ATOM     17  C   UNL     1     -22.661 -51.869  27.628  1.00  0.00     0.066 CG0
ATOM     18  G   UNL     1     -24.099 -51.392  27.539  1.00  0.00     0.000 G0
ENDBRANCH  13  17
ENDBRANCH  11  13
ENDBRANCH  10  11
ENDBRANCH   1  10
TORSDOF 0
ENDMDL
MODEL 3
REMARK VINA RESULT:    -4.446      1.631      4.056
REMARK INTER + INTRA:          -6.225
REMARK INTER:                  -6.427
REMARK INTRA:                   0.203
REMARK UNBOUND:                 0.041
REMARK SMILES CC1=CCC(=C(C)C)C(=O)CC(C)=CCC1
REMARK SMILES IDX 12 1 14 2 13 3 15 4 16 5 2 6 1 7 3 8 11 10 9 11 10 12 5 13
REMARK SMILES IDX 6 14 7 15 8 16 4 17
REMARK H PARENT
REMARK Flexibility Score: 60.00
ROOT
ATOM      1  C   UNL     1     -20.073 -52.413  23.682  1.00  0.00    -0.070 C 
ATOM      2  C   UNL     1     -19.705 -51.213  24.185  1.00  0.00    -0.027 C 
ATOM      3  C   UNL     1     -19.893 -52.650  22.204  1.00  0.00     0.039 C 
ENDROOT
BRANCH   2   4
ATOM      4  C   UNL     1     -19.679 -50.861  25.650  1.00  0.00     0.032 C 
BRANCH   4   5
ATOM      5  C   UNL     1     -21.049 -50.327  26.082  1.00  0.00     0.034 C 
BRANCH   5   6
ATOM      6  C   UNL     1     -21.603 -51.058  27.288  1.00  0.00    -0.077 C 
ATOM      7  C   UNL     1     -20.942 -50.848  28.627  1.00  0.00     0.039 C 
ATOM      8  C   UNL     1     -22.622 -51.953  27.221  1.00  0.00    -0.023 CG0
ATOM      9  G   UNL     1     -23.476 -52.288  26.012  1.00  0.00     0.000 G0
ENDBRANCH   5   6
ENDBRANCH   4   5
ENDBRANCH   2   4
BRANCH   1  10
ATOM     10  C   UNL     1     -20.673 -53.522  24.524  1.00  0.00     0.111 C 
BRANCH  10  11
ATOM     11  C   UNL     1     -22.152 -53.686  24.267  1.00  0.00     0.163 C 
ATOM     12  O   UNL     1     -22.511 -53.853  23.070  1.00  0.00    -0.294 OA
BRANCH  11  13
ATOM     13  C   UNL     1     -23.198 -53.641  25.344  1.00  0.00    -0.002 C 
ATOM     14  C   UNL     1     -23.986 -54.731  25.594  1.00  0.00    -0.069 C 
ATOM     15  C   UNL     1     -25.196 -54.655  26.499  1.00  0.00     0.039 C 
ATOM     16  C   UNL     1     -23.662 -56.090  25.015  1.00  0.00     0.039 C 
BRANCH  13  17
ATOM     17  C   UNL     1     -23.470 -52.298  26.014  1.00  0.00     0.066 CG0
ATOM     18  G   UNL     1     -22.626 -51.966  27.230  1.00  0.00     0.000 G0
ENDBRANCH  13  17
ENDBRANCH  11  13
ENDBRANCH  10  11
ENDBRANCH   1  10
TORSDOF 0
ENDMDL
MODEL 4
REMARK VINA RESULT:    -4.436      1.743      2.068
REMARK INTER + INTRA:          -6.210
REMARK INTER:                  -6.244
REMARK INTRA:                   0.034
REMARK UNBOUND:                 0.041
REMARK SMILES CC1=CCC(=C(C)C)C(=O)CC(C)=CCC1
REMARK SMILES IDX 12 1 14 2 13 3 15 4 16 5 2 6 1 7 3 8 11 10 9 11 10 12 5 13
REMARK SMILES IDX 6 14 7 15 8 16 4 17
REMARK H PARENT
REMARK Flexibility Score: 60.00
ROOT
ATOM      1  C   UNL     1     -20.925 -52.653  23.633  1.00  0.00    -0.070 C 
ATOM      2  C   UNL     1     -21.650 -53.757  23.342  1.00  0.00    -0.027 C 
ATOM      3  C   UNL     1     -19.721 -52.347  22.778  1.00  0.00     0.039 C 
ENDROOT
BRANCH   2   4
ATOM      4  C   UNL     1     -22.956 -54.129  23.995  1.00  0.00     0.032 C 
BRANCH   4   5
ATOM      5  C   UNL     1     -22.693 -55.032  25.206  1.00  0.00     0.034 C 
BRANCH   5   6
ATOM      6  C   UNL     1     -23.405 -54.551  26.454  1.00  0.00    -0.077 C 
ATOM      7  C   UNL     1     -24.899 -54.730  26.549  1.00  0.00     0.039 C 
ATOM      8  C   UNL     1     -22.783 -53.898  27.468  1.00  0.00    -0.023 CG0
ATOM      9  G   UNL     1     -21.294 -53.650  27.629  1.00  0.00     0.000 G0
ENDBRANCH   5   6
ENDBRANCH   4   5
ENDBRANCH   2   4
BRANCH   1  10
ATOM     10  C   UNL     1     -21.249 -51.721  24.784  1.00  0.00     0.111 C 
BRANCH  10  11
ATOM     11  C   UNL     1     -20.324 -51.934  25.959  1.00  0.00     0.163 C 
ATOM     12  O   UNL     1     -19.085 -51.872  25.732  1.00  0.00    -0.294 OA
BRANCH  11  13
ATOM     13  C   UNL     1     -20.798 -52.232  27.352  1.00  0.00    -0.002 C 
ATOM     14  C   UNL     1     -20.635 -51.313  28.353  1.00  0.00    -0.069 C 
ATOM     15  C   UNL     1     -20.882 -51.657  29.805  1.00  0.00     0.039 C 
ATOM     16  C   UNL     1     -20.245 -49.882  28.056  1.00  0.00     0.039 C 
BRANCH  13  17
ATOM     17  C   UNL     1     -21.293 -53.643  27.648  1.00  0.00     0.066 CG0
ATOM     18  G   UNL     1     -22.778 -53.893  27.462  1.00  0.00     0.000 G0
ENDBRANCH  13  17
ENDBRANCH  11  13
ENDBRANCH  10  11
ENDBRANCH   1  10
TORSDOF 0
ENDMDL
MODEL 5
REMARK VINA RESULT:    -4.434      3.178      5.030
REMARK INTER + INTRA:          -6.208
REMARK INTER:                  -6.220
REMARK INTRA:                   0.012
REMARK UNBOUND:                 0.041
REMARK SMILES CC1=CCC(=C(C)C)C(=O)CC(C)=CCC1
REMARK SMILES IDX 12 1 14 2 13 3 15 4 16 5 2 6 1 7 3 8 11 10 9 11 10 12 5 13
REMARK SMILES IDX 6 14 7 15 8 16 4 17
REMARK H PARENT
REMARK Flexibility Score: 60.00
ROOT
ATOM      1  C   UNL     1     -27.879 -53.649  26.295  1.00  0.00    -0.070 C 
ATOM      2  C   UNL     1     -27.482 -54.260  25.156  1.00  0.00    -0.027 C 
ATOM      3  C   UNL     1     -29.241 -53.002  26.317  1.00  0.00     0.039 C 
ENDROOT
BRANCH   2   4
ATOM      4  C   UNL     1     -26.225 -55.077  25.006  1.00  0.00     0.032 C 
BRANCH   4   5
ATOM      5  C   UNL     1     -25.047 -54.160  24.655  1.00  0.00     0.034 C 
BRANCH   5   6
ATOM      6  C   UNL     1     -23.821 -54.442  25.499  1.00  0.00    -0.077 C 
ATOM      7  C   UNL     1     -23.105 -55.757  25.320  1.00  0.00     0.039 C 
ATOM      8  C   UNL     1     -23.367 -53.603  26.466  1.00  0.00    -0.023 CG0
ATOM      9  G   UNL     1     -23.877 -52.212  26.793  1.00  0.00     0.000 G0
ENDBRANCH   5   6
ENDBRANCH   4   5
ENDBRANCH   2   4
BRANCH   1  10
ATOM     10  C   UNL     1     -27.018 -53.565  27.540  1.00  0.00     0.111 C 
BRANCH  10  11
ATOM     11  C   UNL     1     -26.311 -52.235  27.647  1.00  0.00     0.163 C 
ATOM     12  O   UNL     1     -27.004 -51.200  27.453  1.00  0.00    -0.294 OA
BRANCH  11  13
ATOM     13  C   UNL     1     -24.848 -52.089  27.948  1.00  0.00    -0.002 C 
ATOM     14  C   UNL     1     -24.428 -51.700  29.191  1.00  0.00    -0.069 C 
ATOM     15  C   UNL     1     -22.992 -51.317  29.469  1.00  0.00     0.039 C 
ATOM     16  C   UNL     1     -25.373 -51.677  30.372  1.00  0.00     0.039 C 
BRANCH  13  17
ATOM     17  C   UNL     1     -23.868 -52.210  26.786  1.00  0.00     0.066 CG0
ATOM     18  G   UNL     1     -23.366 -53.606  26.467  1.00  0.00     0.000 G0
ENDBRANCH  13  17
ENDBRANCH  11  13
ENDBRANCH  10  11
ENDBRANCH   1  10
TORSDOF 0
ENDMDL
MODEL 6
REMARK VINA RESULT:    -4.349      2.228      3.891
REMARK INTER + INTRA:          -6.087
REMARK INTER:                  -5.984
REMARK INTRA:                  -0.103
REMARK UNBOUND:                 0.041
REMARK SMILES CC1=CCC(=C(C)C)C(=O)CC(C)=CCC1
REMARK SMILES IDX 12 1 14 2 13 3 15 4 16 5 2 6 1 7 3 8 11 10 9 11 10 12 5 13
REMARK SMILES IDX 6 14 7 15 8 16 4 17
REMARK H PARENT
REMARK Flexibility Score: 60.00
ROOT
ATOM      1  C   UNL     1     -21.696 -54.644  25.582  1.00  0.00    -0.070 C 
ATOM      2  C   UNL     1     -21.370 -54.050  24.411  1.00  0.00    -0.027 C 
ATOM      3  C   UNL     1     -22.773 -55.699  25.568  1.00  0.00     0.039 C 
ENDROOT
BRANCH   2   4
ATOM      4  C   UNL     1     -20.225 -53.090  24.218  1.00  0.00     0.032 C 
BRANCH   4   5
ATOM      5  C   UNL     1     -20.692 -51.659  24.506  1.00  0.00     0.034 C 
BRANCH   5   6
ATOM      6  C   UNL     1     -19.694 -50.879  25.337  1.00  0.00    -0.077 C 
ATOM      7  C   UNL     1     -18.370 -50.509  24.719  1.00  0.00     0.039 C 
ATOM      8  C   UNL     1     -19.895 -50.553  26.640  1.00  0.00    -0.023 CG0
ATOM      9  G   UNL     1     -21.156 -50.761  27.459  1.00  0.00     0.000 G0
ENDBRANCH   5   6
ENDBRANCH   4   5
ENDBRANCH   2   4
BRANCH   1  10
ATOM     10  C   UNL     1     -21.049 -54.288  26.905  1.00  0.00     0.111 C 
BRANCH  10  11
ATOM     11  C   UNL     1     -21.840 -53.245  27.658  1.00  0.00     0.163 C 
ATOM     12  O   UNL     1     -23.088 -53.411  27.725  1.00  0.00    -0.294 OA
BRANCH  11  13
ATOM     13  C   UNL     1     -21.228 -52.034  28.299  1.00  0.00    -0.002 C 
ATOM     14  C   UNL     1     -20.906 -52.038  29.629  1.00  0.00    -0.069 C 
ATOM     15  C   UNL     1     -20.509 -50.777  30.362  1.00  0.00     0.039 C 
ATOM     16  C   UNL     1     -20.883 -53.320  30.432  1.00  0.00     0.039 C 
BRANCH  13  17
ATOM     17  C   UNL     1     -21.149 -50.755  27.472  1.00  0.00     0.066 CG0
ATOM     18  G   UNL     1     -19.894 -50.565  26.639  1.00  0.00     0.000 G0
ENDBRANCH  13  17
ENDBRANCH  11  13
ENDBRANCH  10  11
ENDBRANCH   1  10
TORSDOF 0
ENDMDL
MODEL 7
REMARK VINA RESULT:    -4.328      3.403      6.037
REMARK INTER + INTRA:          -6.058
REMARK INTER:                  -5.981
REMARK INTRA:                  -0.076
REMARK UNBOUND:                 0.041
REMARK SMILES CC1=CCC(=C(C)C)C(=O)CC(C)=CCC1
REMARK SMILES IDX 12 1 14 2 13 3 15 4 16 5 2 6 1 7 3 8 11 10 9 11 10 12 5 13
REMARK SMILES IDX 6 14 7 15 8 16 4 17
REMARK H PARENT
REMARK Flexibility Score: 60.00
ROOT
ATOM      1  C   UNL     1     -18.544 -50.821  31.102  1.00  0.00    -0.070 C 
ATOM      2  C   UNL     1     -17.668 -50.396  30.163  1.00  0.00    -0.027 C 
ATOM      3  C   UNL     1     -18.013 -51.643  32.249  1.00  0.00     0.039 C 
ENDROOT
BRANCH   2   4
ATOM      4  C   UNL     1     -17.999 -49.450  29.038  1.00  0.00     0.032 C 
BRANCH   4   5
ATOM      5  C   UNL     1     -18.550 -50.235  27.842  1.00  0.00     0.034 C 
BRANCH   5   6
ATOM      6  C   UNL     1     -19.738 -49.552  27.196  1.00  0.00    -0.077 C 
ATOM      7  C   UNL     1     -19.524 -48.225  26.511  1.00  0.00     0.039 C 
ATOM      8  C   UNL     1     -21.006 -50.032  27.260  1.00  0.00    -0.023 CG0
ATOM      9  G   UNL     1     -21.461 -51.359  27.837  1.00  0.00     0.000 G0
ENDBRANCH   5   6
ENDBRANCH   4   5
ENDBRANCH   2   4
BRANCH   1  10
ATOM     10  C   UNL     1     -20.030 -50.530  31.048  1.00  0.00     0.111 C 
BRANCH  10  11
ATOM     11  C   UNL     1     -20.792 -51.616  30.326  1.00  0.00     0.163 C 
ATOM     12  O   UNL     1     -20.476 -52.809  30.587  1.00  0.00    -0.294 OA
BRANCH  11  13
ATOM     13  C   UNL     1     -21.870 -51.350  29.315  1.00  0.00    -0.002 C 
ATOM     14  C   UNL     1     -23.180 -51.271  29.701  1.00  0.00    -0.069 C 
ATOM     15  C   UNL     1     -24.311 -51.238  28.698  1.00  0.00     0.039 C 
ATOM     16  C   UNL     1     -23.569 -51.162  31.159  1.00  0.00     0.039 C 
BRANCH  13  17
ATOM     17  C   UNL     1     -21.480 -51.354  27.841  1.00  0.00     0.066 CG0
ATOM     18  G   UNL     1     -21.007 -50.032  27.263  1.00  0.00     0.000 G0
ENDBRANCH  13  17
ENDBRANCH  11  13
ENDBRANCH  10  11
ENDBRANCH   1  10
TORSDOF 0
ENDMDL
MODEL 8
REMARK VINA RESULT:    -4.323      1.949      4.442
REMARK INTER + INTRA:          -6.051
REMARK INTER:                  -6.242
REMARK INTRA:                   0.190
REMARK UNBOUND:                 0.041
REMARK SMILES CC1=CCC(=C(C)C)C(=O)CC(C)=CCC1
REMARK SMILES IDX 12 1 14 2 13 3 15 4 16 5 2 6 1 7 3 8 11 10 9 11 10 12 5 13
REMARK SMILES IDX 6 14 7 15 8 16 4 17
REMARK H PARENT
REMARK Flexibility Score: 60.00
ROOT
ATOM      1  C   UNL     1     -20.109 -51.251  24.282  1.00  0.00    -0.070 C 
ATOM      2  C   UNL     1     -19.061 -50.913  25.067  1.00  0.00    -0.027 C 
ATOM      3  C   UNL     1     -19.838 -52.076  23.050  1.00  0.00     0.039 C 
ENDROOT
BRANCH   2   4
ATOM      4  C   UNL     1     -19.168 -50.223  26.402  1.00  0.00     0.032 C 
BRANCH   4   5
ATOM      5  C   UNL     1     -18.749 -51.185  27.520  1.00  0.00     0.034 C 
BRANCH   5   6
ATOM      6  C   UNL     1     -19.898 -51.536  28.443  1.00  0.00    -0.077 C 
ATOM      7  C   UNL     1     -20.058 -50.759  29.726  1.00  0.00     0.039 C 
ATOM      8  C   UNL     1     -20.755 -52.564  28.217  1.00  0.00    -0.023 CG0
ATOM      9  G   UNL     1     -20.833 -53.445  26.984  1.00  0.00     0.000 G0
ENDBRANCH   5   6
ENDBRANCH   4   5
ENDBRANCH   2   4
BRANCH   1  10
ATOM     10  C   UNL     1     -21.536 -50.826  24.568  1.00  0.00     0.111 C 
BRANCH  10  11
ATOM     11  C   UNL     1     -22.146 -51.624  25.696  1.00  0.00     0.163 C 
ATOM     12  O   UNL     1     -22.912 -51.008  26.486  1.00  0.00    -0.294 OA
BRANCH  11  13
ATOM     13  C   UNL     1     -21.874 -53.081  25.930  1.00  0.00    -0.002 C 
ATOM     14  C   UNL     1     -22.653 -54.038  25.339  1.00  0.00    -0.069 C 
ATOM     15  C   UNL     1     -22.564 -55.497  25.727  1.00  0.00     0.039 C 
ATOM     16  C   UNL     1     -23.615 -53.695  24.224  1.00  0.00     0.039 C 
BRANCH  13  17
ATOM     17  C   UNL     1     -20.832 -53.450  26.981  1.00  0.00     0.066 CG0
ATOM     18  G   UNL     1     -20.778 -52.572  28.217  1.00  0.00     0.000 G0
ENDBRANCH  13  17
ENDBRANCH  11  13
ENDBRANCH  10  11
ENDBRANCH   1  10
TORSDOF 0
ENDMDL
MODEL 9
REMARK VINA RESULT:    -4.298      3.637      5.426
REMARK INTER + INTRA:          -6.016
REMARK INTER:                  -5.892
REMARK INTRA:                  -0.124
REMARK UNBOUND:                 0.041
REMARK SMILES CC1=CCC(=C(C)C)C(=O)CC(C)=CCC1
REMARK SMILES IDX 12 1 14 2 13 3 15 4 16 5 2 6 1 7 3 8 11 10 9 11 10 12 5 13
REMARK SMILES IDX 6 14 7 15 8 16 4 17
REMARK H PARENT
REMARK Flexibility Score: 60.00
ROOT
ATOM      1  C   UNL     1     -18.257 -49.913  29.340  1.00  0.00    -0.070 C 
ATOM      2  C   UNL     1     -18.542 -49.913  28.018  1.00  0.00    -0.027 C 
ATOM      3  C   UNL     1     -16.829 -49.672  29.759  1.00  0.00     0.039 C 
ENDROOT
BRANCH   2   4
ATOM      4  C   UNL     1     -19.929 -49.990  27.433  1.00  0.00     0.032 C 
BRANCH   4   5
ATOM      5  C   UNL     1     -20.192 -51.404  26.903  1.00  0.00     0.034 C 
BRANCH   5   6
ATOM      6  C   UNL     1     -21.570 -51.915  27.273  1.00  0.00    -0.077 C 
ATOM      7  C   UNL     1     -22.744 -51.517  26.414  1.00  0.00     0.039 C 
ATOM      8  C   UNL     1     -21.822 -52.657  28.382  1.00  0.00    -0.023 CG0
ATOM      9  G   UNL     1     -20.811 -53.226  29.360  1.00  0.00     0.000 G0
ENDBRANCH   5   6
ENDBRANCH   4   5
ENDBRANCH   2   4
BRANCH   1  10
ATOM     10  C   UNL     1     -19.295 -50.160  30.417  1.00  0.00     0.111 C 
BRANCH  10  11
ATOM     11  C   UNL     1     -19.374 -51.619  30.799  1.00  0.00     0.163 C 
ATOM     12  O   UNL     1     -18.320 -52.155  31.236  1.00  0.00    -0.294 OA
BRANCH  11  13
ATOM     13  C   UNL     1     -20.616 -52.452  30.665  1.00  0.00    -0.002 C 
ATOM     14  C   UNL     1     -21.452 -52.630  31.734  1.00  0.00    -0.069 C 
ATOM     15  C   UNL     1     -22.578 -53.639  31.712  1.00  0.00     0.039 C 
ATOM     16  C   UNL     1     -21.326 -51.788  32.984  1.00  0.00     0.039 C 
BRANCH  13  17
ATOM     17  C   UNL     1     -20.814 -53.230  29.369  1.00  0.00     0.066 CG0
ATOM     18  G   UNL     1     -21.820 -52.661  28.385  1.00  0.00     0.000 G0
ENDBRANCH  13  17
ENDBRANCH  11  13
ENDBRANCH  10  11
ENDBRANCH   1  10
TORSDOF 0
ENDMDL
