MODEL 1
REMARK VINA RESULT:    -6.391      0.000      0.000
REMARK INTER + INTRA:          -7.853
REMARK INTER:                  -7.325
REMARK INTRA:                  -0.528
REMARK UNBOUND:                -0.528
REMARK SMILES C=C(C)[C@H]1CC[C@]2(C(=O)[O-])CC[C@]3(C)[C@H](CC[C@H]4[C@@]5(C)CC[C@@H](O)C(C)(C)[C@H]5CC[C@]43C)[C@H]12
REMARK SMILES IDX 7 1 6 2 33 3 11 4 5 5 15 6 4 7 12 8 16 9 13 10 17 11 31 12
REMARK SMILES IDX 14 13 18 14 30 15 32 16 19 17 29 18 21 19 20 20 28 21 22 22
REMARK SMILES IDX 25 23 23 24 26 25 27 26 8 27 9 28 10 29 2 30 3 31 1 32 24 33
REMARK H PARENT 24 34
REMARK Flexibility Score: inf
ROOT
ATOM      1  C   UNL     1      41.192  32.859  23.496  1.00  0.00     0.014 C 
ATOM      2  C   UNL     1      41.063  34.142  22.605  1.00  0.00     0.014 C 
ATOM      3  C   UNL     1      39.947  32.004  23.110  1.00  0.00     0.012 C 
ATOM      4  C   UNL     1      42.560  32.153  23.208  1.00  0.00     0.014 C 
ATOM      5  C   UNL     1      39.799  34.008  21.759  1.00  0.00     0.009 C 
ATOM      6  C   UNL     1      40.149  30.469  23.295  1.00  0.00     0.000 C 
ATOM      7  C   UNL     1      39.441  32.525  21.751  1.00  0.00     0.018 C 
ATOM      8  C   UNL     1      42.603  30.625  23.460  1.00  0.00     0.008 C 
ATOM      9  C   UNL     1      38.923  29.620  23.000  1.00  0.00     0.005 C 
ATOM     10  C   UNL     1      41.466  29.811  22.745  1.00  0.00    -0.024 C 
ATOM     11  C   UNL     1      39.000  28.284  23.764  1.00  0.00     0.005 C 
ATOM     12  C   UNL     1      41.495  28.195  23.086  1.00  0.00    -0.024 C 
ATOM     13  C   UNL     1      41.647  30.018  21.209  1.00  0.00     0.012 C 
ATOM     14  C   UNL     1      40.442  27.832  24.213  1.00  0.00     0.002 C 
ATOM     15  C   UNL     1      41.096  27.298  21.873  1.00  0.00     0.008 C 
ATOM     16  C   UNL     1      42.953  27.786  23.449  1.00  0.00     0.012 C 
ATOM     17  C   UNL     1      40.462  26.325  24.750  1.00  0.00    -0.026 C 
ATOM     18  C   UNL     1      40.986  25.781  22.145  1.00  0.00     0.005 C 
ATOM     19  C   UNL     1      39.105  25.962  25.456  1.00  0.00     0.010 C 
ATOM     20  C   UNL     1      41.523  26.242  25.907  1.00  0.00     0.012 C 
ATOM     21  C   UNL     1      40.801  25.257  23.615  1.00  0.00     0.003 C 
ATOM     22  C   UNL     1      39.020  24.526  26.001  1.00  0.00     0.033 C 
ATOM     23  C   UNL     1      39.932  23.926  23.651  1.00  0.00    -0.006 C 
ATOM     24  C   UNL     1      39.744  23.476  25.131  1.00  0.00     0.120 C 
ATOM     25  C   UNL     1      38.543  24.095  22.950  1.00  0.00     0.014 C 
ATOM     26  C   UNL     1      40.706  22.793  22.917  1.00  0.00     0.014 C 
ENDROOT
BRANCH   1  27
ATOM     27  C   UNL     1      41.146  33.192  24.990  1.00  0.00     0.048 C 
ATOM     28  O   UNL     1      40.234  32.750  25.738  1.00  0.00    -0.550 OA
ATOM     29  O   UNL     1      42.100  34.037  25.543  1.00  0.00    -0.550 OA
ENDBRANCH   1  27
BRANCH   7  30
ATOM     30  C   UNL     1      37.955  32.290  21.484  1.00  0.00    -0.077 C 
ATOM     31  C   UNL     1      36.971  32.350  22.623  1.00  0.00     0.039 C 
ATOM     32  C   UNL     1      37.489  32.000  20.254  1.00  0.00     0.008 C 
ENDBRANCH   7  30
BRANCH  24  33
ATOM     33  O   UNL     1      39.047  22.254  25.192  1.00  0.00    -0.393 OA
ATOM     34  H   UNL     1      38.088  22.461  25.053  1.00  0.00     0.210 HD
ENDBRANCH  24  33
TORSDOF 3
ENDMDL
MODEL 2
REMARK VINA RESULT:    -6.217      5.685      8.600
REMARK INTER + INTRA:          -7.654
REMARK INTER:                  -7.102
REMARK INTRA:                  -0.551
REMARK UNBOUND:                -0.528
REMARK SMILES C=C(C)[C@H]1CC[C@]2(C(=O)[O-])CC[C@]3(C)[C@H](CC[C@H]4[C@@]5(C)CC[C@@H](O)C(C)(C)[C@H]5CC[C@]43C)[C@H]12
REMARK SMILES IDX 7 1 6 2 33 3 11 4 5 5 15 6 4 7 12 8 16 9 13 10 17 11 31 12
REMARK SMILES IDX 14 13 18 14 30 15 32 16 19 17 29 18 21 19 20 20 28 21 22 22
REMARK SMILES IDX 25 23 23 24 26 25 27 26 8 27 9 28 10 29 2 30 3 31 1 32 24 33
REMARK H PARENT 24 34
REMARK Flexibility Score: inf
ROOT
ATOM      1  C   UNL     1      49.479  27.691  20.608  1.00  0.00     0.014 C 
ATOM      2  C   UNL     1      51.016  27.442  20.788  1.00  0.00     0.014 C 
ATOM      3  C   UNL     1      48.842  26.283  20.815  1.00  0.00     0.012 C 
ATOM      4  C   UNL     1      48.994  28.763  21.641  1.00  0.00     0.014 C 
ATOM      5  C   UNL     1      51.226  25.959  21.082  1.00  0.00     0.009 C 
ATOM      6  C   UNL     1      47.379  26.321  21.353  1.00  0.00     0.000 C 
ATOM      7  C   UNL     1      49.881  25.417  21.553  1.00  0.00     0.018 C 
ATOM      8  C   UNL     1      47.505  28.678  22.062  1.00  0.00     0.008 C 
ATOM      9  C   UNL     1      46.709  24.962  21.488  1.00  0.00     0.005 C 
ATOM     10  C   UNL     1      47.048  27.262  22.566  1.00  0.00    -0.024 C 
ATOM     11  C   UNL     1      45.178  25.111  21.416  1.00  0.00     0.005 C 
ATOM     12  C   UNL     1      45.442  27.182  22.944  1.00  0.00    -0.024 C 
ATOM     13  C   UNL     1      47.893  26.929  23.835  1.00  0.00     0.012 C 
ATOM     14  C   UNL     1      44.610  26.542  21.757  1.00  0.00     0.002 C 
ATOM     15  C   UNL     1      45.138  26.268  24.173  1.00  0.00     0.008 C 
ATOM     16  C   UNL     1      44.950  28.603  23.346  1.00  0.00     0.012 C 
ATOM     17  C   UNL     1      43.019  26.535  21.922  1.00  0.00    -0.026 C 
ATOM     18  C   UNL     1      43.648  26.049  24.516  1.00  0.00     0.005 C 
ATOM     19  C   UNL     1      42.359  25.469  20.975  1.00  0.00     0.010 C 
ATOM     20  C   UNL     1      42.474  27.907  21.382  1.00  0.00     0.012 C 
ATOM     21  C   UNL     1      42.544  26.311  23.429  1.00  0.00     0.003 C 
ATOM     22  C   UNL     1      40.826  25.378  21.066  1.00  0.00     0.033 C 
ATOM     23  C   UNL     1      41.305  25.331  23.613  1.00  0.00    -0.006 C 
ATOM     24  C   UNL     1      40.263  25.604  22.486  1.00  0.00     0.120 C 
ATOM     25  C   UNL     1      41.725  23.824  23.616  1.00  0.00     0.014 C 
ATOM     26  C   UNL     1      40.610  25.639  24.971  1.00  0.00     0.014 C 
ENDROOT
BRANCH   1  27
ATOM     27  C   UNL     1      49.142  28.209  19.207  1.00  0.00     0.048 C 
ATOM     28  O   UNL     1      48.157  28.966  19.000  1.00  0.00    -0.550 OA
ATOM     29  O   UNL     1      49.905  27.808  18.118  1.00  0.00    -0.550 OA
ENDBRANCH   1  27
BRANCH   7  30
ATOM     30  C   UNL     1      49.749  23.913  21.320  1.00  0.00    -0.077 C 
ATOM     31  C   UNL     1      49.791  23.366  19.918  1.00  0.00     0.039 C 
ATOM     32  C   UNL     1      49.565  23.048  22.336  1.00  0.00     0.008 C 
ENDBRANCH   7  30
BRANCH  24  33
ATOM     33  O   UNL     1      39.116  24.808  22.669  1.00  0.00    -0.393 OA
ATOM     34  H   UNL     1      39.390  23.868  22.516  1.00  0.00     0.210 HD
ENDBRANCH  24  33
TORSDOF 3
ENDMDL
MODEL 3
REMARK VINA RESULT:    -6.180      1.049      1.263
REMARK INTER + INTRA:          -7.611
REMARK INTER:                  -6.844
REMARK INTRA:                  -0.767
REMARK UNBOUND:                -0.528
REMARK SMILES C=C(C)[C@H]1CC[C@]2(C(=O)[O-])CC[C@]3(C)[C@H](CC[C@H]4[C@@]5(C)CC[C@@H](O)C(C)(C)[C@H]5CC[C@]43C)[C@H]12
REMARK SMILES IDX 7 1 6 2 33 3 11 4 5 5 15 6 4 7 12 8 16 9 13 10 17 11 31 12
REMARK SMILES IDX 14 13 18 14 30 15 32 16 19 17 29 18 21 19 20 20 28 21 22 22
REMARK SMILES IDX 25 23 23 24 26 25 27 26 8 27 9 28 10 29 2 30 3 31 1 32 24 33
REMARK H PARENT 24 34
REMARK Flexibility Score: inf
ROOT
ATOM      1  C   UNL     1      42.282  32.960  23.402  1.00  0.00     0.014 C 
ATOM      2  C   UNL     1      42.582  34.195  22.485  1.00  0.00     0.014 C 
ATOM      3  C   UNL     1      40.981  32.349  22.798  1.00  0.00     0.012 C 
ATOM      4  C   UNL     1      43.506  31.984  23.387  1.00  0.00     0.014 C 
ATOM      5  C   UNL     1      41.493  34.270  21.417  1.00  0.00     0.009 C 
ATOM      6  C   UNL     1      40.828  30.816  23.039  1.00  0.00     0.000 C 
ATOM      7  C   UNL     1      40.848  32.889  21.361  1.00  0.00     0.018 C 
ATOM      8  C   UNL     1      43.190  30.492  23.664  1.00  0.00     0.008 C 
ATOM      9  C   UNL     1      39.529  30.212  22.528  1.00  0.00     0.005 C 
ATOM     10  C   UNL     1      42.061  29.884  22.757  1.00  0.00    -0.024 C 
ATOM     11  C   UNL     1      39.192  28.929  23.311  1.00  0.00     0.005 C 
ATOM     12  C   UNL     1      41.698  28.313  23.119  1.00  0.00    -0.024 C 
ATOM     13  C   UNL     1      42.558  29.971  21.281  1.00  0.00     0.012 C 
ATOM     14  C   UNL     1      40.405  28.224  24.031  1.00  0.00     0.002 C 
ATOM     15  C   UNL     1      41.353  27.451  21.864  1.00  0.00     0.008 C 
ATOM     16  C   UNL     1      42.950  27.643  23.757  1.00  0.00     0.012 C 
ATOM     17  C   UNL     1      40.018  26.773  24.583  1.00  0.00    -0.026 C 
ATOM     18  C   UNL     1      40.888  26.002  22.131  1.00  0.00     0.005 C 
ATOM     19  C   UNL     1      38.511  26.721  25.023  1.00  0.00     0.010 C 
ATOM     20  C   UNL     1      40.810  26.541  25.920  1.00  0.00     0.012 C 
ATOM     21  C   UNL     1      40.335  25.602  23.546  1.00  0.00     0.003 C 
ATOM     22  C   UNL     1      38.036  25.361  25.562  1.00  0.00     0.033 C 
ATOM     23  C   UNL     1      39.221  24.472  23.435  1.00  0.00    -0.006 C 
ATOM     24  C   UNL     1      38.678  24.145  24.859  1.00  0.00     0.120 C 
ATOM     25  C   UNL     1      38.048  24.876  22.482  1.00  0.00     0.014 C 
ATOM     26  C   UNL     1      39.868  23.172  22.876  1.00  0.00     0.014 C 
ENDROOT
BRANCH   1  27
ATOM     27  C   UNL     1      42.032  33.371  24.855  1.00  0.00     0.048 C 
ATOM     28  O   UNL     1      40.885  33.694  25.264  1.00  0.00    -0.550 OA
ATOM     29  O   UNL     1      43.093  33.440  25.749  1.00  0.00    -0.550 OA
ENDBRANCH   1  27
BRANCH   7  30
ATOM     30  C   UNL     1      39.420  32.939  20.821  1.00  0.00    -0.077 C 
ATOM     31  C   UNL     1      39.094  32.278  19.507  1.00  0.00     0.039 C 
ATOM     32  C   UNL     1      38.433  33.586  21.471  1.00  0.00     0.008 C 
ENDBRANCH   7  30
BRANCH  24  33
ATOM     33  O   UNL     1      37.747  23.090  24.803  1.00  0.00    -0.393 OA
ATOM     34  H   UNL     1      38.113  22.414  24.177  1.00  0.00     0.210 HD
ENDBRANCH  24  33
TORSDOF 3
ENDMDL
MODEL 4
REMARK VINA RESULT:    -5.984      7.204     10.663
REMARK INTER + INTRA:          -7.387
REMARK INTER:                  -6.734
REMARK INTRA:                  -0.653
REMARK UNBOUND:                -0.528
REMARK SMILES C=C(C)[C@H]1CC[C@]2(C(=O)[O-])CC[C@]3(C)[C@H](CC[C@H]4[C@@]5(C)CC[C@@H](O)C(C)(C)[C@H]5CC[C@]43C)[C@H]12
REMARK SMILES IDX 7 1 6 2 33 3 11 4 5 5 15 6 4 7 12 8 16 9 13 10 17 11 31 12
REMARK SMILES IDX 14 13 18 14 30 15 32 16 19 17 29 18 21 19 20 20 28 21 22 22
REMARK SMILES IDX 25 23 23 24 26 25 27 26 8 27 9 28 10 29 2 30 3 31 1 32 24 33
REMARK H PARENT 24 34
REMARK Flexibility Score: inf
ROOT
ATOM      1  C   UNL     1      45.104  25.598  22.281  1.00  0.00     0.014 C 
ATOM      2  C   UNL     1      44.057  25.621  23.447  1.00  0.00     0.014 C 
ATOM      3  C   UNL     1      45.123  27.068  21.762  1.00  0.00     0.012 C 
ATOM      4  C   UNL     1      46.486  25.100  22.823  1.00  0.00     0.014 C 
ATOM      5  C   UNL     1      43.515  27.042  23.571  1.00  0.00     0.009 C 
ATOM      6  C   UNL     1      46.476  27.496  21.116  1.00  0.00     0.000 C 
ATOM      7  C   UNL     1      44.521  27.950  22.872  1.00  0.00     0.018 C 
ATOM      8  C   UNL     1      47.737  25.600  22.058  1.00  0.00     0.008 C 
ATOM      9  C   UNL     1      46.493  28.900  20.531  1.00  0.00     0.005 C 
ATOM     10  C   UNL     1      47.811  27.158  21.871  1.00  0.00    -0.024 C 
ATOM     11  C   UNL     1      47.564  29.007  19.429  1.00  0.00     0.005 C 
ATOM     12  C   UNL     1      49.119  27.657  20.994  1.00  0.00    -0.024 C 
ATOM     13  C   UNL     1      47.874  27.790  23.296  1.00  0.00     0.012 C 
ATOM     14  C   UNL     1      48.720  27.936  19.487  1.00  0.00     0.002 C 
ATOM     15  C   UNL     1      49.724  29.005  21.496  1.00  0.00     0.008 C 
ATOM     16  C   UNL     1      50.256  26.604  21.146  1.00  0.00     0.012 C 
ATOM     17  C   UNL     1      49.916  28.286  18.484  1.00  0.00    -0.026 C 
ATOM     18  C   UNL     1      50.877  29.598  20.656  1.00  0.00     0.005 C 
ATOM     19  C   UNL     1      49.379  29.014  17.199  1.00  0.00     0.010 C 
ATOM     20  C   UNL     1      50.494  26.931  17.936  1.00  0.00     0.012 C 
ATOM     21  C   UNL     1      51.076  29.144  19.164  1.00  0.00     0.003 C 
ATOM     22  C   UNL     1      50.457  29.402  16.172  1.00  0.00     0.033 C 
ATOM     23  C   UNL     1      51.664  30.323  18.273  1.00  0.00    -0.006 C 
ATOM     24  C   UNL     1      51.801  29.832  16.800  1.00  0.00     0.120 C 
ATOM     25  C   UNL     1      50.790  31.619  18.339  1.00  0.00     0.014 C 
ATOM     26  C   UNL     1      53.092  30.678  18.777  1.00  0.00     0.014 C 
ENDROOT
BRANCH   1  27
ATOM     27  C   UNL     1      44.682  24.657  21.149  1.00  0.00     0.048 C 
ATOM     28  O   UNL     1      45.424  23.718  20.758  1.00  0.00    -0.550 OA
ATOM     29  O   UNL     1      43.472  24.857  20.496  1.00  0.00    -0.550 OA
ENDBRANCH   1  27
BRANCH   7  30
ATOM     30  C   UNL     1      43.886  29.253  22.387  1.00  0.00    -0.077 C 
ATOM     31  C   UNL     1      42.898  29.226  21.250  1.00  0.00     0.039 C 
ATOM     32  C   UNL     1      44.203  30.445  22.928  1.00  0.00     0.008 C 
ENDBRANCH   7  30
BRANCH  24  33
ATOM     33  O   UNL     1      52.395  30.827  16.000  1.00  0.00    -0.393 OA
ATOM     34  H   UNL     1      52.478  30.452  15.087  1.00  0.00     0.210 HD
ENDBRANCH  24  33
TORSDOF 3
ENDMDL
MODEL 5
REMARK VINA RESULT:    -5.937      1.716      2.374
REMARK INTER + INTRA:          -7.332
REMARK INTER:                  -6.578
REMARK INTRA:                  -0.754
REMARK UNBOUND:                -0.528
REMARK SMILES C=C(C)[C@H]1CC[C@]2(C(=O)[O-])CC[C@]3(C)[C@H](CC[C@H]4[C@@]5(C)CC[C@@H](O)C(C)(C)[C@H]5CC[C@]43C)[C@H]12
REMARK SMILES IDX 7 1 6 2 33 3 11 4 5 5 15 6 4 7 12 8 16 9 13 10 17 11 31 12
REMARK SMILES IDX 14 13 18 14 30 15 32 16 19 17 29 18 21 19 20 20 28 21 22 22
REMARK SMILES IDX 25 23 23 24 26 25 27 26 8 27 9 28 10 29 2 30 3 31 1 32 24 33
REMARK H PARENT 24 34
REMARK Flexibility Score: inf
ROOT
ATOM      1  C   UNL     1      44.130  31.492  22.486  1.00  0.00     0.014 C 
ATOM      2  C   UNL     1      44.448  32.699  21.539  1.00  0.00     0.014 C 
ATOM      3  C   UNL     1      42.587  31.310  22.360  1.00  0.00     0.012 C 
ATOM      4  C   UNL     1      44.954  30.238  22.037  1.00  0.00     0.014 C 
ATOM      5  C   UNL     1      43.138  33.171  20.913  1.00  0.00     0.009 C 
ATOM      6  C   UNL     1      42.096  29.853  22.619  1.00  0.00     0.000 C 
ATOM      7  C   UNL     1      42.149  32.020  21.065  1.00  0.00     0.018 C 
ATOM      8  C   UNL     1      44.340  28.859  22.386  1.00  0.00     0.008 C 
ATOM      9  C   UNL     1      40.587  29.666  22.579  1.00  0.00     0.005 C 
ATOM     10  C   UNL     1      42.853  28.668  21.917  1.00  0.00    -0.024 C 
ATOM     11  C   UNL     1      40.178  28.438  23.413  1.00  0.00     0.005 C 
ATOM     12  C   UNL     1      42.201  27.216  22.361  1.00  0.00    -0.024 C 
ATOM     13  C   UNL     1      42.842  28.784  20.360  1.00  0.00     0.012 C 
ATOM     14  C   UNL     1      41.309  27.367  23.661  1.00  0.00     0.002 C 
ATOM     15  C   UNL     1      41.236  26.616  21.290  1.00  0.00     0.008 C 
ATOM     16  C   UNL     1      43.351  26.178  22.518  1.00  0.00     0.012 C 
ATOM     17  C   UNL     1      40.732  26.016  24.293  1.00  0.00    -0.026 C 
ATOM     18  C   UNL     1      40.496  25.318  21.681  1.00  0.00     0.005 C 
ATOM     19  C   UNL     1      39.502  26.310  25.226  1.00  0.00     0.010 C 
ATOM     20  C   UNL     1      41.819  25.441  25.272  1.00  0.00     0.012 C 
ATOM     21  C   UNL     1      40.348  24.923  23.195  1.00  0.00     0.003 C 
ATOM     22  C   UNL     1      38.867  25.070  25.877  1.00  0.00     0.033 C 
ATOM     23  C   UNL     1      38.988  24.141  23.460  1.00  0.00    -0.006 C 
ATOM     24  C   UNL     1      38.873  23.813  24.979  1.00  0.00     0.120 C 
ATOM     25  C   UNL     1      37.732  24.938  22.976  1.00  0.00     0.014 C 
ATOM     26  C   UNL     1      39.024  22.787  22.695  1.00  0.00     0.014 C 
ENDROOT
BRANCH   1  27
ATOM     27  C   UNL     1      44.497  31.793  23.942  1.00  0.00     0.048 C 
ATOM     28  O   UNL     1      45.633  31.514  24.410  1.00  0.00    -0.550 OA
ATOM     29  O   UNL     1      43.551  32.346  24.795  1.00  0.00    -0.550 OA
ENDBRANCH   1  27
BRANCH   7  30
ATOM     30  C   UNL     1      40.698  32.498  21.051  1.00  0.00    -0.077 C 
ATOM     31  C   UNL     1      40.146  33.249  22.234  1.00  0.00     0.039 C 
ATOM     32  C   UNL     1      39.874  32.245  20.016  1.00  0.00     0.008 C 
ENDBRANCH   7  30
BRANCH  24  33
ATOM     33  O   UNL     1      37.718  23.049  25.234  1.00  0.00    -0.393 OA
ATOM     34  H   UNL     1      37.863  22.159  24.822  1.00  0.00     0.210 HD
ENDBRANCH  24  33
TORSDOF 3
ENDMDL
MODEL 6
REMARK VINA RESULT:    -5.913      2.087      3.854
REMARK INTER + INTRA:          -7.306
REMARK INTER:                  -6.579
REMARK INTRA:                  -0.727
REMARK UNBOUND:                -0.528
REMARK SMILES C=C(C)[C@H]1CC[C@]2(C(=O)[O-])CC[C@]3(C)[C@H](CC[C@H]4[C@@]5(C)CC[C@@H](O)C(C)(C)[C@H]5CC[C@]43C)[C@H]12
REMARK SMILES IDX 7 1 6 2 33 3 11 4 5 5 15 6 4 7 12 8 16 9 13 10 17 11 31 12
REMARK SMILES IDX 14 13 18 14 30 15 32 16 19 17 29 18 21 19 20 20 28 21 22 22
REMARK SMILES IDX 25 23 23 24 26 25 27 26 8 27 9 28 10 29 2 30 3 31 1 32 24 33
REMARK H PARENT 24 34
REMARK Flexibility Score: inf
ROOT
ATOM      1  C   UNL     1      39.664  32.729  21.673  1.00  0.00     0.014 C 
ATOM      2  C   UNL     1      40.188  34.205  21.666  1.00  0.00     0.014 C 
ATOM      3  C   UNL     1      40.963  31.867  21.711  1.00  0.00     0.012 C 
ATOM      4  C   UNL     1      38.722  32.510  22.904  1.00  0.00     0.014 C 
ATOM      5  C   UNL     1      41.714  34.169  21.698  1.00  0.00     0.009 C 
ATOM      6  C   UNL     1      40.780  30.473  22.384  1.00  0.00     0.000 C 
ATOM      7  C   UNL     1      42.101  32.782  22.201  1.00  0.00     0.018 C 
ATOM      8  C   UNL     1      38.634  31.060  23.444  1.00  0.00     0.008 C 
ATOM      9  C   UNL     1      42.013  29.582  22.363  1.00  0.00     0.005 C 
ATOM     10  C   UNL     1      40.021  30.393  23.757  1.00  0.00    -0.024 C 
ATOM     11  C   UNL     1      41.605  28.101  22.460  1.00  0.00     0.005 C 
ATOM     12  C   UNL     1      39.901  28.826  24.267  1.00  0.00    -0.024 C 
ATOM     13  C   UNL     1      40.702  31.247  24.872  1.00  0.00     0.012 C 
ATOM     14  C   UNL     1      40.181  27.818  23.076  1.00  0.00     0.002 C 
ATOM     15  C   UNL     1      40.951  28.446  25.357  1.00  0.00     0.008 C 
ATOM     16  C   UNL     1      38.510  28.621  24.934  1.00  0.00     0.012 C 
ATOM     17  C   UNL     1      39.956  26.265  23.387  1.00  0.00    -0.026 C 
ATOM     18  C   UNL     1      40.980  26.966  25.799  1.00  0.00     0.005 C 
ATOM     19  C   UNL     1      40.720  25.367  22.348  1.00  0.00     0.010 C 
ATOM     20  C   UNL     1      38.440  25.939  23.125  1.00  0.00     0.012 C 
ATOM     21  C   UNL     1      40.357  25.858  24.876  1.00  0.00     0.003 C 
ATOM     22  C   UNL     1      40.573  23.851  22.567  1.00  0.00     0.033 C 
ATOM     23  C   UNL     1      41.138  24.479  25.018  1.00  0.00    -0.006 C 
ATOM     24  C   UNL     1      40.507  23.431  24.052  1.00  0.00     0.120 C 
ATOM     25  C   UNL     1      42.670  24.625  24.741  1.00  0.00     0.014 C 
ATOM     26  C   UNL     1      40.959  23.940  26.466  1.00  0.00     0.014 C 
ENDROOT
BRANCH   1  27
ATOM     27  C   UNL     1      38.863  32.399  20.410  1.00  0.00     0.048 C 
ATOM     28  O   UNL     1      39.418  32.291  19.284  1.00  0.00    -0.550 OA
ATOM     29  O   UNL     1      37.484  32.255  20.481  1.00  0.00    -0.550 OA
ENDBRANCH   1  27
BRANCH   7  30
ATOM     30  C   UNL     1      43.500  32.371  21.746  1.00  0.00    -0.077 C 
ATOM     31  C   UNL     1      44.610  32.244  22.756  1.00  0.00     0.039 C 
ATOM     32  C   UNL     1      43.790  32.141  20.450  1.00  0.00     0.008 C 
ENDBRANCH   7  30
BRANCH  24  33
ATOM     33  O   UNL     1      41.124  22.176  24.212  1.00  0.00    -0.393 OA
ATOM     34  H   UNL     1      40.597  21.679  24.889  1.00  0.00     0.210 HD
ENDBRANCH  24  33
TORSDOF 3
ENDMDL
MODEL 7
REMARK VINA RESULT:    -5.902      6.831     10.890
REMARK INTER + INTRA:          -7.292
REMARK INTER:                  -6.732
REMARK INTRA:                  -0.560
REMARK UNBOUND:                -0.528
REMARK SMILES C=C(C)[C@H]1CC[C@]2(C(=O)[O-])CC[C@]3(C)[C@H](CC[C@H]4[C@@]5(C)CC[C@@H](O)C(C)(C)[C@H]5CC[C@]43C)[C@H]12
REMARK SMILES IDX 7 1 6 2 33 3 11 4 5 5 15 6 4 7 12 8 16 9 13 10 17 11 31 12
REMARK SMILES IDX 14 13 18 14 30 15 32 16 19 17 29 18 21 19 20 20 28 21 22 22
REMARK SMILES IDX 25 23 23 24 26 25 27 26 8 27 9 28 10 29 2 30 3 31 1 32 24 33
REMARK H PARENT 24 34
REMARK Flexibility Score: inf
ROOT
ATOM      1  C   UNL     1      50.573  25.943  21.331  1.00  0.00     0.014 C 
ATOM      2  C   UNL     1      52.075  25.513  21.448  1.00  0.00     0.014 C 
ATOM      3  C   UNL     1      50.402  27.023  22.442  1.00  0.00     0.012 C 
ATOM      4  C   UNL     1      50.287  26.472  19.885  1.00  0.00     0.014 C 
ATOM      5  C   UNL     1      52.714  26.317  22.577  1.00  0.00     0.009 C 
ATOM      6  C   UNL     1      49.288  28.071  22.143  1.00  0.00     0.000 C 
ATOM      7  C   UNL     1      51.811  27.524  22.810  1.00  0.00     0.018 C 
ATOM      8  C   UNL     1      49.133  27.497  19.751  1.00  0.00     0.008 C 
ATOM      9  C   UNL     1      49.048  29.088  23.248  1.00  0.00     0.005 C 
ATOM     10  C   UNL     1      49.238  28.730  20.717  1.00  0.00    -0.024 C 
ATOM     11  C   UNL     1      47.615  29.645  23.162  1.00  0.00     0.005 C 
ATOM     12  C   UNL     1      47.961  29.772  20.601  1.00  0.00    -0.024 C 
ATOM     13  C   UNL     1      50.555  29.487  20.357  1.00  0.00     0.012 C 
ATOM     14  C   UNL     1      46.909  29.513  21.758  1.00  0.00     0.002 C 
ATOM     15  C   UNL     1      48.365  31.270  20.767  1.00  0.00     0.008 C 
ATOM     16  C   UNL     1      47.349  29.658  19.174  1.00  0.00     0.012 C 
ATOM     17  C   UNL     1      45.548  30.350  21.686  1.00  0.00    -0.026 C 
ATOM     18  C   UNL     1      47.211  32.296  20.788  1.00  0.00     0.005 C 
ATOM     19  C   UNL     1      44.839  30.394  23.088  1.00  0.00     0.010 C 
ATOM     20  C   UNL     1      44.541  29.553  20.779  1.00  0.00     0.012 C 
ATOM     21  C   UNL     1      45.748  31.827  21.118  1.00  0.00     0.003 C 
ATOM     22  C   UNL     1      43.521  31.186  23.127  1.00  0.00     0.033 C 
ATOM     23  C   UNL     1      44.931  32.963  21.874  1.00  0.00    -0.006 C 
ATOM     24  C   UNL     1      43.506  32.431  22.214  1.00  0.00     0.120 C 
ATOM     25  C   UNL     1      45.652  33.462  23.170  1.00  0.00     0.014 C 
ATOM     26  C   UNL     1      44.756  34.182  20.923  1.00  0.00     0.014 C 
ENDROOT
BRANCH   1  27
ATOM     27  C   UNL     1      49.619  24.775  21.596  1.00  0.00     0.048 C 
ATOM     28  O   UNL     1      48.375  24.945  21.699  1.00  0.00    -0.550 OA
ATOM     29  O   UNL     1      50.125  23.493  21.775  1.00  0.00    -0.550 OA
ENDBRANCH   1  27
BRANCH   7  30
ATOM     30  C   UNL     1      51.947  28.084  24.225  1.00  0.00    -0.077 C 
ATOM     31  C   UNL     1      52.406  29.504  24.428  1.00  0.00     0.039 C 
ATOM     32  C   UNL     1      51.695  27.334  25.316  1.00  0.00     0.008 C 
ENDBRANCH   7  30
BRANCH  24  33
ATOM     33  O   UNL     1      42.730  33.442  22.812  1.00  0.00    -0.393 OA
ATOM     34  H   UNL     1      41.979  33.634  22.194  1.00  0.00     0.210 HD
ENDBRANCH  24  33
TORSDOF 3
ENDMDL
MODEL 8
REMARK VINA RESULT:    -5.807      3.360      8.031
REMARK INTER + INTRA:          -7.184
REMARK INTER:                  -6.470
REMARK INTRA:                  -0.715
REMARK UNBOUND:                -0.528
REMARK SMILES C=C(C)[C@H]1CC[C@]2(C(=O)[O-])CC[C@]3(C)[C@H](CC[C@H]4[C@@]5(C)CC[C@@H](O)C(C)(C)[C@H]5CC[C@]43C)[C@H]12
REMARK SMILES IDX 7 1 6 2 33 3 11 4 5 5 15 6 4 7 12 8 16 9 13 10 17 11 31 12
REMARK SMILES IDX 14 13 18 14 30 15 32 16 19 17 29 18 21 19 20 20 28 21 22 22
REMARK SMILES IDX 25 23 23 24 26 25 27 26 8 27 9 28 10 29 2 30 3 31 1 32 24 33
REMARK H PARENT 24 34
REMARK Flexibility Score: inf
ROOT
ATOM      1  C   UNL     1      39.094  24.375  24.338  1.00  0.00     0.014 C 
ATOM      2  C   UNL     1      38.165  23.154  24.024  1.00  0.00     0.014 C 
ATOM      3  C   UNL     1      40.478  23.956  23.757  1.00  0.00     0.012 C 
ATOM      4  C   UNL     1      38.500  25.670  23.688  1.00  0.00     0.014 C 
ATOM      5  C   UNL     1      38.996  22.097  23.300  1.00  0.00     0.009 C 
ATOM      6  C   UNL     1      41.373  25.155  23.321  1.00  0.00     0.000 C 
ATOM      7  C   UNL     1      40.224  22.817  22.752  1.00  0.00     0.018 C 
ATOM      8  C   UNL     1      39.520  26.780  23.328  1.00  0.00     0.008 C 
ATOM      9  C   UNL     1      42.760  24.775  22.824  1.00  0.00     0.005 C 
ATOM     10  C   UNL     1      40.731  26.296  22.452  1.00  0.00    -0.024 C 
ATOM     11  C   UNL     1      43.735  25.953  23.006  1.00  0.00     0.005 C 
ATOM     12  C   UNL     1      41.837  27.484  22.141  1.00  0.00    -0.024 C 
ATOM     13  C   UNL     1      40.145  25.771  21.105  1.00  0.00     0.012 C 
ATOM     14  C   UNL     1      43.075  27.380  23.125  1.00  0.00     0.002 C 
ATOM     15  C   UNL     1      42.462  27.390  20.714  1.00  0.00     0.008 C 
ATOM     16  C   UNL     1      41.119  28.864  22.196  1.00  0.00     0.012 C 
ATOM     17  C   UNL     1      44.158  28.554  23.037  1.00  0.00    -0.026 C 
ATOM     18  C   UNL     1      43.590  28.395  20.389  1.00  0.00     0.005 C 
ATOM     19  C   UNL     1      45.529  28.104  23.659  1.00  0.00     0.010 C 
ATOM     20  C   UNL     1      43.680  29.718  23.980  1.00  0.00     0.012 C 
ATOM     21  C   UNL     1      44.373  29.102  21.554  1.00  0.00     0.003 C 
ATOM     22  C   UNL     1      46.643  29.164  23.615  1.00  0.00     0.033 C 
ATOM     23  C   UNL     1      45.883  29.389  21.147  1.00  0.00    -0.006 C 
ATOM     24  C   UNL     1      46.621  30.050  22.350  1.00  0.00     0.120 C 
ATOM     25  C   UNL     1      46.637  28.099  20.684  1.00  0.00     0.014 C 
ATOM     26  C   UNL     1      45.908  30.409  19.972  1.00  0.00     0.014 C 
ENDROOT
BRANCH   1  27
ATOM     27  C   UNL     1      39.221  24.627  25.843  1.00  0.00     0.048 C 
ATOM     28  O   UNL     1      38.505  25.478  26.435  1.00  0.00    -0.550 OA
ATOM     29  O   UNL     1      40.175  23.940  26.583  1.00  0.00    -0.550 OA
ENDBRANCH   1  27
BRANCH   7  30
ATOM     30  C   UNL     1      41.403  21.869  22.539  1.00  0.00    -0.077 C 
ATOM     31  C   UNL     1      42.045  21.766  21.181  1.00  0.00     0.039 C 
ATOM     32  C   UNL     1      41.879  21.089  23.529  1.00  0.00     0.008 C 
ENDBRANCH   7  30
BRANCH  24  33
ATOM     33  O   UNL     1      47.940  30.392  21.995  1.00  0.00    -0.393 OA
ATOM     34  H   UNL     1      48.286  29.656  21.428  1.00  0.00     0.210 HD
ENDBRANCH  24  33
TORSDOF 3
ENDMDL
MODEL 9
REMARK VINA RESULT:    -5.756     10.302     12.853
REMARK INTER + INTRA:          -7.125
REMARK INTER:                  -6.390
REMARK INTRA:                  -0.735
REMARK UNBOUND:                -0.528
REMARK SMILES C=C(C)[C@H]1CC[C@]2(C(=O)[O-])CC[C@]3(C)[C@H](CC[C@H]4[C@@]5(C)CC[C@@H](O)C(C)(C)[C@H]5CC[C@]43C)[C@H]12
REMARK SMILES IDX 7 1 6 2 33 3 11 4 5 5 15 6 4 7 12 8 16 9 13 10 17 11 31 12
REMARK SMILES IDX 14 13 18 14 30 15 32 16 19 17 29 18 21 19 20 20 28 21 22 22
REMARK SMILES IDX 25 23 23 24 26 25 27 26 8 27 9 28 10 29 2 30 3 31 1 32 24 33
REMARK H PARENT 24 34
REMARK Flexibility Score: inf
ROOT
ATOM      1  C   UNL     1      51.949  27.988  15.835  1.00  0.00     0.014 C 
ATOM      2  C   UNL     1      51.823  28.691  14.440  1.00  0.00     0.014 C 
ATOM      3  C   UNL     1      52.216  29.162  16.826  1.00  0.00     0.012 C 
ATOM      4  C   UNL     1      50.639  27.187  16.141  1.00  0.00     0.014 C 
ATOM      5  C   UNL     1      52.014  30.191  14.644  1.00  0.00     0.009 C 
ATOM      6  C   UNL     1      51.726  28.888  18.280  1.00  0.00     0.000 C 
ATOM      7  C   UNL     1      51.770  30.459  16.125  1.00  0.00     0.018 C 
ATOM      8  C   UNL     1      50.300  26.983  17.639  1.00  0.00     0.008 C 
ATOM      9  C   UNL     1      52.046  29.986  19.283  1.00  0.00     0.005 C 
ATOM     10  C   UNL     1      50.283  28.303  18.491  1.00  0.00    -0.024 C 
ATOM     11  C   UNL     1      52.100  29.409  20.710  1.00  0.00     0.005 C 
ATOM     12  C   UNL     1      49.986  28.050  20.097  1.00  0.00    -0.024 C 
ATOM     13  C   UNL     1      49.168  29.220  17.899  1.00  0.00     0.012 C 
ATOM     14  C   UNL     1      51.333  28.049  20.931  1.00  0.00     0.002 C 
ATOM     15  C   UNL     1      49.120  29.171  20.751  1.00  0.00     0.008 C 
ATOM     16  C   UNL     1      49.163  26.737  20.253  1.00  0.00     0.012 C 
ATOM     17  C   UNL     1      51.214  27.669  22.480  1.00  0.00    -0.026 C 
ATOM     18  C   UNL     1      48.897  29.066  22.276  1.00  0.00     0.005 C 
ATOM     19  C   UNL     1      52.466  28.177  23.283  1.00  0.00     0.010 C 
ATOM     20  C   UNL     1      51.301  26.104  22.598  1.00  0.00     0.012 C 
ATOM     21  C   UNL     1      49.868  28.197  23.155  1.00  0.00     0.003 C 
ATOM     22  C   UNL     1      52.442  27.868  24.789  1.00  0.00     0.033 C 
ATOM     23  C   UNL     1      50.033  28.808  24.614  1.00  0.00    -0.006 C 
ATOM     24  C   UNL     1      51.037  27.934  25.426  1.00  0.00     0.120 C 
ATOM     25  C   UNL     1      50.502  30.301  24.592  1.00  0.00     0.014 C 
ATOM     26  C   UNL     1      48.664  28.745  25.350  1.00  0.00     0.014 C 
ENDROOT
BRANCH   1  27
ATOM     27  C   UNL     1      53.118  27.001  15.877  1.00  0.00     0.048 C 
ATOM     28  O   UNL     1      54.315  27.394  15.914  1.00  0.00    -0.550 OA
ATOM     29  O   UNL     1      52.875  25.635  15.829  1.00  0.00    -0.550 OA
ENDBRANCH   1  27
BRANCH   7  30
ATOM     30  C   UNL     1      52.472  31.727  16.608  1.00  0.00    -0.077 C 
ATOM     31  C   UNL     1      53.976  31.766  16.684  1.00  0.00     0.039 C 
ATOM     32  C   UNL     1      51.786  32.818  17.001  1.00  0.00     0.008 C 
ENDBRANCH   7  30
BRANCH  24  33
ATOM     33  O   UNL     1      51.143  28.402  26.750  1.00  0.00    -0.393 OA
ATOM     34  H   UNL     1      51.916  27.937  27.159  1.00  0.00     0.210 HD
ENDBRANCH  24  33
TORSDOF 3
ENDMDL
