MODEL 1
REMARK VINA RESULT:    -7.685      0.000      0.000
REMARK INTER + INTRA:          -8.341
REMARK INTER:                  -8.359
REMARK INTRA:                   0.018
REMARK UNBOUND:                 0.018
REMARK SMILES COc1cc2ccc(=O)oc2cc1O
REMARK SMILES IDX 3 1 13 2 12 3 11 4 5 5 4 6 6 7 7 8 8 9 9 10 10 11 2 12 1 13
REMARK SMILES IDX 14 14
REMARK H PARENT 14 15
REMARK Flexibility Score: inf
ROOT
ATOM      1  C   UNL     1      34.244  26.372  20.624  1.00  0.00     0.161 A 
ATOM      2  C   UNL     1      33.690  27.645  20.384  1.00  0.00     0.161 A 
ATOM      3  C   UNL     1      33.258  27.994  19.100  1.00  0.00     0.098 A 
ATOM      4  C   UNL     1      33.371  27.088  18.044  1.00  0.00     0.142 A 
ATOM      5  C   UNL     1      33.926  25.812  18.274  1.00  0.00     0.022 A 
ATOM      6  C   UNL     1      34.359  25.456  19.558  1.00  0.00     0.062 A 
ATOM      7  C   UNL     1      34.027  24.925  17.196  1.00  0.00     0.019 A 
ATOM      8  C   UNL     1      33.581  25.324  15.936  1.00  0.00     0.094 A 
ATOM      9  C   UNL     1      33.042  26.606  15.784  1.00  0.00     0.336 A 
ATOM     10  O   UNL     1      32.635  26.986  14.655  1.00  0.00    -0.246 OA
ATOM     11  O   UNL     1      32.958  27.430  16.825  1.00  0.00    -0.423 OA
ENDROOT
BRANCH   1  12
ATOM     12  O   UNL     1      34.667  26.054  21.926  1.00  0.00    -0.493 OA
ATOM     13  C   UNL     1      35.885  26.502  22.511  1.00  0.00     0.278 C 
ENDBRANCH   1  12
BRANCH   2  14
ATOM     14  O   UNL     1      33.559  28.578  21.413  1.00  0.00    -0.504 OA
ATOM     15  H   UNL     1      32.669  28.996  21.653  1.00  0.00     0.293 HD
ENDBRANCH   2  14
TORSDOF 2
ENDMDL
MODEL 2
REMARK VINA RESULT:    -7.345      1.362      5.417
REMARK INTER + INTRA:          -7.971
REMARK INTER:                  -7.925
REMARK INTRA:                  -0.046
REMARK UNBOUND:                 0.018
REMARK SMILES COc1cc2ccc(=O)oc2cc1O
REMARK SMILES IDX 3 1 13 2 12 3 11 4 5 5 4 6 6 7 7 8 8 9 9 10 10 11 2 12 1 13
REMARK SMILES IDX 14 14
REMARK H PARENT 14 15
REMARK Flexibility Score: inf
ROOT
ATOM      1  C   UNL     1      33.364  26.502  17.500  1.00  0.00     0.161 A 
ATOM      2  C   UNL     1      33.982  25.254  17.713  1.00  0.00     0.161 A 
ATOM      3  C   UNL     1      34.459  24.912  18.984  1.00  0.00     0.098 A 
ATOM      4  C   UNL     1      34.329  25.801  20.052  1.00  0.00     0.142 A 
ATOM      5  C   UNL     1      33.713  27.054  19.848  1.00  0.00     0.022 A 
ATOM      6  C   UNL     1      33.233  27.402  18.578  1.00  0.00     0.062 A 
ATOM      7  C   UNL     1      33.597  27.924  20.938  1.00  0.00     0.019 A 
ATOM      8  C   UNL     1      34.090  27.533  22.182  1.00  0.00     0.094 A 
ATOM      9  C   UNL     1      34.689  26.275  22.309  1.00  0.00     0.336 A 
ATOM     10  O   UNL     1      35.140  25.904  23.423  1.00  0.00    -0.246 OA
ATOM     11  O   UNL     1      34.786  25.467  21.256  1.00  0.00    -0.423 OA
ENDROOT
BRANCH   1  12
ATOM     12  O   UNL     1      32.897  26.814  16.212  1.00  0.00    -0.493 OA
ATOM     13  C   UNL     1      32.827  28.131  15.675  1.00  0.00     0.278 C 
ENDBRANCH   1  12
BRANCH   2  14
ATOM     14  O   UNL     1      34.130  24.338  16.672  1.00  0.00    -0.504 OA
ATOM     15  H   UNL     1      33.718  23.414  16.703  1.00  0.00     0.293 HD
ENDBRANCH   2  14
TORSDOF 2
ENDMDL
MODEL 3
REMARK VINA RESULT:    -7.202      1.210      2.395
REMARK INTER + INTRA:          -7.816
REMARK INTER:                  -7.772
REMARK INTRA:                  -0.043
REMARK UNBOUND:                 0.018
REMARK SMILES COc1cc2ccc(=O)oc2cc1O
REMARK SMILES IDX 3 1 13 2 12 3 11 4 5 5 4 6 6 7 7 8 8 9 9 10 10 11 2 12 1 13
REMARK SMILES IDX 14 14
REMARK H PARENT 14 15
REMARK Flexibility Score: inf
ROOT
ATOM      1  C   UNL     1      34.177  26.402  20.584  1.00  0.00     0.161 A 
ATOM      2  C   UNL     1      34.477  25.240  19.847  1.00  0.00     0.161 A 
ATOM      3  C   UNL     1      34.224  25.193  18.471  1.00  0.00     0.098 A 
ATOM      4  C   UNL     1      33.671  26.295  17.815  1.00  0.00     0.142 A 
ATOM      5  C   UNL     1      33.367  27.463  18.545  1.00  0.00     0.022 A 
ATOM      6  C   UNL     1      33.619  27.516  19.922  1.00  0.00     0.062 A 
ATOM      7  C   UNL     1      32.814  28.551  17.860  1.00  0.00     0.019 A 
ATOM      8  C   UNL     1      32.581  28.451  16.488  1.00  0.00     0.094 A 
ATOM      9  C   UNL     1      32.909  27.260  15.831  1.00  0.00     0.336 A 
ATOM     10  O   UNL     1      32.707  27.150  14.594  1.00  0.00    -0.246 OA
ATOM     11  O   UNL     1      33.433  26.241  16.506  1.00  0.00    -0.423 OA
ENDROOT
BRANCH   1  12
ATOM     12  O   UNL     1      34.444  26.416  21.963  1.00  0.00    -0.493 OA
ATOM     13  C   UNL     1      34.140  27.500  22.834  1.00  0.00     0.278 C 
ENDBRANCH   1  12
BRANCH   2  14
ATOM     14  O   UNL     1      35.030  24.119  20.466  1.00  0.00    -0.504 OA
ATOM     15  H   UNL     1      35.844  23.644  20.095  1.00  0.00     0.293 HD
ENDBRANCH   2  14
TORSDOF 2
ENDMDL
MODEL 4
REMARK VINA RESULT:    -7.193      1.503      2.160
REMARK INTER + INTRA:          -7.805
REMARK INTER:                  -7.759
REMARK INTRA:                  -0.047
REMARK UNBOUND:                 0.018
REMARK SMILES COc1cc2ccc(=O)oc2cc1O
REMARK SMILES IDX 3 1 13 2 12 3 11 4 5 5 4 6 6 7 7 8 8 9 9 10 10 11 2 12 1 13
REMARK SMILES IDX 14 14
REMARK H PARENT 14 15
REMARK Flexibility Score: inf
ROOT
ATOM      1  C   UNL     1      34.584  24.516  19.734  1.00  0.00     0.161 A 
ATOM      2  C   UNL     1      34.353  25.758  20.358  1.00  0.00     0.161 A 
ATOM      3  C   UNL     1      33.862  26.838  19.616  1.00  0.00     0.098 A 
ATOM      4  C   UNL     1      33.597  26.698  18.253  1.00  0.00     0.142 A 
ATOM      5  C   UNL     1      33.826  25.459  17.619  1.00  0.00     0.022 A 
ATOM      6  C   UNL     1      34.317  24.374  18.357  1.00  0.00     0.062 A 
ATOM      7  C   UNL     1      33.551  25.350  16.251  1.00  0.00     0.019 A 
ATOM      8  C   UNL     1      33.063  26.458  15.559  1.00  0.00     0.094 A 
ATOM      9  C   UNL     1      32.861  27.655  16.255  1.00  0.00     0.336 A 
ATOM     10  O   UNL     1      32.422  28.666  15.649  1.00  0.00    -0.246 OA
ATOM     11  O   UNL     1      33.131  27.732  17.555  1.00  0.00    -0.423 OA
ENDROOT
BRANCH   1  12
ATOM     12  O   UNL     1      35.078  23.452  20.508  1.00  0.00    -0.493 OA
ATOM     13  C   UNL     1      34.713  22.088  20.331  1.00  0.00     0.278 C 
ENDBRANCH   1  12
BRANCH   2  14
ATOM     14  O   UNL     1      34.606  25.937  21.718  1.00  0.00    -0.504 OA
ATOM     15  H   UNL     1      34.513  26.839  22.170  1.00  0.00     0.293 HD
ENDBRANCH   2  14
TORSDOF 2
ENDMDL
MODEL 5
REMARK VINA RESULT:    -7.166      1.160      4.970
REMARK INTER + INTRA:          -7.777
REMARK INTER:                  -7.733
REMARK INTRA:                  -0.043
REMARK UNBOUND:                 0.018
REMARK SMILES COc1cc2ccc(=O)oc2cc1O
REMARK SMILES IDX 3 1 13 2 12 3 11 4 5 5 4 6 6 7 7 8 8 9 9 10 10 11 2 12 1 13
REMARK SMILES IDX 14 14
REMARK H PARENT 14 15
REMARK Flexibility Score: inf
ROOT
ATOM      1  C   UNL     1      33.252  26.973  17.706  1.00  0.00     0.161 A 
ATOM      2  C   UNL     1      32.710  28.149  18.260  1.00  0.00     0.161 A 
ATOM      3  C   UNL     1      32.852  28.414  19.628  1.00  0.00     0.098 A 
ATOM      4  C   UNL     1      33.530  27.517  20.455  1.00  0.00     0.142 A 
ATOM      5  C   UNL     1      34.075  26.336  19.910  1.00  0.00     0.022 A 
ATOM      6  C   UNL     1      33.936  26.066  18.541  1.00  0.00     0.062 A 
ATOM      7  C   UNL     1      34.749  25.456  20.764  1.00  0.00     0.019 A 
ATOM      8  C   UNL     1      34.861  25.769  22.119  1.00  0.00     0.094 A 
ATOM      9  C   UNL     1      34.294  26.959  22.589  1.00  0.00     0.336 A 
ATOM     10  O   UNL     1      34.385  27.258  23.807  1.00  0.00    -0.246 OA
ATOM     11  O   UNL     1      33.659  27.777  21.754  1.00  0.00    -0.423 OA
ENDROOT
BRANCH   1  12
ATOM     12  O   UNL     1      33.092  26.738  16.330  1.00  0.00    -0.493 OA
ATOM     13  C   UNL     1      33.627  25.617  15.634  1.00  0.00     0.278 C 
ENDBRANCH   1  12
BRANCH   2  14
ATOM     14  O   UNL     1      32.027  29.070  17.466  1.00  0.00    -0.504 OA
ATOM     15  H   UNL     1      31.440  29.794  17.862  1.00  0.00     0.293 HD
ENDBRANCH   2  14
TORSDOF 2
ENDMDL
MODEL 6
REMARK VINA RESULT:    -7.094      1.831      5.085
REMARK INTER + INTRA:          -7.699
REMARK INTER:                  -7.647
REMARK INTRA:                  -0.052
REMARK UNBOUND:                 0.018
REMARK SMILES COc1cc2ccc(=O)oc2cc1O
REMARK SMILES IDX 3 1 13 2 12 3 11 4 5 5 4 6 6 7 7 8 8 9 9 10 10 11 2 12 1 13
REMARK SMILES IDX 14 14
REMARK H PARENT 14 15
REMARK Flexibility Score: inf
ROOT
ATOM      1  C   UNL     1      32.870  27.979  16.660  1.00  0.00     0.161 A 
ATOM      2  C   UNL     1      33.097  26.773  15.968  1.00  0.00     0.161 A 
ATOM      3  C   UNL     1      33.589  25.653  16.649  1.00  0.00     0.098 A 
ATOM      4  C   UNL     1      33.861  25.719  18.017  1.00  0.00     0.142 A 
ATOM      5  C   UNL     1      33.637  26.922  18.717  1.00  0.00     0.022 A 
ATOM      6  C   UNL     1      33.144  28.046  18.041  1.00  0.00     0.062 A 
ATOM      7  C   UNL     1      33.918  26.957  20.088  1.00  0.00     0.019 A 
ATOM      8  C   UNL     1      34.407  25.812  20.717  1.00  0.00     0.094 A 
ATOM      9  C   UNL     1      34.604  24.654  19.956  1.00  0.00     0.336 A 
ATOM     10  O   UNL     1      35.045  23.611  20.505  1.00  0.00    -0.246 OA
ATOM     11  O   UNL     1      34.329  24.648  18.655  1.00  0.00    -0.423 OA
ENDROOT
BRANCH   1  12
ATOM     12  O   UNL     1      32.376  29.084  15.947  1.00  0.00    -0.493 OA
ATOM     13  C   UNL     1      31.275  29.886  16.361  1.00  0.00     0.278 C 
ENDBRANCH   1  12
BRANCH   2  14
ATOM     14  O   UNL     1      32.839  26.667  14.602  1.00  0.00    -0.504 OA
ATOM     15  H   UNL     1      31.897  26.645  14.231  1.00  0.00     0.293 HD
ENDBRANCH   2  14
TORSDOF 2
ENDMDL
MODEL 7
REMARK VINA RESULT:    -7.018      2.150      3.050
REMARK INTER + INTRA:          -7.616
REMARK INTER:                  -7.551
REMARK INTRA:                  -0.065
REMARK UNBOUND:                 0.018
REMARK SMILES COc1cc2ccc(=O)oc2cc1O
REMARK SMILES IDX 3 1 13 2 12 3 11 4 5 5 4 6 6 7 7 8 8 9 9 10 10 11 2 12 1 13
REMARK SMILES IDX 14 14
REMARK H PARENT 14 15
REMARK Flexibility Score: inf
ROOT
ATOM      1  C   UNL     1      34.430  27.571  21.230  1.00  0.00     0.161 A 
ATOM      2  C   UNL     1      35.165  26.450  21.661  1.00  0.00     0.161 A 
ATOM      3  C   UNL     1      35.133  25.261  20.923  1.00  0.00     0.098 A 
ATOM      4  C   UNL     1      34.374  25.173  19.756  1.00  0.00     0.142 A 
ATOM      5  C   UNL     1      33.633  26.290  19.316  1.00  0.00     0.022 A 
ATOM      6  C   UNL     1      33.662  27.483  20.051  1.00  0.00     0.062 A 
ATOM      7  C   UNL     1      32.881  26.171  18.142  1.00  0.00     0.019 A 
ATOM      8  C   UNL     1      32.884  24.963  17.446  1.00  0.00     0.094 A 
ATOM      9  C   UNL     1      33.643  23.898  17.942  1.00  0.00     0.336 A 
ATOM     10  O   UNL     1      33.659  22.799  17.328  1.00  0.00    -0.246 OA
ATOM     11  O   UNL     1      34.349  24.037  19.061  1.00  0.00    -0.423 OA
ENDROOT
BRANCH   1  12
ATOM     12  O   UNL     1      34.484  28.749  21.994  1.00  0.00    -0.493 OA
ATOM     13  C   UNL     1      35.274  29.888  21.669  1.00  0.00     0.278 C 
ENDBRANCH   1  12
BRANCH   2  14
ATOM     14  O   UNL     1      35.936  26.498  22.822  1.00  0.00    -0.504 OA
ATOM     15  H   UNL     1      36.651  25.811  23.025  1.00  0.00     0.293 HD
ENDBRANCH   2  14
TORSDOF 2
ENDMDL
MODEL 8
REMARK VINA RESULT:    -6.780      1.760      4.538
REMARK INTER + INTRA:          -7.357
REMARK INTER:                  -7.313
REMARK INTRA:                  -0.044
REMARK UNBOUND:                 0.018
REMARK SMILES COc1cc2ccc(=O)oc2cc1O
REMARK SMILES IDX 3 1 13 2 12 3 11 4 5 5 4 6 6 7 7 8 8 9 9 10 10 11 2 12 1 13
REMARK SMILES IDX 14 14
REMARK H PARENT 14 15
REMARK Flexibility Score: inf
ROOT
ATOM      1  C   UNL     1      33.647  24.672  17.785  1.00  0.00     0.161 A 
ATOM      2  C   UNL     1      33.246  25.731  16.946  1.00  0.00     0.161 A 
ATOM      3  C   UNL     1      33.196  27.040  17.439  1.00  0.00     0.098 A 
ATOM      4  C   UNL     1      33.542  27.311  18.764  1.00  0.00     0.142 A 
ATOM      5  C   UNL     1      33.945  26.258  19.612  1.00  0.00     0.022 A 
ATOM      6  C   UNL     1      33.997  24.945  19.124  1.00  0.00     0.062 A 
ATOM      7  C   UNL     1      34.286  26.560  20.935  1.00  0.00     0.019 A 
ATOM      8  C   UNL     1      34.218  27.882  21.375  1.00  0.00     0.094 A 
ATOM      9  C   UNL     1      33.810  28.874  20.477  1.00  0.00     0.336 A 
ATOM     10  O   UNL     1      33.743  30.073  20.854  1.00  0.00    -0.246 OA
ATOM     11  O   UNL     1      33.491  28.559  19.224  1.00  0.00    -0.423 OA
ENDROOT
BRANCH   1  12
ATOM     12  O   UNL     1      33.686  23.370  17.258  1.00  0.00    -0.493 OA
ATOM     13  C   UNL     1      33.671  22.182  18.042  1.00  0.00     0.278 C 
ENDBRANCH   1  12
BRANCH   2  14
ATOM     14  O   UNL     1      32.893  25.501  15.617  1.00  0.00    -0.504 OA
ATOM     15  H   UNL     1      33.545  25.120  14.943  1.00  0.00     0.293 HD
ENDBRANCH   2  14
TORSDOF 2
ENDMDL
MODEL 9
REMARK VINA RESULT:    -6.293      2.045      3.438
REMARK INTER + INTRA:          -6.827
REMARK INTER:                  -6.781
REMARK INTRA:                  -0.045
REMARK UNBOUND:                 0.018
REMARK SMILES COc1cc2ccc(=O)oc2cc1O
REMARK SMILES IDX 3 1 13 2 12 3 11 4 5 5 4 6 6 7 7 8 8 9 9 10 10 11 2 12 1 13
REMARK SMILES IDX 14 14
REMARK H PARENT 14 15
REMARK Flexibility Score: inf
ROOT
ATOM      1  C   UNL     1      33.885  25.211  18.753  1.00  0.00     0.161 A 
ATOM      2  C   UNL     1      33.705  24.899  17.391  1.00  0.00     0.161 A 
ATOM      3  C   UNL     1      33.221  25.868  16.505  1.00  0.00     0.098 A 
ATOM      4  C   UNL     1      32.911  27.151  16.959  1.00  0.00     0.142 A 
ATOM      5  C   UNL     1      33.088  27.473  18.321  1.00  0.00     0.022 A 
ATOM      6  C   UNL     1      33.572  26.506  19.213  1.00  0.00     0.062 A 
ATOM      7  C   UNL     1      32.769  28.767  18.747  1.00  0.00     0.019 A 
ATOM      8  C   UNL     1      32.290  29.694  17.822  1.00  0.00     0.094 A 
ATOM      9  C   UNL     1      32.140  29.303  16.487  1.00  0.00     0.336 A 
ATOM     10  O   UNL     1      31.709  30.125  15.637  1.00  0.00    -0.246 OA
ATOM     11  O   UNL     1      32.450  28.066  16.109  1.00  0.00    -0.423 OA
ENDROOT
BRANCH   1  12
ATOM     12  O   UNL     1      34.373  24.214  19.615  1.00  0.00    -0.493 OA
ATOM     13  C   UNL     1      35.124  24.467  20.798  1.00  0.00     0.278 C 
ENDBRANCH   1  12
BRANCH   2  14
ATOM     14  O   UNL     1      34.003  23.629  16.898  1.00  0.00    -0.504 OA
ATOM     15  H   UNL     1      34.011  22.808  17.491  1.00  0.00     0.293 HD
ENDBRANCH   2  14
TORSDOF 2
ENDMDL
