MODEL 1
REMARK VINA RESULT:    -6.184      0.000      0.000
REMARK INTER + INTRA:          -7.515
REMARK INTER:                  -7.269
REMARK INTRA:                  -0.246
REMARK UNBOUND:                -0.246
REMARK SMILES COc1cc2ccc(=O)oc2c(OC)c1OC
REMARK SMILES IDX 3 1 15 2 12 3 11 4 5 5 4 6 6 7 7 8 8 9 9 10 10 11 2 12 1 13
REMARK SMILES IDX 16 14 17 15 13 16 14 17
REMARK H PARENT
REMARK Flexibility Score: inf
ROOT
ATOM      1  C   UNL     1      10.118  71.125   0.246  1.00  0.00     0.165 A 
ATOM      2  C   UNL     1       9.688  70.358  -0.850  1.00  0.00     0.207 A 
ATOM      3  C   UNL     1       9.270  69.011  -0.659  1.00  0.00     0.208 A 
ATOM      4  C   UNL     1       9.294  68.462   0.649  1.00  0.00     0.184 A 
ATOM      5  C   UNL     1       9.730  69.250   1.737  1.00  0.00     0.025 A 
ATOM      6  C   UNL     1      10.137  70.569   1.533  1.00  0.00     0.062 A 
ATOM      7  C   UNL     1       9.746  68.686   3.017  1.00  0.00     0.020 A 
ATOM      8  C   UNL     1       9.334  67.368   3.191  1.00  0.00     0.094 A 
ATOM      9  C   UNL     1       8.915  66.642   2.076  1.00  0.00     0.336 A 
ATOM     10  O   UNL     1       8.538  65.448   2.207  1.00  0.00    -0.246 OA
ATOM     11  O   UNL     1       8.911  67.205   0.871  1.00  0.00    -0.419 OA
ENDROOT
BRANCH   1  12
ATOM     12  O   UNL     1      10.521  72.451   0.008  1.00  0.00    -0.493 OA
ATOM     13  C   UNL     1      11.552  73.125   0.722  1.00  0.00     0.278 C 
ENDBRANCH   1  12
BRANCH   2  14
ATOM     14  O   UNL     1       9.704  71.003  -2.103  1.00  0.00    -0.490 OA
ATOM     15  C   UNL     1      10.645  70.814  -3.153  1.00  0.00     0.278 C 
ENDBRANCH   2  14
BRANCH   3  16
ATOM     16  O   UNL     1       8.845  68.272  -1.780  1.00  0.00    -0.490 OA
ATOM     17  C   UNL     1       7.511  68.119  -2.252  1.00  0.00     0.278 C 
ENDBRANCH   3  16
TORSDOF 3
ENDMDL
MODEL 2
REMARK VINA RESULT:    -5.894      1.849      3.898
REMARK INTER + INTRA:          -7.174
REMARK INTER:                  -7.085
REMARK INTRA:                  -0.089
REMARK UNBOUND:                -0.246
REMARK SMILES COc1cc2ccc(=O)oc2c(OC)c1OC
REMARK SMILES IDX 3 1 15 2 12 3 11 4 5 5 4 6 6 7 7 8 8 9 9 10 10 11 2 12 1 13
REMARK SMILES IDX 16 14 17 15 13 16 14 17
REMARK H PARENT
REMARK Flexibility Score: inf
ROOT
ATOM      1  C   UNL     1       9.745  70.942   0.352  1.00  0.00     0.165 A 
ATOM      2  C   UNL     1       9.974  70.069   1.429  1.00  0.00     0.207 A 
ATOM      3  C   UNL     1      10.005  68.662   1.215  1.00  0.00     0.208 A 
ATOM      4  C   UNL     1       9.801  68.161  -0.096  1.00  0.00     0.184 A 
ATOM      5  C   UNL     1       9.572  69.056  -1.165  1.00  0.00     0.025 A 
ATOM      6  C   UNL     1       9.545  70.432  -0.939  1.00  0.00     0.062 A 
ATOM      7  C   UNL     1       9.373  68.537  -2.450  1.00  0.00     0.020 A 
ATOM      8  C   UNL     1       9.405  67.160  -2.646  1.00  0.00     0.094 A 
ATOM      9  C   UNL     1       9.636  66.329  -1.549  1.00  0.00     0.336 A 
ATOM     10  O   UNL     1       9.669  65.081  -1.700  1.00  0.00    -0.246 OA
ATOM     11  O   UNL     1       9.821  66.851  -0.339  1.00  0.00    -0.419 OA
ENDROOT
BRANCH   1  12
ATOM     12  O   UNL     1       9.725  72.323   0.613  1.00  0.00    -0.493 OA
ATOM     13  C   UNL     1      10.881  73.122   0.836  1.00  0.00     0.278 C 
ENDBRANCH   1  12
BRANCH   2  14
ATOM     14  O   UNL     1      10.165  70.674   2.688  1.00  0.00    -0.490 OA
ATOM     15  C   UNL     1       9.188  70.860   3.706  1.00  0.00     0.278 C 
ENDBRANCH   2  14
BRANCH   3  16
ATOM     16  O   UNL     1      10.237  67.818   2.318  1.00  0.00    -0.490 OA
ATOM     17  C   UNL     1      11.494  67.502   2.907  1.00  0.00     0.278 C 
ENDBRANCH   3  16
TORSDOF 3
ENDMDL
MODEL 3
REMARK VINA RESULT:    -5.885      1.436      3.199
REMARK INTER + INTRA:          -7.163
REMARK INTER:                  -6.996
REMARK INTRA:                  -0.167
REMARK UNBOUND:                -0.246
REMARK SMILES COc1cc2ccc(=O)oc2c(OC)c1OC
REMARK SMILES IDX 3 1 15 2 12 3 11 4 5 5 4 6 6 7 7 8 8 9 9 10 10 11 2 12 1 13
REMARK SMILES IDX 16 14 17 15 13 16 14 17
REMARK H PARENT
REMARK Flexibility Score: inf
ROOT
ATOM      1  C   UNL     1      10.221  70.668  -1.244  1.00  0.00     0.165 A 
ATOM      2  C   UNL     1      10.102  71.164   0.065  1.00  0.00     0.207 A 
ATOM      3  C   UNL     1       9.734  70.292   1.129  1.00  0.00     0.208 A 
ATOM      4  C   UNL     1       9.493  68.924   0.845  1.00  0.00     0.184 A 
ATOM      5  C   UNL     1       9.618  68.445  -0.478  1.00  0.00     0.025 A 
ATOM      6  C   UNL     1       9.979  69.312  -1.510  1.00  0.00     0.062 A 
ATOM      7  C   UNL     1       9.374  67.091  -0.734  1.00  0.00     0.020 A 
ATOM      8  C   UNL     1       9.016  66.249   0.315  1.00  0.00     0.094 A 
ATOM      9  C   UNL     1       8.909  66.783   1.599  1.00  0.00     0.336 A 
ATOM     10  O   UNL     1       8.586  66.042   2.564  1.00  0.00    -0.246 OA
ATOM     11  O   UNL     1       9.146  68.074   1.812  1.00  0.00    -0.419 OA
ENDROOT
BRANCH   1  12
ATOM     12  O   UNL     1      10.587  71.567  -2.260  1.00  0.00    -0.493 OA
ATOM     13  C   UNL     1      11.488  71.268  -3.320  1.00  0.00     0.278 C 
ENDBRANCH   1  12
BRANCH   2  14
ATOM     14  O   UNL     1      10.364  72.538   0.235  1.00  0.00    -0.490 OA
ATOM     15  C   UNL     1      11.531  73.125   0.798  1.00  0.00     0.278 C 
ENDBRANCH   2  14
BRANCH   3  16
ATOM     16  O   UNL     1       9.624  70.824   2.429  1.00  0.00    -0.490 OA
ATOM     17  C   UNL     1       8.429  71.023   3.176  1.00  0.00     0.278 C 
ENDBRANCH   3  16
TORSDOF 3
ENDMDL
MODEL 4
REMARK VINA RESULT:    -5.783      1.639      5.119
REMARK INTER + INTRA:          -7.043
REMARK INTER:                  -6.791
REMARK INTRA:                  -0.252
REMARK UNBOUND:                -0.246
REMARK SMILES COc1cc2ccc(=O)oc2c(OC)c1OC
REMARK SMILES IDX 3 1 15 2 12 3 11 4 5 5 4 6 6 7 7 8 8 9 9 10 10 11 2 12 1 13
REMARK SMILES IDX 16 14 17 15 13 16 14 17
REMARK H PARENT
REMARK Flexibility Score: inf
ROOT
ATOM      1  C   UNL     1       9.677  68.853   2.003  1.00  0.00     0.165 A 
ATOM      2  C   UNL     1       9.744  70.254   1.936  1.00  0.00     0.207 A 
ATOM      3  C   UNL     1       9.804  70.907   0.672  1.00  0.00     0.208 A 
ATOM      4  C   UNL     1       9.795  70.122  -0.509  1.00  0.00     0.184 A 
ATOM      5  C   UNL     1       9.727  68.714  -0.419  1.00  0.00     0.025 A 
ATOM      6  C   UNL     1       9.669  68.089   0.827  1.00  0.00     0.062 A 
ATOM      7  C   UNL     1       9.721  67.961  -1.599  1.00  0.00     0.020 A 
ATOM      8  C   UNL     1       9.780  68.611  -2.828  1.00  0.00     0.094 A 
ATOM      9  C   UNL     1       9.845  70.004  -2.849  1.00  0.00     0.336 A 
ATOM     10  O   UNL     1       9.900  70.615  -3.948  1.00  0.00    -0.246 OA
ATOM     11  O   UNL     1       9.851  70.693  -1.712  1.00  0.00    -0.419 OA
ENDROOT
BRANCH   1  12
ATOM     12  O   UNL     1       9.618  68.254   3.273  1.00  0.00    -0.493 OA
ATOM     13  C   UNL     1      10.445  67.176   3.700  1.00  0.00     0.278 C 
ENDBRANCH   1  12
BRANCH   2  14
ATOM     14  O   UNL     1       9.746  70.936   3.170  1.00  0.00    -0.490 OA
ATOM     15  C   UNL     1       8.650  71.603   3.783  1.00  0.00     0.278 C 
ENDBRANCH   2  14
BRANCH   3  16
ATOM     16  O   UNL     1       9.870  72.314   0.643  1.00  0.00    -0.490 OA
ATOM     17  C   UNL     1      11.030  73.122   0.809  1.00  0.00     0.278 C 
ENDBRANCH   3  16
TORSDOF 3
ENDMDL
MODEL 5
REMARK VINA RESULT:    -5.772      1.916      3.720
REMARK INTER + INTRA:          -7.030
REMARK INTER:                  -6.802
REMARK INTRA:                  -0.228
REMARK UNBOUND:                -0.246
REMARK SMILES COc1cc2ccc(=O)oc2c(OC)c1OC
REMARK SMILES IDX 3 1 15 2 12 3 11 4 5 5 4 6 6 7 7 8 8 9 9 10 10 11 2 12 1 13
REMARK SMILES IDX 16 14 17 15 13 16 14 17
REMARK H PARENT
REMARK Flexibility Score: inf
ROOT
ATOM      1  C   UNL     1       9.590  68.571  -1.431  1.00  0.00     0.165 A 
ATOM      2  C   UNL     1       9.877  69.945  -1.497  1.00  0.00     0.207 A 
ATOM      3  C   UNL     1       9.998  70.708  -0.301  1.00  0.00     0.208 A 
ATOM      4  C   UNL     1       9.824  70.061   0.948  1.00  0.00     0.184 A 
ATOM      5  C   UNL     1       9.536  68.678   0.992  1.00  0.00     0.025 A 
ATOM      6  C   UNL     1       9.421  67.945  -0.188  1.00  0.00     0.062 A 
ATOM      7  C   UNL     1       9.368  68.062   2.238  1.00  0.00     0.020 A 
ATOM      8  C   UNL     1       9.489  68.818   3.400  1.00  0.00     0.094 A 
ATOM      9  C   UNL     1       9.775  70.180   3.289  1.00  0.00     0.336 A 
ATOM     10  O   UNL     1       9.889  70.885   4.324  1.00  0.00    -0.246 OA
ATOM     11  O   UNL     1       9.928  70.738   2.092  1.00  0.00    -0.419 OA
ENDROOT
BRANCH   1  12
ATOM     12  O   UNL     1       9.481  67.860  -2.639  1.00  0.00    -0.493 OA
ATOM     13  C   UNL     1       8.252  67.462  -3.236  1.00  0.00     0.278 C 
ENDBRANCH   1  12
BRANCH   2  14
ATOM     14  O   UNL     1      10.030  70.486  -2.790  1.00  0.00    -0.490 OA
ATOM     15  C   UNL     1      11.248  70.857  -3.425  1.00  0.00     0.278 C 
ENDBRANCH   2  14
BRANCH   3  16
ATOM     16  O   UNL     1      10.287  72.083  -0.406  1.00  0.00    -0.490 OA
ATOM     17  C   UNL     1       9.384  73.125  -0.759  1.00  0.00     0.278 C 
ENDBRANCH   3  16
TORSDOF 3
ENDMDL
MODEL 6
REMARK VINA RESULT:    -5.694      1.820      3.566
REMARK INTER + INTRA:          -6.939
REMARK INTER:                  -6.719
REMARK INTRA:                  -0.220
REMARK UNBOUND:                -0.246
REMARK SMILES COc1cc2ccc(=O)oc2c(OC)c1OC
REMARK SMILES IDX 3 1 15 2 12 3 11 4 5 5 4 6 6 7 7 8 8 9 9 10 10 11 2 12 1 13
REMARK SMILES IDX 16 14 17 15 13 16 14 17
REMARK H PARENT
REMARK Flexibility Score: inf
ROOT
ATOM      1  C   UNL     1      10.160  70.383  -1.913  1.00  0.00     0.165 A 
ATOM      2  C   UNL     1       9.560  69.201  -1.447  1.00  0.00     0.207 A 
ATOM      3  C   UNL     1       9.133  69.102  -0.093  1.00  0.00     0.208 A 
ATOM      4  C   UNL     1       9.323  70.210   0.771  1.00  0.00     0.184 A 
ATOM      5  C   UNL     1       9.928  71.390   0.283  1.00  0.00     0.025 A 
ATOM      6  C   UNL     1      10.341  71.471  -1.047  1.00  0.00     0.062 A 
ATOM      7  C   UNL     1      10.105  72.470   1.155  1.00  0.00     0.020 A 
ATOM      8  C   UNL     1       9.683  72.361   2.477  1.00  0.00     0.094 A 
ATOM      9  C   UNL     1       9.092  71.169   2.897  1.00  0.00     0.336 A 
ATOM     10  O   UNL     1       8.703  71.046   4.088  1.00  0.00    -0.246 OA
ATOM     11  O   UNL     1       8.938  70.159   2.046  1.00  0.00    -0.419 OA
ENDROOT
BRANCH   1  12
ATOM     12  O   UNL     1      10.565  70.433  -3.258  1.00  0.00    -0.493 OA
ATOM     13  C   UNL     1      11.743  71.080  -3.726  1.00  0.00     0.278 C 
ENDBRANCH   1  12
BRANCH   2  14
ATOM     14  O   UNL     1       9.420  68.162  -2.390  1.00  0.00    -0.490 OA
ATOM     15  C   UNL     1       8.209  67.673  -2.954  1.00  0.00     0.278 C 
ENDBRANCH   2  14
BRANCH   3  16
ATOM     16  O   UNL     1       8.536  67.902   0.339  1.00  0.00    -0.490 OA
ATOM     17  C   UNL     1       9.197  66.747   0.844  1.00  0.00     0.278 C 
ENDBRANCH   3  16
TORSDOF 3
ENDMDL
MODEL 7
REMARK VINA RESULT:    -5.673      1.671      2.743
REMARK INTER + INTRA:          -6.913
REMARK INTER:                  -6.785
REMARK INTRA:                  -0.128
REMARK UNBOUND:                -0.246
REMARK SMILES COc1cc2ccc(=O)oc2c(OC)c1OC
REMARK SMILES IDX 3 1 15 2 12 3 11 4 5 5 4 6 6 7 7 8 8 9 9 10 10 11 2 12 1 13
REMARK SMILES IDX 16 14 17 15 13 16 14 17
REMARK H PARENT
REMARK Flexibility Score: inf
ROOT
ATOM      1  C   UNL     1       9.503  70.807   1.328  1.00  0.00     0.165 A 
ATOM      2  C   UNL     1       9.762  71.105  -0.020  1.00  0.00     0.207 A 
ATOM      3  C   UNL     1       9.862  70.056  -0.977  1.00  0.00     0.208 A 
ATOM      4  C   UNL     1       9.697  68.715  -0.548  1.00  0.00     0.184 A 
ATOM      5  C   UNL     1       9.437  68.437   0.812  1.00  0.00     0.025 A 
ATOM      6  C   UNL     1       9.341  69.475   1.738  1.00  0.00     0.062 A 
ATOM      7  C   UNL     1       9.278  67.105   1.212  1.00  0.00     0.020 A 
ATOM      8  C   UNL     1       9.378  66.088   0.267  1.00  0.00     0.094 A 
ATOM      9  C   UNL     1       9.636  66.429  -1.062  1.00  0.00     0.336 A 
ATOM     10  O   UNL     1       9.732  65.528  -1.935  1.00  0.00    -0.246 OA
ATOM     11  O   UNL     1       9.784  67.703  -1.411  1.00  0.00    -0.419 OA
ENDROOT
BRANCH   1  12
ATOM     12  O   UNL     1       9.412  71.876   2.236  1.00  0.00    -0.493 OA
ATOM     13  C   UNL     1       8.664  71.849   3.447  1.00  0.00     0.278 C 
ENDBRANCH   1  12
BRANCH   2  14
ATOM     14  O   UNL     1       9.909  72.470  -0.337  1.00  0.00    -0.490 OA
ATOM     15  C   UNL     1      11.087  73.122  -0.796  1.00  0.00     0.278 C 
ENDBRANCH   2  14
BRANCH   3  16
ATOM     16  O   UNL     1      10.123  70.392  -2.320  1.00  0.00    -0.490 OA
ATOM     17  C   UNL     1      11.371  70.305  -3.000  1.00  0.00     0.278 C 
ENDBRANCH   3  16
TORSDOF 3
ENDMDL
MODEL 8
REMARK VINA RESULT:    -5.580      1.892      4.716
REMARK INTER + INTRA:          -6.804
REMARK INTER:                  -6.674
REMARK INTRA:                  -0.130
REMARK UNBOUND:                -0.246
REMARK SMILES COc1cc2ccc(=O)oc2c(OC)c1OC
REMARK SMILES IDX 3 1 15 2 12 3 11 4 5 5 4 6 6 7 7 8 8 9 9 10 10 11 2 12 1 13
REMARK SMILES IDX 16 14 17 15 13 16 14 17
REMARK H PARENT
REMARK Flexibility Score: inf
ROOT
ATOM      1  C   UNL     1       9.608  70.662   2.316  1.00  0.00     0.165 A 
ATOM      2  C   UNL     1       9.828  69.319   1.970  1.00  0.00     0.207 A 
ATOM      3  C   UNL     1      10.167  68.972   0.631  1.00  0.00     0.208 A 
ATOM      4  C   UNL     1      10.277  70.001  -0.339  1.00  0.00     0.184 A 
ATOM      5  C   UNL     1      10.051  71.346   0.031  1.00  0.00     0.025 A 
ATOM      6  C   UNL     1       9.720  71.669   1.347  1.00  0.00     0.062 A 
ATOM      7  C   UNL     1      10.165  72.344  -0.944  1.00  0.00     0.020 A 
ATOM      8  C   UNL     1      10.497  71.993  -2.249  1.00  0.00     0.094 A 
ATOM      9  C   UNL     1      10.708  70.647  -2.551  1.00  0.00     0.336 A 
ATOM     10  O   UNL     1      11.008  70.304  -3.723  1.00  0.00    -0.246 OA
ATOM     11  O   UNL     1      10.591  69.721  -1.603  1.00  0.00    -0.419 OA
ENDROOT
BRANCH   1  12
ATOM     12  O   UNL     1       9.277  70.955   3.651  1.00  0.00    -0.493 OA
ATOM     13  C   UNL     1       8.234  71.836   4.052  1.00  0.00     0.278 C 
ENDBRANCH   1  12
BRANCH   2  14
ATOM     14  O   UNL     1       9.693  68.378   3.011  1.00  0.00    -0.490 OA
ATOM     15  C   UNL     1      10.679  67.463   3.473  1.00  0.00     0.278 C 
ENDBRANCH   2  14
BRANCH   3  16
ATOM     16  O   UNL     1      10.381  67.616   0.319  1.00  0.00    -0.490 OA
ATOM     17  C   UNL     1       9.415  66.680  -0.146  1.00  0.00     0.278 C 
ENDBRANCH   3  16
TORSDOF 3
ENDMDL
MODEL 9
REMARK VINA RESULT:    -4.812      1.479      4.513
REMARK INTER + INTRA:          -5.902
REMARK INTER:                  -5.828
REMARK INTRA:                  -0.074
REMARK UNBOUND:                -0.246
REMARK SMILES COc1cc2ccc(=O)oc2c(OC)c1OC
REMARK SMILES IDX 3 1 15 2 12 3 11 4 5 5 4 6 6 7 7 8 8 9 9 10 10 11 2 12 1 13
REMARK SMILES IDX 16 14 17 15 13 16 14 17
REMARK H PARENT
REMARK Flexibility Score: inf
ROOT
ATOM      1  C   UNL     1       9.201  67.124   0.858  1.00  0.00     0.165 A 
ATOM      2  C   UNL     1       9.725  67.594  -0.358  1.00  0.00     0.207 A 
ATOM      3  C   UNL     1      10.143  68.950  -0.479  1.00  0.00     0.208 A 
ATOM      4  C   UNL     1      10.022  69.810   0.642  1.00  0.00     0.184 A 
ATOM      5  C   UNL     1       9.493  69.316   1.856  1.00  0.00     0.025 A 
ATOM      6  C   UNL     1       9.088  67.986   1.958  1.00  0.00     0.062 A 
ATOM      7  C   UNL     1       9.383  70.184   2.948  1.00  0.00     0.020 A 
ATOM      8  C   UNL     1       9.796  71.507   2.817  1.00  0.00     0.094 A 
ATOM      9  C   UNL     1      10.310  71.933   1.592  1.00  0.00     0.336 A 
ATOM     10  O   UNL     1      10.689  73.124   1.449  1.00  0.00    -0.246 OA
ATOM     11  O   UNL     1      10.401  71.085   0.571  1.00  0.00    -0.419 OA
ENDROOT
BRANCH   1  12
ATOM     12  O   UNL     1       8.803  65.777   0.929  1.00  0.00    -0.493 OA
ATOM     13  C   UNL     1       8.241  65.159   2.081  1.00  0.00     0.278 C 
ENDBRANCH   1  12
BRANCH   2  14
ATOM     14  O   UNL     1       9.800  66.655  -1.406  1.00  0.00    -0.490 OA
ATOM     15  C   UNL     1       9.127  66.712  -2.658  1.00  0.00     0.278 C 
ENDBRANCH   2  14
BRANCH   3  16
ATOM     16  O   UNL     1      10.663  69.387  -1.713  1.00  0.00    -0.490 OA
ATOM     17  C   UNL     1       9.988  70.151  -2.706  1.00  0.00     0.278 C 
ENDBRANCH   3  16
TORSDOF 3
ENDMDL
