MODEL 1
REMARK VINA RESULT:    -5.941      0.000      0.000
REMARK INTER + INTRA:          -7.347
REMARK INTER:                  -7.157
REMARK INTRA:                  -0.190
REMARK UNBOUND:                -0.190
REMARK SMILES Oc1cc(O)c2cc(O)c(-c3ccc(O)c(O)c3)[o+]c2c1
REMARK SMILES IDX 10 1 19 2 20 3 21 4 2 5 3 6 4 7 6 8 7 9 8 10 11 11 12 12
REMARK SMILES IDX 13 13 14 14 18 15 16 16 15 17 17 19 9 21 1 23 5 25
REMARK H PARENT 15 18 17 20 9 22 1 24 5 26
REMARK Flexibility Score: inf
ROOT
ATOM      1  C   UNL     1      -3.252  -7.506  37.821  1.00  0.00     0.402 A 
ATOM      2  O   UNL     1      -4.360  -7.933  38.425  1.00  0.00    -0.202 OA
ATOM      3  C   UNL     1      -4.354  -8.590  39.580  1.00  0.00     0.368 A 
ATOM      4  C   UNL     1      -5.570  -8.995  40.138  1.00  0.00     0.162 A 
ATOM      5  C   UNL     1      -5.594  -9.684  41.354  1.00  0.00     0.128 A 
ATOM      6  C   UNL     1      -4.396  -9.968  42.015  1.00  0.00     0.093 A 
ATOM      7  C   UNL     1      -3.165  -9.573  41.477  1.00  0.00     0.136 A 
ATOM      8  C   UNL     1      -3.136  -8.875  40.241  1.00  0.00     0.125 A 
ATOM      9  C   UNL     1      -1.949  -8.452  39.623  1.00  0.00     0.078 A 
ATOM     10  C   UNL     1      -1.998  -7.773  38.401  1.00  0.00     0.223 A 
ENDROOT
BRANCH   1  11
ATOM     11  C   UNL     1      -3.391  -6.776  36.541  1.00  0.00     0.087 A 
ATOM     12  C   UNL     1      -2.880  -7.299  35.340  1.00  0.00     0.022 A 
ATOM     13  C   UNL     1      -3.002  -6.581  34.148  1.00  0.00     0.051 A 
ATOM     14  C   UNL     1      -3.624  -5.328  34.136  1.00  0.00     0.157 A 
ATOM     15  C   UNL     1      -3.995  -5.509  36.530  1.00  0.00     0.068 A 
ATOM     16  C   UNL     1      -4.120  -4.787  35.334  1.00  0.00     0.158 A 
BRANCH  14  17
ATOM     17  O   UNL     1      -3.732  -4.637  32.932  1.00  0.00    -0.504 OA
ATOM     18  H   UNL     1      -4.115  -5.066  32.097  1.00  0.00     0.293 HD
ENDBRANCH  14  17
BRANCH  16  19
ATOM     19  O   UNL     1      -4.733  -3.535  35.332  1.00  0.00    -0.504 OA
ATOM     20  H   UNL     1      -4.709  -2.930  36.145  1.00  0.00     0.293 HD
ENDBRANCH  16  19
ENDBRANCH   1  11
BRANCH  10  21
ATOM     21  O   UNL     1      -0.818  -7.397  37.761  1.00  0.00    -0.500 OA
ATOM     22  H   UNL     1       0.003  -7.992  37.763  1.00  0.00     0.294 HD
ENDBRANCH  10  21
BRANCH   5  23
ATOM     23  O   UNL     1      -6.801 -10.091  41.914  1.00  0.00    -0.507 OA
ATOM     24  H   UNL     1      -7.537  -9.428  42.126  1.00  0.00     0.293 HD
ENDBRANCH   5  23
BRANCH   7  25
ATOM     25  O   UNL     1      -2.014  -9.893  42.202  1.00  0.00    -0.507 OA
ATOM     26  H   UNL     1      -1.238  -9.263  42.348  1.00  0.00     0.293 HD
ENDBRANCH   7  25
TORSDOF 6
ENDMDL
MODEL 2
REMARK VINA RESULT:    -5.776      2.541      7.686
REMARK INTER + INTRA:          -7.147
REMARK INTER:                  -6.841
REMARK INTRA:                  -0.306
REMARK UNBOUND:                -0.190
REMARK SMILES Oc1cc(O)c2cc(O)c(-c3ccc(O)c(O)c3)[o+]c2c1
REMARK SMILES IDX 10 1 19 2 20 3 21 4 2 5 3 6 4 7 6 8 7 9 8 10 11 11 12 12
REMARK SMILES IDX 13 13 14 14 18 15 16 16 15 17 17 19 9 21 1 23 5 25
REMARK H PARENT 15 18 17 20 9 22 1 24 5 26
REMARK Flexibility Score: inf
ROOT
ATOM      1  C   UNL     1      -2.981 -10.138  39.807  1.00  0.00     0.402 A 
ATOM      2  O   UNL     1      -2.279  -9.971  38.688  1.00  0.00    -0.202 OA
ATOM      3  C   UNL     1      -2.466  -8.954  37.854  1.00  0.00     0.368 A 
ATOM      4  C   UNL     1      -1.676  -8.862  36.705  1.00  0.00     0.162 A 
ATOM      5  C   UNL     1      -1.850  -7.800  35.812  1.00  0.00     0.128 A 
ATOM      6  C   UNL     1      -2.817  -6.826  36.071  1.00  0.00     0.093 A 
ATOM      7  C   UNL     1      -3.621  -6.895  37.215  1.00  0.00     0.136 A 
ATOM      8  C   UNL     1      -3.450  -7.972  38.123  1.00  0.00     0.125 A 
ATOM      9  C   UNL     1      -4.219  -8.129  39.288  1.00  0.00     0.078 A 
ATOM     10  C   UNL     1      -3.996  -9.220  40.133  1.00  0.00     0.223 A 
ENDROOT
BRANCH   1  11
ATOM     11  C   UNL     1      -2.671 -11.308  40.659  1.00  0.00     0.087 A 
ATOM     12  C   UNL     1      -3.485 -12.454  40.657  1.00  0.00     0.022 A 
ATOM     13  C   UNL     1      -3.185 -13.536  41.487  1.00  0.00     0.051 A 
ATOM     14  C   UNL     1      -2.077 -13.489  42.339  1.00  0.00     0.157 A 
ATOM     15  C   UNL     1      -1.572 -11.255  41.532  1.00  0.00     0.068 A 
ATOM     16  C   UNL     1      -1.268 -12.342  42.365  1.00  0.00     0.158 A 
BRANCH  14  17
ATOM     17  O   UNL     1      -1.802 -14.585  43.154  1.00  0.00    -0.504 OA
ATOM     18  H   UNL     1      -1.961 -15.538  42.847  1.00  0.00     0.293 HD
ENDBRANCH  14  17
BRANCH  16  19
ATOM     19  O   UNL     1      -0.167 -12.283  43.218  1.00  0.00    -0.504 OA
ATOM     20  H   UNL     1       0.037 -11.456  43.767  1.00  0.00     0.293 HD
ENDBRANCH  16  19
ENDBRANCH   1  11
BRANCH  10  21
ATOM     21  O   UNL     1      -4.792  -9.404  41.263  1.00  0.00    -0.500 OA
ATOM     22  H   UNL     1      -5.799  -9.288  41.231  1.00  0.00     0.294 HD
ENDBRANCH  10  21
BRANCH   5  23
ATOM     23  O   UNL     1      -1.066  -7.703  34.665  1.00  0.00    -0.507 OA
ATOM     24  H   UNL     1      -0.223  -8.253  34.552  1.00  0.00     0.293 HD
ENDBRANCH   5  23
BRANCH   7  25
ATOM     25  O   UNL     1      -4.562  -5.879  37.403  1.00  0.00    -0.507 OA
ATOM     26  H   UNL     1      -4.330  -4.915  37.594  1.00  0.00     0.293 HD
ENDBRANCH   7  25
TORSDOF 6
ENDMDL
MODEL 3
REMARK VINA RESULT:    -5.756      1.489      1.934
REMARK INTER + INTRA:          -7.123
REMARK INTER:                  -7.455
REMARK INTRA:                   0.333
REMARK UNBOUND:                -0.190
REMARK SMILES Oc1cc(O)c2cc(O)c(-c3ccc(O)c(O)c3)[o+]c2c1
REMARK SMILES IDX 10 1 19 2 20 3 21 4 2 5 3 6 4 7 6 8 7 9 8 10 11 11 12 12
REMARK SMILES IDX 13 13 14 14 18 15 16 16 15 17 17 19 9 21 1 23 5 25
REMARK H PARENT 15 18 17 20 9 22 1 24 5 26
REMARK Flexibility Score: inf
ROOT
ATOM      1  C   UNL     1      -2.532  -7.656  37.148  1.00  0.00     0.402 A 
ATOM      2  O   UNL     1      -3.175  -7.930  38.281  1.00  0.00    -0.202 OA
ATOM      3  C   UNL     1      -2.729  -8.799  39.181  1.00  0.00     0.368 A 
ATOM      4  C   UNL     1      -3.474  -9.018  40.343  1.00  0.00     0.162 A 
ATOM      5  C   UNL     1      -3.027  -9.925  41.309  1.00  0.00     0.128 A 
ATOM      6  C   UNL     1      -1.828 -10.615  41.111  1.00  0.00     0.093 A 
ATOM      7  C   UNL     1      -1.063 -10.414  39.955  1.00  0.00     0.136 A 
ATOM      8  C   UNL     1      -1.515  -9.496  38.971  1.00  0.00     0.125 A 
ATOM      9  C   UNL     1      -0.820  -9.241  37.778  1.00  0.00     0.078 A 
ATOM     10  C   UNL     1      -1.330  -8.326  36.852  1.00  0.00     0.223 A 
ENDROOT
BRANCH   1  11
ATOM     11  C   UNL     1      -3.127  -6.659  36.229  1.00  0.00     0.087 A 
ATOM     12  C   UNL     1      -2.768  -6.608  34.871  1.00  0.00     0.022 A 
ATOM     13  C   UNL     1      -3.325  -5.644  34.028  1.00  0.00     0.051 A 
ATOM     14  C   UNL     1      -4.239  -4.710  34.528  1.00  0.00     0.157 A 
ATOM     15  C   UNL     1      -4.028  -5.707  36.732  1.00  0.00     0.068 A 
ATOM     16  C   UNL     1      -4.591  -4.739  35.887  1.00  0.00     0.158 A 
BRANCH  14  17
ATOM     17  O   UNL     1      -4.780  -3.761  33.662  1.00  0.00    -0.504 OA
ATOM     18  H   UNL     1      -5.737  -3.816  33.334  1.00  0.00     0.293 HD
ENDBRANCH  14  17
BRANCH  16  19
ATOM     19  O   UNL     1      -5.495  -3.807  36.395  1.00  0.00    -0.504 OA
ATOM     20  H   UNL     1      -6.086  -3.253  35.786  1.00  0.00     0.293 HD
ENDBRANCH  16  19
ENDBRANCH   1  11
BRANCH  10  21
ATOM     21  O   UNL     1      -0.667  -8.109  35.644  1.00  0.00    -0.500 OA
ATOM     22  H   UNL     1      -1.043  -8.441  34.763  1.00  0.00     0.294 HD
ENDBRANCH  10  21
BRANCH   5  23
ATOM     23  O   UNL     1      -3.764 -10.147  42.468  1.00  0.00    -0.507 OA
ATOM     24  H   UNL     1      -4.770 -10.027  42.487  1.00  0.00     0.293 HD
ENDBRANCH   5  23
BRANCH   7  25
ATOM     25  O   UNL     1       0.125 -11.140  39.836  1.00  0.00    -0.507 OA
ATOM     26  H   UNL     1       0.777 -11.045  39.071  1.00  0.00     0.293 HD
ENDBRANCH   7  25
TORSDOF 6
ENDMDL
MODEL 4
REMARK VINA RESULT:    -5.674      4.508      6.972
REMARK INTER + INTRA:          -7.024
REMARK INTER:                  -6.842
REMARK INTRA:                  -0.183
REMARK UNBOUND:                -0.190
REMARK SMILES Oc1cc(O)c2cc(O)c(-c3ccc(O)c(O)c3)[o+]c2c1
REMARK SMILES IDX 10 1 19 2 20 3 21 4 2 5 3 6 4 7 6 8 7 9 8 10 11 11 12 12
REMARK SMILES IDX 13 13 14 14 18 15 16 16 15 17 17 19 9 21 1 23 5 25
REMARK H PARENT 15 18 17 20 9 22 1 24 5 26
REMARK Flexibility Score: inf
ROOT
ATOM      1  C   UNL     1      -2.427 -12.553  41.706  1.00  0.00     0.402 A 
ATOM      2  O   UNL     1      -3.455 -13.289  41.286  1.00  0.00    -0.202 OA
ATOM      3  C   UNL     1      -3.701 -14.517  41.728  1.00  0.00     0.368 A 
ATOM      4  C   UNL     1      -4.808 -15.210  41.230  1.00  0.00     0.162 A 
ATOM      5  C   UNL     1      -5.092 -16.503  41.679  1.00  0.00     0.128 A 
ATOM      6  C   UNL     1      -4.267 -17.104  42.632  1.00  0.00     0.093 A 
ATOM      7  C   UNL     1      -3.152 -16.431  43.148  1.00  0.00     0.136 A 
ATOM      8  C   UNL     1      -2.858 -15.119  42.692  1.00  0.00     0.125 A 
ATOM      9  C   UNL     1      -1.756 -14.375  43.144  1.00  0.00     0.078 A 
ATOM     10  C   UNL     1      -1.527 -13.089  42.645  1.00  0.00     0.223 A 
ENDROOT
BRANCH   1  11
ATOM     11  C   UNL     1      -2.266 -11.192  41.146  1.00  0.00     0.087 A 
ATOM     12  C   UNL     1      -3.230 -10.192  41.360  1.00  0.00     0.022 A 
ATOM     13  C   UNL     1      -3.067  -8.922  40.802  1.00  0.00     0.051 A 
ATOM     14  C   UNL     1      -1.948  -8.633  40.014  1.00  0.00     0.157 A 
ATOM     15  C   UNL     1      -1.155 -10.906  40.336  1.00  0.00     0.068 A 
ATOM     16  C   UNL     1      -0.988  -9.631  39.776  1.00  0.00     0.158 A 
BRANCH  14  17
ATOM     17  O   UNL     1      -1.812  -7.357  39.472  1.00  0.00    -0.504 OA
ATOM     18  H   UNL     1      -1.169  -7.159  38.715  1.00  0.00     0.293 HD
ENDBRANCH  14  17
BRANCH  16  19
ATOM     19  O   UNL     1       0.125  -9.354  38.984  1.00  0.00    -0.504 OA
ATOM     20  H   UNL     1       0.031  -9.003  38.038  1.00  0.00     0.293 HD
ENDBRANCH  16  19
ENDBRANCH   1  11
BRANCH  10  21
ATOM     21  O   UNL     1      -0.405 -12.369  43.056  1.00  0.00    -0.500 OA
ATOM     22  H   UNL     1      -0.483 -11.568  43.672  1.00  0.00     0.294 HD
ENDBRANCH  10  21
BRANCH   5  23
ATOM     23  O   UNL     1      -6.192 -17.199  41.186  1.00  0.00    -0.507 OA
ATOM     24  H   UNL     1      -6.170 -17.651  40.279  1.00  0.00     0.293 HD
ENDBRANCH   5  23
BRANCH   7  25
ATOM     25  O   UNL     1      -2.380 -17.101  44.101  1.00  0.00    -0.507 OA
ATOM     26  H   UNL     1      -1.820 -16.644  44.806  1.00  0.00     0.293 HD
ENDBRANCH   7  25
TORSDOF 6
ENDMDL
MODEL 5
REMARK VINA RESULT:    -5.654      1.202      2.722
REMARK INTER + INTRA:          -7.001
REMARK INTER:                  -6.709
REMARK INTRA:                  -0.291
REMARK UNBOUND:                -0.190
REMARK SMILES Oc1cc(O)c2cc(O)c(-c3ccc(O)c(O)c3)[o+]c2c1
REMARK SMILES IDX 10 1 19 2 20 3 21 4 2 5 3 6 4 7 6 8 7 9 8 10 11 11 12 12
REMARK SMILES IDX 13 13 14 14 18 15 16 16 15 17 17 19 9 21 1 23 5 25
REMARK H PARENT 15 18 17 20 9 22 1 24 5 26
REMARK Flexibility Score: inf
ROOT
ATOM      1  C   UNL     1      -4.732  -7.278  37.446  1.00  0.00     0.402 A 
ATOM      2  O   UNL     1      -3.747  -7.768  38.196  1.00  0.00    -0.202 OA
ATOM      3  C   UNL     1      -3.947  -8.364  39.367  1.00  0.00     0.368 A 
ATOM      4  C   UNL     1      -2.848  -8.849  40.080  1.00  0.00     0.162 A 
ATOM      5  C   UNL     1      -3.030  -9.482  41.312  1.00  0.00     0.128 A 
ATOM      6  C   UNL     1      -4.317  -9.632  41.833  1.00  0.00     0.093 A 
ATOM      7  C   UNL     1      -5.436  -9.154  41.138  1.00  0.00     0.136 A 
ATOM      8  C   UNL     1      -5.255  -8.508  39.887  1.00  0.00     0.125 A 
ATOM      9  C   UNL     1      -6.316  -7.988  39.128  1.00  0.00     0.078 A 
ATOM     10  C   UNL     1      -6.060  -7.360  37.906  1.00  0.00     0.223 A 
ENDROOT
BRANCH   1  11
ATOM     11  C   UNL     1      -4.381  -6.646  36.154  1.00  0.00     0.087 A 
ATOM     12  C   UNL     1      -4.014  -7.417  35.037  1.00  0.00     0.022 A 
ATOM     13  C   UNL     1      -3.665  -6.797  33.835  1.00  0.00     0.051 A 
ATOM     14  C   UNL     1      -3.665  -5.402  33.731  1.00  0.00     0.157 A 
ATOM     15  C   UNL     1      -4.360  -5.246  36.053  1.00  0.00     0.068 A 
ATOM     16  C   UNL     1      -4.011  -4.622  34.846  1.00  0.00     0.158 A 
BRANCH  14  17
ATOM     17  O   UNL     1      -3.314  -4.813  32.518  1.00  0.00    -0.504 OA
ATOM     18  H   UNL     1      -2.514  -5.125  31.980  1.00  0.00     0.293 HD
ENDBRANCH  14  17
BRANCH  16  19
ATOM     19  O   UNL     1      -4.006  -3.231  34.754  1.00  0.00    -0.504 OA
ATOM     20  H   UNL     1      -4.063  -2.643  35.577  1.00  0.00     0.293 HD
ENDBRANCH  16  19
ENDBRANCH   1  11
BRANCH  10  21
ATOM     21  O   UNL     1      -7.107  -6.799  37.174  1.00  0.00    -0.500 OA
ATOM     22  H   UNL     1      -7.979  -7.294  37.026  1.00  0.00     0.294 HD
ENDBRANCH  10  21
BRANCH   5  23
ATOM     23  O   UNL     1      -1.939  -9.967  42.028  1.00  0.00    -0.507 OA
ATOM     24  H   UNL     1      -1.567  -9.469  42.829  1.00  0.00     0.293 HD
ENDBRANCH   5  23
BRANCH   7  25
ATOM     25  O   UNL     1      -6.689  -9.347  41.726  1.00  0.00    -0.507 OA
ATOM     26  H   UNL     1      -7.448  -8.683  41.681  1.00  0.00     0.293 HD
ENDBRANCH   7  25
TORSDOF 6
ENDMDL
MODEL 6
REMARK VINA RESULT:    -5.612      2.635      7.535
REMARK INTER + INTRA:          -6.950
REMARK INTER:                  -6.598
REMARK INTRA:                  -0.352
REMARK UNBOUND:                -0.190
REMARK SMILES Oc1cc(O)c2cc(O)c(-c3ccc(O)c(O)c3)[o+]c2c1
REMARK SMILES IDX 10 1 19 2 20 3 21 4 2 5 3 6 4 7 6 8 7 9 8 10 11 11 12 12
REMARK SMILES IDX 13 13 14 14 18 15 16 16 15 17 17 19 9 21 1 23 5 25
REMARK H PARENT 15 18 17 20 9 22 1 24 5 26
REMARK Flexibility Score: inf
ROOT
ATOM      1  C   UNL     1      -2.473  -7.641  36.463  1.00  0.00     0.402 A 
ATOM      2  O   UNL     1      -2.080  -7.829  35.205  1.00  0.00    -0.202 OA
ATOM      3  C   UNL     1      -2.495  -7.077  34.191  1.00  0.00     0.368 A 
ATOM      4  C   UNL     1      -2.024  -7.351  32.904  1.00  0.00     0.162 A 
ATOM      5  C   UNL     1      -2.441  -6.574  31.819  1.00  0.00     0.128 A 
ATOM      6  C   UNL     1      -3.333  -5.519  32.023  1.00  0.00     0.093 A 
ATOM      7  C   UNL     1      -3.820  -5.224  33.303  1.00  0.00     0.136 A 
ATOM      8  C   UNL     1      -3.401  -6.012  34.406  1.00  0.00     0.125 A 
ATOM      9  C   UNL     1      -3.847  -5.796  35.721  1.00  0.00     0.078 A 
ATOM     10  C   UNL     1      -3.393  -6.617  36.758  1.00  0.00     0.223 A 
ENDROOT
BRANCH   1  11
ATOM     11  C   UNL     1      -1.931  -8.539  37.507  1.00  0.00     0.087 A 
ATOM     12  C   UNL     1      -0.817  -8.173  38.283  1.00  0.00     0.022 A 
ATOM     13  C   UNL     1      -0.309  -9.046  39.247  1.00  0.00     0.051 A 
ATOM     14  C   UNL     1      -0.895 -10.301  39.444  1.00  0.00     0.157 A 
ATOM     15  C   UNL     1      -2.503  -9.808  37.693  1.00  0.00     0.068 A 
ATOM     16  C   UNL     1      -1.996 -10.686  38.662  1.00  0.00     0.158 A 
BRANCH  14  17
ATOM     17  O   UNL     1      -0.367 -11.151  40.415  1.00  0.00    -0.504 OA
ATOM     18  H   UNL     1      -0.126 -10.823  41.343  1.00  0.00     0.293 HD
ENDBRANCH  14  17
BRANCH  16  19
ATOM     19  O   UNL     1      -2.580 -11.938  38.846  1.00  0.00    -0.504 OA
ATOM     20  H   UNL     1      -2.917 -12.488  38.065  1.00  0.00     0.293 HD
ENDBRANCH  16  19
ENDBRANCH   1  11
BRANCH  10  21
ATOM     21  O   UNL     1      -3.873  -6.437  38.054  1.00  0.00    -0.500 OA
ATOM     22  H   UNL     1      -3.248  -6.287  38.838  1.00  0.00     0.294 HD
ENDBRANCH  10  21
BRANCH   5  23
ATOM     23  O   UNL     1      -1.976  -6.842  30.535  1.00  0.00    -0.507 OA
ATOM     24  H   UNL     1      -1.283  -7.561  30.361  1.00  0.00     0.293 HD
ENDBRANCH   5  23
BRANCH   7  25
ATOM     25  O   UNL     1      -4.706  -4.150  33.422  1.00  0.00    -0.507 OA
ATOM     26  H   UNL     1      -5.062  -3.614  32.643  1.00  0.00     0.293 HD
ENDBRANCH   7  25
TORSDOF 6
ENDMDL
MODEL 7
REMARK VINA RESULT:    -5.559      1.318      6.983
REMARK INTER + INTRA:          -6.886
REMARK INTER:                  -6.775
REMARK INTRA:                  -0.112
REMARK UNBOUND:                -0.190
REMARK SMILES Oc1cc(O)c2cc(O)c(-c3ccc(O)c(O)c3)[o+]c2c1
REMARK SMILES IDX 10 1 19 2 20 3 21 4 2 5 3 6 4 7 6 8 7 9 8 10 11 11 12 12
REMARK SMILES IDX 13 13 14 14 18 15 16 16 15 17 17 19 9 21 1 23 5 25
REMARK H PARENT 15 18 17 20 9 22 1 24 5 26
REMARK Flexibility Score: inf
ROOT
ATOM      1  C   UNL     1      -3.402  -8.246  37.907  1.00  0.00     0.402 A 
ATOM      2  O   UNL     1      -3.825  -7.020  37.604  1.00  0.00    -0.202 OA
ATOM      3  C   UNL     1      -3.620  -6.448  36.423  1.00  0.00     0.368 A 
ATOM      4  C   UNL     1      -4.105  -5.158  36.198  1.00  0.00     0.162 A 
ATOM      5  C   UNL     1      -3.906  -4.533  34.964  1.00  0.00     0.128 A 
ATOM      6  C   UNL     1      -3.220  -5.204  33.948  1.00  0.00     0.093 A 
ATOM      7  C   UNL     1      -2.724  -6.499  34.148  1.00  0.00     0.136 A 
ATOM      8  C   UNL     1      -2.921  -7.135  35.401  1.00  0.00     0.125 A 
ATOM      9  C   UNL     1      -2.448  -8.425  35.694  1.00  0.00     0.078 A 
ATOM     10  C   UNL     1      -2.677  -8.985  36.954  1.00  0.00     0.223 A 
ENDROOT
BRANCH   1  11
ATOM     11  C   UNL     1      -3.703  -8.777  39.256  1.00  0.00     0.087 A 
ATOM     12  C   UNL     1      -5.024  -8.885  39.724  1.00  0.00     0.022 A 
ATOM     13  C   UNL     1      -5.282  -9.367  41.008  1.00  0.00     0.051 A 
ATOM     14  C   UNL     1      -4.228  -9.738  41.850  1.00  0.00     0.157 A 
ATOM     15  C   UNL     1      -2.646  -9.130  40.111  1.00  0.00     0.068 A 
ATOM     16  C   UNL     1      -2.903  -9.616  41.401  1.00  0.00     0.158 A 
BRANCH  14  17
ATOM     17  O   UNL     1      -4.516 -10.218  43.126  1.00  0.00    -0.504 OA
ATOM     18  H   UNL     1      -3.876 -10.817  43.634  1.00  0.00     0.293 HD
ENDBRANCH  14  17
BRANCH  16  19
ATOM     19  O   UNL     1      -1.846  -9.976  42.237  1.00  0.00    -0.504 OA
ATOM     20  H   UNL     1      -1.005  -9.415  42.302  1.00  0.00     0.293 HD
ENDBRANCH  16  19
ENDBRANCH   1  11
BRANCH  10  21
ATOM     21  O   UNL     1      -2.165 -10.245  37.263  1.00  0.00    -0.500 OA
ATOM     22  H   UNL     1      -1.655 -10.418  38.122  1.00  0.00     0.294 HD
ENDBRANCH  10  21
BRANCH   5  23
ATOM     23  O   UNL     1      -4.386  -3.247  34.734  1.00  0.00    -0.507 OA
ATOM     24  H   UNL     1      -3.765  -2.486  34.485  1.00  0.00     0.293 HD
ENDBRANCH   5  23
BRANCH   7  25
ATOM     25  O   UNL     1      -2.052  -7.102  33.081  1.00  0.00    -0.507 OA
ATOM     26  H   UNL     1      -1.890  -8.095  32.997  1.00  0.00     0.293 HD
ENDBRANCH   7  25
TORSDOF 6
ENDMDL
MODEL 8
REMARK VINA RESULT:    -5.397      3.885      5.747
REMARK INTER + INTRA:          -6.691
REMARK INTER:                  -6.494
REMARK INTRA:                  -0.197
REMARK UNBOUND:                -0.190
REMARK SMILES Oc1cc(O)c2cc(O)c(-c3ccc(O)c(O)c3)[o+]c2c1
REMARK SMILES IDX 10 1 19 2 20 3 21 4 2 5 3 6 4 7 6 8 7 9 8 10 11 11 12 12
REMARK SMILES IDX 13 13 14 14 18 15 16 16 15 17 17 19 9 21 1 23 5 25
REMARK H PARENT 15 18 17 20 9 22 1 24 5 26
REMARK Flexibility Score: inf
ROOT
ATOM      1  C   UNL     1      -2.637 -11.552  40.947  1.00  0.00     0.402 A 
ATOM      2  O   UNL     1      -3.228 -12.603  40.382  1.00  0.00    -0.202 OA
ATOM      3  C   UNL     1      -3.317 -13.793  40.968  1.00  0.00     0.368 A 
ATOM      4  C   UNL     1      -3.961 -14.835  40.296  1.00  0.00     0.162 A 
ATOM      5  C   UNL     1      -4.071 -16.096  40.889  1.00  0.00     0.128 A 
ATOM      6  C   UNL     1      -3.536 -16.314  42.161  1.00  0.00     0.093 A 
ATOM      7  C   UNL     1      -2.886 -15.286  42.856  1.00  0.00     0.136 A 
ATOM      8  C   UNL     1      -2.769 -14.005  42.255  1.00  0.00     0.125 A 
ATOM      9  C   UNL     1      -2.125 -12.921  42.872  1.00  0.00     0.078 A 
ATOM     10  C   UNL     1      -2.044 -11.688  42.216  1.00  0.00     0.223 A 
ENDROOT
BRANCH   1  11
ATOM     11  C   UNL     1      -2.612 -10.276  40.197  1.00  0.00     0.087 A 
ATOM     12  C   UNL     1      -1.405  -9.713  39.748  1.00  0.00     0.022 A 
ATOM     13  C   UNL     1      -1.404  -8.496  39.063  1.00  0.00     0.051 A 
ATOM     14  C   UNL     1      -2.604  -7.818  38.824  1.00  0.00     0.157 A 
ATOM     15  C   UNL     1      -3.812  -9.582  39.975  1.00  0.00     0.068 A 
ATOM     16  C   UNL     1      -3.815  -8.361  39.285  1.00  0.00     0.158 A 
BRANCH  14  17
ATOM     17  O   UNL     1      -2.572  -6.607  38.135  1.00  0.00    -0.504 OA
ATOM     18  H   UNL     1      -3.086  -6.464  37.273  1.00  0.00     0.293 HD
ENDBRANCH  14  17
BRANCH  16  19
ATOM     19  O   UNL     1      -5.014  -7.687  39.058  1.00  0.00    -0.504 OA
ATOM     20  H   UNL     1      -5.797  -7.766  39.696  1.00  0.00     0.293 HD
ENDBRANCH  16  19
ENDBRANCH   1  11
BRANCH  10  21
ATOM     21  O   UNL     1      -1.361 -10.625  42.806  1.00  0.00    -0.500 OA
ATOM     22  H   UNL     1      -1.234 -10.564  43.810  1.00  0.00     0.294 HD
ENDBRANCH  10  21
BRANCH   5  23
ATOM     23  O   UNL     1      -4.711 -17.139  40.225  1.00  0.00    -0.507 OA
ATOM     24  H   UNL     1      -4.249 -17.661  39.490  1.00  0.00     0.293 HD
ENDBRANCH   5  23
BRANCH   7  25
ATOM     25  O   UNL     1      -2.382 -15.585  44.124  1.00  0.00    -0.507 OA
ATOM     26  H   UNL     1      -1.513 -16.072  44.293  1.00  0.00     0.293 HD
ENDBRANCH   7  25
TORSDOF 6
ENDMDL
