MODEL 1
REMARK VINA RESULT:    -6.386      0.000      0.000
REMARK INTER + INTRA:         -12.606
REMARK INTER:                 -11.238
REMARK INTRA:                  -1.367
REMARK UNBOUND:                -1.367
REMARK SMILES CCCCCCCCCCCCCCC(=O)[O-]
REMARK SMILES IDX 9 1 10 2 11 3 12 4 13 5 14 6 15 7 16 8 17 9 8 10 7 11 6 12
REMARK SMILES IDX 5 13 4 14 3 15 2 16 1 17
REMARK H PARENT
REMARK Flexibility Score: inf
ROOT
ATOM      1  C   UNL     1      17.476  71.671  74.073  1.00  0.00     0.000 C 
ENDROOT
BRANCH   1   2
ATOM      2  C   UNL     1      18.824  71.149  73.543  1.00  0.00     0.000 C 
BRANCH   2   3
ATOM      3  C   UNL     1      19.758  72.235  72.973  1.00  0.00     0.000 C 
BRANCH   3   4
ATOM      4  C   UNL     1      20.221  71.958  71.527  1.00  0.00     0.000 C 
BRANCH   4   5
ATOM      5  C   UNL     1      19.847  70.543  71.051  1.00  0.00     0.006 C 
BRANCH   5   6
ATOM      6  C   UNL     1      20.707  70.081  69.867  1.00  0.00     0.053 C 
BRANCH   6   7
ATOM      7  C   UNL     1      20.367  68.686  69.441  1.00  0.00     0.041 C 
ATOM      8  O   UNL     1      19.538  68.007  70.103  1.00  0.00    -0.550 OA
ATOM      9  O   UNL     1      20.990  68.124  68.335  1.00  0.00    -0.550 OA
ENDBRANCH   6   7
ENDBRANCH   5   6
ENDBRANCH   4   5
ENDBRANCH   3   4
ENDBRANCH   2   3
ENDBRANCH   1   2
BRANCH   1  10
ATOM     10  C   UNL     1      16.848  72.812  73.245  1.00  0.00     0.000 C 
BRANCH  10  11
ATOM     11  C   UNL     1      15.940  72.356  72.085  1.00  0.00    -0.000 C 
BRANCH  11  12
ATOM     12  C   UNL     1      14.485  72.853  72.164  1.00  0.00    -0.000 C 
BRANCH  12  13
ATOM     13  C   UNL     1      13.485  71.728  72.468  1.00  0.00    -0.000 C 
BRANCH  13  14
ATOM     14  C   UNL     1      14.161  70.352  72.363  1.00  0.00    -0.000 C 
BRANCH  14  15
ATOM     15  C   UNL     1      14.255  69.634  73.719  1.00  0.00    -0.000 C 
BRANCH  15  16
ATOM     16  C   UNL     1      13.749  70.498  74.883  1.00  0.00    -0.003 C 
ATOM     17  C   UNL     1      14.006  69.818  76.224  1.00  0.00     0.004 C 
ENDBRANCH  15  16
ENDBRANCH  14  15
ENDBRANCH  13  14
ENDBRANCH  12  13
ENDBRANCH  11  12
ENDBRANCH  10  11
ENDBRANCH   1  10
TORSDOF 13
ENDMDL
MODEL 2
REMARK VINA RESULT:    -6.275      3.031      3.649
REMARK INTER + INTRA:         -12.411
REMARK INTER:                 -11.266
REMARK INTRA:                  -1.145
REMARK UNBOUND:                -1.367
REMARK SMILES CCCCCCCCCCCCCCC(=O)[O-]
REMARK SMILES IDX 9 1 10 2 11 3 12 4 13 5 14 6 15 7 16 8 17 9 8 10 7 11 6 12
REMARK SMILES IDX 5 13 4 14 3 15 2 16 1 17
REMARK H PARENT
REMARK Flexibility Score: inf
ROOT
ATOM      1  C   UNL     1      19.451  72.608  71.839  1.00  0.00     0.000 C 
ENDROOT
BRANCH   1   2
ATOM      2  C   UNL     1      19.466  71.089  71.588  1.00  0.00     0.000 C 
BRANCH   2   3
ATOM      3  C   UNL     1      20.641  70.338  72.244  1.00  0.00     0.000 C 
BRANCH   3   4
ATOM      4  C   UNL     1      20.663  70.444  73.783  1.00  0.00     0.000 C 
BRANCH   4   5
ATOM      5  C   UNL     1      22.057  70.799  74.328  1.00  0.00     0.006 C 
BRANCH   5   6
ATOM      6  C   UNL     1      23.050  71.138  73.208  1.00  0.00     0.053 C 
BRANCH   6   7
ATOM      7  C   UNL     1      23.317  72.609  73.124  1.00  0.00     0.041 C 
ATOM      8  O   UNL     1      23.089  73.233  72.054  1.00  0.00    -0.550 OA
ATOM      9  O   UNL     1      23.847  73.285  74.215  1.00  0.00    -0.550 OA
ENDBRANCH   6   7
ENDBRANCH   5   6
ENDBRANCH   4   5
ENDBRANCH   3   4
ENDBRANCH   2   3
ENDBRANCH   1   2
BRANCH   1  10
ATOM     10  C   UNL     1      18.045  73.232  71.970  1.00  0.00     0.000 C 
BRANCH  10  11
ATOM     11  C   UNL     1      17.122  72.556  73.003  1.00  0.00    -0.000 C 
BRANCH  11  12
ATOM     12  C   UNL     1      15.701  72.243  72.500  1.00  0.00    -0.000 C 
BRANCH  12  13
ATOM     13  C   UNL     1      15.481  70.748  72.223  1.00  0.00    -0.000 C 
BRANCH  13  14
ATOM     14  C   UNL     1      14.040  70.335  72.557  1.00  0.00    -0.000 C 
BRANCH  14  15
ATOM     15  C   UNL     1      13.626  70.734  73.983  1.00  0.00    -0.000 C 
BRANCH  15  16
ATOM     16  C   UNL     1      14.097  69.724  75.040  1.00  0.00    -0.003 C 
ATOM     17  C   UNL     1      14.562  70.434  76.308  1.00  0.00     0.004 C 
ENDBRANCH  15  16
ENDBRANCH  14  15
ENDBRANCH  13  14
ENDBRANCH  12  13
ENDBRANCH  11  12
ENDBRANCH  10  11
ENDBRANCH   1  10
TORSDOF 13
ENDMDL
MODEL 3
REMARK VINA RESULT:    -6.252      2.961      3.942
REMARK INTER + INTRA:         -12.370
REMARK INTER:                 -11.325
REMARK INTRA:                  -1.045
REMARK UNBOUND:                -1.367
REMARK SMILES CCCCCCCCCCCCCCC(=O)[O-]
REMARK SMILES IDX 9 1 10 2 11 3 12 4 13 5 14 6 15 7 16 8 17 9 8 10 7 11 6 12
REMARK SMILES IDX 5 13 4 14 3 15 2 16 1 17
REMARK H PARENT
REMARK Flexibility Score: inf
ROOT
ATOM      1  C   UNL     1      19.676  70.748  71.249  1.00  0.00     0.000 C 
ENDROOT
BRANCH   1   2
ATOM      2  C   UNL     1      21.203  70.820  71.068  1.00  0.00     0.000 C 
BRANCH   2   3
ATOM      3  C   UNL     1      21.707  72.065  70.312  1.00  0.00     0.000 C 
BRANCH   3   4
ATOM      4  C   UNL     1      22.395  73.105  71.220  1.00  0.00     0.000 C 
BRANCH   4   5
ATOM      5  C   UNL     1      23.346  72.456  72.240  1.00  0.00     0.006 C 
BRANCH   5   6
ATOM      6  C   UNL     1      22.835  72.592  73.681  1.00  0.00     0.053 C 
BRANCH   6   7
ATOM      7  C   UNL     1      23.178  71.394  74.510  1.00  0.00     0.041 C 
ATOM      8  O   UNL     1      24.125  71.448  75.339  1.00  0.00    -0.550 OA
ATOM      9  O   UNL     1      22.475  70.208  74.345  1.00  0.00    -0.550 OA
ENDBRANCH   6   7
ENDBRANCH   5   6
ENDBRANCH   4   5
ENDBRANCH   3   4
ENDBRANCH   2   3
ENDBRANCH   1   2
BRANCH   1  10
ATOM     10  C   UNL     1      19.119  71.584  72.420  1.00  0.00     0.000 C 
BRANCH  10  11
ATOM     11  C   UNL     1      18.483  72.930  72.021  1.00  0.00    -0.000 C 
BRANCH  11  12
ATOM     12  C   UNL     1      16.953  72.999  72.170  1.00  0.00    -0.000 C 
BRANCH  12  13
ATOM     13  C   UNL     1      16.408  71.997  73.199  1.00  0.00    -0.000 C 
BRANCH  13  14
ATOM     14  C   UNL     1      15.453  70.994  72.534  1.00  0.00    -0.000 C 
BRANCH  14  15
ATOM     15  C   UNL     1      14.106  70.885  73.266  1.00  0.00    -0.000 C 
BRANCH  15  16
ATOM     16  C   UNL     1      14.032  69.661  74.191  1.00  0.00    -0.003 C 
ATOM     17  C   UNL     1      14.039  70.079  75.658  1.00  0.00     0.004 C 
ENDBRANCH  15  16
ENDBRANCH  14  15
ENDBRANCH  13  14
ENDBRANCH  12  13
ENDBRANCH  11  12
ENDBRANCH  10  11
ENDBRANCH   1  10
TORSDOF 13
ENDMDL
MODEL 4
REMARK VINA RESULT:    -6.247      1.244      2.370
REMARK INTER + INTRA:         -12.361
REMARK INTER:                 -11.213
REMARK INTRA:                  -1.148
REMARK UNBOUND:                -1.367
REMARK SMILES CCCCCCCCCCCCCCC(=O)[O-]
REMARK SMILES IDX 9 1 10 2 11 3 12 4 13 5 14 6 15 7 16 8 17 9 8 10 7 11 6 12
REMARK SMILES IDX 5 13 4 14 3 15 2 16 1 17
REMARK H PARENT
REMARK Flexibility Score: inf
ROOT
ATOM      1  C   UNL     1      16.502  72.446  72.121  1.00  0.00     0.000 C 
ENDROOT
BRANCH   1   2
ATOM      2  C   UNL     1      17.493  73.499  71.592  1.00  0.00     0.000 C 
BRANCH   2   3
ATOM      3  C   UNL     1      18.978  73.106  71.712  1.00  0.00     0.000 C 
BRANCH   3   4
ATOM      4  C   UNL     1      19.202  71.604  71.986  1.00  0.00     0.000 C 
BRANCH   4   5
ATOM      5  C   UNL     1      20.638  71.155  71.663  1.00  0.00     0.006 C 
BRANCH   5   6
ATOM      6  C   UNL     1      20.744  69.636  71.474  1.00  0.00     0.053 C 
BRANCH   6   7
ATOM      7  C   UNL     1      20.433  69.226  70.067  1.00  0.00     0.041 C 
ATOM      8  O   UNL     1      19.887  68.114  69.839  1.00  0.00    -0.550 OA
ATOM      9  O   UNL     1      20.775  70.055  69.008  1.00  0.00    -0.550 OA
ENDBRANCH   6   7
ENDBRANCH   5   6
ENDBRANCH   4   5
ENDBRANCH   3   4
ENDBRANCH   2   3
ENDBRANCH   1   2
BRANCH   1  10
ATOM     10  C   UNL     1      16.230  72.513  73.638  1.00  0.00     0.000 C 
BRANCH  10  11
ATOM     11  C   UNL     1      16.269  71.158  74.371  1.00  0.00    -0.000 C 
BRANCH  11  12
ATOM     12  C   UNL     1      15.085  70.896  75.321  1.00  0.00    -0.000 C 
BRANCH  12  13
ATOM     13  C   UNL     1      14.009  69.994  74.698  1.00  0.00    -0.000 C 
BRANCH  13  14
ATOM     14  C   UNL     1      14.232  69.839  73.187  1.00  0.00    -0.000 C 
BRANCH  14  15
ATOM     15  C   UNL     1      13.202  70.617  72.353  1.00  0.00    -0.000 C 
BRANCH  15  16
ATOM     16  C   UNL     1      12.427  71.651  73.184  1.00  0.00    -0.003 C 
ATOM     17  C   UNL     1      12.698  73.068  72.688  1.00  0.00     0.004 C 
ENDBRANCH  15  16
ENDBRANCH  14  15
ENDBRANCH  13  14
ENDBRANCH  12  13
ENDBRANCH  11  12
ENDBRANCH  10  11
ENDBRANCH   1  10
TORSDOF 13
ENDMDL
MODEL 5
REMARK VINA RESULT:    -6.237      2.904      4.682
REMARK INTER + INTRA:         -12.345
REMARK INTER:                 -10.958
REMARK INTRA:                  -1.387
REMARK UNBOUND:                -1.367
REMARK SMILES CCCCCCCCCCCCCCC(=O)[O-]
REMARK SMILES IDX 9 1 10 2 11 3 12 4 13 5 14 6 15 7 16 8 17 9 8 10 7 11 6 12
REMARK SMILES IDX 5 13 4 14 3 15 2 16 1 17
REMARK H PARENT
REMARK Flexibility Score: inf
ROOT
ATOM      1  C   UNL     1      15.163  70.463  76.458  1.00  0.00     0.000 C 
ENDROOT
BRANCH   1   2
ATOM      2  C   UNL     1      16.187  71.402  75.794  1.00  0.00     0.000 C 
BRANCH   2   3
ATOM      3  C   UNL     1      17.581  71.407  76.451  1.00  0.00     0.000 C 
BRANCH   3   4
ATOM      4  C   UNL     1      18.743  71.461  75.437  1.00  0.00     0.000 C 
BRANCH   4   5
ATOM      5  C   UNL     1      19.916  70.549  75.839  1.00  0.00     0.006 C 
BRANCH   5   6
ATOM      6  C   UNL     1      20.863  70.268  74.665  1.00  0.00     0.053 C 
BRANCH   6   7
ATOM      7  C   UNL     1      22.287  70.149  75.113  1.00  0.00     0.041 C 
ATOM      8  O   UNL     1      22.562  69.580  76.202  1.00  0.00    -0.550 OA
ATOM      9  O   UNL     1      23.307  70.696  74.346  1.00  0.00    -0.550 OA
ENDBRANCH   6   7
ENDBRANCH   5   6
ENDBRANCH   4   5
ENDBRANCH   3   4
ENDBRANCH   2   3
ENDBRANCH   1   2
BRANCH   1  10
ATOM     10  C   UNL     1      14.023  69.985  75.535  1.00  0.00     0.000 C 
BRANCH  10  11
ATOM     11  C   UNL     1      14.377  69.921  74.036  1.00  0.00    -0.000 C 
BRANCH  11  12
ATOM     12  C   UNL     1      13.390  70.644  73.102  1.00  0.00    -0.000 C 
BRANCH  12  13
ATOM     13  C   UNL     1      14.052  71.767  72.289  1.00  0.00    -0.000 C 
BRANCH  13  14
ATOM     14  C   UNL     1      15.583  71.646  72.332  1.00  0.00    -0.000 C 
BRANCH  14  15
ATOM     15  C   UNL     1      16.287  73.010  72.266  1.00  0.00    -0.000 C 
BRANCH  15  16
ATOM     16  C   UNL     1      17.805  72.883  72.071  1.00  0.00    -0.003 C 
ATOM     17  C   UNL     1      18.207  71.435  71.810  1.00  0.00     0.004 C 
ENDBRANCH  15  16
ENDBRANCH  14  15
ENDBRANCH  13  14
ENDBRANCH  12  13
ENDBRANCH  11  12
ENDBRANCH  10  11
ENDBRANCH   1  10
TORSDOF 13
ENDMDL
MODEL 6
REMARK VINA RESULT:    -6.213      6.079      9.100
REMARK INTER + INTRA:         -12.302
REMARK INTER:                 -11.041
REMARK INTRA:                  -1.261
REMARK UNBOUND:                -1.367
REMARK SMILES CCCCCCCCCCCCCCC(=O)[O-]
REMARK SMILES IDX 9 1 10 2 11 3 12 4 13 5 14 6 15 7 16 8 17 9 8 10 7 11 6 12
REMARK SMILES IDX 5 13 4 14 3 15 2 16 1 17
REMARK H PARENT
REMARK Flexibility Score: inf
ROOT
ATOM      1  C   UNL     1      11.299  72.698  71.902  1.00  0.00     0.000 C 
ENDROOT
BRANCH   1   2
ATOM      2  C   UNL     1      11.551  71.283  71.352  1.00  0.00     0.000 C 
BRANCH   2   3
ATOM      3  C   UNL     1      10.294  70.398  71.244  1.00  0.00     0.000 C 
BRANCH   3   4
ATOM      4  C   UNL     1       8.984  71.139  71.583  1.00  0.00     0.000 C 
BRANCH   4   5
ATOM      5  C   UNL     1       8.374  70.673  72.917  1.00  0.00     0.006 C 
BRANCH   5   6
ATOM      6  C   UNL     1       6.895  71.061  73.047  1.00  0.00     0.053 C 
BRANCH   6   7
ATOM      7  C   UNL     1       6.599  71.692  74.373  1.00  0.00     0.041 C 
ATOM      8  O   UNL     1       7.500  71.778  75.248  1.00  0.00    -0.550 OA
ATOM      9  O   UNL     1       5.320  72.155  74.654  1.00  0.00    -0.550 OA
ENDBRANCH   6   7
ENDBRANCH   5   6
ENDBRANCH   4   5
ENDBRANCH   3   4
ENDBRANCH   2   3
ENDBRANCH   1   2
BRANCH   1  10
ATOM     10  C   UNL     1      12.505  73.344  72.616  1.00  0.00     0.000 C 
BRANCH  10  11
ATOM     11  C   UNL     1      13.882  73.005  72.012  1.00  0.00    -0.000 C 
BRANCH  11  12
ATOM     12  C   UNL     1      14.809  72.181  72.923  1.00  0.00    -0.000 C 
BRANCH  12  13
ATOM     13  C   UNL     1      14.939  70.717  72.476  1.00  0.00    -0.000 C 
BRANCH  13  14
ATOM     14  C   UNL     1      14.273  69.774  73.489  1.00  0.00    -0.000 C 
BRANCH  14  15
ATOM     15  C   UNL     1      13.579  70.529  74.634  1.00  0.00    -0.000 C 
BRANCH  15  16
ATOM     16  C   UNL     1      13.919  69.952  76.016  1.00  0.00    -0.003 C 
ATOM     17  C   UNL     1      15.193  70.579  76.575  1.00  0.00     0.004 C 
ENDBRANCH  15  16
ENDBRANCH  14  15
ENDBRANCH  13  14
ENDBRANCH  12  13
ENDBRANCH  11  12
ENDBRANCH  10  11
ENDBRANCH   1  10
TORSDOF 13
ENDMDL
MODEL 7
REMARK VINA RESULT:    -6.201      2.914      3.791
REMARK INTER + INTRA:         -12.280
REMARK INTER:                 -11.095
REMARK INTRA:                  -1.185
REMARK UNBOUND:                -1.367
REMARK SMILES CCCCCCCCCCCCCCC(=O)[O-]
REMARK SMILES IDX 9 1 10 2 11 3 12 4 13 5 14 6 15 7 16 8 17 9 8 10 7 11 6 12
REMARK SMILES IDX 5 13 4 14 3 15 2 16 1 17
REMARK H PARENT
REMARK Flexibility Score: inf
ROOT
ATOM      1  C   UNL     1      17.142  71.930  72.090  1.00  0.00     0.000 C 
ENDROOT
BRANCH   1   2
ATOM      2  C   UNL     1      18.516  72.499  71.691  1.00  0.00     0.000 C 
BRANCH   2   3
ATOM      3  C   UNL     1      19.722  71.784  72.331  1.00  0.00     0.000 C 
BRANCH   3   4
ATOM      4  C   UNL     1      19.562  71.536  73.847  1.00  0.00     0.000 C 
BRANCH   4   5
ATOM      5  C   UNL     1      20.191  70.204  74.293  1.00  0.00     0.006 C 
BRANCH   5   6
ATOM      6  C   UNL     1      20.695  70.256  75.741  1.00  0.00     0.053 C 
BRANCH   6   7
ATOM      7  C   UNL     1      22.169  70.006  75.828  1.00  0.00     0.041 C 
ATOM      8  O   UNL     1      22.620  69.161  76.646  1.00  0.00    -0.550 OA
ATOM      9  O   UNL     1      23.046  70.730  75.031  1.00  0.00    -0.550 OA
ENDBRANCH   6   7
ENDBRANCH   5   6
ENDBRANCH   4   5
ENDBRANCH   3   4
ENDBRANCH   2   3
ENDBRANCH   1   2
BRANCH   1  10
ATOM     10  C   UNL     1      15.977  72.940  72.031  1.00  0.00     0.000 C 
BRANCH  10  11
ATOM     11  C   UNL     1      14.745  72.570  72.882  1.00  0.00    -0.000 C 
BRANCH  11  12
ATOM     12  C   UNL     1      13.789  71.551  72.237  1.00  0.00    -0.000 C 
BRANCH  12  13
ATOM     13  C   UNL     1      13.289  70.490  73.228  1.00  0.00    -0.000 C 
BRANCH  13  14
ATOM     14  C   UNL     1      14.422  70.031  74.158  1.00  0.00    -0.000 C 
BRANCH  14  15
ATOM     15  C   UNL     1      14.005  70.014  75.637  1.00  0.00    -0.000 C 
BRANCH  15  16
ATOM     16  C   UNL     1      15.093  70.574  76.565  1.00  0.00    -0.003 C 
ATOM     17  C   UNL     1      16.211  71.236  75.766  1.00  0.00     0.004 C 
ENDBRANCH  15  16
ENDBRANCH  14  15
ENDBRANCH  13  14
ENDBRANCH  12  13
ENDBRANCH  11  12
ENDBRANCH  10  11
ENDBRANCH   1  10
TORSDOF 13
ENDMDL
MODEL 8
REMARK VINA RESULT:    -6.179      2.623      3.616
REMARK INTER + INTRA:         -12.241
REMARK INTER:                 -11.010
REMARK INTRA:                  -1.231
REMARK UNBOUND:                -1.367
REMARK SMILES CCCCCCCCCCCCCCC(=O)[O-]
REMARK SMILES IDX 9 1 10 2 11 3 12 4 13 5 14 6 15 7 16 8 17 9 8 10 7 11 6 12
REMARK SMILES IDX 5 13 4 14 3 15 2 16 1 17
REMARK H PARENT
REMARK Flexibility Score: inf
ROOT
ATOM      1  C   UNL     1      16.792  72.710  72.026  1.00  0.00     0.000 C 
ENDROOT
BRANCH   1   2
ATOM      2  C   UNL     1      18.128  73.433  71.775  1.00  0.00     0.000 C 
BRANCH   2   3
ATOM      3  C   UNL     1      19.367  72.715  72.345  1.00  0.00     0.000 C 
BRANCH   3   4
ATOM      4  C   UNL     1      19.481  71.238  71.912  1.00  0.00     0.000 C 
BRANCH   4   5
ATOM      5  C   UNL     1      20.596  70.490  72.665  1.00  0.00     0.006 C 
BRANCH   5   6
ATOM      6  C   UNL     1      21.350  71.401  73.643  1.00  0.00     0.053 C 
BRANCH   6   7
ATOM      7  C   UNL     1      22.576  70.739  74.191  1.00  0.00     0.041 C 
ATOM      8  O   UNL     1      23.659  70.784  73.550  1.00  0.00    -0.550 OA
ATOM      9  O   UNL     1      22.515  70.044  75.392  1.00  0.00    -0.550 OA
ENDBRANCH   6   7
ENDBRANCH   5   6
ENDBRANCH   4   5
ENDBRANCH   3   4
ENDBRANCH   2   3
ENDBRANCH   1   2
BRANCH   1  10
ATOM     10  C   UNL     1      16.353  72.647  73.504  1.00  0.00     0.000 C 
BRANCH  10  11
ATOM     11  C   UNL     1      16.372  71.240  74.134  1.00  0.00    -0.000 C 
BRANCH  11  12
ATOM     12  C   UNL     1      15.250  70.966  75.151  1.00  0.00    -0.000 C 
BRANCH  12  13
ATOM     13  C   UNL     1      14.198  69.975  74.628  1.00  0.00    -0.000 C 
BRANCH  13  14
ATOM     14  C   UNL     1      14.284  69.842  73.100  1.00  0.00    -0.000 C 
BRANCH  14  15
ATOM     15  C   UNL     1      13.216  70.673  72.372  1.00  0.00    -0.000 C 
BRANCH  15  16
ATOM     16  C   UNL     1      12.506  71.668  73.301  1.00  0.00    -0.003 C 
ATOM     17  C   UNL     1      12.622  73.094  72.771  1.00  0.00     0.004 C 
ENDBRANCH  15  16
ENDBRANCH  14  15
ENDBRANCH  13  14
ENDBRANCH  12  13
ENDBRANCH  11  12
ENDBRANCH  10  11
ENDBRANCH   1  10
TORSDOF 13
ENDMDL
MODEL 9
REMARK VINA RESULT:    -6.142      6.876     10.183
REMARK INTER + INTRA:         -12.176
REMARK INTER:                 -10.938
REMARK INTRA:                  -1.238
REMARK UNBOUND:                -1.367
REMARK SMILES CCCCCCCCCCCCCCC(=O)[O-]
REMARK SMILES IDX 9 1 10 2 11 3 12 4 13 5 14 6 15 7 16 8 17 9 8 10 7 11 6 12
REMARK SMILES IDX 5 13 4 14 3 15 2 16 1 17
REMARK H PARENT
REMARK Flexibility Score: inf
ROOT
ATOM      1  C   UNL     1      10.919  72.617  73.752  1.00  0.00     0.000 C 
ENDROOT
BRANCH   1   2
ATOM      2  C   UNL     1      11.031  72.063  75.184  1.00  0.00     0.000 C 
BRANCH   2   3
ATOM      3  C   UNL     1       9.684  71.853  75.902  1.00  0.00     0.000 C 
BRANCH   3   4
ATOM      4  C   UNL     1       9.464  72.805  77.097  1.00  0.00     0.000 C 
BRANCH   4   5
ATOM      5  C   UNL     1       8.238  73.714  76.906  1.00  0.00     0.006 C 
BRANCH   5   6
ATOM      6  C   UNL     1       7.006  73.194  77.658  1.00  0.00     0.053 C 
BRANCH   6   7
ATOM      7  C   UNL     1       5.796  73.139  76.777  1.00  0.00     0.041 C 
ATOM      8  O   UNL     1       5.834  73.632  75.619  1.00  0.00    -0.550 OA
ATOM      9  O   UNL     1       4.617  72.574  77.246  1.00  0.00    -0.550 OA
ENDBRANCH   6   7
ENDBRANCH   5   6
ENDBRANCH   4   5
ENDBRANCH   3   4
ENDBRANCH   2   3
ENDBRANCH   1   2
BRANCH   1  10
ATOM     10  C   UNL     1      11.061  71.563  72.633  1.00  0.00     0.000 C 
BRANCH  10  11
ATOM     11  C   UNL     1      12.365  71.647  71.815  1.00  0.00    -0.000 C 
BRANCH  11  12
ATOM     12  C   UNL     1      13.188  72.930  72.030  1.00  0.00    -0.000 C 
BRANCH  12  13
ATOM     13  C   UNL     1      14.655  72.647  72.386  1.00  0.00    -0.000 C 
BRANCH  13  14
ATOM     14  C   UNL     1      14.906  71.137  72.510  1.00  0.00    -0.000 C 
BRANCH  14  15
ATOM     15  C   UNL     1      15.153  70.695  73.961  1.00  0.00    -0.000 C 
BRANCH  15  16
ATOM     16  C   UNL     1      14.024  69.810  74.510  1.00  0.00    -0.003 C 
ATOM     17  C   UNL     1      13.985  69.852  76.035  1.00  0.00     0.004 C 
ENDBRANCH  15  16
ENDBRANCH  14  15
ENDBRANCH  13  14
ENDBRANCH  12  13
ENDBRANCH  11  12
ENDBRANCH  10  11
ENDBRANCH   1  10
TORSDOF 13
ENDMDL
