MODEL 1
REMARK VINA RESULT:    -5.260      0.000      0.000
REMARK INTER + INTRA:         -17.978
REMARK INTER:                 -13.254
REMARK INTRA:                  -4.724
REMARK UNBOUND:                -4.724
REMARK SMILES CCCCCCCCCCCCCCCCCCCCCCCCCCCC(=O)[O-]
REMARK SMILES IDX 15 1 16 2 17 3 18 4 19 5 20 6 21 7 22 8 23 9 24 10 25 11
REMARK SMILES IDX 26 12 27 13 28 14 29 15 30 16 14 17 13 18 12 19 11 20 10 21
REMARK SMILES IDX 9 22 8 23 7 24 6 25 5 26 4 27 3 28 2 29 1 30
REMARK H PARENT
REMARK Flexibility Score: inf
ROOT
ATOM      1  C   UNL     1      20.945   1.236 -22.642  1.00  0.00     0.000 C 
ENDROOT
BRANCH   1   2
ATOM      2  C   UNL     1      21.960   1.488 -21.515  1.00  0.00     0.000 C 
BRANCH   2   3
ATOM      3  C   UNL     1      21.599   2.712 -20.659  1.00  0.00     0.000 C 
BRANCH   3   4
ATOM      4  C   UNL     1      21.073   2.328 -19.265  1.00  0.00     0.000 C 
BRANCH   4   5
ATOM      5  C   UNL     1      21.212   0.826 -18.974  1.00  0.00     0.000 C 
BRANCH   5   6
ATOM      6  C   UNL     1      19.861   0.095 -18.984  1.00  0.00     0.000 C 
BRANCH   6   7
ATOM      7  C   UNL     1      20.045  -1.402 -18.687  1.00  0.00     0.000 C 
BRANCH   7   8
ATOM      8  C   UNL     1      20.846  -1.660 -17.400  1.00  0.00     0.000 C 
BRANCH   8   9
ATOM      9  C   UNL     1      19.948  -1.767 -16.155  1.00  0.00     0.000 C 
BRANCH   9  10
ATOM     10  C   UNL     1      20.506  -0.978 -14.958  1.00  0.00     0.000 C 
BRANCH  10  11
ATOM     11  C   UNL     1      21.030   0.413 -15.355  1.00  0.00     0.000 C 
BRANCH  11  12
ATOM     12  C   UNL     1      20.102   1.558 -14.905  1.00  0.00     0.006 C 
BRANCH  12  13
ATOM     13  C   UNL     1      19.217   2.122 -16.031  1.00  0.00     0.053 C 
BRANCH  13  14
ATOM     14  C   UNL     1      17.798   1.649 -15.945  1.00  0.00     0.041 C 
ATOM     15  O   UNL     1      16.964   1.980 -16.830  1.00  0.00    -0.550 OA
ATOM     16  O   UNL     1      17.402   0.818 -14.905  1.00  0.00    -0.550 OA
ENDBRANCH  13  14
ENDBRANCH  12  13
ENDBRANCH  11  12
ENDBRANCH  10  11
ENDBRANCH   9  10
ENDBRANCH   8   9
ENDBRANCH   7   8
ENDBRANCH   6   7
ENDBRANCH   5   6
ENDBRANCH   4   5
ENDBRANCH   3   4
ENDBRANCH   2   3
ENDBRANCH   1   2
BRANCH   1  17
ATOM     17  C   UNL     1      20.209   2.515 -23.079  1.00  0.00     0.000 C 
BRANCH  17  18
ATOM     18  C   UNL     1      18.677   2.347 -23.169  1.00  0.00     0.000 C 
BRANCH  18  19
ATOM     19  C   UNL     1      18.165   1.217 -22.256  1.00  0.00     0.000 C 
BRANCH  19  20
ATOM     20  C   UNL     1      16.979   0.451 -22.865  1.00  0.00     0.000 C 
BRANCH  20  21
ATOM     21  C   UNL     1      16.425   1.131 -24.129  1.00  0.00     0.000 C 
BRANCH  21  22
ATOM     22  C   UNL     1      15.726   0.140 -25.074  1.00  0.00    -0.000 C 
BRANCH  22  23
ATOM     23  C   UNL     1      16.416   0.039 -26.445  1.00  0.00    -0.000 C 
BRANCH  23  24
ATOM     24  C   UNL     1      17.688   0.899 -26.541  1.00  0.00    -0.000 C 
BRANCH  24  25
ATOM     25  C   UNL     1      18.921   0.125 -27.054  1.00  0.00    -0.000 C 
BRANCH  25  26
ATOM     26  C   UNL     1      20.105   0.202 -26.072  1.00  0.00    -0.000 C 
BRANCH  26  27
ATOM     27  C   UNL     1      20.440  -1.159 -25.440  1.00  0.00    -0.000 C 
BRANCH  27  28
ATOM     28  C   UNL     1      19.368  -1.625 -24.439  1.00  0.00    -0.000 C 
BRANCH  28  29
ATOM     29  C   UNL     1      18.839  -3.032 -24.759  1.00  0.00    -0.003 C 
ATOM     30  C   UNL     1      19.933  -3.977 -25.254  1.00  0.00     0.004 C 
ENDBRANCH  28  29
ENDBRANCH  27  28
ENDBRANCH  26  27
ENDBRANCH  25  26
ENDBRANCH  24  25
ENDBRANCH  23  24
ENDBRANCH  22  23
ENDBRANCH  21  22
ENDBRANCH  20  21
ENDBRANCH  19  20
ENDBRANCH  18  19
ENDBRANCH  17  18
ENDBRANCH   1  17
TORSDOF 26
ENDMDL
MODEL 2
REMARK VINA RESULT:    -5.133      1.399      2.357
REMARK INTER + INTRA:         -17.658
REMARK INTER:                 -13.378
REMARK INTRA:                  -4.280
REMARK UNBOUND:                -4.724
REMARK SMILES CCCCCCCCCCCCCCCCCCCCCCCCCCCC(=O)[O-]
REMARK SMILES IDX 15 1 16 2 17 3 18 4 19 5 20 6 21 7 22 8 23 9 24 10 25 11
REMARK SMILES IDX 26 12 27 13 28 14 29 15 30 16 14 17 13 18 12 19 11 20 10 21
REMARK SMILES IDX 9 22 8 23 7 24 6 25 5 26 4 27 3 28 2 29 1 30
REMARK H PARENT
REMARK Flexibility Score: inf
ROOT
ATOM      1  C   UNL     1      22.674   0.390 -24.979  1.00  0.00     0.000 C 
ENDROOT
BRANCH   1   2
ATOM      2  C   UNL     1      23.710   0.538 -23.853  1.00  0.00     0.000 C 
BRANCH   2   3
ATOM      3  C   UNL     1      23.667   1.922 -23.188  1.00  0.00     0.000 C 
BRANCH   3   4
ATOM      4  C   UNL     1      23.466   1.845 -21.664  1.00  0.00     0.000 C 
BRANCH   4   5
ATOM      5  C   UNL     1      22.087   2.357 -21.223  1.00  0.00     0.000 C 
BRANCH   5   6
ATOM      6  C   UNL     1      21.750   1.977 -19.774  1.00  0.00     0.000 C 
BRANCH   6   7
ATOM      7  C   UNL     1      20.598   0.961 -19.726  1.00  0.00     0.000 C 
BRANCH   7   8
ATOM      8  C   UNL     1      20.948  -0.298 -18.917  1.00  0.00     0.000 C 
BRANCH   8   9
ATOM      9  C   UNL     1      19.865  -1.387 -19.014  1.00  0.00     0.000 C 
BRANCH   9  10
ATOM     10  C   UNL     1      19.805  -2.271 -17.757  1.00  0.00     0.000 C 
BRANCH  10  11
ATOM     11  C   UNL     1      20.691  -1.742 -16.616  1.00  0.00     0.000 C 
BRANCH  11  12
ATOM     12  C   UNL     1      19.880  -1.256 -15.399  1.00  0.00     0.006 C 
BRANCH  12  13
ATOM     13  C   UNL     1      19.773   0.276 -15.293  1.00  0.00     0.053 C 
BRANCH  13  14
ATOM     14  C   UNL     1      18.455   0.800 -15.776  1.00  0.00     0.041 C 
ATOM     15  O   UNL     1      18.315   1.156 -16.976  1.00  0.00    -0.550 OA
ATOM     16  O   UNL     1      17.372   0.866 -14.909  1.00  0.00    -0.550 OA
ENDBRANCH  13  14
ENDBRANCH  12  13
ENDBRANCH  11  12
ENDBRANCH  10  11
ENDBRANCH   9  10
ENDBRANCH   8   9
ENDBRANCH   7   8
ENDBRANCH   6   7
ENDBRANCH   5   6
ENDBRANCH   4   5
ENDBRANCH   3   4
ENDBRANCH   2   3
ENDBRANCH   1   2
BRANCH   1  17
ATOM     17  C   UNL     1      21.310   1.005 -24.619  1.00  0.00     0.000 C 
BRANCH  17  18
ATOM     18  C   UNL     1      20.482   0.144 -23.640  1.00  0.00     0.000 C 
BRANCH  18  19
ATOM     19  C   UNL     1      19.230   0.885 -23.138  1.00  0.00     0.000 C 
BRANCH  19  20
ATOM     20  C   UNL     1      18.127  -0.072 -22.655  1.00  0.00     0.000 C 
BRANCH  20  21
ATOM     21  C   UNL     1      16.731   0.336 -23.160  1.00  0.00     0.000 C 
BRANCH  21  22
ATOM     22  C   UNL     1      16.285  -0.481 -24.383  1.00  0.00    -0.000 C 
BRANCH  22  23
ATOM     23  C   UNL     1      15.670   0.393 -25.489  1.00  0.00    -0.000 C 
BRANCH  23  24
ATOM     24  C   UNL     1      16.336   1.776 -25.599  1.00  0.00    -0.000 C 
BRANCH  24  25
ATOM     25  C   UNL     1      17.645   1.768 -26.417  1.00  0.00    -0.000 C 
BRANCH  25  26
ATOM     26  C   UNL     1      17.792   0.493 -27.267  1.00  0.00    -0.000 C 
BRANCH  26  27
ATOM     27  C   UNL     1      19.212  -0.094 -27.217  1.00  0.00    -0.000 C 
BRANCH  27  28
ATOM     28  C   UNL     1      19.218  -1.631 -27.284  1.00  0.00    -0.000 C 
BRANCH  28  29
ATOM     29  C   UNL     1      20.003  -2.266 -26.125  1.00  0.00    -0.003 C 
ATOM     30  C   UNL     1      19.094  -2.822 -25.029  1.00  0.00     0.004 C 
ENDBRANCH  28  29
ENDBRANCH  27  28
ENDBRANCH  26  27
ENDBRANCH  25  26
ENDBRANCH  24  25
ENDBRANCH  23  24
ENDBRANCH  22  23
ENDBRANCH  21  22
ENDBRANCH  20  21
ENDBRANCH  19  20
ENDBRANCH  18  19
ENDBRANCH  17  18
ENDBRANCH   1  17
TORSDOF 26
ENDMDL
MODEL 3
REMARK VINA RESULT:    -5.040      3.148      8.737
REMARK INTER + INTRA:         -17.424
REMARK INTER:                 -12.912
REMARK INTRA:                  -4.512
REMARK UNBOUND:                -4.724
REMARK SMILES CCCCCCCCCCCCCCCCCCCCCCCCCCCC(=O)[O-]
REMARK SMILES IDX 15 1 16 2 17 3 18 4 19 5 20 6 21 7 22 8 23 9 24 10 25 11
REMARK SMILES IDX 26 12 27 13 28 14 29 15 30 16 14 17 13 18 12 19 11 20 10 21
REMARK SMILES IDX 9 22 8 23 7 24 6 25 5 26 4 27 3 28 2 29 1 30
REMARK H PARENT
REMARK Flexibility Score: inf
ROOT
ATOM      1  C   UNL     1      20.504   0.589 -22.116  1.00  0.00     0.000 C 
ENDROOT
BRANCH   1   2
ATOM      2  C   UNL     1      19.058   0.089 -22.264  1.00  0.00     0.000 C 
BRANCH   2   3
ATOM      3  C   UNL     1      18.021   1.155 -21.878  1.00  0.00     0.000 C 
BRANCH   3   4
ATOM      4  C   UNL     1      16.761   1.106 -22.759  1.00  0.00     0.000 C 
BRANCH   4   5
ATOM      5  C   UNL     1      16.723  -0.132 -23.667  1.00  0.00     0.000 C 
BRANCH   5   6
ATOM      6  C   UNL     1      16.027   0.139 -25.009  1.00  0.00     0.000 C 
BRANCH   6   7
ATOM      7  C   UNL     1      15.978   1.646 -25.308  1.00  0.00     0.000 C 
BRANCH   7   8
ATOM      8  C   UNL     1      17.141   2.114 -26.197  1.00  0.00     0.000 C 
BRANCH   8   9
ATOM      9  C   UNL     1      18.272   2.779 -25.392  1.00  0.00     0.000 C 
BRANCH   9  10
ATOM     10  C   UNL     1      19.557   1.933 -25.376  1.00  0.00     0.000 C 
BRANCH  10  11
ATOM     11  C   UNL     1      19.492   0.735 -26.338  1.00  0.00     0.000 C 
BRANCH  11  12
ATOM     12  C   UNL     1      20.315  -0.474 -25.851  1.00  0.00     0.006 C 
BRANCH  12  13
ATOM     13  C   UNL     1      19.458  -1.655 -25.363  1.00  0.00     0.053 C 
BRANCH  13  14
ATOM     14  C   UNL     1      19.870  -2.961 -25.971  1.00  0.00     0.041 C 
ATOM     15  O   UNL     1      19.446  -3.294 -27.109  1.00  0.00    -0.550 OA
ATOM     16  O   UNL     1      20.750  -3.798 -25.295  1.00  0.00    -0.550 OA
ENDBRANCH  13  14
ENDBRANCH  12  13
ENDBRANCH  11  12
ENDBRANCH  10  11
ENDBRANCH   9  10
ENDBRANCH   8   9
ENDBRANCH   7   8
ENDBRANCH   6   7
ENDBRANCH   5   6
ENDBRANCH   4   5
ENDBRANCH   3   4
ENDBRANCH   2   3
ENDBRANCH   1   2
BRANCH   1  17
ATOM     17  C   UNL     1      20.583   2.079 -21.735  1.00  0.00     0.000 C 
BRANCH  17  18
ATOM     18  C   UNL     1      21.379   2.345 -20.439  1.00  0.00     0.000 C 
BRANCH  18  19
ATOM     19  C   UNL     1      20.663   1.786 -19.197  1.00  0.00     0.000 C 
BRANCH  19  20
ATOM     20  C   UNL     1      20.919   2.626 -17.934  1.00  0.00     0.000 C 
BRANCH  20  21
ATOM     21  C   UNL     1      19.683   2.713 -17.023  1.00  0.00     0.000 C 
BRANCH  21  22
ATOM     22  C   UNL     1      18.808   1.450 -17.095  1.00  0.00    -0.000 C 
BRANCH  22  23
ATOM     23  C   UNL     1      18.558   0.821 -15.714  1.00  0.00    -0.000 C 
BRANCH  23  24
ATOM     24  C   UNL     1      19.857   0.534 -14.942  1.00  0.00    -0.000 C 
BRANCH  24  25
ATOM     25  C   UNL     1      20.230  -0.963 -14.892  1.00  0.00    -0.000 C 
BRANCH  25  26
ATOM     26  C   UNL     1      21.709  -1.205 -15.246  1.00  0.00    -0.000 C 
BRANCH  26  27
ATOM     27  C   UNL     1      22.163  -0.404 -16.477  1.00  0.00    -0.000 C 
BRANCH  27  28
ATOM     28  C   UNL     1      21.976  -1.185 -17.790  1.00  0.00    -0.000 C 
BRANCH  28  29
ATOM     29  C   UNL     1      20.631  -1.926 -17.845  1.00  0.00    -0.003 C 
ATOM     30  C   UNL     1      19.826  -1.597 -19.102  1.00  0.00     0.004 C 
ENDBRANCH  28  29
ENDBRANCH  27  28
ENDBRANCH  26  27
ENDBRANCH  25  26
ENDBRANCH  24  25
ENDBRANCH  23  24
ENDBRANCH  22  23
ENDBRANCH  21  22
ENDBRANCH  20  21
ENDBRANCH  19  20
ENDBRANCH  18  19
ENDBRANCH  17  18
ENDBRANCH   1  17
TORSDOF 26
ENDMDL
MODEL 4
REMARK VINA RESULT:    -5.030      3.495      5.624
REMARK INTER + INTRA:         -17.399
REMARK INTER:                 -13.476
REMARK INTRA:                  -3.923
REMARK UNBOUND:                -4.724
REMARK SMILES CCCCCCCCCCCCCCCCCCCCCCCCCCCC(=O)[O-]
REMARK SMILES IDX 15 1 16 2 17 3 18 4 19 5 20 6 21 7 22 8 23 9 24 10 25 11
REMARK SMILES IDX 26 12 27 13 28 14 29 15 30 16 14 17 13 18 12 19 11 20 10 21
REMARK SMILES IDX 9 22 8 23 7 24 6 25 5 26 4 27 3 28 2 29 1 30
REMARK H PARENT
REMARK Flexibility Score: inf
ROOT
ATOM      1  C   UNL     1      20.323  -2.038 -18.609  1.00  0.00     0.000 C 
ENDROOT
BRANCH   1   2
ATOM      2  C   UNL     1      19.778  -2.302 -17.196  1.00  0.00     0.000 C 
BRANCH   2   3
ATOM      3  C   UNL     1      20.730  -1.811 -16.094  1.00  0.00     0.000 C 
BRANCH   3   4
ATOM      4  C   UNL     1      20.022  -0.943 -15.039  1.00  0.00     0.000 C 
BRANCH   4   5
ATOM      5  C   UNL     1      19.048   0.068 -15.663  1.00  0.00     0.000 C 
BRANCH   5   6
ATOM      6  C   UNL     1      19.298   1.505 -15.181  1.00  0.00     0.000 C 
BRANCH   6   7
ATOM      7  C   UNL     1      20.786   1.727 -14.865  1.00  0.00     0.000 C 
BRANCH   7   8
ATOM      8  C   UNL     1      21.571   2.293 -16.060  1.00  0.00     0.000 C 
BRANCH   8   9
ATOM      9  C   UNL     1      23.056   1.893 -16.038  1.00  0.00     0.000 C 
BRANCH   9  10
ATOM     10  C   UNL     1      23.318   0.654 -15.165  1.00  0.00     0.000 C 
BRANCH  10  11
ATOM     11  C   UNL     1      24.614   0.769 -14.343  1.00  0.00     0.000 C 
BRANCH  11  12
ATOM     12  C   UNL     1      25.005  -0.549 -13.646  1.00  0.00     0.006 C 
BRANCH  12  13
ATOM     13  C   UNL     1      25.758  -0.351 -12.318  1.00  0.00     0.053 C 
BRANCH  13  14
ATOM     14  C   UNL     1      26.377  -1.618 -11.810  1.00  0.00     0.041 C 
ATOM     15  O   UNL     1      26.280  -1.928 -10.593  1.00  0.00    -0.550 OA
ATOM     16  O   UNL     1      27.035  -2.472 -12.685  1.00  0.00    -0.550 OA
ENDBRANCH  13  14
ENDBRANCH  12  13
ENDBRANCH  11  12
ENDBRANCH  10  11
ENDBRANCH   9  10
ENDBRANCH   8   9
ENDBRANCH   7   8
ENDBRANCH   6   7
ENDBRANCH   5   6
ENDBRANCH   4   5
ENDBRANCH   3   4
ENDBRANCH   2   3
ENDBRANCH   1   2
BRANCH   1  17
ATOM     17  C   UNL     1      21.211  -0.783 -18.681  1.00  0.00     0.000 C 
BRANCH  17  18
ATOM     18  C   UNL     1      20.464   0.476 -19.174  1.00  0.00     0.000 C 
BRANCH  18  19
ATOM     19  C   UNL     1      19.838   0.267 -20.565  1.00  0.00     0.000 C 
BRANCH  19  20
ATOM     20  C   UNL     1      20.386   1.247 -21.616  1.00  0.00     0.000 C 
BRANCH  20  21
ATOM     21  C   UNL     1      21.161   0.533 -22.738  1.00  0.00     0.000 C 
BRANCH  21  22
ATOM     22  C   UNL     1      21.021   1.243 -24.094  1.00  0.00    -0.000 C 
BRANCH  22  23
ATOM     23  C   UNL     1      20.911   0.260 -25.272  1.00  0.00    -0.000 C 
BRANCH  23  24
ATOM     24  C   UNL     1      19.645   0.479 -26.118  1.00  0.00    -0.000 C 
BRANCH  24  25
ATOM     25  C   UNL     1      18.617  -0.667 -26.004  1.00  0.00    -0.000 C 
BRANCH  25  26
ATOM     26  C   UNL     1      18.976  -1.658 -24.881  1.00  0.00    -0.000 C 
BRANCH  26  27
ATOM     27  C   UNL     1      18.084  -1.496 -23.640  1.00  0.00    -0.000 C 
BRANCH  27  28
ATOM     28  C   UNL     1      16.843  -0.628 -23.914  1.00  0.00    -0.000 C 
BRANCH  28  29
ATOM     29  C   UNL     1      16.744   0.572 -22.960  1.00  0.00    -0.003 C 
ATOM     30  C   UNL     1      17.165   1.886 -23.616  1.00  0.00     0.004 C 
ENDBRANCH  28  29
ENDBRANCH  27  28
ENDBRANCH  26  27
ENDBRANCH  25  26
ENDBRANCH  24  25
ENDBRANCH  23  24
ENDBRANCH  22  23
ENDBRANCH  21  22
ENDBRANCH  20  21
ENDBRANCH  19  20
ENDBRANCH  18  19
ENDBRANCH  17  18
ENDBRANCH   1  17
TORSDOF 26
ENDMDL
MODEL 5
REMARK VINA RESULT:    -4.956      3.467      9.742
REMARK INTER + INTRA:         -17.213
REMARK INTER:                 -14.388
REMARK INTRA:                  -2.825
REMARK UNBOUND:                -4.724
REMARK SMILES CCCCCCCCCCCCCCCCCCCCCCCCCCCC(=O)[O-]
REMARK SMILES IDX 15 1 16 2 17 3 18 4 19 5 20 6 21 7 22 8 23 9 24 10 25 11
REMARK SMILES IDX 26 12 27 13 28 14 29 15 30 16 14 17 13 18 12 19 11 20 10 21
REMARK SMILES IDX 9 22 8 23 7 24 6 25 5 26 4 27 3 28 2 29 1 30
REMARK H PARENT
REMARK Flexibility Score: inf
ROOT
ATOM      1  C   UNL     1      20.850   0.659 -21.903  1.00  0.00     0.000 C 
ENDROOT
BRANCH   1   2
ATOM      2  C   UNL     1      19.467   0.445 -22.537  1.00  0.00     0.000 C 
BRANCH   2   3
ATOM      3  C   UNL     1      18.612   1.722 -22.534  1.00  0.00     0.000 C 
BRANCH   3   4
ATOM      4  C   UNL     1      17.119   1.439 -22.777  1.00  0.00     0.000 C 
BRANCH   4   5
ATOM      5  C   UNL     1      16.863   0.011 -23.282  1.00  0.00     0.000 C 
BRANCH   5   6
ATOM      6  C   UNL     1      16.162  -0.016 -24.648  1.00  0.00     0.000 C 
BRANCH   6   7
ATOM      7  C   UNL     1      16.068   1.397 -25.246  1.00  0.00     0.000 C 
BRANCH   7   8
ATOM      8  C   UNL     1      16.979   1.587 -26.470  1.00  0.00     0.000 C 
BRANCH   8   9
ATOM      9  C   UNL     1      17.865   0.360 -26.746  1.00  0.00     0.000 C 
BRANCH   9  10
ATOM     10  C   UNL     1      19.277   0.509 -26.154  1.00  0.00     0.000 C 
BRANCH  10  11
ATOM     11  C   UNL     1      20.168  -0.715 -26.429  1.00  0.00     0.000 C 
BRANCH  11  12
ATOM     12  C   UNL     1      20.321  -1.636 -25.203  1.00  0.00     0.006 C 
BRANCH  12  13
ATOM     13  C   UNL     1      20.158  -3.133 -25.524  1.00  0.00     0.053 C 
BRANCH  13  14
ATOM     14  C   UNL     1      18.988  -3.752 -24.823  1.00  0.00     0.041 C 
ATOM     15  O   UNL     1      18.364  -3.108 -23.939  1.00  0.00    -0.550 OA
ATOM     16  O   UNL     1      18.566  -5.030 -25.167  1.00  0.00    -0.550 OA
ENDBRANCH  13  14
ENDBRANCH  12  13
ENDBRANCH  11  12
ENDBRANCH  10  11
ENDBRANCH   9  10
ENDBRANCH   8   9
ENDBRANCH   7   8
ENDBRANCH   6   7
ENDBRANCH   5   6
ENDBRANCH   4   5
ENDBRANCH   3   4
ENDBRANCH   2   3
ENDBRANCH   1   2
BRANCH   1  17
ATOM     17  C   UNL     1      20.787   1.455 -20.587  1.00  0.00     0.000 C 
BRANCH  17  18
ATOM     18  C   UNL     1      21.120   0.612 -19.337  1.00  0.00     0.000 C 
BRANCH  18  19
ATOM     19  C   UNL     1      19.886  -0.133 -18.797  1.00  0.00     0.000 C 
BRANCH  19  20
ATOM     20  C   UNL     1      20.125  -1.644 -18.641  1.00  0.00     0.000 C 
BRANCH  20  21
ATOM     21  C   UNL     1      19.920  -2.126 -17.194  1.00  0.00     0.000 C 
BRANCH  21  22
ATOM     22  C   UNL     1      19.531  -0.984 -16.241  1.00  0.00    -0.000 C 
BRANCH  22  23
ATOM     23  C   UNL     1      20.436  -0.911 -15.000  1.00  0.00    -0.000 C 
BRANCH  23  24
ATOM     24  C   UNL     1      21.816  -1.553 -15.225  1.00  0.00    -0.000 C 
BRANCH  24  25
ATOM     25  C   UNL     1      22.954  -0.526 -15.405  1.00  0.00    -0.000 C 
BRANCH  25  26
ATOM     26  C   UNL     1      24.090  -0.734 -14.386  1.00  0.00    -0.000 C 
BRANCH  26  27
ATOM     27  C   UNL     1      24.868   0.559 -14.092  1.00  0.00    -0.000 C 
BRANCH  27  28
ATOM     28  C   UNL     1      25.722   0.456 -12.816  1.00  0.00    -0.000 C 
BRANCH  28  29
ATOM     29  C   UNL     1      25.837  -0.987 -12.302  1.00  0.00    -0.003 C 
ATOM     30  C   UNL     1      27.063  -1.715 -12.852  1.00  0.00     0.004 C 
ENDBRANCH  28  29
ENDBRANCH  27  28
ENDBRANCH  26  27
ENDBRANCH  25  26
ENDBRANCH  24  25
ENDBRANCH  23  24
ENDBRANCH  22  23
ENDBRANCH  21  22
ENDBRANCH  20  21
ENDBRANCH  19  20
ENDBRANCH  18  19
ENDBRANCH  17  18
ENDBRANCH   1  17
TORSDOF 26
ENDMDL
MODEL 6
REMARK VINA RESULT:    -4.873      1.364      3.493
REMARK INTER + INTRA:         -17.004
REMARK INTER:                 -12.861
REMARK INTRA:                  -4.143
REMARK UNBOUND:                -4.724
REMARK SMILES CCCCCCCCCCCCCCCCCCCCCCCCCCCC(=O)[O-]
REMARK SMILES IDX 15 1 16 2 17 3 18 4 19 5 20 6 21 7 22 8 23 9 24 10 25 11
REMARK SMILES IDX 26 12 27 13 28 14 29 15 30 16 14 17 13 18 12 19 11 20 10 21
REMARK SMILES IDX 9 22 8 23 7 24 6 25 5 26 4 27 3 28 2 29 1 30
REMARK H PARENT
REMARK Flexibility Score: inf
ROOT
ATOM      1  C   UNL     1      21.463  -1.003 -25.432  1.00  0.00     0.000 C 
ENDROOT
BRANCH   1   2
ATOM      2  C   UNL     1      21.774  -0.183 -24.169  1.00  0.00     0.000 C 
BRANCH   2   3
ATOM      3  C   UNL     1      21.512   1.319 -24.360  1.00  0.00     0.000 C 
BRANCH   3   4
ATOM      4  C   UNL     1      21.747   2.132 -23.075  1.00  0.00     0.000 C 
BRANCH   4   5
ATOM      5  C   UNL     1      20.471   2.287 -22.234  1.00  0.00     0.000 C 
BRANCH   5   6
ATOM      6  C   UNL     1      20.321   1.183 -21.177  1.00  0.00     0.000 C 
BRANCH   6   7
ATOM      7  C   UNL     1      21.469   1.240 -20.157  1.00  0.00     0.000 C 
BRANCH   7   8
ATOM      8  C   UNL     1      21.269   0.270 -18.981  1.00  0.00     0.000 C 
BRANCH   8   9
ATOM      9  C   UNL     1      20.027  -0.622 -19.153  1.00  0.00     0.000 C 
BRANCH   9  10
ATOM     10  C   UNL     1      20.258  -2.056 -18.646  1.00  0.00     0.000 C 
BRANCH  10  11
ATOM     11  C   UNL     1      19.795  -2.254 -17.193  1.00  0.00     0.000 C 
BRANCH  11  12
ATOM     12  C   UNL     1      20.813  -1.736 -16.159  1.00  0.00     0.006 C 
BRANCH  12  13
ATOM     13  C   UNL     1      20.171  -1.017 -14.958  1.00  0.00     0.053 C 
BRANCH  13  14
ATOM     14  C   UNL     1      19.529   0.282 -15.336  1.00  0.00     0.041 C 
ATOM     15  O   UNL     1      20.222   1.216 -15.820  1.00  0.00    -0.550 OA
ATOM     16  O   UNL     1      18.158   0.452 -15.184  1.00  0.00    -0.550 OA
ENDBRANCH  13  14
ENDBRANCH  12  13
ENDBRANCH  11  12
ENDBRANCH  10  11
ENDBRANCH   9  10
ENDBRANCH   8   9
ENDBRANCH   7   8
ENDBRANCH   6   7
ENDBRANCH   5   6
ENDBRANCH   4   5
ENDBRANCH   3   4
ENDBRANCH   2   3
ENDBRANCH   1   2
BRANCH   1  17
ATOM     17  C   UNL     1      20.474  -0.294 -26.375  1.00  0.00     0.000 C 
BRANCH  17  18
ATOM     18  C   UNL     1      20.073  -1.142 -27.601  1.00  0.00     0.000 C 
BRANCH  18  19
ATOM     19  C   UNL     1      18.578  -0.994 -27.940  1.00  0.00     0.000 C 
BRANCH  19  20
ATOM     20  C   UNL     1      18.010   0.377 -27.540  1.00  0.00     0.000 C 
BRANCH  20  21
ATOM     21  C   UNL     1      16.737   0.260 -26.683  1.00  0.00     0.000 C 
BRANCH  21  22
ATOM     22  C   UNL     1      16.235   1.624 -26.183  1.00  0.00    -0.000 C 
BRANCH  22  23
ATOM     23  C   UNL     1      17.358   2.489 -25.586  1.00  0.00    -0.000 C 
BRANCH  23  24
ATOM     24  C   UNL     1      17.889   1.940 -24.250  1.00  0.00    -0.000 C 
BRANCH  24  25
ATOM     25  C   UNL     1      16.778   1.459 -23.293  1.00  0.00    -0.000 C 
BRANCH  25  26
ATOM     26  C   UNL     1      17.063   0.053 -22.733  1.00  0.00    -0.000 C 
BRANCH  26  27
ATOM     27  C   UNL     1      18.175  -0.678 -23.503  1.00  0.00    -0.000 C 
BRANCH  27  28
ATOM     28  C   UNL     1      17.663  -1.936 -24.226  1.00  0.00    -0.000 C 
BRANCH  28  29
ATOM     29  C   UNL     1      18.766  -2.987 -24.428  1.00  0.00    -0.003 C 
ATOM     30  C   UNL     1      18.259  -4.418 -24.250  1.00  0.00     0.004 C 
ENDBRANCH  28  29
ENDBRANCH  27  28
ENDBRANCH  26  27
ENDBRANCH  25  26
ENDBRANCH  24  25
ENDBRANCH  23  24
ENDBRANCH  22  23
ENDBRANCH  21  22
ENDBRANCH  20  21
ENDBRANCH  19  20
ENDBRANCH  18  19
ENDBRANCH  17  18
ENDBRANCH   1  17
TORSDOF 26
ENDMDL
MODEL 7
REMARK VINA RESULT:    -4.839      3.027      8.600
REMARK INTER + INTRA:         -16.918
REMARK INTER:                 -12.054
REMARK INTRA:                  -4.863
REMARK UNBOUND:                -4.724
REMARK SMILES CCCCCCCCCCCCCCCCCCCCCCCCCCCC(=O)[O-]
REMARK SMILES IDX 15 1 16 2 17 3 18 4 19 5 20 6 21 7 22 8 23 9 24 10 25 11
REMARK SMILES IDX 26 12 27 13 28 14 29 15 30 16 14 17 13 18 12 19 11 20 10 21
REMARK SMILES IDX 9 22 8 23 7 24 6 25 5 26 4 27 3 28 2 29 1 30
REMARK H PARENT
REMARK Flexibility Score: inf
ROOT
ATOM      1  C   UNL     1      22.370   2.738 -18.476  1.00  0.00     0.000 C 
ENDROOT
BRANCH   1   2
ATOM      2  C   UNL     1      21.500   2.959 -19.723  1.00  0.00     0.000 C 
BRANCH   2   3
ATOM      3  C   UNL     1      21.908   2.055 -20.897  1.00  0.00     0.000 C 
BRANCH   3   4
ATOM      4  C   UNL     1      20.820   1.960 -21.981  1.00  0.00     0.000 C 
BRANCH   4   5
ATOM      5  C   UNL     1      20.555   0.514 -22.426  1.00  0.00     0.000 C 
BRANCH   5   6
ATOM      6  C   UNL     1      19.143   0.033 -22.063  1.00  0.00     0.000 C 
BRANCH   6   7
ATOM      7  C   UNL     1      18.223   1.222 -21.743  1.00  0.00     0.000 C 
BRANCH   7   8
ATOM      8  C   UNL     1      17.166   1.466 -22.833  1.00  0.00     0.000 C 
BRANCH   8   9
ATOM      9  C   UNL     1      16.755   0.174 -23.560  1.00  0.00     0.000 C 
BRANCH   9  10
ATOM     10  C   UNL     1      15.847   0.444 -24.772  1.00  0.00     0.000 C 
BRANCH  10  11
ATOM     11  C   UNL     1      16.508   0.062 -26.107  1.00  0.00     0.000 C 
BRANCH  11  12
ATOM     12  C   UNL     1      17.660   1.007 -26.502  1.00  0.00     0.006 C 
BRANCH  12  13
ATOM     13  C   UNL     1      19.055   0.486 -26.113  1.00  0.00     0.053 C 
BRANCH  13  14
ATOM     14  C   UNL     1      19.179  -1.000 -26.257  1.00  0.00     0.041 C 
ATOM     15  O   UNL     1      19.485  -1.710 -25.263  1.00  0.00    -0.550 OA
ATOM     16  O   UNL     1      18.927  -1.605 -27.482  1.00  0.00    -0.550 OA
ENDBRANCH  13  14
ENDBRANCH  12  13
ENDBRANCH  11  12
ENDBRANCH  10  11
ENDBRANCH   9  10
ENDBRANCH   8   9
ENDBRANCH   7   8
ENDBRANCH   6   7
ENDBRANCH   5   6
ENDBRANCH   4   5
ENDBRANCH   3   4
ENDBRANCH   2   3
ENDBRANCH   1   2
BRANCH   1  17
ATOM     17  C   UNL     1      21.651   3.124 -17.171  1.00  0.00     0.000 C 
BRANCH  17  18
ATOM     18  C   UNL     1      22.475   2.826 -15.899  1.00  0.00     0.000 C 
BRANCH  18  19
ATOM     19  C   UNL     1      21.583   2.392 -14.722  1.00  0.00     0.000 C 
BRANCH  19  20
ATOM     20  C   UNL     1      20.084   2.586 -15.008  1.00  0.00     0.000 C 
BRANCH  20  21
ATOM     21  C   UNL     1      19.232   1.405 -14.513  1.00  0.00     0.000 C 
BRANCH  21  22
ATOM     22  C   UNL     1      18.255   0.893 -15.583  1.00  0.00    -0.000 C 
BRANCH  22  23
ATOM     23  C   UNL     1      18.231   1.780 -16.839  1.00  0.00    -0.000 C 
BRANCH  23  24
ATOM     24  C   UNL     1      18.827   1.085 -18.075  1.00  0.00    -0.000 C 
BRANCH  24  25
ATOM     25  C   UNL     1      19.391  -0.322 -17.783  1.00  0.00    -0.000 C 
BRANCH  25  26
ATOM     26  C   UNL     1      20.794  -0.522 -18.385  1.00  0.00    -0.000 C 
BRANCH  26  27
ATOM     27  C   UNL     1      21.819  -1.012 -17.350  1.00  0.00    -0.000 C 
BRANCH  27  28
ATOM     28  C   UNL     1      21.191  -1.253 -15.966  1.00  0.00    -0.000 C 
BRANCH  28  29
ATOM     29  C   UNL     1      22.248  -1.434 -14.866  1.00  0.00    -0.003 C 
ATOM     30  C   UNL     1      23.565  -0.728 -15.188  1.00  0.00     0.004 C 
ENDBRANCH  28  29
ENDBRANCH  27  28
ENDBRANCH  26  27
ENDBRANCH  25  26
ENDBRANCH  24  25
ENDBRANCH  23  24
ENDBRANCH  22  23
ENDBRANCH  21  22
ENDBRANCH  20  21
ENDBRANCH  19  20
ENDBRANCH  18  19
ENDBRANCH  17  18
ENDBRANCH   1  17
TORSDOF 26
ENDMDL
MODEL 8
REMARK VINA RESULT:    -4.819      3.335      8.131
REMARK INTER + INTRA:         -16.866
REMARK INTER:                 -11.954
REMARK INTRA:                  -4.912
REMARK UNBOUND:                -4.724
REMARK SMILES CCCCCCCCCCCCCCCCCCCCCCCCCCCC(=O)[O-]
REMARK SMILES IDX 15 1 16 2 17 3 18 4 19 5 20 6 21 7 22 8 23 9 24 10 25 11
REMARK SMILES IDX 26 12 27 13 28 14 29 15 30 16 14 17 13 18 12 19 11 20 10 21
REMARK SMILES IDX 9 22 8 23 7 24 6 25 5 26 4 27 3 28 2 29 1 30
REMARK H PARENT
REMARK Flexibility Score: inf
ROOT
ATOM      1  C   UNL     1      19.564  -1.188 -28.236  1.00  0.00     0.000 C 
ENDROOT
BRANCH   1   2
ATOM      2  C   UNL     1      18.149  -0.607 -28.085  1.00  0.00     0.000 C 
BRANCH   2   3
ATOM      3  C   UNL     1      18.073   0.491 -27.012  1.00  0.00     0.000 C 
BRANCH   3   4
ATOM      4  C   UNL     1      16.635   0.755 -26.532  1.00  0.00     0.000 C 
BRANCH   4   5
ATOM      5  C   UNL     1      16.507   2.068 -25.744  1.00  0.00     0.000 C 
BRANCH   5   6
ATOM      6  C   UNL     1      17.864   2.742 -25.495  1.00  0.00     0.000 C 
BRANCH   6   7
ATOM      7  C   UNL     1      18.254   2.658 -24.010  1.00  0.00     0.000 C 
BRANCH   7   8
ATOM      8  C   UNL     1      17.104   2.158 -23.120  1.00  0.00     0.000 C 
BRANCH   8   9
ATOM      9  C   UNL     1      17.481   0.904 -22.314  1.00  0.00     0.000 C 
BRANCH   9  10
ATOM     10  C   UNL     1      17.273  -0.394 -23.113  1.00  0.00     0.000 C 
BRANCH  10  11
ATOM     11  C   UNL     1      18.592  -0.991 -23.631  1.00  0.00     0.000 C 
BRANCH  11  12
ATOM     12  C   UNL     1      18.386  -2.258 -24.484  1.00  0.00     0.006 C 
BRANCH  12  13
ATOM     13  C   UNL     1      19.694  -2.868 -25.021  1.00  0.00     0.053 C 
BRANCH  13  14
ATOM     14  C   UNL     1      19.483  -4.191 -25.693  1.00  0.00     0.041 C 
ATOM     15  O   UNL     1      18.674  -5.026 -25.210  1.00  0.00    -0.550 OA
ATOM     16  O   UNL     1      20.158  -4.490 -26.869  1.00  0.00    -0.550 OA
ENDBRANCH  13  14
ENDBRANCH  12  13
ENDBRANCH  11  12
ENDBRANCH  10  11
ENDBRANCH   9  10
ENDBRANCH   8   9
ENDBRANCH   7   8
ENDBRANCH   6   7
ENDBRANCH   5   6
ENDBRANCH   4   5
ENDBRANCH   3   4
ENDBRANCH   2   3
ENDBRANCH   1   2
BRANCH   1  17
ATOM     17  C   UNL     1      20.626  -0.107 -28.507  1.00  0.00     0.000 C 
BRANCH  17  18
ATOM     18  C   UNL     1      21.615   0.095 -27.338  1.00  0.00     0.000 C 
BRANCH  18  19
ATOM     19  C   UNL     1      21.996   1.575 -27.153  1.00  0.00     0.000 C 
BRANCH  19  20
ATOM     20  C   UNL     1      21.490   2.158 -25.823  1.00  0.00     0.000 C 
BRANCH  20  21
ATOM     21  C   UNL     1      21.458   1.111 -24.696  1.00  0.00     0.000 C 
BRANCH  21  22
ATOM     22  C   UNL     1      21.866   1.698 -23.335  1.00  0.00    -0.000 C 
BRANCH  22  23
ATOM     23  C   UNL     1      21.248   0.936 -22.150  1.00  0.00    -0.000 C 
BRANCH  23  24
ATOM     24  C   UNL     1      20.821   1.864 -20.999  1.00  0.00    -0.000 C 
BRANCH  24  25
ATOM     25  C   UNL     1      20.220   1.115 -19.791  1.00  0.00    -0.000 C 
BRANCH  25  26
ATOM     26  C   UNL     1      20.072  -0.394 -20.058  1.00  0.00    -0.000 C 
BRANCH  26  27
ATOM     27  C   UNL     1      20.105  -1.231 -18.769  1.00  0.00    -0.000 C 
BRANCH  27  28
ATOM     28  C   UNL     1      21.326  -0.911 -17.889  1.00  0.00    -0.000 C 
BRANCH  28  29
ATOM     29  C   UNL     1      21.155  -1.408 -16.445  1.00  0.00    -0.003 C 
ATOM     30  C   UNL     1      21.269  -0.285 -15.415  1.00  0.00     0.004 C 
ENDBRANCH  28  29
ENDBRANCH  27  28
ENDBRANCH  26  27
ENDBRANCH  25  26
ENDBRANCH  24  25
ENDBRANCH  23  24
ENDBRANCH  22  23
ENDBRANCH  21  22
ENDBRANCH  20  21
ENDBRANCH  19  20
ENDBRANCH  18  19
ENDBRANCH  17  18
ENDBRANCH   1  17
TORSDOF 26
ENDMDL
MODEL 9
REMARK VINA RESULT:    -4.809      3.672      9.894
REMARK INTER + INTRA:         -16.843
REMARK INTER:                 -13.662
REMARK INTRA:                  -3.181
REMARK UNBOUND:                -4.724
REMARK SMILES CCCCCCCCCCCCCCCCCCCCCCCCCCCC(=O)[O-]
REMARK SMILES IDX 15 1 16 2 17 3 18 4 19 5 20 6 21 7 22 8 23 9 24 10 25 11
REMARK SMILES IDX 26 12 27 13 28 14 29 15 30 16 14 17 13 18 12 19 11 20 10 21
REMARK SMILES IDX 9 22 8 23 7 24 6 25 5 26 4 27 3 28 2 29 1 30
REMARK H PARENT
REMARK Flexibility Score: inf
ROOT
ATOM      1  C   UNL     1      19.802  -2.389 -17.462  1.00  0.00     0.000 C 
ENDROOT
BRANCH   1   2
ATOM      2  C   UNL     1      20.112  -1.816 -18.854  1.00  0.00     0.000 C 
BRANCH   2   3
ATOM      3  C   UNL     1      21.071  -0.617 -18.799  1.00  0.00     0.000 C 
BRANCH   3   4
ATOM      4  C   UNL     1      20.452   0.667 -19.377  1.00  0.00     0.000 C 
BRANCH   4   5
ATOM      5  C   UNL     1      21.292   1.267 -20.516  1.00  0.00     0.000 C 
BRANCH   5   6
ATOM      6  C   UNL     1      20.430   1.806 -21.666  1.00  0.00     0.000 C 
BRANCH   6   7
ATOM      7  C   UNL     1      20.112   0.696 -22.681  1.00  0.00     0.000 C 
BRANCH   7   8
ATOM      8  C   UNL     1      20.176   1.185 -24.137  1.00  0.00     0.000 C 
BRANCH   8   9
ATOM      9  C   UNL     1      19.682   2.633 -24.299  1.00  0.00     0.000 C 
BRANCH   9  10
ATOM     10  C   UNL     1      18.272   2.709 -24.907  1.00  0.00     0.000 C 
BRANCH  10  11
ATOM     11  C   UNL     1      17.180   2.220 -23.939  1.00  0.00     0.000 C 
BRANCH  11  12
ATOM     12  C   UNL     1      16.419   0.987 -24.463  1.00  0.00     0.006 C 
BRANCH  12  13
ATOM     13  C   UNL     1      16.712  -0.306 -23.680  1.00  0.00     0.053 C 
BRANCH  13  14
ATOM     14  C   UNL     1      17.259  -1.398 -24.548  1.00  0.00     0.041 C 
ATOM     15  O   UNL     1      17.944  -1.117 -25.565  1.00  0.00    -0.550 OA
ATOM     16  O   UNL     1      17.037  -2.729 -24.215  1.00  0.00    -0.550 OA
ENDBRANCH  13  14
ENDBRANCH  12  13
ENDBRANCH  11  12
ENDBRANCH  10  11
ENDBRANCH   9  10
ENDBRANCH   8   9
ENDBRANCH   7   8
ENDBRANCH   6   7
ENDBRANCH   5   6
ENDBRANCH   4   5
ENDBRANCH   3   4
ENDBRANCH   2   3
ENDBRANCH   1   2
BRANCH   1  17
ATOM     17  C   UNL     1      20.666  -1.762 -16.353  1.00  0.00     0.000 C 
BRANCH  17  18
ATOM     18  C   UNL     1      19.843  -1.146 -15.201  1.00  0.00     0.000 C 
BRANCH  18  19
ATOM     19  C   UNL     1      19.119   0.142 -15.633  1.00  0.00     0.000 C 
BRANCH  19  20
ATOM     20  C   UNL     1      19.692   1.401 -14.961  1.00  0.00     0.000 C 
BRANCH  20  21
ATOM     21  C   UNL     1      20.351   2.359 -15.969  1.00  0.00     0.000 C 
BRANCH  21  22
ATOM     22  C   UNL     1      21.828   2.020 -16.225  1.00  0.00    -0.000 C 
BRANCH  22  23
ATOM     23  C   UNL     1      22.628   1.828 -14.925  1.00  0.00    -0.000 C 
BRANCH  23  24
ATOM     24  C   UNL     1      23.877   0.950 -15.115  1.00  0.00    -0.000 C 
BRANCH  24  25
ATOM     25  C   UNL     1      23.592  -0.563 -15.000  1.00  0.00    -0.000 C 
BRANCH  25  26
ATOM     26  C   UNL     1      24.708  -1.308 -14.245  1.00  0.00    -0.000 C 
BRANCH  26  27
ATOM     27  C   UNL     1      25.390  -0.434 -13.180  1.00  0.00    -0.000 C 
BRANCH  27  28
ATOM     28  C   UNL     1      26.510  -1.179 -12.433  1.00  0.00    -0.000 C 
BRANCH  28  29
ATOM     29  C   UNL     1      26.544  -0.838 -10.935  1.00  0.00    -0.003 C 
ATOM     30  C   UNL     1      25.701  -1.794 -10.092  1.00  0.00     0.004 C 
ENDBRANCH  28  29
ENDBRANCH  27  28
ENDBRANCH  26  27
ENDBRANCH  25  26
ENDBRANCH  24  25
ENDBRANCH  23  24
ENDBRANCH  22  23
ENDBRANCH  21  22
ENDBRANCH  20  21
ENDBRANCH  19  20
ENDBRANCH  18  19
ENDBRANCH  17  18
ENDBRANCH   1  17
TORSDOF 26
ENDMDL
