MODEL 1
REMARK VINA RESULT:    85.680      0.000      0.000
REMARK INTER + INTRA:         119.984
REMARK INTER:                 120.743
REMARK INTRA:                  -0.758
REMARK UNBOUND:                -0.758
REMARK SMILES C=C(CC[C@H](C(=O)[O-])[C@@H]1[C@H](O)C[C@]2(C)C3=C(CC[C@]12C)[C@@]1(C)CC[C@@H](O)C(C)(C)[C@H]1CC3)C(C)C
REMARK SMILES IDX 4 1 5 2 6 3 7 4 8 5 9 6 10 7 19 8 12 9 13 10 18 11 20 12
REMARK SMILES IDX 14 13 15 14 17 15 16 16 32 17 21 18 31 19 30 20 23 21 22 22
REMARK SMILES IDX 27 23 24 24 25 25 28 26 29 27 11 28 26 30 3 32 2 33 1 34
REMARK SMILES IDX 33 35 34 36 35 37
REMARK H PARENT 11 29 26 31
REMARK Flexibility Score: inf
ROOT
ATOM      1  C   UNL     1      86.170  12.732 107.124  1.00  0.00     0.014 C 
ENDROOT
BRANCH   1   2
ATOM      2  C   UNL     1      85.066  13.195 108.134  1.00  0.00     0.042 C 
BRANCH   2   3
ATOM      3  C   UNL     1      83.897  12.247 108.030  1.00  0.00     0.045 C 
ATOM      4  O   UNL     1      83.566  11.772 106.912  1.00  0.00    -0.550 OA
ATOM      5  O   UNL     1      83.116  11.957 109.140  1.00  0.00    -0.550 OA
ENDBRANCH   2   3
BRANCH   2   6
ATOM      6  C   UNL     1      84.732  14.744 108.010  1.00  0.00     0.033 C 
ATOM      7  C   UNL     1      84.208  15.412 109.301  1.00  0.00     0.119 C 
ATOM      8  C   UNL     1      83.920  15.416 106.841  1.00  0.00    -0.017 C 
ATOM      9  C   UNL     1      83.670  16.795 108.888  1.00  0.00     0.043 C 
ATOM     10  C   UNL     1      83.806  16.916 107.338  1.00  0.00    -0.003 C 
ATOM     11  C   UNL     1      82.484  14.796 106.608  1.00  0.00     0.012 C 
ATOM     12  C   UNL     1      84.705  15.321 105.503  1.00  0.00     0.013 C 
ATOM     13  C   UNL     1      85.112  17.740 107.078  1.00  0.00     0.017 C 
ATOM     14  C   UNL     1      82.565  17.631 106.735  1.00  0.00    -0.064 C 
ATOM     15  C   UNL     1      81.300  15.574 107.194  1.00  0.00     0.032 C 
ATOM     16  C   UNL     1      81.345  17.037 106.793  1.00  0.00    -0.064 C 
ATOM     17  C   UNL     1      82.647  19.009 106.104  1.00  0.00     0.032 C 
ATOM     18  C   UNL     1      80.069  17.863 106.448  1.00  0.00    -0.008 C 
ATOM     19  C   UNL     1      81.719  19.155 104.892  1.00  0.00     0.009 C 
ATOM     20  C   UNL     1      80.280  18.523 105.030  1.00  0.00     0.007 C 
ATOM     21  C   UNL     1      79.837  18.963 107.549  1.00  0.00     0.014 C 
ATOM     22  C   UNL     1      78.816  16.942 106.434  1.00  0.00     0.016 C 
ATOM     23  C   UNL     1      79.073  19.488 104.584  1.00  0.00    -0.006 C 
ATOM     24  C   UNL     1      79.478  20.355 106.992  1.00  0.00     0.033 C 
ATOM     25  C   UNL     1      78.478  20.259 105.833  1.00  0.00     0.120 C 
ATOM     26  C   UNL     1      79.529  20.511 103.496  1.00  0.00     0.014 C 
ATOM     27  C   UNL     1      77.931  18.639 103.907  1.00  0.00     0.014 C 
BRANCH   7  28
ATOM     28  O   UNL     1      83.227  14.668 109.983  1.00  0.00    -0.393 OA
ATOM     29  H   UNL     1      82.597  15.290 110.420  1.00  0.00     0.210 HD
ENDBRANCH   7  28
BRANCH  25  30
ATOM     30  O   UNL     1      78.049  21.550 105.476  1.00  0.00    -0.393 OA
ATOM     31  H   UNL     1      78.827  22.163 105.573  1.00  0.00     0.210 HD
ENDBRANCH  25  30
ENDBRANCH   2   6
ENDBRANCH   1   2
BRANCH   1  32
ATOM     32  C   UNL     1      87.495  13.527 107.203  1.00  0.00     0.031 C 
BRANCH  32  33
ATOM     33  C   UNL     1      88.616  13.002 106.318  1.00  0.00    -0.075 C 
ATOM     34  C   UNL     1      89.422  13.887 105.695  1.00  0.00     0.008 C 
BRANCH  33  35
ATOM     35  C   UNL     1      88.703  11.533 105.903  1.00  0.00     0.008 C 
ATOM     36  C   UNL     1      88.857  11.306 104.391  1.00  0.00     0.012 C 
ATOM     37  C   UNL     1      89.843  10.844 106.659  1.00  0.00     0.012 C 
ENDBRANCH  33  35
ENDBRANCH  32  33
ENDBRANCH   1  32
TORSDOF 8
ENDMDL
MODEL 2
REMARK VINA RESULT:    85.716      2.015      8.318
REMARK INTER + INTRA:         120.034
REMARK INTER:                 119.169
REMARK INTRA:                   0.865
REMARK UNBOUND:                -0.758
REMARK SMILES C=C(CC[C@H](C(=O)[O-])[C@@H]1[C@H](O)C[C@]2(C)C3=C(CC[C@]12C)[C@@]1(C)CC[C@@H](O)C(C)(C)[C@H]1CC3)C(C)C
REMARK SMILES IDX 4 1 5 2 6 3 7 4 8 5 9 6 10 7 19 8 12 9 13 10 18 11 20 12
REMARK SMILES IDX 14 13 15 14 17 15 16 16 32 17 21 18 31 19 30 20 23 21 22 22
REMARK SMILES IDX 27 23 24 24 25 25 28 26 29 27 11 28 26 30 3 32 2 33 1 34
REMARK SMILES IDX 33 35 34 36 35 37
REMARK H PARENT 11 29 26 31
REMARK Flexibility Score: inf
ROOT
ATOM      1  C   UNL     1      80.360  20.797 103.912  1.00  0.00     0.014 C 
ENDROOT
BRANCH   1   2
ATOM      2  C   UNL     1      79.031  20.402 104.639  1.00  0.00     0.042 C 
BRANCH   2   3
ATOM      3  C   UNL     1      78.494  21.621 105.348  1.00  0.00     0.045 C 
ATOM      4  O   UNL     1      77.881  21.498 106.441  1.00  0.00    -0.550 OA
ATOM      5  O   UNL     1      78.585  22.879 104.768  1.00  0.00    -0.550 OA
ENDBRANCH   2   3
BRANCH   2   6
ATOM      6  C   UNL     1      79.180  19.084 105.516  1.00  0.00     0.033 C 
ATOM      7  C   UNL     1      79.060  19.290 107.043  1.00  0.00     0.119 C 
ATOM      8  C   UNL     1      80.293  17.985 105.336  1.00  0.00    -0.017 C 
ATOM      9  C   UNL     1      79.532  17.977 107.697  1.00  0.00     0.043 C 
ATOM     10  C   UNL     1      80.003  17.020 106.558  1.00  0.00    -0.003 C 
ATOM     11  C   UNL     1      81.771  18.541 105.403  1.00  0.00     0.012 C 
ATOM     12  C   UNL     1      80.118  17.248 103.979  1.00  0.00     0.013 C 
ATOM     13  C   UNL     1      78.810  16.043 106.288  1.00  0.00     0.017 C 
ATOM     14  C   UNL     1      81.276  16.241 106.993  1.00  0.00    -0.064 C 
ATOM     15  C   UNL     1      82.515  18.348 106.730  1.00  0.00     0.032 C 
ATOM     16  C   UNL     1      82.441  16.908 107.203  1.00  0.00    -0.064 C 
ATOM     17  C   UNL     1      81.270  14.743 107.235  1.00  0.00     0.032 C 
ATOM     18  C   UNL     1      83.628  16.181 107.902  1.00  0.00    -0.008 C 
ATOM     19  C   UNL     1      82.573  14.071 106.786  1.00  0.00     0.009 C 
ATOM     20  C   UNL     1      83.909  14.838 107.122  1.00  0.00     0.007 C 
ATOM     21  C   UNL     1      83.261  15.890 109.405  1.00  0.00     0.014 C 
ATOM     22  C   UNL     1      84.895  17.084 107.896  1.00  0.00     0.016 C 
ATOM     23  C   UNL     1      85.057  13.932 107.794  1.00  0.00    -0.006 C 
ATOM     24  C   UNL     1      83.625  14.471 109.885  1.00  0.00     0.033 C 
ATOM     25  C   UNL     1      85.004  14.037 109.373  1.00  0.00     0.120 C 
ATOM     26  C   UNL     1      84.937  12.438 107.357  1.00  0.00     0.014 C 
ATOM     27  C   UNL     1      86.474  14.402 107.290  1.00  0.00     0.014 C 
BRANCH   7  28
ATOM     28  O   UNL     1      79.781  20.393 107.539  1.00  0.00    -0.393 OA
ATOM     29  H   UNL     1      79.913  20.281 108.512  1.00  0.00     0.210 HD
ENDBRANCH   7  28
BRANCH  25  30
ATOM     30  O   UNL     1      85.366  12.820 109.976  1.00  0.00    -0.393 OA
ATOM     31  H   UNL     1      84.685  12.141 109.718  1.00  0.00     0.210 HD
ENDBRANCH  25  30
ENDBRANCH   2   6
ENDBRANCH   1   2
BRANCH   1  32
ATOM     32  C   UNL     1      80.388  20.485 102.397  1.00  0.00     0.031 C 
BRANCH  32  33
ATOM     33  C   UNL     1      81.445  19.480 101.965  1.00  0.00    -0.075 C 
ATOM     34  C   UNL     1      82.721  19.665 102.366  1.00  0.00     0.008 C 
BRANCH  33  35
ATOM     35  C   UNL     1      81.175  18.425 100.891  1.00  0.00     0.008 C 
ATOM     36  C   UNL     1      82.023  17.152 101.020  1.00  0.00     0.012 C 
ATOM     37  C   UNL     1      79.685  18.069 100.875  1.00  0.00     0.012 C 
ENDBRANCH  33  35
ENDBRANCH  32  33
ENDBRANCH   1  32
TORSDOF 8
ENDMDL
MODEL 3
REMARK VINA RESULT:    86.886      1.564      2.061
REMARK INTER + INTRA:         121.684
REMARK INTER:                 120.936
REMARK INTRA:                   0.748
REMARK UNBOUND:                -0.758
REMARK SMILES C=C(CC[C@H](C(=O)[O-])[C@@H]1[C@H](O)C[C@]2(C)C3=C(CC[C@]12C)[C@@]1(C)CC[C@@H](O)C(C)(C)[C@H]1CC3)C(C)C
REMARK SMILES IDX 4 1 5 2 6 3 7 4 8 5 9 6 10 7 19 8 12 9 13 10 18 11 20 12
REMARK SMILES IDX 14 13 15 14 17 15 16 16 32 17 21 18 31 19 30 20 23 21 22 22
REMARK SMILES IDX 27 23 24 24 25 25 28 26 29 27 11 28 26 30 3 32 2 33 1 34
REMARK SMILES IDX 33 35 34 36 35 37
REMARK H PARENT 11 29 26 31
REMARK Flexibility Score: inf
ROOT
ATOM      1  C   UNL     1      86.252  13.161 107.275  1.00  0.00     0.014 C 
ENDROOT
BRANCH   1   2
ATOM      2  C   UNL     1      85.306  13.630 108.431  1.00  0.00     0.042 C 
BRANCH   2   3
ATOM      3  C   UNL     1      84.269  12.560 108.663  1.00  0.00     0.045 C 
ATOM      4  O   UNL     1      83.866  11.850 107.704  1.00  0.00    -0.550 OA
ATOM      5  O   UNL     1      83.678  12.400 109.909  1.00  0.00    -0.550 OA
ENDBRANCH   2   3
BRANCH   2   6
ATOM      6  C   UNL     1      84.760  15.107 108.215  1.00  0.00     0.033 C 
ATOM      7  C   UNL     1      83.390  15.407 108.864  1.00  0.00     0.119 C 
ATOM      8  C   UNL     1      84.746  15.888 106.848  1.00  0.00    -0.017 C 
ATOM      9  C   UNL     1      82.920  16.755 108.286  1.00  0.00     0.043 C 
ATOM     10  C   UNL     1      83.978  17.218 107.236  1.00  0.00    -0.003 C 
ATOM     11  C   UNL     1      83.999  15.134 105.677  1.00  0.00     0.012 C 
ATOM     12  C   UNL     1      86.196  16.190 106.376  1.00  0.00     0.013 C 
ATOM     13  C   UNL     1      84.894  18.255 107.969  1.00  0.00     0.017 C 
ATOM     14  C   UNL     1      83.280  17.862 106.005  1.00  0.00    -0.064 C 
ATOM     15  C   UNL     1      82.570  15.596 105.369  1.00  0.00     0.032 C 
ATOM     16  C   UNL     1      82.498  17.102 105.195  1.00  0.00    -0.064 C 
ATOM     17  C   UNL     1      83.403  19.338 105.680  1.00  0.00     0.032 C 
ATOM     18  C   UNL     1      81.583  17.792 104.139  1.00  0.00    -0.008 C 
ATOM     19  C   UNL     1      83.461  19.604 104.171  1.00  0.00     0.009 C 
ATOM     20  C   UNL     1      82.479  18.760 103.272  1.00  0.00     0.007 C 
ATOM     21  C   UNL     1      80.440  18.590 104.870  1.00  0.00     0.014 C 
ATOM     22  C   UNL     1      80.903  16.727 103.232  1.00  0.00     0.016 C 
ATOM     23  C   UNL     1      81.644  19.616 102.196  1.00  0.00    -0.006 C 
ATOM     24  C   UNL     1      80.191  20.004 104.306  1.00  0.00     0.033 C 
ATOM     25  C   UNL     1      80.223  20.014 102.773  1.00  0.00     0.120 C 
ATOM     26  C   UNL     1      82.418  20.900 101.760  1.00  0.00     0.014 C 
ATOM     27  C   UNL     1      81.451  18.776 100.876  1.00  0.00     0.014 C 
BRANCH   7  28
ATOM     28  O   UNL     1      82.422  14.403 108.666  1.00  0.00    -0.393 OA
ATOM     29  H   UNL     1      81.663  14.783 108.161  1.00  0.00     0.210 HD
ENDBRANCH   7  28
BRANCH  25  30
ATOM     30  O   UNL     1      79.820  21.276 102.304  1.00  0.00    -0.393 OA
ATOM     31  H   UNL     1      80.548  21.923 102.513  1.00  0.00     0.210 HD
ENDBRANCH  25  30
ENDBRANCH   2   6
ENDBRANCH   1   2
BRANCH   1  32
ATOM     32  C   UNL     1      87.598  13.919 107.190  1.00  0.00     0.031 C 
BRANCH  32  33
ATOM     33  C   UNL     1      88.629  13.300 106.258  1.00  0.00    -0.075 C 
ATOM     34  C   UNL     1      89.394  14.116 105.501  1.00  0.00     0.008 C 
BRANCH  33  35
ATOM     35  C   UNL     1      88.655  11.802 105.953  1.00  0.00     0.008 C 
ATOM     36  C   UNL     1      88.897  11.456 104.476  1.00  0.00     0.012 C 
ATOM     37  C   UNL     1      89.696  11.109 106.835  1.00  0.00     0.012 C 
ENDBRANCH  33  35
ENDBRANCH  32  33
ENDBRANCH   1  32
TORSDOF 8
ENDMDL
MODEL 4
REMARK VINA RESULT:    87.681      4.350      6.519
REMARK INTER + INTRA:         122.804
REMARK INTER:                 122.293
REMARK INTRA:                   0.511
REMARK UNBOUND:                -0.758
REMARK SMILES C=C(CC[C@H](C(=O)[O-])[C@@H]1[C@H](O)C[C@]2(C)C3=C(CC[C@]12C)[C@@]1(C)CC[C@@H](O)C(C)(C)[C@H]1CC3)C(C)C
REMARK SMILES IDX 4 1 5 2 6 3 7 4 8 5 9 6 10 7 19 8 12 9 13 10 18 11 20 12
REMARK SMILES IDX 14 13 15 14 17 15 16 16 32 17 21 18 31 19 30 20 23 21 22 22
REMARK SMILES IDX 27 23 24 24 25 25 28 26 29 27 11 28 26 30 3 32 2 33 1 34
REMARK SMILES IDX 33 35 34 36 35 37
REMARK H PARENT 11 29 26 31
REMARK Flexibility Score: inf
ROOT
ATOM      1  C   UNL     1      88.383  15.452 105.089  1.00  0.00     0.014 C 
ENDROOT
BRANCH   1   2
ATOM      2  C   UNL     1      87.932  14.653 106.358  1.00  0.00     0.042 C 
BRANCH   2   3
ATOM      3  C   UNL     1      88.598  13.300 106.333  1.00  0.00     0.045 C 
ATOM      4  O   UNL     1      88.948  12.747 107.409  1.00  0.00    -0.550 OA
ATOM      5  O   UNL     1      88.916  12.686 105.129  1.00  0.00    -0.550 OA
ENDBRANCH   2   3
BRANCH   2   6
ATOM      6  C   UNL     1      86.354  14.660 106.558  1.00  0.00     0.033 C 
ATOM      7  C   UNL     1      85.731  16.044 106.849  1.00  0.00     0.119 C 
ATOM      8  C   UNL     1      85.538  13.648 107.445  1.00  0.00    -0.017 C 
ATOM      9  C   UNL     1      84.283  15.782 107.303  1.00  0.00     0.043 C 
ATOM     10  C   UNL     1      84.071  14.237 107.353  1.00  0.00    -0.003 C 
ATOM     11  C   UNL     1      86.016  13.573 108.951  1.00  0.00     0.012 C 
ATOM     12  C   UNL     1      85.612  12.215 106.848  1.00  0.00     0.013 C 
ATOM     13  C   UNL     1      83.347  13.852 106.019  1.00  0.00     0.017 C 
ATOM     14  C   UNL     1      83.212  13.844 108.587  1.00  0.00    -0.064 C 
ATOM     15  C   UNL     1      85.179  14.352 109.972  1.00  0.00     0.032 C 
ATOM     16  C   UNL     1      83.702  14.030 109.841  1.00  0.00    -0.064 C 
ATOM     17  C   UNL     1      81.808  13.284 108.457  1.00  0.00     0.032 C 
ATOM     18  C   UNL     1      82.747  13.903 111.067  1.00  0.00    -0.008 C 
ATOM     19  C   UNL     1      81.502  12.216 109.513  1.00  0.00     0.009 C 
ATOM     20  C   UNL     1      82.015  12.508 110.976  1.00  0.00     0.007 C 
ATOM     21  C   UNL     1      81.708  15.084 111.053  1.00  0.00     0.014 C 
ATOM     22  C   UNL     1      83.554  14.004 112.393  1.00  0.00     0.016 C 
ATOM     23  C   UNL     1      80.922  12.279 112.133  1.00  0.00    -0.006 C 
ATOM     24  C   UNL     1      80.256  14.657 111.347  1.00  0.00     0.033 C 
ATOM     25  C   UNL     1      80.187  13.636 112.490  1.00  0.00     0.120 C 
ATOM     26  C   UNL     1      79.871  11.198 111.724  1.00  0.00     0.014 C 
ATOM     27  C   UNL     1      81.622  11.713 113.427  1.00  0.00     0.014 C 
BRANCH   7  28
ATOM     28  O   UNL     1      86.433  16.808 107.802  1.00  0.00    -0.393 OA
ATOM     29  H   UNL     1      87.347  16.978 107.468  1.00  0.00     0.210 HD
ENDBRANCH   7  28
BRANCH  25  30
ATOM     30  O   UNL     1      78.844  13.411 112.838  1.00  0.00    -0.393 OA
ATOM     31  H   UNL     1      78.773  12.477 113.175  1.00  0.00     0.210 HD
ENDBRANCH  25  30
ENDBRANCH   2   6
ENDBRANCH   1   2
BRANCH   1  32
ATOM     32  C   UNL     1      88.396  14.632 103.777  1.00  0.00     0.031 C 
BRANCH  32  33
ATOM     33  C   UNL     1      88.383  15.459 102.500  1.00  0.00    -0.075 C 
ATOM     34  C   UNL     1      88.794  16.744 102.553  1.00  0.00     0.008 C 
BRANCH  33  35
ATOM     35  C   UNL     1      87.683  14.979 101.228  1.00  0.00     0.008 C 
ATOM     36  C   UNL     1      87.177  13.530 101.287  1.00  0.00     0.012 C 
ATOM     37  C   UNL     1      86.533  15.926 100.877  1.00  0.00     0.012 C 
ENDBRANCH  33  35
ENDBRANCH  32  33
ENDBRANCH   1  32
TORSDOF 8
ENDMDL
