MODEL 1
REMARK VINA RESULT:    -6.366      0.000      0.000
REMARK INTER + INTRA:          -8.002
REMARK INTER:                  -7.669
REMARK INTRA:                  -0.333
REMARK UNBOUND:                -0.333
REMARK SMILES O=c1c(O)c(-c2ccc(O)c(O)c2)oc2cc(O)cc(O)c12
REMARK SMILES IDX 5 1 3 2 2 3 1 4 22 5 20 6 19 7 17 8 16 9 15 10 14 11 6 12
REMARK SMILES IDX 7 13 8 14 9 15 13 16 11 17 10 18 12 20 4 22 21 24 18 26
REMARK H PARENT 10 19 12 21 4 23 21 25 18 27
REMARK Flexibility Score: inf
ROOT
ATOM      1  C   UNL     1     104.852 106.928 110.496  1.00  0.00     0.180 A 
ATOM      2  C   UNL     1     104.346 106.190 109.412  1.00  0.00     0.208 A 
ATOM      3  C   UNL     1     103.505 105.094 109.667  1.00  0.00     0.238 A 
ATOM      4  O   UNL     1     103.012 104.471 108.691  1.00  0.00    -0.285 OA
ATOM      5  C   UNL     1     103.195 104.740 111.002  1.00  0.00     0.111 A 
ATOM      6  C   UNL     1     102.387 103.625 111.378  1.00  0.00     0.134 A 
ATOM      7  C   UNL     1     102.038 103.447 112.722  1.00  0.00     0.093 A 
ATOM      8  C   UNL     1     102.521 104.303 113.711  1.00  0.00     0.123 A 
ATOM      9  C   UNL     1     103.361 105.362 113.362  1.00  0.00     0.094 A 
ATOM     10  C   UNL     1     103.696 105.586 112.025  1.00  0.00     0.146 A 
ATOM     11  O   UNL     1     104.489 106.611 111.734  1.00  0.00    -0.452 OA
ENDROOT
BRANCH   1  12
ATOM     12  C   UNL     1     105.763 108.080 110.309  1.00  0.00     0.025 A 
ATOM     13  C   UNL     1     105.234 109.380 110.272  1.00  0.00     0.016 A 
ATOM     14  C   UNL     1     106.078 110.483 110.118  1.00  0.00     0.051 A 
ATOM     15  C   UNL     1     107.464 110.303 110.013  1.00  0.00     0.157 A 
ATOM     16  C   UNL     1     107.156 107.906 110.224  1.00  0.00     0.062 A 
ATOM     17  C   UNL     1     108.005 109.008 110.071  1.00  0.00     0.158 A 
BRANCH  15  18
ATOM     18  O   UNL     1     108.303 111.406 109.856  1.00  0.00    -0.504 OA
ATOM     19  H   UNL     1     109.240 111.418 110.241  1.00  0.00     0.293 HD
ENDBRANCH  15  18
BRANCH  17  20
ATOM     20  O   UNL     1     109.380 108.797 109.984  1.00  0.00    -0.504 OA
ATOM     21  H   UNL     1     109.870 108.798 109.096  1.00  0.00     0.293 HD
ENDBRANCH  17  20
ENDBRANCH   1  12
BRANCH   2  22
ATOM     22  O   UNL     1     104.647 106.570 108.102  1.00  0.00    -0.502 OA
ATOM     23  H   UNL     1     105.592 106.771 107.798  1.00  0.00     0.293 HD
ENDBRANCH   2  22
BRANCH   6  24
ATOM     24  O   UNL     1     101.927 102.657 110.481  1.00  0.00    -0.507 OA
ATOM     25  H   UNL     1     102.346 102.459 109.584  1.00  0.00     0.293 HD
ENDBRANCH   6  24
BRANCH   8  26
ATOM     26  O   UNL     1     102.166 104.087 115.041  1.00  0.00    -0.508 OA
ATOM     27  H   UNL     1     102.637 104.566 115.800  1.00  0.00     0.293 HD
ENDBRANCH   8  26
TORSDOF 6
ENDMDL
MODEL 2
REMARK VINA RESULT:    -6.208      2.086      6.128
REMARK INTER + INTRA:          -7.811
REMARK INTER:                  -8.090
REMARK INTRA:                   0.278
REMARK UNBOUND:                -0.333
REMARK SMILES O=c1c(O)c(-c2ccc(O)c(O)c2)oc2cc(O)cc(O)c12
REMARK SMILES IDX 5 1 3 2 2 3 1 4 22 5 20 6 19 7 17 8 16 9 15 10 14 11 6 12
REMARK SMILES IDX 7 13 8 14 9 15 13 16 11 17 10 18 12 20 4 22 21 24 18 26
REMARK H PARENT 10 19 12 21 4 23 21 25 18 27
REMARK Flexibility Score: inf
ROOT
ATOM      1  C   UNL     1     104.603 106.484 112.032  1.00  0.00     0.180 A 
ATOM      2  C   UNL     1     104.198 105.452 111.168  1.00  0.00     0.208 A 
ATOM      3  C   UNL     1     104.227 105.675 109.782  1.00  0.00     0.238 A 
ATOM      4  O   UNL     1     103.914 104.729 109.012  1.00  0.00    -0.285 OA
ATOM      5  C   UNL     1     104.644 106.929 109.278  1.00  0.00     0.111 A 
ATOM      6  C   UNL     1     104.675 107.278 107.894  1.00  0.00     0.134 A 
ATOM      7  C   UNL     1     105.230 108.502 107.502  1.00  0.00     0.093 A 
ATOM      8  C   UNL     1     105.696 109.417 108.446  1.00  0.00     0.123 A 
ATOM      9  C   UNL     1     105.616 109.112 109.805  1.00  0.00     0.094 A 
ATOM     10  C   UNL     1     105.100 107.883 110.225  1.00  0.00     0.146 A 
ATOM     11  O   UNL     1     105.053 107.627 111.527  1.00  0.00    -0.452 OA
ENDROOT
BRANCH   1  12
ATOM     12  C   UNL     1     104.578 106.334 113.505  1.00  0.00     0.025 A 
ATOM     13  C   UNL     1     105.428 107.124 114.295  1.00  0.00     0.016 A 
ATOM     14  C   UNL     1     105.404 107.014 115.688  1.00  0.00     0.051 A 
ATOM     15  C   UNL     1     104.520 106.124 116.312  1.00  0.00     0.157 A 
ATOM     16  C   UNL     1     103.677 105.457 114.136  1.00  0.00     0.062 A 
ATOM     17  C   UNL     1     103.649 105.346 115.531  1.00  0.00     0.158 A 
BRANCH  15  18
ATOM     18  O   UNL     1     104.500 106.015 117.702  1.00  0.00    -0.504 OA
ATOM     19  H   UNL     1     104.828 106.766 118.297  1.00  0.00     0.293 HD
ENDBRANCH  15  18
BRANCH  17  20
ATOM     20  O   UNL     1     102.747 104.462 116.122  1.00  0.00    -0.504 OA
ATOM     21  H   UNL     1     103.054 103.666 116.670  1.00  0.00     0.293 HD
ENDBRANCH  17  20
ENDBRANCH   1  12
BRANCH   2  22
ATOM     22  O   UNL     1     103.810 104.214 111.686  1.00  0.00    -0.502 OA
ATOM     23  H   UNL     1     104.403 103.672 112.303  1.00  0.00     0.293 HD
ENDBRANCH   2  22
BRANCH   6  24
ATOM     24  O   UNL     1     104.152 106.476 106.875  1.00  0.00    -0.507 OA
ATOM     25  H   UNL     1     104.037 105.475 106.934  1.00  0.00     0.293 HD
ENDBRANCH   6  24
BRANCH   8  26
ATOM     26  O   UNL     1     106.228 110.633 108.021  1.00  0.00    -0.508 OA
ATOM     27  H   UNL     1     107.129 110.961 108.349  1.00  0.00     0.293 HD
ENDBRANCH   8  26
TORSDOF 6
ENDMDL
MODEL 3
REMARK VINA RESULT:    -6.150      2.561      5.760
REMARK INTER + INTRA:          -7.742
REMARK INTER:                  -8.109
REMARK INTRA:                   0.367
REMARK UNBOUND:                -0.333
REMARK SMILES O=c1c(O)c(-c2ccc(O)c(O)c2)oc2cc(O)cc(O)c12
REMARK SMILES IDX 5 1 3 2 2 3 1 4 22 5 20 6 19 7 17 8 16 9 15 10 14 11 6 12
REMARK SMILES IDX 7 13 8 14 9 15 13 16 11 17 10 18 12 20 4 22 21 24 18 26
REMARK H PARENT 10 19 12 21 4 23 21 25 18 27
REMARK Flexibility Score: inf
ROOT
ATOM      1  C   UNL     1     104.294 105.996 112.894  1.00  0.00     0.180 A 
ATOM      2  C   UNL     1     103.534 104.946 112.351  1.00  0.00     0.208 A 
ATOM      3  C   UNL     1     103.332 104.899 110.962  1.00  0.00     0.238 A 
ATOM      4  O   UNL     1     102.696 103.928 110.476  1.00  0.00    -0.285 OA
ATOM      5  C   UNL     1     103.878 105.911 110.136  1.00  0.00     0.111 A 
ATOM      6  C   UNL     1     103.703 105.985 108.722  1.00  0.00     0.134 A 
ATOM      7  C   UNL     1     104.397 106.956 107.989  1.00  0.00     0.093 A 
ATOM      8  C   UNL     1     105.208 107.894 108.626  1.00  0.00     0.123 A 
ATOM      9  C   UNL     1     105.340 107.869 110.015  1.00  0.00     0.094 A 
ATOM     10  C   UNL     1     104.688 106.889 110.769  1.00  0.00     0.146 A 
ATOM     11  O   UNL     1     104.849 106.893 112.087  1.00  0.00    -0.452 OA
ENDROOT
BRANCH   1  12
ATOM     12  C   UNL     1     104.530 106.127 114.350  1.00  0.00     0.025 A 
ATOM     13  C   UNL     1     103.620 105.554 115.252  1.00  0.00     0.016 A 
ATOM     14  C   UNL     1     103.834 105.646 116.629  1.00  0.00     0.051 A 
ATOM     15  C   UNL     1     104.970 106.301 117.125  1.00  0.00     0.157 A 
ATOM     16  C   UNL     1     105.679 106.765 114.851  1.00  0.00     0.062 A 
ATOM     17  C   UNL     1     105.899 106.858 116.230  1.00  0.00     0.158 A 
BRANCH  15  18
ATOM     18  O   UNL     1     105.180 106.394 118.501  1.00  0.00    -0.504 OA
ATOM     19  H   UNL     1     104.467 106.757 119.122  1.00  0.00     0.293 HD
ENDBRANCH  15  18
BRANCH  17  20
ATOM     20  O   UNL     1     107.046 107.503 116.692  1.00  0.00    -0.504 OA
ATOM     21  H   UNL     1     107.976 107.202 116.427  1.00  0.00     0.293 HD
ENDBRANCH  17  20
ENDBRANCH   1  12
BRANCH   2  22
ATOM     22  O   UNL     1     103.022 103.946 113.182  1.00  0.00    -0.502 OA
ATOM     23  H   UNL     1     102.028 103.824 113.337  1.00  0.00     0.293 HD
ENDBRANCH   2  22
BRANCH   6  24
ATOM     24  O   UNL     1     102.844 105.154 107.997  1.00  0.00    -0.507 OA
ATOM     25  H   UNL     1     102.256 104.440 108.403  1.00  0.00     0.293 HD
ENDBRANCH   6  24
BRANCH   8  26
ATOM     26  O   UNL     1     105.872 108.857 107.868  1.00  0.00    -0.508 OA
ATOM     27  H   UNL     1     106.067 109.780 108.236  1.00  0.00     0.293 HD
ENDBRANCH   8  26
TORSDOF 6
ENDMDL
MODEL 4
REMARK VINA RESULT:    -6.070      2.917      4.376
REMARK INTER + INTRA:          -7.645
REMARK INTER:                  -7.365
REMARK INTRA:                  -0.280
REMARK UNBOUND:                -0.333
REMARK SMILES O=c1c(O)c(-c2ccc(O)c(O)c2)oc2cc(O)cc(O)c12
REMARK SMILES IDX 5 1 3 2 2 3 1 4 22 5 20 6 19 7 17 8 16 9 15 10 14 11 6 12
REMARK SMILES IDX 7 13 8 14 9 15 13 16 11 17 10 18 12 20 4 22 21 24 18 26
REMARK H PARENT 10 19 12 21 4 23 21 25 18 27
REMARK Flexibility Score: inf
ROOT
ATOM      1  C   UNL     1     106.907 106.687 111.359  1.00  0.00     0.180 A 
ATOM      2  C   UNL     1     106.866 107.581 110.275  1.00  0.00     0.208 A 
ATOM      3  C   UNL     1     105.897 107.395 109.276  1.00  0.00     0.238 A 
ATOM      4  O   UNL     1     105.831 108.230 108.336  1.00  0.00    -0.285 OA
ATOM      5  C   UNL     1     104.993 106.310 109.364  1.00  0.00     0.111 A 
ATOM      6  C   UNL     1     103.997 106.002 108.389  1.00  0.00     0.134 A 
ATOM      7  C   UNL     1     103.072 104.983 108.643  1.00  0.00     0.093 A 
ATOM      8  C   UNL     1     103.147 104.217 109.806  1.00  0.00     0.123 A 
ATOM      9  C   UNL     1     104.153 104.469 110.739  1.00  0.00     0.094 A 
ATOM     10  C   UNL     1     105.068 105.504 110.530  1.00  0.00     0.146 A 
ATOM     11  O   UNL     1     106.004 105.718 111.448  1.00  0.00    -0.452 OA
ENDROOT
BRANCH   1  12
ATOM     12  C   UNL     1     107.915 106.803 112.439  1.00  0.00     0.025 A 
ATOM     13  C   UNL     1     107.730 107.751 113.456  1.00  0.00     0.016 A 
ATOM     14  C   UNL     1     108.657 107.863 114.496  1.00  0.00     0.051 A 
ATOM     15  C   UNL     1     109.774 107.018 114.541  1.00  0.00     0.157 A 
ATOM     16  C   UNL     1     109.026 105.943 112.498  1.00  0.00     0.062 A 
ATOM     17  C   UNL     1     109.956 106.051 113.538  1.00  0.00     0.158 A 
BRANCH  15  18
ATOM     18  O   UNL     1     110.699 107.134 115.578  1.00  0.00    -0.504 OA
ATOM     19  H   UNL     1     111.691 107.233 115.396  1.00  0.00     0.293 HD
ENDBRANCH  15  18
BRANCH  17  20
ATOM     20  O   UNL     1     111.049 105.186 113.562  1.00  0.00    -0.504 OA
ATOM     21  H   UNL     1     111.822 105.277 112.913  1.00  0.00     0.293 HD
ENDBRANCH  17  20
ENDBRANCH   1  12
BRANCH   2  22
ATOM     22  O   UNL     1     107.754 108.659 110.218  1.00  0.00    -0.502 OA
ATOM     23  H   UNL     1     108.758 108.534 110.164  1.00  0.00     0.293 HD
ENDBRANCH   2  22
BRANCH   6  24
ATOM     24  O   UNL     1     103.892 106.645 107.152  1.00  0.00    -0.507 OA
ATOM     25  H   UNL     1     103.466 106.244 106.329  1.00  0.00     0.293 HD
ENDBRANCH   6  24
BRANCH   8  26
ATOM     26  O   UNL     1     102.219 103.199 110.020  1.00  0.00    -0.508 OA
ATOM     27  H   UNL     1     101.508 103.272 110.738  1.00  0.00     0.293 HD
ENDBRANCH   8  26
TORSDOF 6
ENDMDL
MODEL 5
REMARK VINA RESULT:    -5.977      1.643      2.873
REMARK INTER + INTRA:          -7.534
REMARK INTER:                  -7.928
REMARK INTRA:                   0.394
REMARK UNBOUND:                -0.333
REMARK SMILES O=c1c(O)c(-c2ccc(O)c(O)c2)oc2cc(O)cc(O)c12
REMARK SMILES IDX 5 1 3 2 2 3 1 4 22 5 20 6 19 7 17 8 16 9 15 10 14 11 6 12
REMARK SMILES IDX 7 13 8 14 9 15 13 16 11 17 10 18 12 20 4 22 21 24 18 26
REMARK H PARENT 10 19 12 21 4 23 21 25 18 27
REMARK Flexibility Score: inf
ROOT
ATOM      1  C   UNL     1     104.103 105.694 111.141  1.00  0.00     0.180 A 
ATOM      2  C   UNL     1     103.259 104.595 110.907  1.00  0.00     0.208 A 
ATOM      3  C   UNL     1     102.716 103.908 112.004  1.00  0.00     0.238 A 
ATOM      4  O   UNL     1     101.918 102.959 111.788  1.00  0.00    -0.285 OA
ATOM      5  C   UNL     1     103.037 104.316 113.321  1.00  0.00     0.111 A 
ATOM      6  C   UNL     1     102.576 103.668 114.506  1.00  0.00     0.134 A 
ATOM      7  C   UNL     1     102.850 104.236 115.756  1.00  0.00     0.093 A 
ATOM      8  C   UNL     1     103.622 105.392 115.867  1.00  0.00     0.123 A 
ATOM      9  C   UNL     1     104.128 106.001 114.718  1.00  0.00     0.094 A 
ATOM     10  C   UNL     1     103.841 105.477 113.455  1.00  0.00     0.146 A 
ATOM     11  O   UNL     1     104.333 106.094 112.387  1.00  0.00    -0.452 OA
ENDROOT
BRANCH   1  12
ATOM     12  C   UNL     1     104.733 106.454 110.037  1.00  0.00     0.025 A 
ATOM     13  C   UNL     1     104.119 106.475 108.775  1.00  0.00     0.016 A 
ATOM     14  C   UNL     1     104.684 107.203 107.725  1.00  0.00     0.051 A 
ATOM     15  C   UNL     1     105.864 107.933 107.926  1.00  0.00     0.157 A 
ATOM     16  C   UNL     1     105.905 107.204 110.240  1.00  0.00     0.062 A 
ATOM     17  C   UNL     1     106.474 107.936 109.191  1.00  0.00     0.158 A 
BRANCH  15  18
ATOM     18  O   UNL     1     106.427 108.657 106.875  1.00  0.00    -0.504 OA
ATOM     19  H   UNL     1     106.380 109.668 106.843  1.00  0.00     0.293 HD
ENDBRANCH  15  18
BRANCH  17  20
ATOM     20  O   UNL     1     107.640 108.664 109.427  1.00  0.00    -0.504 OA
ATOM     21  H   UNL     1     107.818 109.122 110.312  1.00  0.00     0.293 HD
ENDBRANCH  17  20
ENDBRANCH   1  12
BRANCH   2  22
ATOM     22  O   UNL     1     102.937 104.222 109.599  1.00  0.00    -0.502 OA
ATOM     23  H   UNL     1     102.102 103.696 109.373  1.00  0.00     0.293 HD
ENDBRANCH   2  22
BRANCH   6  24
ATOM     24  O   UNL     1     101.875 102.458 114.512  1.00  0.00    -0.507 OA
ATOM     25  H   UNL     1     101.617 101.939 113.685  1.00  0.00     0.293 HD
ENDBRANCH   6  24
BRANCH   8  26
ATOM     26  O   UNL     1     103.888 105.922 117.128  1.00  0.00    -0.508 OA
ATOM     27  H   UNL     1     104.780 105.777 117.586  1.00  0.00     0.293 HD
ENDBRANCH   8  26
TORSDOF 6
ENDMDL
MODEL 6
REMARK VINA RESULT:    -5.915      3.194      4.381
REMARK INTER + INTRA:          -7.459
REMARK INTER:                  -7.141
REMARK INTRA:                  -0.318
REMARK UNBOUND:                -0.333
REMARK SMILES O=c1c(O)c(-c2ccc(O)c(O)c2)oc2cc(O)cc(O)c12
REMARK SMILES IDX 5 1 3 2 2 3 1 4 22 5 20 6 19 7 17 8 16 9 15 10 14 11 6 12
REMARK SMILES IDX 7 13 8 14 9 15 13 16 11 17 10 18 12 20 4 22 21 24 18 26
REMARK H PARENT 10 19 12 21 4 23 21 25 18 27
REMARK Flexibility Score: inf
ROOT
ATOM      1  C   UNL     1     105.732 107.113 112.326  1.00  0.00     0.180 A 
ATOM      2  C   UNL     1     105.777 107.984 111.224  1.00  0.00     0.208 A 
ATOM      3  C   UNL     1     105.118 107.618 110.039  1.00  0.00     0.238 A 
ATOM      4  O   UNL     1     105.116 108.426 109.074  1.00  0.00    -0.285 OA
ATOM      5  C   UNL     1     104.437 106.380 109.966  1.00  0.00     0.111 A 
ATOM      6  C   UNL     1     103.769 105.888 108.803  1.00  0.00     0.134 A 
ATOM      7  C   UNL     1     103.017 104.710 108.884  1.00  0.00     0.093 A 
ATOM      8  C   UNL     1     102.962 103.971 110.065  1.00  0.00     0.123 A 
ATOM      9  C   UNL     1     103.660 104.410 111.191  1.00  0.00     0.094 A 
ATOM     10  C   UNL     1     104.389 105.601 111.151  1.00  0.00     0.146 A 
ATOM     11  O   UNL     1     105.030 105.989 112.248  1.00  0.00    -0.452 OA
ENDROOT
BRANCH   1  12
ATOM     12  C   UNL     1     106.422 107.418 113.600  1.00  0.00     0.025 A 
ATOM     13  C   UNL     1     105.683 107.914 114.685  1.00  0.00     0.016 A 
ATOM     14  C   UNL     1     106.310 108.188 115.903  1.00  0.00     0.051 A 
ATOM     15  C   UNL     1     107.684 107.956 116.058  1.00  0.00     0.157 A 
ATOM     16  C   UNL     1     107.796 107.167 113.766  1.00  0.00     0.062 A 
ATOM     17  C   UNL     1     108.428 107.439 114.985  1.00  0.00     0.158 A 
BRANCH  15  18
ATOM     18  O   UNL     1     108.308 108.233 117.274  1.00  0.00    -0.504 OA
ATOM     19  H   UNL     1     108.257 107.589 118.055  1.00  0.00     0.293 HD
ENDBRANCH  15  18
BRANCH  17  20
ATOM     20  O   UNL     1     109.793 107.183 115.112  1.00  0.00    -0.504 OA
ATOM     21  H   UNL     1     110.244 107.107 116.017  1.00  0.00     0.293 HD
ENDBRANCH  17  20
ENDBRANCH   1  12
BRANCH   2  22
ATOM     22  O   UNL     1     106.437 109.212 111.324  1.00  0.00    -0.502 OA
ATOM     23  H   UNL     1     107.069 109.549 110.609  1.00  0.00     0.293 HD
ENDBRANCH   2  22
BRANCH   6  24
ATOM     24  O   UNL     1     103.835 106.501 107.548  1.00  0.00    -0.507 OA
ATOM     25  H   UNL     1     104.656 106.950 107.170  1.00  0.00     0.293 HD
ENDBRANCH   6  24
BRANCH   8  26
ATOM     26  O   UNL     1     102.216 102.794 110.106  1.00  0.00    -0.508 OA
ATOM     27  H   UNL     1     102.329 102.121 110.854  1.00  0.00     0.293 HD
ENDBRANCH   8  26
TORSDOF 6
ENDMDL
MODEL 7
REMARK VINA RESULT:    -5.780      3.815      5.409
REMARK INTER + INTRA:          -7.297
REMARK INTER:                  -7.048
REMARK INTRA:                  -0.249
REMARK UNBOUND:                -0.333
REMARK SMILES O=c1c(O)c(-c2ccc(O)c(O)c2)oc2cc(O)cc(O)c12
REMARK SMILES IDX 5 1 3 2 2 3 1 4 22 5 20 6 19 7 17 8 16 9 15 10 14 11 6 12
REMARK SMILES IDX 7 13 8 14 9 15 13 16 11 17 10 18 12 20 4 22 21 24 18 26
REMARK H PARENT 10 19 12 21 4 23 21 25 18 27
REMARK Flexibility Score: inf
ROOT
ATOM      1  C   UNL     1     105.347 106.708 114.122  1.00  0.00     0.180 A 
ATOM      2  C   UNL     1     104.282 105.844 114.432  1.00  0.00     0.208 A 
ATOM      3  C   UNL     1     103.514 105.309 113.386  1.00  0.00     0.238 A 
ATOM      4  O   UNL     1     102.596 104.494 113.666  1.00  0.00    -0.285 OA
ATOM      5  C   UNL     1     103.809 105.655 112.046  1.00  0.00     0.111 A 
ATOM      6  C   UNL     1     103.072 105.204 110.909  1.00  0.00     0.134 A 
ATOM      7  C   UNL     1     103.533 105.504 109.622  1.00  0.00     0.093 A 
ATOM      8  C   UNL     1     104.666 106.294 109.430  1.00  0.00     0.123 A 
ATOM      9  C   UNL     1     105.360 106.791 110.533  1.00  0.00     0.094 A 
ATOM     10  C   UNL     1     104.945 106.478 111.830  1.00  0.00     0.146 A 
ATOM     11  O   UNL     1     105.641 106.962 112.853  1.00  0.00    -0.452 OA
ENDROOT
BRANCH   1  12
ATOM     12  C   UNL     1     106.186 107.331 115.171  1.00  0.00     0.025 A 
ATOM     13  C   UNL     1     105.992 108.681 115.500  1.00  0.00     0.016 A 
ATOM     14  C   UNL     1     106.757 109.284 116.501  1.00  0.00     0.051 A 
ATOM     15  C   UNL     1     107.719 108.540 117.199  1.00  0.00     0.157 A 
ATOM     16  C   UNL     1     107.138 106.583 115.888  1.00  0.00     0.062 A 
ATOM     17  C   UNL     1     107.906 107.182 116.893  1.00  0.00     0.158 A 
BRANCH  15  18
ATOM     18  O   UNL     1     108.484 109.145 118.196  1.00  0.00    -0.504 OA
ATOM     19  H   UNL     1     108.096 109.857 118.803  1.00  0.00     0.293 HD
ENDBRANCH  15  18
BRANCH  17  20
ATOM     20  O   UNL     1     108.844 106.412 117.579  1.00  0.00    -0.504 OA
ATOM     21  H   UNL     1     109.782 106.747 117.765  1.00  0.00     0.293 HD
ENDBRANCH  17  20
ENDBRANCH   1  12
BRANCH   2  22
ATOM     22  O   UNL     1     104.021 105.498 115.760  1.00  0.00    -0.502 OA
ATOM     23  H   UNL     1     104.456 104.702 116.210  1.00  0.00     0.293 HD
ENDBRANCH   2  22
BRANCH   6  24
ATOM     24  O   UNL     1     101.875 104.486 110.991  1.00  0.00    -0.507 OA
ATOM     25  H   UNL     1     101.346 104.157 110.197  1.00  0.00     0.293 HD
ENDBRANCH   6  24
BRANCH   8  26
ATOM     26  O   UNL     1     105.088 106.587 108.134  1.00  0.00    -0.508 OA
ATOM     27  H   UNL     1     105.542 105.891 107.554  1.00  0.00     0.293 HD
ENDBRANCH   8  26
TORSDOF 6
ENDMDL
MODEL 8
REMARK VINA RESULT:    -5.607     13.545     15.336
REMARK INTER + INTRA:          -7.088
REMARK INTER:                  -6.822
REMARK INTRA:                  -0.266
REMARK UNBOUND:                -0.333
REMARK SMILES O=c1c(O)c(-c2ccc(O)c(O)c2)oc2cc(O)cc(O)c12
REMARK SMILES IDX 5 1 3 2 2 3 1 4 22 5 20 6 19 7 17 8 16 9 15 10 14 11 6 12
REMARK SMILES IDX 7 13 8 14 9 15 13 16 11 17 10 18 12 20 4 22 21 24 18 26
REMARK H PARENT 10 19 12 21 4 23 21 25 18 27
REMARK Flexibility Score: inf
ROOT
ATOM      1  C   UNL     1     113.326 117.640 111.219  1.00  0.00     0.180 A 
ATOM      2  C   UNL     1     112.257 117.782 112.121  1.00  0.00     0.208 A 
ATOM      3  C   UNL     1     111.229 118.690 111.820  1.00  0.00     0.238 A 
ATOM      4  O   UNL     1     110.248 118.773 112.604  1.00  0.00    -0.285 OA
ATOM      5  C   UNL     1     111.291 119.456 110.632  1.00  0.00     0.111 A 
ATOM      6  C   UNL     1     110.326 120.435 110.247  1.00  0.00     0.134 A 
ATOM      7  C   UNL     1     110.418 121.039 108.987  1.00  0.00     0.093 A 
ATOM      8  C   UNL     1     111.476 120.749 108.126  1.00  0.00     0.123 A 
ATOM      9  C   UNL     1     112.458 119.838 108.517  1.00  0.00     0.094 A 
ATOM     10  C   UNL     1     112.373 119.192 109.753  1.00  0.00     0.146 A 
ATOM     11  O   UNL     1     113.323 118.324 110.081  1.00  0.00    -0.452 OA
ENDROOT
BRANCH   1  12
ATOM     12  C   UNL     1     114.459 116.721 111.478  1.00  0.00     0.025 A 
ATOM     13  C   UNL     1     114.293 115.344 111.268  1.00  0.00     0.016 A 
ATOM     14  C   UNL     1     115.355 114.462 111.485  1.00  0.00     0.051 A 
ATOM     15  C   UNL     1     116.602 114.946 111.901  1.00  0.00     0.157 A 
ATOM     16  C   UNL     1     115.718 117.206 111.875  1.00  0.00     0.062 A 
ATOM     17  C   UNL     1     116.785 116.326 112.092  1.00  0.00     0.158 A 
BRANCH  15  18
ATOM     18  O   UNL     1     117.659 114.064 112.119  1.00  0.00    -0.504 OA
ATOM     19  H   UNL     1     117.527 113.191 112.617  1.00  0.00     0.293 HD
ENDBRANCH  15  18
BRANCH  17  20
ATOM     20  O   UNL     1     118.018 116.841 112.492  1.00  0.00    -0.504 OA
ATOM     21  H   UNL     1     118.894 116.452 112.165  1.00  0.00     0.293 HD
ENDBRANCH  17  20
ENDBRANCH   1  12
BRANCH   2  22
ATOM     22  O   UNL     1     112.205 117.000 113.278  1.00  0.00    -0.502 OA
ATOM     23  H   UNL     1     113.008 116.490 113.626  1.00  0.00     0.293 HD
ENDBRANCH   2  22
BRANCH   6  24
ATOM     24  O   UNL     1     109.280 120.865 111.070  1.00  0.00    -0.507 OA
ATOM     25  H   UNL     1     109.168 121.809 111.411  1.00  0.00     0.293 HD
ENDBRANCH   6  24
BRANCH   8  26
ATOM     26  O   UNL     1     111.545 121.380 106.886  1.00  0.00    -0.508 OA
ATOM     27  H   UNL     1     112.116 122.206 106.743  1.00  0.00     0.293 HD
ENDBRANCH   8  26
TORSDOF 6
ENDMDL
MODEL 9
REMARK VINA RESULT:    -5.605      1.707      2.777
REMARK INTER + INTRA:          -7.085
REMARK INTER:                  -6.763
REMARK INTRA:                  -0.322
REMARK UNBOUND:                -0.333
REMARK SMILES O=c1c(O)c(-c2ccc(O)c(O)c2)oc2cc(O)cc(O)c12
REMARK SMILES IDX 5 1 3 2 2 3 1 4 22 5 20 6 19 7 17 8 16 9 15 10 14 11 6 12
REMARK SMILES IDX 7 13 8 14 9 15 13 16 11 17 10 18 12 20 4 22 21 24 18 26
REMARK H PARENT 10 19 12 21 4 23 21 25 18 27
REMARK Flexibility Score: inf
ROOT
ATOM      1  C   UNL     1     105.706 108.562 110.096  1.00  0.00     0.180 A 
ATOM      2  C   UNL     1     105.290 108.360 108.769  1.00  0.00     0.208 A 
ATOM      3  C   UNL     1     104.499 107.239 108.467  1.00  0.00     0.238 A 
ATOM      4  O   UNL     1     104.085 107.092 107.287  1.00  0.00    -0.285 OA
ATOM      5  C   UNL     1     104.147 106.328 109.491  1.00  0.00     0.111 A 
ATOM      6  C   UNL     1     103.384 105.138 109.291  1.00  0.00     0.134 A 
ATOM      7  C   UNL     1     102.985 104.379 110.398  1.00  0.00     0.093 A 
ATOM      8  C   UNL     1     103.375 104.730 111.690  1.00  0.00     0.123 A 
ATOM      9  C   UNL     1     104.172 105.858 111.891  1.00  0.00     0.094 A 
ATOM     10  C   UNL     1     104.556 106.655 110.810  1.00  0.00     0.146 A 
ATOM     11  O   UNL     1     105.305 107.725 111.046  1.00  0.00    -0.452 OA
ENDROOT
BRANCH   1  12
ATOM     12  C   UNL     1     106.561 109.706 110.488  1.00  0.00     0.025 A 
ATOM     13  C   UNL     1     107.956 109.592 110.385  1.00  0.00     0.016 A 
ATOM     14  C   UNL     1     108.781 110.666 110.728  1.00  0.00     0.051 A 
ATOM     15  C   UNL     1     108.222 111.875 111.166  1.00  0.00     0.157 A 
ATOM     16  C   UNL     1     106.003 110.927 110.908  1.00  0.00     0.062 A 
ATOM     17  C   UNL     1     106.826 112.006 111.252  1.00  0.00     0.158 A 
BRANCH  15  18
ATOM     18  O   UNL     1     109.048 112.944 111.511  1.00  0.00    -0.504 OA
ATOM     19  H   UNL     1     109.951 112.797 111.948  1.00  0.00     0.293 HD
ENDBRANCH  15  18
BRANCH  17  20
ATOM     20  O   UNL     1     106.239 113.199 111.670  1.00  0.00    -0.504 OA
ATOM     21  H   UNL     1     105.346 113.221 112.147  1.00  0.00     0.293 HD
ENDBRANCH  17  20
ENDBRANCH   1  12
BRANCH   2  22
ATOM     22  O   UNL     1     105.630 109.283 107.777  1.00  0.00    -0.502 OA
ATOM     23  H   UNL     1     106.587 109.563 107.599  1.00  0.00     0.293 HD
ENDBRANCH   2  22
BRANCH   6  24
ATOM     24  O   UNL     1     103.018 104.648 108.034  1.00  0.00    -0.507 OA
ATOM     25  H   UNL     1     102.895 105.215 107.209  1.00  0.00     0.293 HD
ENDBRANCH   6  24
BRANCH   8  26
ATOM     26  O   UNL     1     102.973 103.943 112.767  1.00  0.00    -0.508 OA
ATOM     27  H   UNL     1     102.082 103.460 112.767  1.00  0.00     0.293 HD
ENDBRANCH   8  26
TORSDOF 6
ENDMDL
