MODEL 1
REMARK VINA RESULT:    -6.596      0.000      0.000
REMARK INTER + INTRA:          -8.411
REMARK INTER:                  -9.103
REMARK INTRA:                   0.692
REMARK UNBOUND:                 0.692
REMARK SMILES O=C([O-])[C@@H]1O[C@H](Oc2cc3oc(-c4ccccc4)cc(=O)c3c(O)c2O)[C@@H](O)[C@@H](O)[C@@H]1O
REMARK SMILES IDX 7 1 6 2 4 3 31 4 5 5 29 6 27 7 2 8 1 9 3 10 32 11 30 13
REMARK SMILES IDX 28 15 8 17 25 18 9 19 23 20 10 21 22 22 11 23 20 24 12 25
REMARK SMILES IDX 19 26 21 27 26 28 24 30 13 32 14 33 18 34 15 35 17 36 16 37
REMARK H PARENT 32 12 30 14 28 16 26 29 24 31
REMARK Flexibility Score: inf
ROOT
ATOM      1  O   UNL     1     -12.805   6.952   7.644  1.00  0.00    -0.458 OA
ENDROOT
BRANCH   1   2
ATOM      2  C   UNL     1     -11.998   6.099   8.466  1.00  0.00     0.339 C 
ATOM      3  C   UNL     1     -12.615   4.095   7.333  1.00  0.00     0.199 C 
ATOM      4  C   UNL     1     -11.206   3.946   6.705  1.00  0.00     0.180 C 
ATOM      5  O   UNL     1     -12.588   4.808   8.565  1.00  0.00    -0.328 OA
ATOM      6  C   UNL     1     -10.497   5.304   6.600  1.00  0.00     0.181 C 
ATOM      7  C   UNL     1     -10.540   6.017   7.958  1.00  0.00     0.214 C 
BRANCH   3   8
ATOM      8  C   UNL     1     -13.688   4.622   6.407  1.00  0.00     0.073 C 
ATOM      9  O   UNL     1     -14.647   5.283   6.886  1.00  0.00    -0.547 OA
ATOM     10  O   UNL     1     -13.634   4.407   5.034  1.00  0.00    -0.547 OA
ENDBRANCH   3   8
BRANCH   4  11
ATOM     11  O   UNL     1     -11.301   3.338   5.440  1.00  0.00    -0.387 OA
ATOM     12  H   UNL     1     -11.075   2.379   5.562  1.00  0.00     0.211 HD
ENDBRANCH   4  11
BRANCH   6  13
ATOM     13  O   UNL     1      -9.164   5.108   6.201  1.00  0.00    -0.387 OA
ATOM     14  H   UNL     1      -9.191   4.636   5.328  1.00  0.00     0.211 HD
ENDBRANCH   6  13
BRANCH   7  15
ATOM     15  O   UNL     1      -9.749   5.319   8.886  1.00  0.00    -0.384 OA
ATOM     16  H   UNL     1      -9.795   4.358   8.637  1.00  0.00     0.211 HD
ENDBRANCH   7  15
ENDBRANCH   1   2
BRANCH   1  17
ATOM     17  C   UNL     1     -12.389   8.062   6.886  1.00  0.00     0.172 A 
ATOM     18  C   UNL     1     -13.218   8.754   5.969  1.00  0.00     0.201 A 
ATOM     19  C   UNL     1     -11.065   8.467   7.055  1.00  0.00     0.098 A 
ATOM     20  C   UNL     1     -12.720   9.901   5.297  1.00  0.00     0.176 A 
ATOM     21  C   UNL     1     -10.552   9.563   6.368  1.00  0.00     0.146 A 
ATOM     22  C   UNL     1     -11.373  10.296   5.485  1.00  0.00     0.111 A 
ATOM     23  O   UNL     1      -9.283   9.910   6.563  1.00  0.00    -0.456 OA
ATOM     24  C   UNL     1     -10.795  11.409   4.833  1.00  0.00     0.197 A 
ATOM     25  C   UNL     1      -8.706  10.943   5.957  1.00  0.00     0.138 A 
ATOM     26  C   UNL     1      -9.458  11.731   5.072  1.00  0.00     0.100 A 
ATOM     27  O   UNL     1     -11.460  12.125   4.038  1.00  0.00    -0.289 OA
BRANCH  18  28
ATOM     28  O   UNL     1     -14.503   8.270   5.714  1.00  0.00    -0.502 OA
ATOM     29  H   UNL     1     -15.317   8.489   6.268  1.00  0.00     0.293 HD
ENDBRANCH  18  28
BRANCH  20  30
ATOM     30  O   UNL     1     -13.540  10.662   4.455  1.00  0.00    -0.504 OA
ATOM     31  H   UNL     1     -13.279  10.967   3.529  1.00  0.00     0.293 HD
ENDBRANCH  20  30
BRANCH  25  32
ATOM     32  C   UNL     1      -7.281  11.239   6.250  1.00  0.00     0.017 A 
ATOM     33  C   UNL     1      -6.258  10.953   5.324  1.00  0.00     0.012 A 
ATOM     34  C   UNL     1      -6.931  11.789   7.498  1.00  0.00     0.012 A 
ATOM     35  C   UNL     1      -4.923  11.234   5.633  1.00  0.00     0.001 A 
ATOM     36  C   UNL     1      -5.595  12.068   7.801  1.00  0.00     0.001 A 
ATOM     37  C   UNL     1      -4.592  11.794   6.869  1.00  0.00     0.000 A 
ENDBRANCH  25  32
ENDBRANCH   1  17
TORSDOF 9
ENDMDL
MODEL 2
REMARK VINA RESULT:    -6.315      1.694      2.377
REMARK INTER + INTRA:          -8.023
REMARK INTER:                  -7.037
REMARK INTRA:                  -0.986
REMARK UNBOUND:                 0.692
REMARK SMILES O=C([O-])[C@@H]1O[C@H](Oc2cc3oc(-c4ccccc4)cc(=O)c3c(O)c2O)[C@@H](O)[C@@H](O)[C@@H]1O
REMARK SMILES IDX 7 1 6 2 4 3 31 4 5 5 29 6 27 7 2 8 1 9 3 10 32 11 30 13
REMARK SMILES IDX 28 15 8 17 25 18 9 19 23 20 10 21 22 22 11 23 20 24 12 25
REMARK SMILES IDX 19 26 21 27 26 28 24 30 13 32 14 33 18 34 15 35 17 36 16 37
REMARK H PARENT 32 12 30 14 28 16 26 29 24 31
REMARK Flexibility Score: inf
ROOT
ATOM      1  O   UNL     1     -13.266   6.169   6.135  1.00  0.00    -0.458 OA
ENDROOT
BRANCH   1   2
ATOM      2  C   UNL     1     -13.610   5.053   6.967  1.00  0.00     0.339 C 
ATOM      3  C   UNL     1     -12.151   3.527   5.862  1.00  0.00     0.199 C 
ATOM      4  C   UNL     1     -11.193   3.470   7.079  1.00  0.00     0.180 C 
ATOM      5  O   UNL     1     -13.488   3.838   6.237  1.00  0.00    -0.328 OA
ATOM      6  C   UNL     1     -11.299   4.742   7.933  1.00  0.00     0.181 C 
ATOM      7  C   UNL     1     -12.771   5.020   8.265  1.00  0.00     0.214 C 
BRANCH   3   8
ATOM      8  C   UNL     1     -11.682   4.383   4.706  1.00  0.00     0.073 C 
ATOM      9  O   UNL     1     -12.448   4.567   3.723  1.00  0.00    -0.547 OA
ATOM     10  O   UNL     1     -10.429   4.986   4.708  1.00  0.00    -0.547 OA
ENDBRANCH   3   8
BRANCH   4  11
ATOM     11  O   UNL     1      -9.869   3.273   6.646  1.00  0.00    -0.387 OA
ATOM     12  H   UNL     1      -9.872   2.471   6.061  1.00  0.00     0.211 HD
ENDBRANCH   4  11
BRANCH   6  13
ATOM     13  O   UNL     1     -10.561   4.576   9.117  1.00  0.00    -0.387 OA
ATOM     14  H   UNL     1     -10.761   3.665   9.455  1.00  0.00     0.211 HD
ENDBRANCH   6  13
BRANCH   7  15
ATOM     15  O   UNL     1     -13.261   4.022   9.125  1.00  0.00    -0.384 OA
ATOM     16  H   UNL     1     -13.248   3.171   8.613  1.00  0.00     0.211 HD
ENDBRANCH   7  15
ENDBRANCH   1   2
BRANCH   1  17
ATOM     17  C   UNL     1     -12.878   7.459   6.541  1.00  0.00     0.172 A 
ATOM     18  C   UNL     1     -13.762   8.415   7.100  1.00  0.00     0.201 A 
ATOM     19  C   UNL     1     -11.538   7.794   6.345  1.00  0.00     0.098 A 
ATOM     20  C   UNL     1     -13.258   9.670   7.533  1.00  0.00     0.176 A 
ATOM     21  C   UNL     1     -11.042   9.037   6.726  1.00  0.00     0.146 A 
ATOM     22  C   UNL     1     -11.893   9.989   7.328  1.00  0.00     0.111 A 
ATOM     23  O   UNL     1      -9.757   9.309   6.519  1.00  0.00    -0.456 OA
ATOM     24  C   UNL     1     -11.321  11.224   7.706  1.00  0.00     0.197 A 
ATOM     25  C   UNL     1      -9.191  10.465   6.852  1.00  0.00     0.138 A 
ATOM     26  C   UNL     1      -9.967  11.460   7.468  1.00  0.00     0.100 A 
ATOM     27  O   UNL     1     -12.006  12.125   8.260  1.00  0.00    -0.289 OA
BRANCH  18  28
ATOM     28  O   UNL     1     -15.123   8.119   7.180  1.00  0.00    -0.502 OA
ATOM     29  H   UNL     1     -15.720   8.373   7.954  1.00  0.00     0.293 HD
ENDBRANCH  18  28
BRANCH  20  30
ATOM     30  O   UNL     1     -14.083  10.602   8.173  1.00  0.00    -0.504 OA
ATOM     31  H   UNL     1     -14.027  11.600   8.039  1.00  0.00     0.293 HD
ENDBRANCH  20  30
BRANCH  25  32
ATOM     32  C   UNL     1      -7.746  10.659   6.574  1.00  0.00     0.017 A 
ATOM     33  C   UNL     1      -6.805  10.813   7.612  1.00  0.00     0.012 A 
ATOM     34  C   UNL     1      -7.300  10.726   5.240  1.00  0.00     0.012 A 
ATOM     35  C   UNL     1      -5.451  11.004   7.319  1.00  0.00     0.001 A 
ATOM     36  C   UNL     1      -5.945  10.916   4.954  1.00  0.00     0.001 A 
ATOM     37  C   UNL     1      -5.021  11.053   5.992  1.00  0.00     0.000 A 
ENDBRANCH  25  32
ENDBRANCH   1  17
TORSDOF 9
ENDMDL
MODEL 3
REMARK VINA RESULT:    -6.115      1.536      2.908
REMARK INTER + INTRA:          -7.746
REMARK INTER:                  -7.792
REMARK INTRA:                   0.046
REMARK UNBOUND:                 0.692
REMARK SMILES O=C([O-])[C@@H]1O[C@H](Oc2cc3oc(-c4ccccc4)cc(=O)c3c(O)c2O)[C@@H](O)[C@@H](O)[C@@H]1O
REMARK SMILES IDX 7 1 6 2 4 3 31 4 5 5 29 6 27 7 2 8 1 9 3 10 32 11 30 13
REMARK SMILES IDX 28 15 8 17 25 18 9 19 23 20 10 21 22 22 11 23 20 24 12 25
REMARK SMILES IDX 19 26 21 27 26 28 24 30 13 32 14 33 18 34 15 35 17 36 16 37
REMARK H PARENT 32 12 30 14 28 16 26 29 24 31
REMARK Flexibility Score: inf
ROOT
ATOM      1  O   UNL     1     -10.099   5.700   6.682  1.00  0.00    -0.458 OA
ENDROOT
BRANCH   1   2
ATOM      2  C   UNL     1     -10.406   4.695   5.707  1.00  0.00     0.339 C 
ATOM      3  C   UNL     1     -11.777   3.411   7.173  1.00  0.00     0.199 C 
ATOM      4  C   UNL     1     -13.066   3.804   6.409  1.00  0.00     0.180 C 
ATOM      5  O   UNL     1     -10.621   3.440   6.342  1.00  0.00    -0.328 OA
ATOM      6  C   UNL     1     -12.890   5.138   5.668  1.00  0.00     0.181 C 
ATOM      7  C   UNL     1     -11.610   5.096   4.823  1.00  0.00     0.214 C 
BRANCH   3   8
ATOM      8  C   UNL     1     -11.545   4.143   8.477  1.00  0.00     0.073 C 
ATOM      9  O   UNL     1     -10.486   3.932   9.125  1.00  0.00    -0.547 OA
ATOM     10  O   UNL     1     -12.469   5.058   8.971  1.00  0.00    -0.547 OA
ENDBRANCH   3   8
BRANCH   4  11
ATOM     11  O   UNL     1     -14.155   3.869   7.296  1.00  0.00    -0.387 OA
ATOM     12  H   UNL     1     -14.356   2.940   7.578  1.00  0.00     0.211 HD
ENDBRANCH   4  11
BRANCH   6  13
ATOM     13  O   UNL     1     -14.004   5.368   4.844  1.00  0.00    -0.387 OA
ATOM     14  H   UNL     1     -14.795   5.432   5.440  1.00  0.00     0.211 HD
ENDBRANCH   6  13
BRANCH   7  15
ATOM     15  O   UNL     1     -11.762   4.171   3.776  1.00  0.00    -0.384 OA
ATOM     16  H   UNL     1     -10.862   4.034   3.381  1.00  0.00     0.211 HD
ENDBRANCH   7  15
ENDBRANCH   1   2
BRANCH   1  17
ATOM     17  C   UNL     1     -10.017   7.091   6.489  1.00  0.00     0.172 A 
ATOM     18  C   UNL     1     -11.131   7.965   6.523  1.00  0.00     0.201 A 
ATOM     19  C   UNL     1      -8.747   7.607   6.226  1.00  0.00     0.098 A 
ATOM     20  C   UNL     1     -10.934   9.363   6.375  1.00  0.00     0.176 A 
ATOM     21  C   UNL     1      -8.548   8.971   6.036  1.00  0.00     0.146 A 
ATOM     22  C   UNL     1      -9.636   9.867   6.112  1.00  0.00     0.111 A 
ATOM     23  O   UNL     1      -7.319   9.414   5.788  1.00  0.00    -0.456 OA
ATOM     24  C   UNL     1      -9.361  11.240   5.927  1.00  0.00     0.197 A 
ATOM     25  C   UNL     1      -7.028  10.697   5.597  1.00  0.00     0.138 A 
ATOM     26  C   UNL     1      -8.053  11.654   5.670  1.00  0.00     0.100 A 
ATOM     27  O   UNL     1     -10.271  12.108   5.990  1.00  0.00    -0.289 OA
BRANCH  18  28
ATOM     28  O   UNL     1     -12.412   7.430   6.664  1.00  0.00    -0.502 OA
ATOM     29  H   UNL     1     -12.635   6.449   6.582  1.00  0.00     0.293 HD
ENDBRANCH  18  28
BRANCH  20  30
ATOM     30  O   UNL     1     -11.999  10.264   6.495  1.00  0.00    -0.504 OA
ATOM     31  H   UNL     1     -12.637  10.291   7.276  1.00  0.00     0.293 HD
ENDBRANCH  20  30
BRANCH  25  32
ATOM     32  C   UNL     1      -5.619  11.079   5.329  1.00  0.00     0.017 A 
ATOM     33  C   UNL     1      -5.159  11.350   4.024  1.00  0.00     0.012 A 
ATOM     34  C   UNL     1      -4.703  11.142   6.396  1.00  0.00     0.012 A 
ATOM     35  C   UNL     1      -3.823  11.697   3.801  1.00  0.00     0.001 A 
ATOM     36  C   UNL     1      -3.369  11.491   6.167  1.00  0.00     0.001 A 
ATOM     37  C   UNL     1      -2.930  11.771   4.871  1.00  0.00     0.000 A 
ENDBRANCH  25  32
ENDBRANCH   1  17
TORSDOF 9
ENDMDL
MODEL 4
REMARK VINA RESULT:    -3.936      1.658      2.749
REMARK INTER + INTRA:          -4.740
REMARK INTER:                  -4.553
REMARK INTRA:                  -0.187
REMARK UNBOUND:                 0.692
REMARK SMILES O=C([O-])[C@@H]1O[C@H](Oc2cc3oc(-c4ccccc4)cc(=O)c3c(O)c2O)[C@@H](O)[C@@H](O)[C@@H]1O
REMARK SMILES IDX 7 1 6 2 4 3 31 4 5 5 29 6 27 7 2 8 1 9 3 10 32 11 30 13
REMARK SMILES IDX 28 15 8 17 25 18 9 19 23 20 10 21 22 22 11 23 20 24 12 25
REMARK SMILES IDX 19 26 21 27 26 28 24 30 13 32 14 33 18 34 15 35 17 36 16 37
REMARK H PARENT 32 12 30 14 28 16 26 29 24 31
REMARK Flexibility Score: inf
ROOT
ATOM      1  O   UNL     1     -11.915   6.142   5.684  1.00  0.00    -0.458 OA
ENDROOT
BRANCH   1   2
ATOM      2  C   UNL     1     -10.929   5.243   5.160  1.00  0.00     0.339 C 
ATOM      3  C   UNL     1     -10.396   4.281   7.273  1.00  0.00     0.199 C 
ATOM      4  C   UNL     1     -11.066   2.935   6.897  1.00  0.00     0.180 C 
ATOM      5  O   UNL     1      -9.924   4.991   6.134  1.00  0.00    -0.328 OA
ATOM      6  C   UNL     1     -12.143   3.131   5.820  1.00  0.00     0.181 C 
ATOM      7  C   UNL     1     -11.561   3.929   4.645  1.00  0.00     0.214 C 
BRANCH   3   8
ATOM      8  C   UNL     1     -11.202   5.173   8.193  1.00  0.00     0.073 C 
ATOM      9  O   UNL     1     -10.632   6.132   8.778  1.00  0.00    -0.547 OA
ATOM     10  O   UNL     1     -12.562   4.969   8.395  1.00  0.00    -0.547 OA
ENDBRANCH   3   8
BRANCH   4  11
ATOM     11  O   UNL     1     -11.615   2.329   8.041  1.00  0.00    -0.387 OA
ATOM     12  H   UNL     1     -11.519   1.348   7.924  1.00  0.00     0.211 HD
ENDBRANCH   4  11
BRANCH   6  13
ATOM     13  O   UNL     1     -12.595   1.878   5.373  1.00  0.00    -0.387 OA
ATOM     14  H   UNL     1     -11.866   1.489   4.823  1.00  0.00     0.211 HD
ENDBRANCH   6  13
BRANCH   7  15
ATOM     15  O   UNL     1     -10.589   3.159   3.984  1.00  0.00    -0.384 OA
ATOM     16  H   UNL     1     -11.077   2.517   3.404  1.00  0.00     0.211 HD
ENDBRANCH   7  15
ENDBRANCH   1   2
BRANCH   1  17
ATOM     17  C   UNL     1     -11.721   7.452   6.157  1.00  0.00     0.172 A 
ATOM     18  C   UNL     1     -12.759   8.282   6.649  1.00  0.00     0.201 A 
ATOM     19  C   UNL     1     -10.417   7.944   6.102  1.00  0.00     0.098 A 
ATOM     20  C   UNL     1     -12.448   9.570   7.160  1.00  0.00     0.176 A 
ATOM     21  C   UNL     1     -10.107   9.222   6.558  1.00  0.00     0.146 A 
ATOM     22  C   UNL     1     -11.116  10.049   7.096  1.00  0.00     0.111 A 
ATOM     23  O   UNL     1      -8.849   9.646   6.485  1.00  0.00    -0.456 OA
ATOM     24  C   UNL     1     -10.731  11.327   7.559  1.00  0.00     0.197 A 
ATOM     25  C   UNL     1      -8.456  10.846   6.899  1.00  0.00     0.138 A 
ATOM     26  C   UNL     1      -9.397  11.724   7.459  1.00  0.00     0.100 A 
ATOM     27  O   UNL     1     -11.566  12.124   8.064  1.00  0.00    -0.289 OA
BRANCH  18  28
ATOM     28  O   UNL     1     -14.078   7.830   6.588  1.00  0.00    -0.502 OA
ATOM     29  H   UNL     1     -14.455   7.086   7.157  1.00  0.00     0.293 HD
ENDBRANCH  18  28
BRANCH  20  30
ATOM     30  O   UNL     1     -13.434  10.379   7.738  1.00  0.00    -0.504 OA
ATOM     31  H   UNL     1     -13.262  11.049   8.473  1.00  0.00     0.293 HD
ENDBRANCH  20  30
BRANCH  25  32
ATOM     32  C   UNL     1      -7.023  11.213   6.769  1.00  0.00     0.017 A 
ATOM     33  C   UNL     1      -6.301  11.776   7.841  1.00  0.00     0.012 A 
ATOM     34  C   UNL     1      -6.370  11.027   5.536  1.00  0.00     0.012 A 
ATOM     35  C   UNL     1      -4.955  12.121   7.685  1.00  0.00     0.001 A 
ATOM     36  C   UNL     1      -5.024  11.374   5.387  1.00  0.00     0.001 A 
ATOM     37  C   UNL     1      -4.316  11.917   6.461  1.00  0.00     0.000 A 
ENDBRANCH  25  32
ENDBRANCH   1  17
TORSDOF 9
ENDMDL
