MODEL 1
REMARK VINA RESULT:    -6.906      0.000      0.000
REMARK INTER + INTRA:         -11.361
REMARK INTER:                 -10.741
REMARK INTRA:                  -0.620
REMARK UNBOUND:                -0.620
REMARK SMILES C[C@]12C[C@]3(O)O[C@H](O1)[C@@]1(COC(=O)c4ccccc4)[C@@H]3C[C@]12O[C@@H]1O[C@@H](CO)[C@H](O)[C@@H](O)[C@@H]1O
REMARK SMILES IDX 1 1 2 2 3 3 4 4 20 5 21 6 22 7 9 8 7 9 8 10 6 11 23 12 24 13
REMARK SMILES IDX 33 14 25 15 31 16 26 17 29 18 34 19 32 21 27 23 28 24 30 26
REMARK SMILES IDX 5 28 10 30 11 31 12 32 13 33 14 34 15 35 19 36 16 37 18 38
REMARK SMILES IDX 17 39
REMARK H PARENT 34 20 32 22 28 25 30 27 5 29
REMARK Flexibility Score: inf
ROOT
ATOM      1  C   UNL     1     102.482 124.007 116.224  1.00  0.00     0.046 C 
ATOM      2  C   UNL     1     103.228 123.542 117.483  1.00  0.00     0.104 C 
ATOM      3  C   UNL     1     102.447 124.009 118.771  1.00  0.00     0.104 C 
ATOM      4  C   UNL     1     103.269 123.391 119.951  1.00  0.00     0.175 C 
ATOM      5  C   UNL     1     103.535 121.879 119.684  1.00  0.00     0.070 C 
ATOM      6  C   UNL     1     102.629 121.287 118.593  1.00  0.00     0.050 C 
ATOM      7  C   UNL     1     103.538 121.989 117.575  1.00  0.00     0.115 C 
ATOM      8  C   UNL     1     104.639 122.029 118.641  1.00  0.00     0.096 C 
ATOM      9  C   UNL     1     105.100 123.479 118.703  1.00  0.00     0.267 C 
ATOM     10  O   UNL     1     104.503 124.145 117.592  1.00  0.00    -0.342 OA
ATOM     11  O   UNL     1     104.548 123.996 119.903  1.00  0.00    -0.320 OA
ENDROOT
BRANCH   7  12
ATOM     12  O   UNL     1     103.748 121.201 116.399  1.00  0.00    -0.339 OA
BRANCH  12  13
ATOM     13  C   UNL     1     102.692 121.247 115.440  1.00  0.00     0.282 C 
ATOM     14  C   UNL     1     103.242 121.071 114.004  1.00  0.00     0.202 C 
ATOM     15  O   UNL     1     101.722 120.240 115.699  1.00  0.00    -0.341 OA
ATOM     16  C   UNL     1     103.810 119.659 113.812  1.00  0.00     0.179 C 
ATOM     17  C   UNL     1     102.275 118.931 115.663  1.00  0.00     0.178 C 
ATOM     18  C   UNL     1     102.778 118.604 114.240  1.00  0.00     0.177 C 
BRANCH  14  19
ATOM     19  O   UNL     1     104.256 122.002 113.746  1.00  0.00    -0.385 OA
ATOM     20  H   UNL     1     104.138 122.762 114.374  1.00  0.00     0.211 HD
ENDBRANCH  14  19
BRANCH  16  21
ATOM     21  O   UNL     1     104.217 119.472 112.477  1.00  0.00    -0.387 OA
ATOM     22  H   UNL     1     103.426 119.606 111.891  1.00  0.00     0.211 HD
ENDBRANCH  16  21
BRANCH  17  23
ATOM     23  C   UNL     1     101.184 117.941 116.107  1.00  0.00     0.191 C 
BRANCH  23  24
ATOM     24  O   UNL     1     101.750 116.787 116.669  1.00  0.00    -0.394 OA
ATOM     25  H   UNL     1     101.100 116.445 117.336  1.00  0.00     0.210 HD
ENDBRANCH  23  24
ENDBRANCH  17  23
BRANCH  18  26
ATOM     26  O   UNL     1     103.382 117.336 114.221  1.00  0.00    -0.387 OA
ATOM     27  H   UNL     1     104.097 117.338 114.911  1.00  0.00     0.211 HD
ENDBRANCH  18  26
ENDBRANCH  12  13
ENDBRANCH   7  12
BRANCH   4  28
ATOM     28  O   UNL     1     102.653 123.592 121.195  1.00  0.00    -0.365 OA
ATOM     29  H   UNL     1     101.754 123.968 121.009  1.00  0.00     0.214 HD
ENDBRANCH   4  28
BRANCH   8  30
ATOM     30  C   UNL     1     105.710 120.918 118.675  1.00  0.00     0.249 C 
BRANCH  30  31
ATOM     31  O   UNL     1     106.992 121.438 119.033  1.00  0.00    -0.461 OA
BRANCH  31  32
ATOM     32  C   UNL     1     107.607 121.251 120.276  1.00  0.00     0.338 C 
ATOM     33  O   UNL     1     106.999 121.545 121.343  1.00  0.00    -0.246 OA
BRANCH  32  34
ATOM     34  C   UNL     1     108.990 120.726 120.328  1.00  0.00     0.060 A 
ATOM     35  C   UNL     1     109.440 119.786 119.383  1.00  0.00     0.015 A 
ATOM     36  C   UNL     1     109.874 121.159 121.332  1.00  0.00     0.015 A 
ATOM     37  C   UNL     1     110.744 119.282 119.451  1.00  0.00     0.001 A 
ATOM     38  C   UNL     1     111.176 120.653 121.396  1.00  0.00     0.001 A 
ATOM     39  C   UNL     1     111.611 119.714 120.457  1.00  0.00     0.000 A 
ENDBRANCH  32  34
ENDBRANCH  31  32
ENDBRANCH  30  31
ENDBRANCH   8  30
TORSDOF 12
ENDMDL
MODEL 2
REMARK VINA RESULT:    -6.900      3.112      4.766
REMARK INTER + INTRA:         -11.353
REMARK INTER:                  -9.979
REMARK INTRA:                  -1.374
REMARK UNBOUND:                -0.620
REMARK SMILES C[C@]12C[C@]3(O)O[C@H](O1)[C@@]1(COC(=O)c4ccccc4)[C@@H]3C[C@]12O[C@@H]1O[C@@H](CO)[C@H](O)[C@@H](O)[C@@H]1O
REMARK SMILES IDX 1 1 2 2 3 3 4 4 20 5 21 6 22 7 9 8 7 9 8 10 6 11 23 12 24 13
REMARK SMILES IDX 33 14 25 15 31 16 26 17 29 18 34 19 32 21 27 23 28 24 30 26
REMARK SMILES IDX 5 28 10 30 11 31 12 32 13 33 14 34 15 35 19 36 16 37 18 38
REMARK SMILES IDX 17 39
REMARK H PARENT 34 20 32 22 28 25 30 27 5 29
REMARK Flexibility Score: inf
ROOT
ATOM      1  C   UNL     1     102.382 121.686 122.179  1.00  0.00     0.046 C 
ATOM      2  C   UNL     1     103.637 120.871 121.836  1.00  0.00     0.104 C 
ATOM      3  C   UNL     1     103.598 119.485 122.590  1.00  0.00     0.104 C 
ATOM      4  C   UNL     1     104.876 118.743 122.075  1.00  0.00     0.175 C 
ATOM      5  C   UNL     1     104.939 118.803 120.519  1.00  0.00     0.070 C 
ATOM      6  C   UNL     1     103.600 119.191 119.872  1.00  0.00     0.050 C 
ATOM      7  C   UNL     1     103.912 120.634 120.293  1.00  0.00     0.115 C 
ATOM      8  C   UNL     1     105.395 120.252 120.371  1.00  0.00     0.096 C 
ATOM      9  C   UNL     1     105.864 120.702 121.749  1.00  0.00     0.267 C 
ATOM     10  O   UNL     1     104.817 121.501 122.295  1.00  0.00    -0.342 OA
ATOM     11  O   UNL     1     105.983 119.512 122.510  1.00  0.00    -0.320 OA
ENDROOT
BRANCH   7  12
ATOM     12  O   UNL     1     103.500 121.588 119.308  1.00  0.00    -0.339 OA
BRANCH  12  13
ATOM     13  C   UNL     1     102.932 122.790 119.828  1.00  0.00     0.282 C 
ATOM     14  C   UNL     1     103.889 123.988 119.617  1.00  0.00     0.202 C 
ATOM     15  O   UNL     1     101.681 123.073 119.214  1.00  0.00    -0.341 OA
ATOM     16  C   UNL     1     104.038 124.305 118.123  1.00  0.00     0.179 C 
ATOM     17  C   UNL     1     101.791 123.227 117.805  1.00  0.00     0.178 C 
ATOM     18  C   UNL     1     102.656 124.461 117.469  1.00  0.00     0.177 C 
BRANCH  14  19
ATOM     19  O   UNL     1     105.156 123.709 120.145  1.00  0.00    -0.385 OA
ATOM     20  H   UNL     1     105.153 122.767 120.460  1.00  0.00     0.211 HD
ENDBRANCH  14  19
BRANCH  16  21
ATOM     21  O   UNL     1     104.829 125.457 117.943  1.00  0.00    -0.387 OA
ATOM     22  H   UNL     1     105.549 125.237 117.295  1.00  0.00     0.211 HD
ENDBRANCH  16  21
BRANCH  17  23
ATOM     23  C   UNL     1     100.371 123.372 117.231  1.00  0.00     0.191 C 
BRANCH  23  24
ATOM     24  O   UNL     1     100.363 123.144 115.846  1.00  0.00    -0.394 OA
ATOM     25  H   UNL     1     101.286 123.311 115.524  1.00  0.00     0.210 HD
ENDBRANCH  23  24
ENDBRANCH  17  23
BRANCH  18  26
ATOM     26  O   UNL     1     102.817 124.574 116.078  1.00  0.00    -0.387 OA
ATOM     27  H   UNL     1     102.595 123.691 115.682  1.00  0.00     0.211 HD
ENDBRANCH  18  26
ENDBRANCH  12  13
ENDBRANCH   7  12
BRANCH   4  28
ATOM     28  O   UNL     1     104.953 117.423 122.542  1.00  0.00    -0.365 OA
ATOM     29  H   UNL     1     104.342 117.362 123.323  1.00  0.00     0.214 HD
ENDBRANCH   4  28
BRANCH   8  30
ATOM     30  C   UNL     1     106.317 120.514 119.162  1.00  0.00     0.249 C 
BRANCH  30  31
ATOM     31  O   UNL     1     106.864 121.833 119.197  1.00  0.00    -0.461 OA
BRANCH  31  32
ATOM     32  C   UNL     1     108.228 122.132 119.105  1.00  0.00     0.338 C 
ATOM     33  O   UNL     1     108.632 123.057 118.346  1.00  0.00    -0.246 OA
BRANCH  32  34
ATOM     34  C   UNL     1     109.198 121.336 119.890  1.00  0.00     0.060 A 
ATOM     35  C   UNL     1     109.419 121.607 121.253  1.00  0.00     0.015 A 
ATOM     36  C   UNL     1     109.920 120.296 119.276  1.00  0.00     0.015 A 
ATOM     37  C   UNL     1     110.351 120.860 121.981  1.00  0.00     0.001 A 
ATOM     38  C   UNL     1     110.851 119.553 120.009  1.00  0.00     0.001 A 
ATOM     39  C   UNL     1     111.068 119.834 121.360  1.00  0.00     0.000 A 
ENDBRANCH  32  34
ENDBRANCH  31  32
ENDBRANCH  30  31
ENDBRANCH   8  30
TORSDOF 12
ENDMDL
MODEL 3
REMARK VINA RESULT:    -6.846      3.341      5.391
REMARK INTER + INTRA:         -11.269
REMARK INTER:                 -10.757
REMARK INTRA:                  -0.512
REMARK UNBOUND:                -0.620
REMARK SMILES C[C@]12C[C@]3(O)O[C@H](O1)[C@@]1(COC(=O)c4ccccc4)[C@@H]3C[C@]12O[C@@H]1O[C@@H](CO)[C@H](O)[C@@H](O)[C@@H]1O
REMARK SMILES IDX 1 1 2 2 3 3 4 4 20 5 21 6 22 7 9 8 7 9 8 10 6 11 23 12 24 13
REMARK SMILES IDX 33 14 25 15 31 16 26 17 29 18 34 19 32 21 27 23 28 24 30 26
REMARK SMILES IDX 5 28 10 30 11 31 12 32 13 33 14 34 15 35 19 36 16 37 18 38
REMARK SMILES IDX 17 39
REMARK H PARENT 34 20 32 22 28 25 30 27 5 29
REMARK Flexibility Score: inf
ROOT
ATOM      1  C   UNL     1     101.743 120.784 121.356  1.00  0.00     0.046 C 
ATOM      2  C   UNL     1     103.120 120.450 121.946  1.00  0.00     0.104 C 
ATOM      3  C   UNL     1     103.236 118.895 122.188  1.00  0.00     0.104 C 
ATOM      4  C   UNL     1     104.705 118.704 122.696  1.00  0.00     0.175 C 
ATOM      5  C   UNL     1     105.699 119.441 121.748  1.00  0.00     0.070 C 
ATOM      6  C   UNL     1     105.082 119.809 120.390  1.00  0.00     0.050 C 
ATOM      7  C   UNL     1     104.374 120.960 121.119  1.00  0.00     0.115 C 
ATOM      8  C   UNL     1     105.438 120.869 122.219  1.00  0.00     0.096 C 
ATOM      9  C   UNL     1     104.668 120.760 123.529  1.00  0.00     0.267 C 
ATOM     10  O   UNL     1     103.302 121.031 123.223  1.00  0.00    -0.342 OA
ATOM     11  O   UNL     1     104.793 119.404 123.924  1.00  0.00    -0.320 OA
ENDROOT
BRANCH   7  12
ATOM     12  O   UNL     1     104.307 122.149 120.324  1.00  0.00    -0.339 OA
BRANCH  12  13
ATOM     13  C   UNL     1     104.392 121.943 118.915  1.00  0.00     0.282 C 
ATOM     14  C   UNL     1     103.479 122.936 118.156  1.00  0.00     0.202 C 
ATOM     15  O   UNL     1     105.729 122.088 118.455  1.00  0.00    -0.341 OA
ATOM     16  C   UNL     1     103.991 124.373 118.317  1.00  0.00     0.179 C 
ATOM     17  C   UNL     1     106.260 123.378 118.731  1.00  0.00     0.178 C 
ATOM     18  C   UNL     1     105.480 124.455 117.947  1.00  0.00     0.177 C 
BRANCH  14  19
ATOM     19  O   UNL     1     102.166 122.870 118.641  1.00  0.00    -0.385 OA
ATOM     20  H   UNL     1     101.657 123.623 118.243  1.00  0.00     0.211 HD
ENDBRANCH  14  19
BRANCH  16  21
ATOM     21  O   UNL     1     103.216 125.259 117.544  1.00  0.00    -0.387 OA
ATOM     22  H   UNL     1     102.287 125.243 117.897  1.00  0.00     0.211 HD
ENDBRANCH  16  21
BRANCH  17  23
ATOM     23  C   UNL     1     107.748 123.373 118.337  1.00  0.00     0.191 C 
BRANCH  23  24
ATOM     24  O   UNL     1     107.990 124.261 117.278  1.00  0.00    -0.394 OA
ATOM     25  H   UNL     1     107.215 124.192 116.664  1.00  0.00     0.210 HD
ENDBRANCH  23  24
ENDBRANCH  17  23
BRANCH  18  26
ATOM     26  O   UNL     1     105.964 125.733 118.269  1.00  0.00    -0.387 OA
ATOM     27  H   UNL     1     106.798 125.610 118.795  1.00  0.00     0.211 HD
ENDBRANCH  18  26
ENDBRANCH  12  13
ENDBRANCH   7  12
BRANCH   4  28
ATOM     28  O   UNL     1     105.047 117.353 122.849  1.00  0.00    -0.365 OA
ATOM     29  H   UNL     1     105.834 117.327 123.453  1.00  0.00     0.214 HD
ENDBRANCH   4  28
BRANCH   8  30
ATOM     30  C   UNL     1     106.670 121.796 122.169  1.00  0.00     0.249 C 
BRANCH  30  31
ATOM     31  O   UNL     1     107.815 121.177 122.757  1.00  0.00    -0.461 OA
BRANCH  31  32
ATOM     32  C   UNL     1     109.136 121.395 122.350  1.00  0.00     0.338 C 
ATOM     33  O   UNL     1     109.849 122.264 122.926  1.00  0.00    -0.246 OA
BRANCH  32  34
ATOM     34  C   UNL     1     109.683 120.614 121.218  1.00  0.00     0.060 A 
ATOM     35  C   UNL     1     108.860 120.227 120.144  1.00  0.00     0.015 A 
ATOM     36  C   UNL     1     111.039 120.241 121.206  1.00  0.00     0.015 A 
ATOM     37  C   UNL     1     109.383 119.472 119.088  1.00  0.00     0.001 A 
ATOM     38  C   UNL     1     111.557 119.488 120.148  1.00  0.00     0.001 A 
ATOM     39  C   UNL     1     110.730 119.102 119.089  1.00  0.00     0.000 A 
ENDBRANCH  32  34
ENDBRANCH  31  32
ENDBRANCH  30  31
ENDBRANCH   8  30
TORSDOF 12
ENDMDL
MODEL 4
REMARK VINA RESULT:    -6.829      4.187      7.347
REMARK INTER + INTRA:         -11.241
REMARK INTER:                 -10.698
REMARK INTRA:                  -0.543
REMARK UNBOUND:                -0.620
REMARK SMILES C[C@]12C[C@]3(O)O[C@H](O1)[C@@]1(COC(=O)c4ccccc4)[C@@H]3C[C@]12O[C@@H]1O[C@@H](CO)[C@H](O)[C@@H](O)[C@@H]1O
REMARK SMILES IDX 1 1 2 2 3 3 4 4 20 5 21 6 22 7 9 8 7 9 8 10 6 11 23 12 24 13
REMARK SMILES IDX 33 14 25 15 31 16 26 17 29 18 34 19 32 21 27 23 28 24 30 26
REMARK SMILES IDX 5 28 10 30 11 31 12 32 13 33 14 34 15 35 19 36 16 37 18 38
REMARK SMILES IDX 17 39
REMARK H PARENT 34 20 32 22 28 25 30 27 5 29
REMARK Flexibility Score: inf
ROOT
ATOM      1  C   UNL     1     102.021 119.815 121.087  1.00  0.00     0.046 C 
ATOM      2  C   UNL     1     103.192 120.806 121.026  1.00  0.00     0.104 C 
ATOM      3  C   UNL     1     102.788 122.058 120.155  1.00  0.00     0.104 C 
ATOM      4  C   UNL     1     104.031 123.004 120.263  1.00  0.00     0.175 C 
ATOM      5  C   UNL     1     104.448 123.172 121.755  1.00  0.00     0.070 C 
ATOM      6  C   UNL     1     103.358 122.731 122.743  1.00  0.00     0.050 C 
ATOM      7  C   UNL     1     103.769 121.287 122.423  1.00  0.00     0.115 C 
ATOM      8  C   UNL     1     105.127 121.818 121.948  1.00  0.00     0.096 C 
ATOM      9  C   UNL     1     105.335 121.234 120.557  1.00  0.00     0.267 C 
ATOM     10  O   UNL     1     104.317 120.254 120.370  1.00  0.00    -0.342 OA
ATOM     11  O   UNL     1     105.110 122.311 119.663  1.00  0.00    -0.320 OA
ENDROOT
BRANCH   7  12
ATOM     12  O   UNL     1     103.728 120.440 123.576  1.00  0.00    -0.339 OA
BRANCH  12  13
ATOM     13  C   UNL     1     102.484 120.425 124.274  1.00  0.00     0.282 C 
ATOM     14  C   UNL     1     102.126 118.991 124.732  1.00  0.00     0.202 C 
ATOM     15  O   UNL     1     102.520 121.286 125.405  1.00  0.00    -0.341 OA
ATOM     16  C   UNL     1     103.115 118.501 125.798  1.00  0.00     0.179 C 
ATOM     17  C   UNL     1     103.534 120.920 126.332  1.00  0.00     0.178 C 
ATOM     18  C   UNL     1     103.231 119.530 126.933  1.00  0.00     0.177 C 
BRANCH  14  19
ATOM     19  O   UNL     1     102.157 118.103 123.649  1.00  0.00    -0.385 OA
ATOM     20  H   UNL     1     103.104 117.854 123.487  1.00  0.00     0.211 HD
ENDBRANCH  14  19
BRANCH  16  21
ATOM     21  O   UNL     1     102.726 117.237 126.283  1.00  0.00    -0.387 OA
ATOM     22  H   UNL     1     103.002 117.174 127.235  1.00  0.00     0.211 HD
ENDBRANCH  16  21
BRANCH  17  23
ATOM     23  C   UNL     1     103.587 121.999 127.428  1.00  0.00     0.191 C 
BRANCH  23  24
ATOM     24  O   UNL     1     104.822 121.979 128.094  1.00  0.00    -0.394 OA
ATOM     25  H   UNL     1     105.501 121.700 127.428  1.00  0.00     0.210 HD
ENDBRANCH  23  24
ENDBRANCH  17  23
BRANCH  18  26
ATOM     26  O   UNL     1     104.266 119.142 127.800  1.00  0.00    -0.387 OA
ATOM     27  H   UNL     1     104.056 118.226 128.120  1.00  0.00     0.211 HD
ENDBRANCH  18  26
ENDBRANCH  12  13
ENDBRANCH   7  12
BRANCH   4  28
ATOM     28  O   UNL     1     103.813 124.246 119.648  1.00  0.00    -0.365 OA
ATOM     29  H   UNL     1     104.019 124.939 120.328  1.00  0.00     0.214 HD
ENDBRANCH   4  28
BRANCH   8  30
ATOM     30  C   UNL     1     106.324 121.834 122.922  1.00  0.00     0.249 C 
BRANCH  30  31
ATOM     31  O   UNL     1     107.318 120.879 122.545  1.00  0.00    -0.461 OA
BRANCH  31  32
ATOM     32  C   UNL     1     108.663 121.182 122.308  1.00  0.00     0.338 C 
ATOM     33  O   UNL     1     109.252 122.065 122.992  1.00  0.00    -0.246 OA
BRANCH  32  34
ATOM     34  C   UNL     1     109.385 120.474 121.227  1.00  0.00     0.060 A 
ATOM     35  C   UNL     1     110.773 120.256 121.310  1.00  0.00     0.015 A 
ATOM     36  C   UNL     1     108.689 120.013 120.095  1.00  0.00     0.015 A 
ATOM     37  C   UNL     1     111.450 119.602 120.275  1.00  0.00     0.001 A 
ATOM     38  C   UNL     1     109.370 119.359 119.064  1.00  0.00     0.001 A 
ATOM     39  C   UNL     1     110.749 119.154 119.152  1.00  0.00     0.000 A 
ENDBRANCH  32  34
ENDBRANCH  31  32
ENDBRANCH  30  31
ENDBRANCH   8  30
TORSDOF 12
ENDMDL
MODEL 5
REMARK VINA RESULT:    -6.752      2.966      4.884
REMARK INTER + INTRA:         -11.121
REMARK INTER:                  -9.758
REMARK INTRA:                  -1.363
REMARK UNBOUND:                -0.620
REMARK SMILES C[C@]12C[C@]3(O)O[C@H](O1)[C@@]1(COC(=O)c4ccccc4)[C@@H]3C[C@]12O[C@@H]1O[C@@H](CO)[C@H](O)[C@@H](O)[C@@H]1O
REMARK SMILES IDX 1 1 2 2 3 3 4 4 20 5 21 6 22 7 9 8 7 9 8 10 6 11 23 12 24 13
REMARK SMILES IDX 33 14 25 15 31 16 26 17 29 18 34 19 32 21 27 23 28 24 30 26
REMARK SMILES IDX 5 28 10 30 11 31 12 32 13 33 14 34 15 35 19 36 16 37 18 38
REMARK SMILES IDX 17 39
REMARK H PARENT 34 20 32 22 28 25 30 27 5 29
REMARK Flexibility Score: inf
ROOT
ATOM      1  C   UNL     1     103.178 120.331 117.897  1.00  0.00     0.046 C 
ATOM      2  C   UNL     1     104.152 121.352 118.503  1.00  0.00     0.104 C 
ATOM      3  C   UNL     1     104.076 122.707 117.698  1.00  0.00     0.104 C 
ATOM      4  C   UNL     1     105.041 123.660 118.479  1.00  0.00     0.175 C 
ATOM      5  C   UNL     1     104.718 123.618 120.003  1.00  0.00     0.070 C 
ATOM      6  C   UNL     1     103.343 123.007 120.315  1.00  0.00     0.050 C 
ATOM      7  C   UNL     1     103.986 121.638 120.053  1.00  0.00     0.115 C 
ATOM      8  C   UNL     1     105.356 122.270 120.327  1.00  0.00     0.096 C 
ATOM      9  C   UNL     1     106.225 121.902 119.132  1.00  0.00     0.267 C 
ATOM     10  O   UNL     1     105.498 120.932 118.381  1.00  0.00    -0.342 OA
ATOM     11  O   UNL     1     106.333 123.092 118.369  1.00  0.00    -0.320 OA
ENDROOT
BRANCH   7  12
ATOM     12  O   UNL     1     103.503 120.630 120.948  1.00  0.00    -0.339 OA
BRANCH  12  13
ATOM     13  C   UNL     1     103.283 119.350 120.359  1.00  0.00     0.282 C 
ATOM     14  C   UNL     1     104.368 118.342 120.808  1.00  0.00     0.202 C 
ATOM     15  O   UNL     1     101.999 118.842 120.701  1.00  0.00    -0.341 OA
ATOM     16  C   UNL     1     104.245 118.047 122.308  1.00  0.00     0.179 C 
ATOM     17  C   UNL     1     101.828 118.701 122.105  1.00  0.00     0.178 C 
ATOM     18  C   UNL     1     102.805 117.641 122.658  1.00  0.00     0.177 C 
BRANCH  14  19
ATOM     19  O   UNL     1     105.649 118.848 120.553  1.00  0.00    -0.385 OA
ATOM     20  H   UNL     1     106.238 118.084 120.321  1.00  0.00     0.211 HD
ENDBRANCH  14  19
BRANCH  16  21
ATOM     21  O   UNL     1     105.170 117.056 122.690  1.00  0.00    -0.387 OA
ATOM     22  H   UNL     1     104.675 116.343 123.175  1.00  0.00     0.211 HD
ENDBRANCH  16  21
BRANCH  17  23
ATOM     23  C   UNL     1     100.366 118.299 122.368  1.00  0.00     0.191 C 
BRANCH  23  24
ATOM     24  O   UNL     1     100.005 118.555 123.699  1.00  0.00    -0.394 OA
ATOM     25  H   UNL     1      99.032 118.381 123.770  1.00  0.00     0.210 HD
ENDBRANCH  23  24
ENDBRANCH  17  23
BRANCH  18  26
ATOM     26  O   UNL     1     102.680 117.549 124.053  1.00  0.00    -0.387 OA
ATOM     27  H   UNL     1     101.912 116.948 124.243  1.00  0.00     0.211 HD
ENDBRANCH  18  26
ENDBRANCH  12  13
ENDBRANCH   7  12
BRANCH   4  28
ATOM     28  O   UNL     1     105.014 124.972 117.984  1.00  0.00    -0.365 OA
ATOM     29  H   UNL     1     104.113 125.335 118.193  1.00  0.00     0.214 HD
ENDBRANCH   4  28
BRANCH   8  30
ATOM     30  C   UNL     1     105.973 122.175 121.739  1.00  0.00     0.249 C 
BRANCH  30  31
ATOM     31  O   UNL     1     106.943 121.129 121.816  1.00  0.00    -0.461 OA
BRANCH  31  32
ATOM     32  C   UNL     1     108.275 121.307 122.206  1.00  0.00     0.338 C 
ATOM     33  O   UNL     1     108.558 121.998 123.225  1.00  0.00    -0.246 OA
BRANCH  32  34
ATOM     34  C   UNL     1     109.354 120.697 121.398  1.00  0.00     0.060 A 
ATOM     35  C   UNL     1     109.058 119.968 120.231  1.00  0.00     0.015 A 
ATOM     36  C   UNL     1     110.697 120.832 121.793  1.00  0.00     0.015 A 
ATOM     37  C   UNL     1     110.083 119.379 119.484  1.00  0.00     0.001 A 
ATOM     38  C   UNL     1     111.719 120.242 121.043  1.00  0.00     0.001 A 
ATOM     39  C   UNL     1     111.413 119.515 119.889  1.00  0.00     0.000 A 
ENDBRANCH  32  34
ENDBRANCH  31  32
ENDBRANCH  30  31
ENDBRANCH   8  30
TORSDOF 12
ENDMDL
MODEL 6
REMARK VINA RESULT:    -6.594      3.203      6.087
REMARK INTER + INTRA:         -10.876
REMARK INTER:                  -9.367
REMARK INTRA:                  -1.509
REMARK UNBOUND:                -0.620
REMARK SMILES C[C@]12C[C@]3(O)O[C@H](O1)[C@@]1(COC(=O)c4ccccc4)[C@@H]3C[C@]12O[C@@H]1O[C@@H](CO)[C@H](O)[C@@H](O)[C@@H]1O
REMARK SMILES IDX 1 1 2 2 3 3 4 4 20 5 21 6 22 7 9 8 7 9 8 10 6 11 23 12 24 13
REMARK SMILES IDX 33 14 25 15 31 16 26 17 29 18 34 19 32 21 27 23 28 24 30 26
REMARK SMILES IDX 5 28 10 30 11 31 12 32 13 33 14 34 15 35 19 36 16 37 18 38
REMARK SMILES IDX 17 39
REMARK H PARENT 34 20 32 22 28 25 30 27 5 29
REMARK Flexibility Score: inf
ROOT
ATOM      1  C   UNL     1     100.992 122.413 120.398  1.00  0.00     0.046 C 
ATOM      2  C   UNL     1     102.390 122.682 119.822  1.00  0.00     0.104 C 
ATOM      3  C   UNL     1     102.333 123.909 118.830  1.00  0.00     0.104 C 
ATOM      4  C   UNL     1     103.825 124.113 118.403  1.00  0.00     0.175 C 
ATOM      5  C   UNL     1     104.742 124.148 119.663  1.00  0.00     0.070 C 
ATOM      6  C   UNL     1     103.968 124.375 120.971  1.00  0.00     0.050 C 
ATOM      7  C   UNL     1     103.549 122.901 120.881  1.00  0.00     0.115 C 
ATOM      8  C   UNL     1     104.756 122.652 119.968  1.00  0.00     0.096 C 
ATOM      9  C   UNL     1     104.201 121.953 118.734  1.00  0.00     0.267 C 
ATOM     10  O   UNL     1     102.852 121.601 119.036  1.00  0.00    -0.342 OA
ATOM     11  O   UNL     1     104.205 122.937 117.713  1.00  0.00    -0.320 OA
ENDROOT
BRANCH   7  12
ATOM     12  O   UNL     1     103.515 122.266 122.163  1.00  0.00    -0.339 OA
BRANCH  12  13
ATOM     13  C   UNL     1     102.390 121.420 122.392  1.00  0.00     0.282 C 
ATOM     14  C   UNL     1     102.819 119.934 122.450  1.00  0.00     0.202 C 
ATOM     15  O   UNL     1     101.727 121.765 123.602  1.00  0.00    -0.341 OA
ATOM     16  C   UNL     1     103.694 119.671 123.683  1.00  0.00     0.179 C 
ATOM     17  C   UNL     1     102.578 121.660 124.736  1.00  0.00     0.178 C 
ATOM     18  C   UNL     1     103.000 120.191 124.952  1.00  0.00     0.177 C 
BRANCH  14  19
ATOM     19  O   UNL     1     103.543 119.584 121.303  1.00  0.00    -0.385 OA
ATOM     20  H   UNL     1     102.896 119.468 120.559  1.00  0.00     0.211 HD
ENDBRANCH  14  19
BRANCH  16  21
ATOM     21  O   UNL     1     103.998 118.300 123.784  1.00  0.00    -0.387 OA
ATOM     22  H   UNL     1     103.594 117.955 124.623  1.00  0.00     0.211 HD
ENDBRANCH  16  21
BRANCH  17  23
ATOM     23  C   UNL     1     101.812 122.202 125.956  1.00  0.00     0.191 C 
BRANCH  23  24
ATOM     24  O   UNL     1     102.690 122.498 127.009  1.00  0.00    -0.394 OA
ATOM     25  H   UNL     1     102.530 121.818 127.714  1.00  0.00     0.210 HD
ENDBRANCH  23  24
ENDBRANCH  17  23
BRANCH  18  26
ATOM     26  O   UNL     1     103.891 120.098 126.033  1.00  0.00    -0.387 OA
ATOM     27  H   UNL     1     103.436 120.485 126.826  1.00  0.00     0.211 HD
ENDBRANCH  18  26
ENDBRANCH  12  13
ENDBRANCH   7  12
BRANCH   4  28
ATOM     28  O   UNL     1     104.002 125.254 117.608  1.00  0.00    -0.365 OA
ATOM     29  H   UNL     1     104.693 125.809 118.057  1.00  0.00     0.214 HD
ENDBRANCH   4  28
BRANCH   8  30
ATOM     30  C   UNL     1     106.077 122.133 120.573  1.00  0.00     0.249 C 
BRANCH  30  31
ATOM     31  O   UNL     1     106.050 120.715 120.750  1.00  0.00    -0.461 OA
BRANCH  31  32
ATOM     32  C   UNL     1     106.943 119.996 121.552  1.00  0.00     0.338 C 
ATOM     33  O   UNL     1     106.519 119.125 122.362  1.00  0.00    -0.246 OA
BRANCH  32  34
ATOM     34  C   UNL     1     108.392 120.283 121.459  1.00  0.00     0.060 A 
ATOM     35  C   UNL     1     109.133 119.894 120.327  1.00  0.00     0.015 A 
ATOM     36  C   UNL     1     109.051 120.946 122.509  1.00  0.00     0.015 A 
ATOM     37  C   UNL     1     110.506 120.153 120.257  1.00  0.00     0.001 A 
ATOM     38  C   UNL     1     110.424 121.203 122.434  1.00  0.00     0.001 A 
ATOM     39  C   UNL     1     111.152 120.807 121.309  1.00  0.00     0.000 A 
ENDBRANCH  32  34
ENDBRANCH  31  32
ENDBRANCH  30  31
ENDBRANCH   8  30
TORSDOF 12
ENDMDL
MODEL 7
REMARK VINA RESULT:    -6.571      4.578      8.242
REMARK INTER + INTRA:         -10.841
REMARK INTER:                 -10.263
REMARK INTRA:                  -0.577
REMARK UNBOUND:                -0.620
REMARK SMILES C[C@]12C[C@]3(O)O[C@H](O1)[C@@]1(COC(=O)c4ccccc4)[C@@H]3C[C@]12O[C@@H]1O[C@@H](CO)[C@H](O)[C@@H](O)[C@@H]1O
REMARK SMILES IDX 1 1 2 2 3 3 4 4 20 5 21 6 22 7 9 8 7 9 8 10 6 11 23 12 24 13
REMARK SMILES IDX 33 14 25 15 31 16 26 17 29 18 34 19 32 21 27 23 28 24 30 26
REMARK SMILES IDX 5 28 10 30 11 31 12 32 13 33 14 34 15 35 19 36 16 37 18 38
REMARK SMILES IDX 17 39
REMARK H PARENT 34 20 32 22 28 25 30 27 5 29
REMARK Flexibility Score: inf
ROOT
ATOM      1  C   UNL     1     103.117 117.509 124.002  1.00  0.00     0.046 C 
ATOM      2  C   UNL     1     103.887 118.329 122.957  1.00  0.00     0.104 C 
ATOM      3  C   UNL     1     103.294 118.055 121.520  1.00  0.00     0.104 C 
ATOM      4  C   UNL     1     104.109 119.016 120.591  1.00  0.00     0.175 C 
ATOM      5  C   UNL     1     104.121 120.455 121.188  1.00  0.00     0.070 C 
ATOM      6  C   UNL     1     103.048 120.674 122.266  1.00  0.00     0.050 C 
ATOM      7  C   UNL     1     103.965 119.891 123.217  1.00  0.00     0.115 C 
ATOM      8  C   UNL     1     105.145 120.227 122.297  1.00  0.00     0.096 C 
ATOM      9  C   UNL     1     105.823 118.897 121.994  1.00  0.00     0.267 C 
ATOM     10  O   UNL     1     105.242 117.934 122.872  1.00  0.00    -0.342 OA
ATOM     11  O   UNL     1     105.456 118.586 120.660  1.00  0.00    -0.320 OA
ENDROOT
BRANCH   7  12
ATOM     12  O   UNL     1     103.955 120.426 124.545  1.00  0.00    -0.339 OA
BRANCH  12  13
ATOM     13  C   UNL     1     103.010 119.831 125.432  1.00  0.00     0.282 C 
ATOM     14  C   UNL     1     103.485 119.943 126.901  1.00  0.00     0.202 C 
ATOM     15  O   UNL     1     101.732 120.442 125.304  1.00  0.00    -0.341 OA
ATOM     16  C   UNL     1     103.498 121.407 127.356  1.00  0.00     0.179 C 
ATOM     17  C   UNL     1     101.766 121.835 125.587  1.00  0.00     0.178 C 
ATOM     18  C   UNL     1     102.142 122.070 127.066  1.00  0.00     0.177 C 
BRANCH  14  19
ATOM     19  O   UNL     1     104.776 119.416 127.044  1.00  0.00    -0.385 OA
ATOM     20  H   UNL     1     104.728 118.666 127.692  1.00  0.00     0.211 HD
ENDBRANCH  14  19
BRANCH  16  21
ATOM     21  O   UNL     1     103.835 121.494 128.720  1.00  0.00    -0.387 OA
ATOM     22  H   UNL     1     104.022 120.576 129.051  1.00  0.00     0.211 HD
ENDBRANCH  16  21
BRANCH  17  23
ATOM     23  C   UNL     1     100.378 122.418 125.268  1.00  0.00     0.191 C 
BRANCH  23  24
ATOM     24  O   UNL     1      99.574 122.459 126.417  1.00  0.00    -0.394 OA
ATOM     25  H   UNL     1      98.975 123.244 126.318  1.00  0.00     0.210 HD
ENDBRANCH  23  24
ENDBRANCH  17  23
BRANCH  18  26
ATOM     26  O   UNL     1     102.238 123.446 127.327  1.00  0.00    -0.387 OA
ATOM     27  H   UNL     1     101.905 123.924 126.523  1.00  0.00     0.211 HD
ENDBRANCH  18  26
ENDBRANCH  12  13
ENDBRANCH   7  12
BRANCH   4  28
ATOM     28  O   UNL     1     103.637 119.011 119.271  1.00  0.00    -0.365 OA
ATOM     29  H   UNL     1     103.579 119.961 118.987  1.00  0.00     0.214 HD
ENDBRANCH   4  28
BRANCH   8  30
ATOM     30  C   UNL     1     106.035 121.448 122.610  1.00  0.00     0.249 C 
BRANCH  30  31
ATOM     31  O   UNL     1     107.102 121.573 121.668  1.00  0.00    -0.461 OA
BRANCH  31  32
ATOM     32  C   UNL     1     108.450 121.337 121.957  1.00  0.00     0.338 C 
ATOM     33  O   UNL     1     108.974 121.811 123.004  1.00  0.00    -0.246 OA
BRANCH  32  34
ATOM     34  C   UNL     1     109.266 120.545 121.010  1.00  0.00     0.060 A 
ATOM     35  C   UNL     1     110.635 120.322 121.249  1.00  0.00     0.015 A 
ATOM     36  C   UNL     1     108.681 120.007 119.850  1.00  0.00     0.015 A 
ATOM     37  C   UNL     1     111.402 119.587 120.338  1.00  0.00     0.001 A 
ATOM     38  C   UNL     1     109.452 119.273 118.943  1.00  0.00     0.001 A 
ATOM     39  C   UNL     1     110.812 119.063 119.185  1.00  0.00     0.000 A 
ENDBRANCH  32  34
ENDBRANCH  31  32
ENDBRANCH  30  31
ENDBRANCH   8  30
TORSDOF 12
ENDMDL
MODEL 8
REMARK VINA RESULT:    -6.451      1.281      1.788
REMARK INTER + INTRA:         -10.654
REMARK INTER:                 -10.312
REMARK INTRA:                  -0.341
REMARK UNBOUND:                -0.620
REMARK SMILES C[C@]12C[C@]3(O)O[C@H](O1)[C@@]1(COC(=O)c4ccccc4)[C@@H]3C[C@]12O[C@@H]1O[C@@H](CO)[C@H](O)[C@@H](O)[C@@H]1O
REMARK SMILES IDX 1 1 2 2 3 3 4 4 20 5 21 6 22 7 9 8 7 9 8 10 6 11 23 12 24 13
REMARK SMILES IDX 33 14 25 15 31 16 26 17 29 18 34 19 32 21 27 23 28 24 30 26
REMARK SMILES IDX 5 28 10 30 11 31 12 32 13 33 14 34 15 35 19 36 16 37 18 38
REMARK SMILES IDX 17 39
REMARK H PARENT 34 20 32 22 28 25 30 27 5 29
REMARK Flexibility Score: inf
ROOT
ATOM      1  C   UNL     1     101.717 124.434 117.605  1.00  0.00     0.046 C 
ATOM      2  C   UNL     1     102.539 123.550 118.555  1.00  0.00     0.104 C 
ATOM      3  C   UNL     1     101.721 123.283 119.878  1.00  0.00     0.104 C 
ATOM      4  C   UNL     1     102.637 122.310 120.692  1.00  0.00     0.175 C 
ATOM      5  C   UNL     1     103.101 121.128 119.788  1.00  0.00     0.070 C 
ATOM      6  C   UNL     1     102.266 120.981 118.506  1.00  0.00     0.050 C 
ATOM      7  C   UNL     1     103.056 122.177 117.956  1.00  0.00     0.115 C 
ATOM      8  C   UNL     1     104.158 121.872 118.977  1.00  0.00     0.096 C 
ATOM      9  C   UNL     1     104.420 123.184 119.705  1.00  0.00     0.267 C 
ATOM     10  O   UNL     1     103.722 124.197 118.984  1.00  0.00    -0.342 OA
ATOM     11  O   UNL     1     103.822 123.029 120.981  1.00  0.00    -0.320 OA
ENDROOT
BRANCH   7  12
ATOM     12  O   UNL     1     103.353 122.037 116.562  1.00  0.00    -0.339 OA
BRANCH  12  13
ATOM     13  C   UNL     1     102.216 121.946 115.705  1.00  0.00     0.282 C 
ATOM     14  C   UNL     1     102.475 122.677 114.366  1.00  0.00     0.202 C 
ATOM     15  O   UNL     1     101.878 120.590 115.444  1.00  0.00    -0.341 OA
ATOM     16  C   UNL     1     103.562 121.957 113.558  1.00  0.00     0.179 C 
ATOM     17  C   UNL     1     102.940 119.877 114.822  1.00  0.00     0.178 C 
ATOM     18  C   UNL     1     103.228 120.463 113.423  1.00  0.00     0.177 C 
BRANCH  14  19
ATOM     19  O   UNL     1     102.884 123.998 114.593  1.00  0.00    -0.385 OA
ATOM     20  H   UNL     1     103.247 124.048 115.516  1.00  0.00     0.211 HD
ENDBRANCH  14  19
BRANCH  16  21
ATOM     21  O   UNL     1     103.723 122.568 112.299  1.00  0.00    -0.387 OA
ATOM     22  H   UNL     1     103.402 121.933 111.606  1.00  0.00     0.211 HD
ENDBRANCH  16  21
BRANCH  17  23
ATOM     23  C   UNL     1     102.527 118.398 114.730  1.00  0.00     0.191 C 
BRANCH  23  24
ATOM     24  O   UNL     1     103.604 117.601 114.310  1.00  0.00    -0.394 OA
ATOM     25  H   UNL     1     103.536 116.745 114.805  1.00  0.00     0.210 HD
ENDBRANCH  23  24
ENDBRANCH  17  23
BRANCH  18  26
ATOM     26  O   UNL     1     104.318 119.801 112.837  1.00  0.00    -0.387 OA
ATOM     27  H   UNL     1     105.145 120.239 113.170  1.00  0.00     0.211 HD
ENDBRANCH  18  26
ENDBRANCH  12  13
ENDBRANCH   7  12
BRANCH   4  28
ATOM     28  O   UNL     1     102.019 121.848 121.864  1.00  0.00    -0.365 OA
ATOM     29  H   UNL     1     102.687 121.942 122.593  1.00  0.00     0.214 HD
ENDBRANCH   4  28
BRANCH   8  30
ATOM     30  C   UNL     1     105.370 121.011 118.560  1.00  0.00     0.249 C 
BRANCH  30  31
ATOM     31  O   UNL     1     106.350 120.949 119.598  1.00  0.00    -0.461 OA
BRANCH  31  32
ATOM     32  C   UNL     1     107.604 121.566 119.545  1.00  0.00     0.338 C 
ATOM     33  O   UNL     1     107.832 122.486 118.710  1.00  0.00    -0.246 OA
BRANCH  32  34
ATOM     34  C   UNL     1     108.672 121.114 120.464  1.00  0.00     0.060 A 
ATOM     35  C   UNL     1     110.023 121.407 120.199  1.00  0.00     0.015 A 
ATOM     36  C   UNL     1     108.349 120.377 121.618  1.00  0.00     0.015 A 
ATOM     37  C   UNL     1     111.028 120.959 121.064  1.00  0.00     0.001 A 
ATOM     38  C   UNL     1     109.357 119.932 122.480  1.00  0.00     0.001 A 
ATOM     39  C   UNL     1     110.695 120.222 122.204  1.00  0.00     0.000 A 
ENDBRANCH  32  34
ENDBRANCH  31  32
ENDBRANCH  30  31
ENDBRANCH   8  30
TORSDOF 12
ENDMDL
MODEL 9
REMARK VINA RESULT:    -6.393      2.565      5.367
REMARK INTER + INTRA:         -10.564
REMARK INTER:                  -9.213
REMARK INTRA:                  -1.351
REMARK UNBOUND:                -0.620
REMARK SMILES C[C@]12C[C@]3(O)O[C@H](O1)[C@@]1(COC(=O)c4ccccc4)[C@@H]3C[C@]12O[C@@H]1O[C@@H](CO)[C@H](O)[C@@H](O)[C@@H]1O
REMARK SMILES IDX 1 1 2 2 3 3 4 4 20 5 21 6 22 7 9 8 7 9 8 10 6 11 23 12 24 13
REMARK SMILES IDX 33 14 25 15 31 16 26 17 29 18 34 19 32 21 27 23 28 24 30 26
REMARK SMILES IDX 5 28 10 30 11 31 12 32 13 33 14 34 15 35 19 36 16 37 18 38
REMARK SMILES IDX 17 39
REMARK H PARENT 34 20 32 22 28 25 30 27 5 29
REMARK Flexibility Score: inf
ROOT
ATOM      1  C   UNL     1     101.215 120.829 118.794  1.00  0.00     0.046 C 
ATOM      2  C   UNL     1     102.340 121.758 118.317  1.00  0.00     0.104 C 
ATOM      3  C   UNL     1     101.772 122.795 117.271  1.00  0.00     0.104 C 
ATOM      4  C   UNL     1     102.997 123.715 116.954  1.00  0.00     0.175 C 
ATOM      5  C   UNL     1     103.660 124.200 118.278  1.00  0.00     0.070 C 
ATOM      6  C   UNL     1     102.762 124.011 119.511  1.00  0.00     0.050 C 
ATOM      7  C   UNL     1     103.138 122.524 119.453  1.00  0.00     0.115 C 
ATOM      8  C   UNL     1     104.386 122.910 118.649  1.00  0.00     0.096 C 
ATOM      9  C   UNL     1     104.364 122.028 117.407  1.00  0.00     0.267 C 
ATOM     10  O   UNL     1     103.346 121.051 117.618  1.00  0.00    -0.342 OA
ATOM     11  O   UNL     1     103.971 122.884 116.348  1.00  0.00    -0.320 OA
ENDROOT
BRANCH   7  12
ATOM     12  O   UNL     1     103.309 121.955 120.755  1.00  0.00    -0.339 OA
BRANCH  12  13
ATOM     13  C   UNL     1     102.846 120.614 120.897  1.00  0.00     0.282 C 
ATOM     14  C   UNL     1     104.033 119.634 121.061  1.00  0.00     0.202 C 
ATOM     15  O   UNL     1     101.974 120.488 122.014  1.00  0.00    -0.341 OA
ATOM     16  C   UNL     1     104.759 119.881 122.390  1.00  0.00     0.179 C 
ATOM     17  C   UNL     1     102.602 120.855 123.236  1.00  0.00     0.178 C 
ATOM     18  C   UNL     1     103.757 119.880 123.555  1.00  0.00     0.177 C 
BRANCH  14  19
ATOM     19  O   UNL     1     104.949 119.788 120.013  1.00  0.00    -0.385 OA
ATOM     20  H   UNL     1     105.298 118.889 119.779  1.00  0.00     0.211 HD
ENDBRANCH  14  19
BRANCH  16  21
ATOM     21  O   UNL     1     105.774 118.924 122.579  1.00  0.00    -0.387 OA
ATOM     22  H   UNL     1     105.638 118.196 121.917  1.00  0.00     0.211 HD
ENDBRANCH  16  21
BRANCH  17  23
ATOM     23  C   UNL     1     101.535 120.832 124.344  1.00  0.00     0.191 C 
BRANCH  23  24
ATOM     24  O   UNL     1     101.944 121.591 125.451  1.00  0.00    -0.394 OA
ATOM     25  H   UNL     1     101.208 121.548 126.114  1.00  0.00     0.210 HD
ENDBRANCH  23  24
ENDBRANCH  17  23
BRANCH  18  26
ATOM     26  O   UNL     1     104.417 120.281 124.728  1.00  0.00    -0.387 OA
ATOM     27  H   UNL     1     104.588 119.463 125.265  1.00  0.00     0.211 HD
ENDBRANCH  18  26
ENDBRANCH  12  13
ENDBRANCH   7  12
BRANCH   4  28
ATOM     28  O   UNL     1     102.656 124.794 116.125  1.00  0.00    -0.365 OA
ATOM     29  H   UNL     1     103.485 125.324 115.994  1.00  0.00     0.214 HD
ENDBRANCH   4  28
BRANCH   8  30
ATOM     30  C   UNL     1     105.731 123.116 119.377  1.00  0.00     0.249 C 
BRANCH  30  31
ATOM     31  O   UNL     1     106.654 122.068 119.077  1.00  0.00    -0.461 OA
BRANCH  31  32
ATOM     32  C   UNL     1     108.046 122.183 119.170  1.00  0.00     0.338 C 
ATOM     33  O   UNL     1     108.683 122.921 118.367  1.00  0.00    -0.246 OA
BRANCH  32  34
ATOM     34  C   UNL     1     108.768 121.410 120.205  1.00  0.00     0.060 A 
ATOM     35  C   UNL     1     108.228 121.250 121.494  1.00  0.00     0.015 A 
ATOM     36  C   UNL     1     110.015 120.828 119.912  1.00  0.00     0.015 A 
ATOM     37  C   UNL     1     108.928 120.534 122.472  1.00  0.00     0.001 A 
ATOM     38  C   UNL     1     110.710 120.113 120.892  1.00  0.00     0.001 A 
ATOM     39  C   UNL     1     110.168 119.966 122.171  1.00  0.00     0.000 A 
ENDBRANCH  32  34
ENDBRANCH  31  32
ENDBRANCH  30  31
ENDBRANCH   8  30
TORSDOF 12
ENDMDL
