MODEL 1
REMARK VINA RESULT:    -5.777      0.000      0.000
REMARK INTER + INTRA:          -6.335
REMARK INTER:                  -6.283
REMARK INTRA:                  -0.052
REMARK UNBOUND:                -0.052
REMARK SMILES CCc1cccc(O)c1
REMARK SMILES IDX 3 1 9 2 7 3 6 4 5 5 4 6 2 7 1 8 8 9
REMARK H PARENT 8 10
REMARK Flexibility Score: inf
ROOT
ATOM      1  C   UNL     1     -13.806   1.694  -9.465  1.00  0.00    -0.045 A 
ATOM      2  C   UNL     1     -12.426   1.825  -9.231  1.00  0.00     0.049 A 
ATOM      3  C   UNL     1     -11.912   3.001  -8.674  1.00  0.00     0.115 A 
ATOM      4  C   UNL     1     -12.777   4.057  -8.355  1.00  0.00     0.046 A 
ATOM      5  C   UNL     1     -14.148   3.937  -8.598  1.00  0.00     0.004 A 
ATOM      6  C   UNL     1     -14.661   2.763  -9.155  1.00  0.00     0.004 A 
ENDROOT
BRANCH   1   7
ATOM      7  C   UNL     1     -14.353   0.441 -10.096  1.00  0.00     0.032 C 
ATOM      8  C   UNL     1     -13.228  -0.534 -10.426  1.00  0.00     0.009 C 
ENDBRANCH   1   7
BRANCH   3   9
ATOM      9  O   UNL     1     -10.543   3.111  -8.444  1.00  0.00    -0.508 OA
ATOM     10  H   UNL     1     -10.180   3.572  -7.617  1.00  0.00     0.293 HD
ENDBRANCH   3   9
TORSDOF 2
ENDMDL
MODEL 2
REMARK VINA RESULT:    -5.340      1.582      2.264
REMARK INTER + INTRA:          -5.860
REMARK INTER:                  -5.787
REMARK INTRA:                  -0.073
REMARK UNBOUND:                -0.052
REMARK SMILES CCc1cccc(O)c1
REMARK SMILES IDX 3 1 9 2 7 3 6 4 5 5 4 6 2 7 1 8 8 9
REMARK H PARENT 8 10
REMARK Flexibility Score: inf
ROOT
ATOM      1  C   UNL     1     -14.170   1.204  -9.544  1.00  0.00    -0.045 A 
ATOM      2  C   UNL     1     -14.725   2.397  -9.052  1.00  0.00     0.049 A 
ATOM      3  C   UNL     1     -13.897   3.463  -8.682  1.00  0.00     0.115 A 
ATOM      4  C   UNL     1     -12.506   3.337  -8.797  1.00  0.00     0.046 A 
ATOM      5  C   UNL     1     -11.948   2.148  -9.274  1.00  0.00     0.004 A 
ATOM      6  C   UNL     1     -12.774   1.083  -9.642  1.00  0.00     0.004 A 
ENDROOT
BRANCH   1   7
ATOM      7  C   UNL     1     -15.060   0.046  -9.909  1.00  0.00     0.032 C 
ATOM      8  C   UNL     1     -14.343  -0.908 -10.859  1.00  0.00     0.009 C 
ENDBRANCH   1   7
BRANCH   3   9
ATOM      9  O   UNL     1     -14.465   4.641  -8.202  1.00  0.00    -0.508 OA
ATOM     10  H   UNL     1     -14.069   5.547  -8.420  1.00  0.00     0.293 HD
ENDBRANCH   3   9
TORSDOF 2
ENDMDL
MODEL 3
REMARK VINA RESULT:    -5.322      1.403      3.480
REMARK INTER + INTRA:          -5.840
REMARK INTER:                  -5.789
REMARK INTRA:                  -0.051
REMARK UNBOUND:                -0.052
REMARK SMILES CCc1cccc(O)c1
REMARK SMILES IDX 3 1 9 2 7 3 6 4 5 5 4 6 2 7 1 8 8 9
REMARK H PARENT 8 10
REMARK Flexibility Score: inf
ROOT
ATOM      1  C   UNL     1     -13.756   1.835  -9.438  1.00  0.00    -0.045 A 
ATOM      2  C   UNL     1     -12.419   1.400  -9.429  1.00  0.00     0.049 A 
ATOM      3  C   UNL     1     -12.085   0.131  -9.915  1.00  0.00     0.115 A 
ATOM      4  C   UNL     1     -13.090  -0.714 -10.405  1.00  0.00     0.046 A 
ATOM      5  C   UNL     1     -14.422  -0.292 -10.403  1.00  0.00     0.004 A 
ATOM      6  C   UNL     1     -14.756   0.975  -9.918  1.00  0.00     0.004 A 
ENDROOT
BRANCH   1   7
ATOM      7  C   UNL     1     -14.118   3.188  -8.884  1.00  0.00     0.032 C 
ATOM      8  C   UNL     1     -12.865   4.016  -8.620  1.00  0.00     0.009 C 
ENDBRANCH   1   7
BRANCH   3   9
ATOM      9  O   UNL     1     -10.754  -0.281  -9.904  1.00  0.00    -0.508 OA
ATOM     10  H   UNL     1     -10.216  -0.353 -10.759  1.00  0.00     0.293 HD
ENDBRANCH   3   9
TORSDOF 2
ENDMDL
MODEL 4
REMARK VINA RESULT:    -4.835      6.967      7.939
REMARK INTER + INTRA:          -5.310
REMARK INTER:                  -5.259
REMARK INTRA:                  -0.051
REMARK UNBOUND:                -0.052
REMARK SMILES CCc1cccc(O)c1
REMARK SMILES IDX 3 1 9 2 7 3 6 4 5 5 4 6 2 7 1 8 8 9
REMARK H PARENT 8 10
REMARK Flexibility Score: inf
ROOT
ATOM      1  C   UNL     1     -11.292  -5.440  -7.239  1.00  0.00    -0.045 A 
ATOM      2  C   UNL     1     -10.230  -4.595  -6.872  1.00  0.00     0.049 A 
ATOM      3  C   UNL     1      -9.635  -3.754  -7.819  1.00  0.00     0.115 A 
ATOM      4  C   UNL     1     -10.096  -3.760  -9.143  1.00  0.00     0.046 A 
ATOM      5  C   UNL     1     -11.143  -4.607  -9.516  1.00  0.00     0.004 A 
ATOM      6  C   UNL     1     -11.736  -5.447  -8.571  1.00  0.00     0.004 A 
ENDROOT
BRANCH   1   7
ATOM      7  C   UNL     1     -11.908  -6.369  -6.227  1.00  0.00     0.032 C 
ATOM      8  C   UNL     1     -11.384  -6.066  -4.827  1.00  0.00     0.009 C 
ENDBRANCH   1   7
BRANCH   3   9
ATOM      9  O   UNL     1      -8.588  -2.919  -7.435  1.00  0.00    -0.508 OA
ATOM     10  H   UNL     1      -8.605  -1.925  -7.631  1.00  0.00     0.293 HD
ENDBRANCH   3   9
TORSDOF 2
ENDMDL
MODEL 5
REMARK VINA RESULT:    -4.741      7.313      7.819
REMARK INTER + INTRA:          -5.208
REMARK INTER:                  -5.133
REMARK INTRA:                  -0.075
REMARK UNBOUND:                -0.052
REMARK SMILES CCc1cccc(O)c1
REMARK SMILES IDX 3 1 9 2 7 3 6 4 5 5 4 6 2 7 1 8 8 9
REMARK H PARENT 8 10
REMARK Flexibility Score: inf
ROOT
ATOM      1  C   UNL     1     -11.053  -5.103  -7.891  1.00  0.00    -0.045 A 
ATOM      2  C   UNL     1     -10.813  -4.855  -9.253  1.00  0.00     0.049 A 
ATOM      3  C   UNL     1      -9.763  -4.016  -9.645  1.00  0.00     0.115 A 
ATOM      4  C   UNL     1      -8.954  -3.413  -8.672  1.00  0.00     0.046 A 
ATOM      5  C   UNL     1      -9.197  -3.645  -7.316  1.00  0.00     0.004 A 
ATOM      6  C   UNL     1     -10.245  -4.482  -6.925  1.00  0.00     0.004 A 
ENDROOT
BRANCH   1   7
ATOM      7  C   UNL     1     -12.204  -5.979  -7.470  1.00  0.00     0.032 C 
ATOM      8  C   UNL     1     -12.197  -6.190  -5.960  1.00  0.00     0.009 C 
ENDBRANCH   1   7
BRANCH   3   9
ATOM      9  O   UNL     1      -9.536  -3.786 -11.000  1.00  0.00    -0.508 OA
ATOM     10  H   UNL     1      -9.934  -4.387 -11.712  1.00  0.00     0.293 HD
ENDBRANCH   3   9
TORSDOF 2
ENDMDL
MODEL 6
REMARK VINA RESULT:    -4.546     15.998     17.212
REMARK INTER + INTRA:          -4.996
REMARK INTER:                  -4.933
REMARK INTRA:                  -0.063
REMARK UNBOUND:                -0.052
REMARK SMILES CCc1cccc(O)c1
REMARK SMILES IDX 3 1 9 2 7 3 6 4 5 5 4 6 2 7 1 8 8 9
REMARK H PARENT 8 10
REMARK Flexibility Score: inf
ROOT
ATOM      1  C   UNL     1     -10.524   5.181   6.829  1.00  0.00    -0.045 A 
ATOM      2  C   UNL     1     -11.833   4.765   6.532  1.00  0.00     0.049 A 
ATOM      3  C   UNL     1     -12.640   4.203   7.528  1.00  0.00     0.115 A 
ATOM      4  C   UNL     1     -12.136   4.048   8.828  1.00  0.00     0.046 A 
ATOM      5  C   UNL     1     -10.831   4.448   9.125  1.00  0.00     0.004 A 
ATOM      6  C   UNL     1     -10.025   5.008   8.130  1.00  0.00     0.004 A 
ENDROOT
BRANCH   1   7
ATOM      7  C   UNL     1      -9.645   5.753   5.748  1.00  0.00     0.032 C 
ATOM      8  C   UNL     1      -9.089   7.110   6.167  1.00  0.00     0.009 C 
ENDBRANCH   1   7
BRANCH   3   9
ATOM      9  O   UNL     1     -13.937   3.802   7.217  1.00  0.00    -0.508 OA
ATOM     10  H   UNL     1     -14.559   4.393   6.678  1.00  0.00     0.293 HD
ENDBRANCH   3   9
TORSDOF 2
ENDMDL
MODEL 7
REMARK VINA RESULT:    -4.459      7.799      8.702
REMARK INTER + INTRA:          -4.902
REMARK INTER:                  -4.831
REMARK INTRA:                  -0.071
REMARK UNBOUND:                -0.052
REMARK SMILES CCc1cccc(O)c1
REMARK SMILES IDX 3 1 9 2 7 3 6 4 5 5 4 6 2 7 1 8 8 9
REMARK H PARENT 8 10
REMARK Flexibility Score: inf
ROOT
ATOM      1  C   UNL     1     -11.726  -5.800  -6.832  1.00  0.00    -0.045 A 
ATOM      2  C   UNL     1     -10.817  -5.274  -7.766  1.00  0.00     0.049 A 
ATOM      3  C   UNL     1     -11.191  -5.115  -9.105  1.00  0.00     0.115 A 
ATOM      4  C   UNL     1     -12.477  -5.489  -9.518  1.00  0.00     0.046 A 
ATOM      5  C   UNL     1     -13.381  -6.025  -8.596  1.00  0.00     0.004 A 
ATOM      6  C   UNL     1     -13.007  -6.184  -7.259  1.00  0.00     0.004 A 
ENDROOT
BRANCH   1   7
ATOM      7  C   UNL     1     -11.310  -6.002  -5.399  1.00  0.00     0.032 C 
ATOM      8  C   UNL     1     -11.853  -7.322  -4.861  1.00  0.00     0.009 C 
ENDBRANCH   1   7
BRANCH   3   9
ATOM      9  O   UNL     1     -10.279  -4.586 -10.015  1.00  0.00    -0.508 OA
ATOM     10  H   UNL     1     -10.323  -4.814 -11.001  1.00  0.00     0.293 HD
ENDBRANCH   3   9
TORSDOF 2
ENDMDL
MODEL 8
REMARK VINA RESULT:    -4.428      7.597      8.704
REMARK INTER + INTRA:          -4.868
REMARK INTER:                  -4.819
REMARK INTRA:                  -0.049
REMARK UNBOUND:                -0.052
REMARK SMILES CCc1cccc(O)c1
REMARK SMILES IDX 3 1 9 2 7 3 6 4 5 5 4 6 2 7 1 8 8 9
REMARK H PARENT 8 10
REMARK Flexibility Score: inf
ROOT
ATOM      1  C   UNL     1     -11.030  -5.428  -6.531  1.00  0.00    -0.045 A 
ATOM      2  C   UNL     1     -11.617  -6.015  -7.664  1.00  0.00     0.049 A 
ATOM      3  C   UNL     1     -11.305  -5.546  -8.946  1.00  0.00     0.115 A 
ATOM      4  C   UNL     1     -10.408  -4.480  -9.098  1.00  0.00     0.046 A 
ATOM      5  C   UNL     1      -9.831  -3.884  -7.974  1.00  0.00     0.004 A 
ATOM      6  C   UNL     1     -10.143  -4.351  -6.694  1.00  0.00     0.004 A 
ENDROOT
BRANCH   1   7
ATOM      7  C   UNL     1     -11.393  -5.911  -5.151  1.00  0.00     0.032 C 
ATOM      8  C   UNL     1     -11.752  -7.392  -5.175  1.00  0.00     0.009 C 
ENDBRANCH   1   7
BRANCH   3   9
ATOM      9  O   UNL     1     -11.892  -6.145 -10.058  1.00  0.00    -0.508 OA
ATOM     10  H   UNL     1     -11.658  -7.091 -10.335  1.00  0.00     0.293 HD
ENDBRANCH   3   9
TORSDOF 2
ENDMDL
MODEL 9
REMARK VINA RESULT:    -4.387     15.556     16.560
REMARK INTER + INTRA:          -4.823
REMARK INTER:                  -4.770
REMARK INTRA:                  -0.053
REMARK UNBOUND:                -0.052
REMARK SMILES CCc1cccc(O)c1
REMARK SMILES IDX 3 1 9 2 7 3 6 4 5 5 4 6 2 7 1 8 8 9
REMARK H PARENT 8 10
REMARK Flexibility Score: inf
ROOT
ATOM      1  C   UNL     1     -11.840   4.265   6.272  1.00  0.00    -0.045 A 
ATOM      2  C   UNL     1     -10.790   5.165   6.520  1.00  0.00     0.049 A 
ATOM      3  C   UNL     1     -10.196   5.228   7.786  1.00  0.00     0.115 A 
ATOM      4  C   UNL     1     -10.658   4.395   8.814  1.00  0.00     0.046 A 
ATOM      5  C   UNL     1     -11.711   3.508   8.577  1.00  0.00     0.004 A 
ATOM      6  C   UNL     1     -12.304   3.445   7.313  1.00  0.00     0.004 A 
ENDROOT
BRANCH   1   7
ATOM      7  C   UNL     1     -12.501   4.222   4.919  1.00  0.00     0.032 C 
ATOM      8  C   UNL     1     -13.634   5.239   4.840  1.00  0.00     0.009 C 
ENDBRANCH   1   7
BRANCH   3   9
ATOM      9  O   UNL     1      -9.152   6.122   8.011  1.00  0.00    -0.508 OA
ATOM     10  H   UNL     1      -8.286   6.066   7.489  1.00  0.00     0.293 HD
ENDBRANCH   3   9
TORSDOF 2
ENDMDL
