MODEL 1
REMARK VINA RESULT:    -3.763      0.000      0.000
REMARK INTER + INTRA:          -4.710
REMARK INTER:                  -4.643
REMARK INTRA:                  -0.068
REMARK UNBOUND:                -0.068
REMARK SMILES CCCCCC(=O)[O-]
REMARK SMILES IDX 4 1 5 2 6 3 7 4 8 5 3 6 2 7 1 8
REMARK H PARENT
REMARK Flexibility Score: inf
ROOT
ATOM      1  C   UNL     1      -8.015  25.852  59.187  1.00  0.00     0.006 C 
ENDROOT
BRANCH   1   2
ATOM      2  C   UNL     1      -7.207  25.940  57.885  1.00  0.00     0.053 C 
BRANCH   2   3
ATOM      3  C   UNL     1      -7.327  24.690  57.069  1.00  0.00     0.041 C 
ATOM      4  O   UNL     1      -6.923  23.590  57.531  1.00  0.00    -0.550 OA
ATOM      5  O   UNL     1      -7.918  24.733  55.812  1.00  0.00    -0.550 OA
ENDBRANCH   2   3
ENDBRANCH   1   2
BRANCH   1   6
ATOM      6  C   UNL     1      -7.133  26.024  60.432  1.00  0.00     0.000 C 
BRANCH   6   7
ATOM      7  C   UNL     1      -7.936  25.762  61.713  1.00  0.00    -0.003 C 
ATOM      8  C   UNL     1      -7.158  26.202  62.950  1.00  0.00     0.004 C 
ENDBRANCH   6   7
ENDBRANCH   1   6
TORSDOF 4
ENDMDL
MODEL 2
REMARK VINA RESULT:    -3.713      1.074      1.221
REMARK INTER + INTRA:          -4.649
REMARK INTER:                  -4.579
REMARK INTRA:                  -0.070
REMARK UNBOUND:                -0.068
REMARK SMILES CCCCCC(=O)[O-]
REMARK SMILES IDX 4 1 5 2 6 3 7 4 8 5 3 6 2 7 1 8
REMARK H PARENT
REMARK Flexibility Score: inf
ROOT
ATOM      1  C   UNL     1      -7.304  26.112  58.582  1.00  0.00     0.006 C 
ENDROOT
BRANCH   1   2
ATOM      2  C   UNL     1      -7.066  24.700  58.031  1.00  0.00     0.053 C 
BRANCH   2   3
ATOM      3  C   UNL     1      -7.569  24.557  56.627  1.00  0.00     0.041 C 
ATOM      4  O   UNL     1      -8.426  23.678  56.348  1.00  0.00    -0.550 OA
ATOM      5  O   UNL     1      -7.118  25.419  55.635  1.00  0.00    -0.550 OA
ENDBRANCH   2   3
ENDBRANCH   1   2
BRANCH   1   6
ATOM      6  C   UNL     1      -8.219  26.108  59.816  1.00  0.00     0.000 C 
BRANCH   6   7
ATOM      7  C   UNL     1      -7.406  25.909  61.101  1.00  0.00    -0.003 C 
ATOM      8  C   UNL     1      -8.319  25.646  62.295  1.00  0.00     0.004 C 
ENDBRANCH   6   7
ENDBRANCH   1   6
TORSDOF 4
ENDMDL
MODEL 3
REMARK VINA RESULT:    -3.384      8.082      9.373
REMARK INTER + INTRA:          -4.244
REMARK INTER:                  -4.112
REMARK INTRA:                  -0.131
REMARK UNBOUND:                -0.068
REMARK SMILES CCCCCC(=O)[O-]
REMARK SMILES IDX 4 1 5 2 6 3 7 4 8 5 3 6 2 7 1 8
REMARK H PARENT
REMARK Flexibility Score: inf
ROOT
ATOM      1  C   UNL     1      -6.785  32.845  54.008  1.00  0.00     0.006 C 
ENDROOT
BRANCH   1   2
ATOM      2  C   UNL     1      -7.705  31.854  54.733  1.00  0.00     0.053 C 
BRANCH   2   3
ATOM      3  C   UNL     1      -7.218  31.552  56.117  1.00  0.00     0.041 C 
ATOM      4  O   UNL     1      -8.039  31.403  57.060  1.00  0.00    -0.550 OA
ATOM      5  O   UNL     1      -5.858  31.400  56.358  1.00  0.00    -0.550 OA
ENDBRANCH   2   3
ENDBRANCH   1   2
BRANCH   1   6
ATOM      6  C   UNL     1      -7.298  34.290  54.100  1.00  0.00     0.000 C 
BRANCH   6   7
ATOM      7  C   UNL     1      -6.152  35.292  53.916  1.00  0.00    -0.003 C 
ATOM      8  C   UNL     1      -4.799  34.585  53.899  1.00  0.00     0.004 C 
ENDBRANCH   6   7
ENDBRANCH   1   6
TORSDOF 4
ENDMDL
MODEL 4
REMARK VINA RESULT:    -3.351      8.086      9.482
REMARK INTER + INTRA:          -4.202
REMARK INTER:                  -3.964
REMARK INTRA:                  -0.239
REMARK UNBOUND:                -0.068
REMARK SMILES CCCCCC(=O)[O-]
REMARK SMILES IDX 4 1 5 2 6 3 7 4 8 5 3 6 2 7 1 8
REMARK H PARENT
REMARK Flexibility Score: inf
ROOT
ATOM      1  C   UNL     1      -4.882  32.013  54.359  1.00  0.00     0.006 C 
ENDROOT
BRANCH   1   2
ATOM      2  C   UNL     1      -5.848  31.668  55.500  1.00  0.00     0.053 C 
BRANCH   2   3
ATOM      3  C   UNL     1      -7.278  31.836  55.088  1.00  0.00     0.041 C 
ATOM      4  O   UNL     1      -7.561  32.282  53.945  1.00  0.00    -0.550 OA
ATOM      5  O   UNL     1      -8.300  31.466  55.954  1.00  0.00    -0.550 OA
ENDBRANCH   2   3
ENDBRANCH   1   2
BRANCH   1   6
ATOM      6  C   UNL     1      -4.256  33.406  54.527  1.00  0.00     0.000 C 
BRANCH   6   7
ATOM      7  C   UNL     1      -4.696  34.345  53.398  1.00  0.00    -0.003 C 
ATOM      8  C   UNL     1      -5.751  35.335  53.883  1.00  0.00     0.004 C 
ENDBRANCH   6   7
ENDBRANCH   1   6
TORSDOF 4
ENDMDL
MODEL 5
REMARK VINA RESULT:    -3.350      1.569      2.259
REMARK INTER + INTRA:          -4.201
REMARK INTER:                  -3.944
REMARK INTRA:                  -0.257
REMARK UNBOUND:                -0.068
REMARK SMILES CCCCCC(=O)[O-]
REMARK SMILES IDX 4 1 5 2 6 3 7 4 8 5 3 6 2 7 1 8
REMARK H PARENT
REMARK Flexibility Score: inf
ROOT
ATOM      1  C   UNL     1      -5.480  26.020  58.899  1.00  0.00     0.006 C 
ENDROOT
BRANCH   1   2
ATOM      2  C   UNL     1      -4.783  24.993  57.997  1.00  0.00     0.053 C 
BRANCH   2   3
ATOM      3  C   UNL     1      -5.706  23.883  57.599  1.00  0.00     0.041 C 
ATOM      4  O   UNL     1      -6.254  23.168  58.479  1.00  0.00    -0.550 OA
ATOM      5  O   UNL     1      -5.989  23.660  56.257  1.00  0.00    -0.550 OA
ENDBRANCH   2   3
ENDBRANCH   1   2
BRANCH   1   6
ATOM      6  C   UNL     1      -6.775  26.561  58.273  1.00  0.00     0.000 C 
BRANCH   6   7
ATOM      7  C   UNL     1      -7.941  26.477  59.265  1.00  0.00    -0.003 C 
ATOM      8  C   UNL     1      -7.493  25.872  60.592  1.00  0.00     0.004 C 
ENDBRANCH   6   7
ENDBRANCH   1   6
TORSDOF 4
ENDMDL
MODEL 6
REMARK VINA RESULT:    -3.333      2.867      3.391
REMARK INTER + INTRA:          -4.181
REMARK INTER:                  -4.108
REMARK INTRA:                  -0.073
REMARK UNBOUND:                -0.068
REMARK SMILES CCCCCC(=O)[O-]
REMARK SMILES IDX 4 1 5 2 6 3 7 4 8 5 3 6 2 7 1 8
REMARK H PARENT
REMARK Flexibility Score: inf
ROOT
ATOM      1  C   UNL     1      -5.014  24.773  57.711  1.00  0.00     0.006 C 
ENDROOT
BRANCH   1   2
ATOM      2  C   UNL     1      -6.386  24.103  57.858  1.00  0.00     0.053 C 
BRANCH   2   3
ATOM      3  C   UNL     1      -7.306  24.465  56.734  1.00  0.00     0.041 C 
ATOM      4  O   UNL     1      -8.195  23.657  56.357  1.00  0.00    -0.550 OA
ATOM      5  O   UNL     1      -7.205  25.710  56.124  1.00  0.00    -0.550 OA
ENDBRANCH   2   3
ENDBRANCH   1   2
BRANCH   1   6
ATOM      6  C   UNL     1      -4.764  25.832  58.795  1.00  0.00     0.000 C 
BRANCH   6   7
ATOM      7  C   UNL     1      -3.266  25.963  59.099  1.00  0.00    -0.003 C 
ATOM      8  C   UNL     1      -2.855  27.427  59.227  1.00  0.00     0.004 C 
ENDBRANCH   6   7
ENDBRANCH   1   6
TORSDOF 4
ENDMDL
MODEL 7
REMARK VINA RESULT:    -3.255      3.406      5.414
REMARK INTER + INTRA:          -4.084
REMARK INTER:                  -3.971
REMARK INTRA:                  -0.114
REMARK UNBOUND:                -0.068
REMARK SMILES CCCCCC(=O)[O-]
REMARK SMILES IDX 4 1 5 2 6 3 7 4 8 5 3 6 2 7 1 8
REMARK H PARENT
REMARK Flexibility Score: inf
ROOT
ATOM      1  C   UNL     1      -4.685  24.142  56.779  1.00  0.00     0.006 C 
ENDROOT
BRANCH   1   2
ATOM      2  C   UNL     1      -6.044  23.984  57.475  1.00  0.00     0.053 C 
BRANCH   2   3
ATOM      3  C   UNL     1      -7.172  24.442  56.603  1.00  0.00     0.041 C 
ATOM      4  O   UNL     1      -8.159  23.688  56.395  1.00  0.00    -0.550 OA
ATOM      5  O   UNL     1      -7.151  25.716  56.048  1.00  0.00    -0.550 OA
ENDBRANCH   2   3
ENDBRANCH   1   2
BRANCH   1   6
ATOM      6  C   UNL     1      -4.456  23.071  55.702  1.00  0.00     0.000 C 
BRANCH   6   7
ATOM      7  C   UNL     1      -3.020  22.536  55.757  1.00  0.00    -0.003 C 
ATOM      8  C   UNL     1      -3.000  21.010  55.736  1.00  0.00     0.004 C 
ENDBRANCH   6   7
ENDBRANCH   1   6
TORSDOF 4
ENDMDL
MODEL 8
REMARK VINA RESULT:    -3.192     11.819     13.162
REMARK INTER + INTRA:          -4.006
REMARK INTER:                  -3.897
REMARK INTRA:                  -0.109
REMARK UNBOUND:                -0.068
REMARK SMILES CCCCCC(=O)[O-]
REMARK SMILES IDX 4 1 5 2 6 3 7 4 8 5 3 6 2 7 1 8
REMARK H PARENT
REMARK Flexibility Score: inf
ROOT
ATOM      1  C   UNL     1     -12.503  26.460  47.638  1.00  0.00     0.006 C 
ENDROOT
BRANCH   1   2
ATOM      2  C   UNL     1     -13.520  25.583  48.381  1.00  0.00     0.053 C 
BRANCH   2   3
ATOM      3  C   UNL     1     -14.124  26.298  49.550  1.00  0.00     0.041 C 
ATOM      4  O   UNL     1     -14.235  27.552  49.537  1.00  0.00    -0.550 OA
ATOM      5  O   UNL     1     -14.596  25.577  50.640  1.00  0.00    -0.550 OA
ENDBRANCH   2   3
ENDBRANCH   1   2
BRANCH   1   6
ATOM      6  C   UNL     1     -12.591  26.289  46.114  1.00  0.00     0.000 C 
BRANCH   6   7
ATOM      7  C   UNL     1     -11.235  26.563  45.452  1.00  0.00    -0.003 C 
ATOM      8  C   UNL     1     -10.098  26.471  46.466  1.00  0.00     0.004 C 
ENDBRANCH   6   7
ENDBRANCH   1   6
TORSDOF 4
ENDMDL
MODEL 9
REMARK VINA RESULT:    -3.158      7.382      8.404
REMARK INTER + INTRA:          -3.965
REMARK INTER:                  -3.703
REMARK INTRA:                  -0.262
REMARK UNBOUND:                -0.068
REMARK SMILES CCCCCC(=O)[O-]
REMARK SMILES IDX 4 1 5 2 6 3 7 4 8 5 3 6 2 7 1 8
REMARK H PARENT
REMARK Flexibility Score: inf
ROOT
ATOM      1  C   UNL     1      -5.507  32.622  53.596  1.00  0.00     0.006 C 
ENDROOT
BRANCH   1   2
ATOM      2  C   UNL     1      -6.959  32.701  54.084  1.00  0.00     0.053 C 
BRANCH   2   3
ATOM      3  C   UNL     1      -7.329  31.520  54.926  1.00  0.00     0.041 C 
ATOM      4  O   UNL     1      -8.126  31.654  55.891  1.00  0.00    -0.550 OA
ATOM      5  O   UNL     1      -6.819  30.262  54.624  1.00  0.00    -0.550 OA
ENDBRANCH   2   3
ENDBRANCH   1   2
BRANCH   1   6
ATOM      6  C   UNL     1      -4.504  33.034  54.684  1.00  0.00     0.000 C 
BRANCH   6   7
ATOM      7  C   UNL     1      -3.607  31.854  55.078  1.00  0.00    -0.003 C 
ATOM      8  C   UNL     1      -3.928  31.365  56.488  1.00  0.00     0.004 C 
ENDBRANCH   6   7
ENDBRANCH   1   6
TORSDOF 4
ENDMDL
