MODEL 1
REMARK VINA RESULT:    -7.366      0.000      0.000
REMARK INTER + INTRA:          -9.490
REMARK INTER:                  -9.088
REMARK INTRA:                  -0.401
REMARK UNBOUND:                -0.401
REMARK SMILES COc1cc(-c2oc3cc(O)cc(O)c3c(=O)c2O)ccc1O
REMARK SMILES IDX 6 1 18 2 16 3 17 4 15 5 13 6 12 7 10 8 9 9 8 10 7 11 5 12
REMARK SMILES IDX 3 13 22 14 4 15 21 16 20 17 2 18 1 19 23 20 19 22 14 24
REMARK SMILES IDX 11 26
REMARK H PARENT 23 21 19 23 14 25 11 27
REMARK Flexibility Score: inf
ROOT
ATOM      1  C   UNL     1     -15.807  35.797  -1.409  1.00  0.00     0.180 A 
ATOM      2  C   UNL     1     -16.936  36.543  -1.787  1.00  0.00     0.208 A 
ATOM      3  C   UNL     1     -17.748  37.101  -0.787  1.00  0.00     0.238 A 
ATOM      4  O   UNL     1     -18.789  37.723  -1.130  1.00  0.00    -0.285 OA
ATOM      5  C   UNL     1     -17.413  36.920   0.576  1.00  0.00     0.111 A 
ATOM      6  C   UNL     1     -18.143  37.474   1.671  1.00  0.00     0.134 A 
ATOM      7  C   UNL     1     -17.796  37.121   2.981  1.00  0.00     0.093 A 
ATOM      8  C   UNL     1     -16.705  36.287   3.237  1.00  0.00     0.123 A 
ATOM      9  C   UNL     1     -15.951  35.788   2.178  1.00  0.00     0.094 A 
ATOM     10  C   UNL     1     -16.294  36.093   0.858  1.00  0.00     0.146 A 
ATOM     11  O   UNL     1     -15.555  35.589  -0.122  1.00  0.00    -0.452 OA
ENDROOT
BRANCH   1  12
ATOM     12  C   UNL     1     -14.889  35.199  -2.406  1.00  0.00     0.025 A 
ATOM     13  C   UNL     1     -12.963  35.431  -3.894  1.00  0.00     0.161 A 
ATOM     14  C   UNL     1     -13.161  34.119  -4.346  1.00  0.00     0.157 A 
ATOM     15  C   UNL     1     -13.836  35.968  -2.927  1.00  0.00     0.062 A 
ATOM     16  C   UNL     1     -14.222  33.356  -3.844  1.00  0.00     0.051 A 
ATOM     17  C   UNL     1     -15.085  33.893  -2.887  1.00  0.00     0.016 A 
BRANCH  13  18
ATOM     18  O   UNL     1     -11.892  36.168  -4.426  1.00  0.00    -0.493 OA
ATOM     19  C   UNL     1     -10.754  36.592  -3.682  1.00  0.00     0.278 C 
ENDBRANCH  13  18
BRANCH  14  20
ATOM     20  O   UNL     1     -12.299  33.582  -5.301  1.00  0.00    -0.504 OA
ATOM     21  H   UNL     1     -12.450  33.728  -6.293  1.00  0.00     0.293 HD
ENDBRANCH  14  20
ENDBRANCH   1  12
BRANCH   2  22
ATOM     22  O   UNL     1     -17.261  36.692  -3.138  1.00  0.00    -0.502 OA
ATOM     23  H   UNL     1     -17.727  35.967  -3.669  1.00  0.00     0.293 HD
ENDBRANCH   2  22
BRANCH   6  24
ATOM     24  O   UNL     1     -19.190  38.389   1.528  1.00  0.00    -0.507 OA
ATOM     25  H   UNL     1     -20.094  38.299   1.965  1.00  0.00     0.293 HD
ENDBRANCH   6  24
BRANCH   8  26
ATOM     26  O   UNL     1     -16.358  35.953   4.545  1.00  0.00    -0.508 OA
ATOM     27  H   UNL     1     -16.125  35.001   4.805  1.00  0.00     0.293 HD
ENDBRANCH   8  26
TORSDOF 6
ENDMDL
MODEL 2
REMARK VINA RESULT:    -7.083      5.086      6.860
REMARK INTER + INTRA:          -9.140
REMARK INTER:                  -8.753
REMARK INTRA:                  -0.388
REMARK UNBOUND:                -0.401
REMARK SMILES COc1cc(-c2oc3cc(O)cc(O)c3c(=O)c2O)ccc1O
REMARK SMILES IDX 6 1 18 2 16 3 17 4 15 5 13 6 12 7 10 8 9 9 8 10 7 11 5 12
REMARK SMILES IDX 3 13 22 14 4 15 21 16 20 17 2 18 1 19 23 20 19 22 14 24
REMARK SMILES IDX 11 26
REMARK H PARENT 23 21 19 23 14 25 11 27
REMARK Flexibility Score: inf
ROOT
ATOM      1  C   UNL     1     -14.946  38.994  -5.701  1.00  0.00     0.180 A 
ATOM      2  C   UNL     1     -14.256  37.771  -5.657  1.00  0.00     0.208 A 
ATOM      3  C   UNL     1     -14.620  36.821  -4.689  1.00  0.00     0.238 A 
ATOM      4  O   UNL     1     -13.963  35.748  -4.618  1.00  0.00    -0.285 OA
ATOM      5  C   UNL     1     -15.677  37.098  -3.790  1.00  0.00     0.111 A 
ATOM      6  C   UNL     1     -16.155  36.193  -2.796  1.00  0.00     0.134 A 
ATOM      7  C   UNL     1     -17.119  36.623  -1.876  1.00  0.00     0.093 A 
ATOM      8  C   UNL     1     -17.669  37.906  -1.956  1.00  0.00     0.123 A 
ATOM      9  C   UNL     1     -17.252  38.776  -2.958  1.00  0.00     0.094 A 
ATOM     10  C   UNL     1     -16.266  38.388  -3.869  1.00  0.00     0.146 A 
ATOM     11  O   UNL     1     -15.889  39.253  -4.803  1.00  0.00    -0.452 OA
ENDROOT
BRANCH   1  12
ATOM     12  C   UNL     1     -14.637  40.036  -6.708  1.00  0.00     0.025 A 
ATOM     13  C   UNL     1     -14.962  40.951  -8.952  1.00  0.00     0.161 A 
ATOM     14  C   UNL     1     -14.030  41.959  -8.670  1.00  0.00     0.157 A 
ATOM     15  C   UNL     1     -15.256  39.987  -7.967  1.00  0.00     0.062 A 
ATOM     16  C   UNL     1     -13.394  41.999  -7.423  1.00  0.00     0.051 A 
ATOM     17  C   UNL     1     -13.689  41.041  -6.451  1.00  0.00     0.016 A 
BRANCH  13  18
ATOM     18  O   UNL     1     -15.573  40.939 -10.216  1.00  0.00    -0.493 OA
ATOM     19  C   UNL     1     -16.266  39.825 -10.768  1.00  0.00     0.278 C 
ENDBRANCH  13  18
BRANCH  14  20
ATOM     20  O   UNL     1     -13.736  42.917  -9.639  1.00  0.00    -0.504 OA
ATOM     21  H   UNL     1     -12.911  43.502  -9.573  1.00  0.00     0.293 HD
ENDBRANCH  14  20
ENDBRANCH   1  12
BRANCH   2  22
ATOM     22  O   UNL     1     -13.202  37.525  -6.539  1.00  0.00    -0.502 OA
ATOM     23  H   UNL     1     -13.047  36.619  -6.963  1.00  0.00     0.293 HD
ENDBRANCH   2  22
BRANCH   6  24
ATOM     24  O   UNL     1     -15.740  34.862  -2.687  1.00  0.00    -0.507 OA
ATOM     25  H   UNL     1     -14.786  34.549  -2.787  1.00  0.00     0.293 HD
ENDBRANCH   6  24
BRANCH   8  26
ATOM     26  O   UNL     1     -18.639  38.320  -1.045  1.00  0.00    -0.508 OA
ATOM     27  H   UNL     1     -19.478  37.777  -0.880  1.00  0.00     0.293 HD
ENDBRANCH   8  26
TORSDOF 6
ENDMDL
MODEL 3
REMARK VINA RESULT:    -7.030      5.943      9.446
REMARK INTER + INTRA:          -9.075
REMARK INTER:                  -8.761
REMARK INTRA:                  -0.315
REMARK UNBOUND:                -0.401
REMARK SMILES COc1cc(-c2oc3cc(O)cc(O)c3c(=O)c2O)ccc1O
REMARK SMILES IDX 6 1 18 2 16 3 17 4 15 5 13 6 12 7 10 8 9 9 8 10 7 11 5 12
REMARK SMILES IDX 3 13 22 14 4 15 21 16 20 17 2 18 1 19 23 20 19 22 14 24
REMARK SMILES IDX 11 26
REMARK H PARENT 23 21 19 23 14 25 11 27
REMARK Flexibility Score: inf
ROOT
ATOM      1  C   UNL     1     -11.834  38.824  -7.068  1.00  0.00     0.180 A 
ATOM      2  C   UNL     1     -11.189  38.796  -8.316  1.00  0.00     0.208 A 
ATOM      3  C   UNL     1     -11.890  39.231  -9.453  1.00  0.00     0.238 A 
ATOM      4  O   UNL     1     -11.326  39.153 -10.576  1.00  0.00    -0.285 OA
ATOM      5  C   UNL     1     -13.218  39.703  -9.326  1.00  0.00     0.111 A 
ATOM      6  C   UNL     1     -14.006  40.206 -10.404  1.00  0.00     0.134 A 
ATOM      7  C   UNL     1     -15.352  40.523 -10.185  1.00  0.00     0.093 A 
ATOM      8  C   UNL     1     -15.919  40.419  -8.911  1.00  0.00     0.123 A 
ATOM      9  C   UNL     1     -15.141  39.986  -7.841  1.00  0.00     0.094 A 
ATOM     10  C   UNL     1     -13.806  39.627  -8.035  1.00  0.00     0.146 A 
ATOM     11  O   UNL     1     -13.102  39.210  -6.990  1.00  0.00    -0.452 OA
ENDROOT
BRANCH   1  12
ATOM     12  C   UNL     1     -11.154  38.404  -5.821  1.00  0.00     0.025 A 
ATOM     13  C   UNL     1     -10.956  36.822  -3.967  1.00  0.00     0.161 A 
ATOM     14  C   UNL     1      -9.930  37.604  -3.417  1.00  0.00     0.157 A 
ATOM     15  C   UNL     1     -11.569  37.232  -5.167  1.00  0.00     0.062 A 
ATOM     16  C   UNL     1      -9.528  38.784  -4.055  1.00  0.00     0.051 A 
ATOM     17  C   UNL     1     -10.139  39.186  -5.244  1.00  0.00     0.016 A 
BRANCH  13  18
ATOM     18  O   UNL     1     -11.337  35.650  -3.294  1.00  0.00    -0.493 OA
ATOM     19  C   UNL     1     -12.260  34.692  -3.802  1.00  0.00     0.278 C 
ENDBRANCH  13  18
BRANCH  14  20
ATOM     20  O   UNL     1      -9.319  37.203  -2.231  1.00  0.00    -0.504 OA
ATOM     21  H   UNL     1      -8.321  37.027  -2.182  1.00  0.00     0.293 HD
ENDBRANCH  14  20
ENDBRANCH   1  12
BRANCH   2  22
ATOM     22  O   UNL     1      -9.886  38.306  -8.424  1.00  0.00    -0.502 OA
ATOM     23  H   UNL     1      -9.093  38.766  -7.992  1.00  0.00     0.293 HD
ENDBRANCH   2  22
BRANCH   6  24
ATOM     24  O   UNL     1     -13.513  40.434 -11.691  1.00  0.00    -0.507 OA
ATOM     25  H   UNL     1     -12.677  40.015 -12.068  1.00  0.00     0.293 HD
ENDBRANCH   6  24
BRANCH   8  26
ATOM     26  O   UNL     1     -17.256  40.753  -8.699  1.00  0.00    -0.508 OA
ATOM     27  H   UNL     1     -17.562  41.193  -7.840  1.00  0.00     0.293 HD
ENDBRANCH   8  26
TORSDOF 6
ENDMDL
MODEL 4
REMARK VINA RESULT:    -7.015      7.190     12.207
REMARK INTER + INTRA:          -9.056
REMARK INTER:                  -8.653
REMARK INTRA:                  -0.403
REMARK UNBOUND:                -0.401
REMARK SMILES COc1cc(-c2oc3cc(O)cc(O)c3c(=O)c2O)ccc1O
REMARK SMILES IDX 6 1 18 2 16 3 17 4 15 5 13 6 12 7 10 8 9 9 8 10 7 11 5 12
REMARK SMILES IDX 3 13 22 14 4 15 21 16 20 17 2 18 1 19 23 20 19 22 14 24
REMARK SMILES IDX 11 26
REMARK H PARENT 23 21 19 23 14 25 11 27
REMARK Flexibility Score: inf
ROOT
ATOM      1  C   UNL     1     -11.335  38.326  -9.405  1.00  0.00     0.180 A 
ATOM      2  C   UNL     1     -11.168  37.139 -10.139  1.00  0.00     0.208 A 
ATOM      3  C   UNL     1      -9.992  36.961 -10.884  1.00  0.00     0.238 A 
ATOM      4  O   UNL     1      -9.871  35.920 -11.583  1.00  0.00    -0.285 OA
ATOM      5  C   UNL     1      -8.990  37.961 -10.873  1.00  0.00     0.111 A 
ATOM      6  C   UNL     1      -7.743  37.867 -11.559  1.00  0.00     0.134 A 
ATOM      7  C   UNL     1      -6.884  38.973 -11.585  1.00  0.00     0.093 A 
ATOM      8  C   UNL     1      -7.199  40.146 -10.894  1.00  0.00     0.123 A 
ATOM      9  C   UNL     1      -8.388  40.227 -10.173  1.00  0.00     0.094 A 
ATOM     10  C   UNL     1      -9.282  39.153 -10.158  1.00  0.00     0.146 A 
ATOM     11  O   UNL     1     -10.408  39.275  -9.467  1.00  0.00    -0.452 OA
ENDROOT
BRANCH   1  12
ATOM     12  C   UNL     1     -12.537  38.577  -8.576  1.00  0.00     0.025 A 
ATOM     13  C   UNL     1     -14.798  39.485  -8.377  1.00  0.00     0.161 A 
ATOM     14  C   UNL     1     -14.816  39.128  -7.021  1.00  0.00     0.157 A 
ATOM     15  C   UNL     1     -13.650  39.213  -9.148  1.00  0.00     0.062 A 
ATOM     16  C   UNL     1     -13.699  38.512  -6.443  1.00  0.00     0.051 A 
ATOM     17  C   UNL     1     -12.565  38.245  -7.211  1.00  0.00     0.016 A 
BRANCH  13  18
ATOM     18  O   UNL     1     -15.934  40.108  -8.919  1.00  0.00    -0.493 OA
ATOM     19  C   UNL     1     -15.934  41.392  -9.534  1.00  0.00     0.278 C 
ENDBRANCH  13  18
BRANCH  14  20
ATOM     20  O   UNL     1     -15.948  39.393  -6.254  1.00  0.00    -0.504 OA
ATOM     21  H   UNL     1     -15.930  39.327  -5.242  1.00  0.00     0.293 HD
ENDBRANCH  14  20
ENDBRANCH   1  12
BRANCH   2  22
ATOM     22  O   UNL     1     -12.177  36.174 -10.154  1.00  0.00    -0.502 OA
ATOM     23  H   UNL     1     -12.035  35.242 -10.526  1.00  0.00     0.293 HD
ENDBRANCH   2  22
BRANCH   6  24
ATOM     24  O   UNL     1      -7.291  36.712 -12.203  1.00  0.00    -0.507 OA
ATOM     25  H   UNL     1      -7.836  35.872 -12.325  1.00  0.00     0.293 HD
ENDBRANCH   6  24
BRANCH   8  26
ATOM     26  O   UNL     1      -6.331  41.236 -10.912  1.00  0.00    -0.508 OA
ATOM     27  H   UNL     1      -5.350  41.129 -11.141  1.00  0.00     0.293 HD
ENDBRANCH   8  26
TORSDOF 6
ENDMDL
MODEL 5
REMARK VINA RESULT:    -6.990      3.183      4.238
REMARK INTER + INTRA:          -9.026
REMARK INTER:                  -8.622
REMARK INTRA:                  -0.404
REMARK UNBOUND:                -0.401
REMARK SMILES COc1cc(-c2oc3cc(O)cc(O)c3c(=O)c2O)ccc1O
REMARK SMILES IDX 6 1 18 2 16 3 17 4 15 5 13 6 12 7 10 8 9 9 8 10 7 11 5 12
REMARK SMILES IDX 3 13 22 14 4 15 21 16 20 17 2 18 1 19 23 20 19 22 14 24
REMARK SMILES IDX 11 26
REMARK H PARENT 23 21 19 23 14 25 11 27
REMARK Flexibility Score: inf
ROOT
ATOM      1  C   UNL     1     -14.933  37.457  -0.431  1.00  0.00     0.180 A 
ATOM      2  C   UNL     1     -15.808  37.021   0.578  1.00  0.00     0.208 A 
ATOM      3  C   UNL     1     -15.467  37.251   1.921  1.00  0.00     0.238 A 
ATOM      4  O   UNL     1     -16.229  36.811   2.822  1.00  0.00    -0.285 OA
ATOM      5  C   UNL     1     -14.265  37.928   2.237  1.00  0.00     0.111 A 
ATOM      6  C   UNL     1     -13.840  38.250   3.561  1.00  0.00     0.134 A 
ATOM      7  C   UNL     1     -12.570  38.805   3.762  1.00  0.00     0.093 A 
ATOM      8  C   UNL     1     -11.737  39.109   2.682  1.00  0.00     0.123 A 
ATOM      9  C   UNL     1     -12.167  38.853   1.383  1.00  0.00     0.094 A 
ATOM     10  C   UNL     1     -13.414  38.267   1.152  1.00  0.00     0.146 A 
ATOM     11  O   UNL     1     -13.781  38.030  -0.102  1.00  0.00    -0.452 OA
ENDROOT
BRANCH   1  12
ATOM     12  C   UNL     1     -15.234  37.271  -1.869  1.00  0.00     0.025 A 
ATOM     13  C   UNL     1     -14.969  35.967  -3.920  1.00  0.00     0.161 A 
ATOM     14  C   UNL     1     -15.732  36.915  -4.615  1.00  0.00     0.157 A 
ATOM     15  C   UNL     1     -14.717  36.155  -2.546  1.00  0.00     0.062 A 
ATOM     16  C   UNL     1     -16.232  38.040  -3.948  1.00  0.00     0.051 A 
ATOM     17  C   UNL     1     -15.980  38.222  -2.587  1.00  0.00     0.016 A 
BRANCH  13  18
ATOM     18  O   UNL     1     -14.478  34.856  -4.625  1.00  0.00    -0.493 OA
ATOM     19  C   UNL     1     -14.434  33.529  -4.111  1.00  0.00     0.278 C 
ENDBRANCH  13  18
BRANCH  14  20
ATOM     20  O   UNL     1     -15.986  36.733  -5.973  1.00  0.00    -0.504 OA
ATOM     21  H   UNL     1     -16.005  35.810  -6.390  1.00  0.00     0.293 HD
ENDBRANCH  14  20
ENDBRANCH   1  12
BRANCH   2  22
ATOM     22  O   UNL     1     -16.980  36.336   0.246  1.00  0.00    -0.502 OA
ATOM     23  H   UNL     1     -17.884  36.789   0.209  1.00  0.00     0.293 HD
ENDBRANCH   2  22
BRANCH   6  24
ATOM     24  O   UNL     1     -14.631  38.072   4.700  1.00  0.00    -0.507 OA
ATOM     25  H   UNL     1     -14.942  38.817   5.304  1.00  0.00     0.293 HD
ENDBRANCH   6  24
BRANCH   8  26
ATOM     26  O   UNL     1     -10.481  39.675   2.891  1.00  0.00    -0.508 OA
ATOM     27  H   UNL     1      -9.743  39.167   3.364  1.00  0.00     0.293 HD
ENDBRANCH   8  26
TORSDOF 6
ENDMDL
MODEL 6
REMARK VINA RESULT:    -6.957      5.703      8.960
REMARK INTER + INTRA:          -8.986
REMARK INTER:                  -8.745
REMARK INTRA:                  -0.241
REMARK UNBOUND:                -0.401
REMARK SMILES COc1cc(-c2oc3cc(O)cc(O)c3c(=O)c2O)ccc1O
REMARK SMILES IDX 6 1 18 2 16 3 17 4 15 5 13 6 12 7 10 8 9 9 8 10 7 11 5 12
REMARK SMILES IDX 3 13 22 14 4 15 21 16 20 17 2 18 1 19 23 20 19 22 14 24
REMARK SMILES IDX 11 26
REMARK H PARENT 23 21 19 23 14 25 11 27
REMARK Flexibility Score: inf
ROOT
ATOM      1  C   UNL     1     -12.415  38.930  -6.077  1.00  0.00     0.180 A 
ATOM      2  C   UNL     1     -13.775  38.578  -6.023  1.00  0.00     0.208 A 
ATOM      3  C   UNL     1     -14.638  39.046  -7.027  1.00  0.00     0.238 A 
ATOM      4  O   UNL     1     -15.865  38.774  -6.944  1.00  0.00    -0.285 OA
ATOM      5  C   UNL     1     -14.130  39.844  -8.079  1.00  0.00     0.111 A 
ATOM      6  C   UNL     1     -14.907  40.339  -9.170  1.00  0.00     0.134 A 
ATOM      7  C   UNL     1     -14.327  41.228 -10.083  1.00  0.00     0.093 A 
ATOM      8  C   UNL     1     -12.980  41.587  -9.983  1.00  0.00     0.123 A 
ATOM      9  C   UNL     1     -12.199  41.064  -8.956  1.00  0.00     0.094 A 
ATOM     10  C   UNL     1     -12.758  40.203  -8.008  1.00  0.00     0.146 A 
ATOM     11  O   UNL     1     -11.980  39.734  -7.040  1.00  0.00    -0.452 OA
ENDROOT
BRANCH   1  12
ATOM     12  C   UNL     1     -11.439  38.456  -5.070  1.00  0.00     0.025 A 
ATOM     13  C   UNL     1     -10.591  38.513  -2.777  1.00  0.00     0.161 A 
ATOM     14  C   UNL     1      -9.566  37.628  -3.140  1.00  0.00     0.157 A 
ATOM     15  C   UNL     1     -11.521  38.930  -3.750  1.00  0.00     0.062 A 
ATOM     16  C   UNL     1      -9.468  37.170  -4.459  1.00  0.00     0.051 A 
ATOM     17  C   UNL     1     -10.392  37.585  -5.420  1.00  0.00     0.016 A 
BRANCH  13  18
ATOM     18  O   UNL     1     -10.651  38.957  -1.446  1.00  0.00    -0.493 OA
ATOM     19  C   UNL     1     -11.436  38.348  -0.427  1.00  0.00     0.278 C 
ENDBRANCH  13  18
BRANCH  14  20
ATOM     20  O   UNL     1      -8.644  37.212  -2.181  1.00  0.00    -0.504 OA
ATOM     21  H   UNL     1      -8.840  36.436  -1.559  1.00  0.00     0.293 HD
ENDBRANCH  14  20
ENDBRANCH   1  12
BRANCH   2  22
ATOM     22  O   UNL     1     -14.261  37.807  -4.964  1.00  0.00    -0.502 OA
ATOM     23  H   UNL     1     -13.715  37.621  -4.132  1.00  0.00     0.293 HD
ENDBRANCH   2  22
BRANCH   6  24
ATOM     24  O   UNL     1     -16.233  39.971  -9.414  1.00  0.00    -0.507 OA
ATOM     25  H   UNL     1     -16.522  39.077  -9.779  1.00  0.00     0.293 HD
ENDBRANCH   6  24
BRANCH   8  26
ATOM     26  O   UNL     1     -12.407  42.461 -10.905  1.00  0.00    -0.508 OA
ATOM     27  H   UNL     1     -11.402  42.524 -11.022  1.00  0.00     0.293 HD
ENDBRANCH   8  26
TORSDOF 6
ENDMDL
MODEL 7
REMARK VINA RESULT:    -6.900      5.644      9.050
REMARK INTER + INTRA:          -8.915
REMARK INTER:                  -8.594
REMARK INTRA:                  -0.321
REMARK UNBOUND:                -0.401
REMARK SMILES COc1cc(-c2oc3cc(O)cc(O)c3c(=O)c2O)ccc1O
REMARK SMILES IDX 6 1 18 2 16 3 17 4 15 5 13 6 12 7 10 8 9 9 8 10 7 11 5 12
REMARK SMILES IDX 3 13 22 14 4 15 21 16 20 17 2 18 1 19 23 20 19 22 14 24
REMARK SMILES IDX 11 26
REMARK H PARENT 23 21 19 23 14 25 11 27
REMARK Flexibility Score: inf
ROOT
ATOM      1  C   UNL     1     -12.226  37.815  -6.644  1.00  0.00     0.180 A 
ATOM      2  C   UNL     1     -11.109  38.023  -7.470  1.00  0.00     0.208 A 
ATOM      3  C   UNL     1     -11.124  39.096  -8.376  1.00  0.00     0.238 A 
ATOM      4  O   UNL     1     -10.143  39.246  -9.152  1.00  0.00    -0.285 OA
ATOM      5  C   UNL     1     -12.247  39.956  -8.433  1.00  0.00     0.111 A 
ATOM      6  C   UNL     1     -12.352  41.097  -9.284  1.00  0.00     0.134 A 
ATOM      7  C   UNL     1     -13.562  41.798  -9.350  1.00  0.00     0.093 A 
ATOM      8  C   UNL     1     -14.649  41.440  -8.548  1.00  0.00     0.123 A 
ATOM      9  C   UNL     1     -14.536  40.364  -7.671  1.00  0.00     0.094 A 
ATOM     10  C   UNL     1     -13.354  39.622  -7.608  1.00  0.00     0.146 A 
ATOM     11  O   UNL     1     -13.292  38.598  -6.766  1.00  0.00    -0.452 OA
ENDROOT
BRANCH   1  12
ATOM     12  C   UNL     1     -12.275  36.720  -5.648  1.00  0.00     0.025 A 
ATOM     13  C   UNL     1     -12.815  34.398  -5.103  1.00  0.00     0.161 A 
ATOM     14  C   UNL     1     -12.442  34.630  -3.772  1.00  0.00     0.157 A 
ATOM     15  C   UNL     1     -12.736  35.451  -6.036  1.00  0.00     0.062 A 
ATOM     16  C   UNL     1     -12.002  35.899  -3.376  1.00  0.00     0.051 A 
ATOM     17  C   UNL     1     -11.925  36.939  -4.304  1.00  0.00     0.016 A 
BRANCH  13  18
ATOM     18  O   UNL     1     -13.260  33.115  -5.460  1.00  0.00    -0.493 OA
ATOM     19  C   UNL     1     -14.586  32.635  -5.262  1.00  0.00     0.278 C 
ENDBRANCH  13  18
BRANCH  14  20
ATOM     20  O   UNL     1     -12.517  33.592  -2.845  1.00  0.00    -0.504 OA
ATOM     21  H   UNL     1     -13.407  33.246  -2.506  1.00  0.00     0.293 HD
ENDBRANCH  14  20
ENDBRANCH   1  12
BRANCH   2  22
ATOM     22  O   UNL     1     -10.019  37.151  -7.414  1.00  0.00    -0.502 OA
ATOM     23  H   UNL     1      -9.990  36.281  -7.932  1.00  0.00     0.293 HD
ENDBRANCH   2  22
BRANCH   6  24
ATOM     24  O   UNL     1     -11.299  41.594 -10.057  1.00  0.00    -0.507 OA
ATOM     25  H   UNL     1     -11.011  41.214 -10.945  1.00  0.00     0.293 HD
ENDBRANCH   6  24
BRANCH   8  26
ATOM     26  O   UNL     1     -15.844  42.153  -8.610  1.00  0.00    -0.508 OA
ATOM     27  H   UNL     1     -15.859  43.146  -8.812  1.00  0.00     0.293 HD
ENDBRANCH   8  26
TORSDOF 6
ENDMDL
MODEL 8
REMARK VINA RESULT:    -6.855      1.875      6.819
REMARK INTER + INTRA:          -8.860
REMARK INTER:                  -8.669
REMARK INTRA:                  -0.191
REMARK UNBOUND:                -0.401
REMARK SMILES COc1cc(-c2oc3cc(O)cc(O)c3c(=O)c2O)ccc1O
REMARK SMILES IDX 6 1 18 2 16 3 17 4 15 5 13 6 12 7 10 8 9 9 8 10 7 11 5 12
REMARK SMILES IDX 3 13 22 14 4 15 21 16 20 17 2 18 1 19 23 20 19 22 14 24
REMARK SMILES IDX 11 26
REMARK H PARENT 23 21 19 23 14 25 11 27
REMARK Flexibility Score: inf
ROOT
ATOM      1  C   UNL     1     -16.929  37.333  -1.027  1.00  0.00     0.180 A 
ATOM      2  C   UNL     1     -17.351  38.263  -1.992  1.00  0.00     0.208 A 
ATOM      3  C   UNL     1     -16.950  38.088  -3.326  1.00  0.00     0.238 A 
ATOM      4  O   UNL     1     -17.287  38.953  -4.177  1.00  0.00    -0.285 OA
ATOM      5  C   UNL     1     -16.147  36.978  -3.682  1.00  0.00     0.111 A 
ATOM      6  C   UNL     1     -15.716  36.682  -5.010  1.00  0.00     0.134 A 
ATOM      7  C   UNL     1     -14.816  35.631  -5.225  1.00  0.00     0.093 A 
ATOM      8  C   UNL     1     -14.382  34.826  -4.168  1.00  0.00     0.123 A 
ATOM      9  C   UNL     1     -14.843  35.071  -2.878  1.00  0.00     0.094 A 
ATOM     10  C   UNL     1     -15.714  36.134  -2.626  1.00  0.00     0.146 A 
ATOM     11  O   UNL     1     -16.121  36.339  -1.379  1.00  0.00    -0.452 OA
ENDROOT
BRANCH   1  12
ATOM     12  C   UNL     1     -17.329  37.437   0.395  1.00  0.00     0.025 A 
ATOM     13  C   UNL     1     -16.694  37.557   2.753  1.00  0.00     0.161 A 
ATOM     14  C   UNL     1     -18.049  37.571   3.111  1.00  0.00     0.157 A 
ATOM     15  C   UNL     1     -16.340  37.482   1.391  1.00  0.00     0.062 A 
ATOM     16  C   UNL     1     -19.038  37.504   2.122  1.00  0.00     0.051 A 
ATOM     17  C   UNL     1     -18.682  37.430   0.774  1.00  0.00     0.016 A 
BRANCH  13  18
ATOM     18  O   UNL     1     -15.731  37.618   3.773  1.00  0.00    -0.493 OA
ATOM     19  C   UNL     1     -14.355  37.922   3.568  1.00  0.00     0.278 C 
ENDBRANCH  13  18
BRANCH  14  20
ATOM     20  O   UNL     1     -18.405  37.646   4.457  1.00  0.00    -0.504 OA
ATOM     21  H   UNL     1     -19.323  37.361   4.779  1.00  0.00     0.293 HD
ENDBRANCH  14  20
ENDBRANCH   1  12
BRANCH   2  22
ATOM     22  O   UNL     1     -18.127  39.363  -1.617  1.00  0.00    -0.502 OA
ATOM     23  H   UNL     1     -19.119  39.291  -1.430  1.00  0.00     0.293 HD
ENDBRANCH   2  22
BRANCH   6  24
ATOM     24  O   UNL     1     -16.160  37.365  -6.146  1.00  0.00    -0.507 OA
ATOM     25  H   UNL     1     -15.813  37.212  -7.080  1.00  0.00     0.293 HD
ENDBRANCH   6  24
BRANCH   8  26
ATOM     26  O   UNL     1     -13.498  33.773  -4.394  1.00  0.00    -0.508 OA
ATOM     27  H   UNL     1     -13.681  32.842  -4.038  1.00  0.00     0.293 HD
ENDBRANCH   8  26
TORSDOF 6
ENDMDL
MODEL 9
REMARK VINA RESULT:    -6.844      5.087      9.651
REMARK INTER + INTRA:          -8.846
REMARK INTER:                  -8.464
REMARK INTRA:                  -0.383
REMARK UNBOUND:                -0.401
REMARK SMILES COc1cc(-c2oc3cc(O)cc(O)c3c(=O)c2O)ccc1O
REMARK SMILES IDX 6 1 18 2 16 3 17 4 15 5 13 6 12 7 10 8 9 9 8 10 7 11 5 12
REMARK SMILES IDX 3 13 22 14 4 15 21 16 20 17 2 18 1 19 23 20 19 22 14 24
REMARK SMILES IDX 11 26
REMARK H PARENT 23 21 19 23 14 25 11 27
REMARK Flexibility Score: inf
ROOT
ATOM      1  C   UNL     1     -11.279  39.076  -5.730  1.00  0.00     0.180 A 
ATOM      2  C   UNL     1     -10.942  38.096  -6.679  1.00  0.00     0.208 A 
ATOM      3  C   UNL     1     -11.240  38.329  -8.031  1.00  0.00     0.238 A 
ATOM      4  O   UNL     1     -10.985  37.425  -8.870  1.00  0.00    -0.285 OA
ATOM      5  C   UNL     1     -11.854  39.543  -8.420  1.00  0.00     0.111 A 
ATOM      6  C   UNL     1     -12.164  39.900  -9.766  1.00  0.00     0.134 A 
ATOM      7  C   UNL     1     -12.891  41.070 -10.020  1.00  0.00     0.093 A 
ATOM      8  C   UNL     1     -13.261  41.928  -8.981  1.00  0.00     0.123 A 
ATOM      9  C   UNL     1     -12.912  41.617  -7.670  1.00  0.00     0.094 A 
ATOM     10  C   UNL     1     -12.219  40.439  -7.381  1.00  0.00     0.146 A 
ATOM     11  O   UNL     1     -11.914  40.176  -6.116  1.00  0.00    -0.452 OA
ENDROOT
BRANCH   1  12
ATOM     12  C   UNL     1     -10.975  38.914  -4.289  1.00  0.00     0.025 A 
ATOM     13  C   UNL     1     -11.750  38.429  -2.021  1.00  0.00     0.161 A 
ATOM     14  C   UNL     1     -10.455  38.658  -1.536  1.00  0.00     0.157 A 
ATOM     15  C   UNL     1     -12.005  38.566  -3.400  1.00  0.00     0.062 A 
ATOM     16  C   UNL     1      -9.430  39.026  -2.417  1.00  0.00     0.051 A 
ATOM     17  C   UNL     1      -9.688  39.161  -3.782  1.00  0.00     0.016 A 
BRANCH  13  18
ATOM     18  O   UNL     1     -12.753  38.069  -1.107  1.00  0.00    -0.493 OA
ATOM     19  C   UNL     1     -13.226  36.741  -0.908  1.00  0.00     0.278 C 
ENDBRANCH  13  18
BRANCH  14  20
ATOM     20  O   UNL     1     -10.195  38.522  -0.174  1.00  0.00    -0.504 OA
ATOM     21  H   UNL     1      -9.250  38.551   0.192  1.00  0.00     0.293 HD
ENDBRANCH  14  20
ENDBRANCH   1  12
BRANCH   2  22
ATOM     22  O   UNL     1     -10.355  36.895  -6.272  1.00  0.00    -0.502 OA
ATOM     23  H   UNL     1     -10.629  36.415  -5.424  1.00  0.00     0.293 HD
ENDBRANCH   2  22
BRANCH   6  24
ATOM     24  O   UNL     1     -11.762  39.161 -10.882  1.00  0.00    -0.507 OA
ATOM     25  H   UNL     1     -10.868  38.702 -10.975  1.00  0.00     0.293 HD
ENDBRANCH   6  24
BRANCH   8  26
ATOM     26  O   UNL     1     -13.971  43.098  -9.245  1.00  0.00    -0.508 OA
ATOM     27  H   UNL     1     -13.673  43.993  -8.876  1.00  0.00     0.293 HD
ENDBRANCH   8  26
TORSDOF 6
ENDMDL
