MODEL 1
REMARK VINA RESULT:    -6.947      0.000      0.000
REMARK INTER + INTRA:          -8.487
REMARK INTER:                  -8.571
REMARK INTRA:                   0.084
REMARK UNBOUND:                 0.084
REMARK SMILES O=c1c(O)c(-c2cc(O)c(O)c(O)c2)oc2cc(O)cc(O)c12
REMARK SMILES IDX 5 1 3 2 2 3 1 4 23 5 21 6 20 7 18 8 17 9 16 10 15 11 6 12
REMARK SMILES IDX 7 13 8 14 14 15 10 16 12 17 9 18 11 20 13 22 4 24 22 26
REMARK SMILES IDX 19 28
REMARK H PARENT 9 19 11 21 13 23 4 25 22 27 19 29
REMARK Flexibility Score: inf
ROOT
ATOM      1  C   UNL     1       9.982 -16.776 -23.181  1.00  0.00     0.180 A 
ATOM      2  C   UNL     1       9.341 -18.005 -22.948  1.00  0.00     0.208 A 
ATOM      3  C   UNL     1       9.138 -18.883 -24.025  1.00  0.00     0.238 A 
ATOM      4  O   UNL     1       8.613 -20.004 -23.801  1.00  0.00    -0.285 OA
ATOM      5  C   UNL     1       9.564 -18.514 -25.324  1.00  0.00     0.111 A 
ATOM      6  C   UNL     1       9.374 -19.307 -26.495  1.00  0.00     0.134 A 
ATOM      7  C   UNL     1       9.952 -18.903 -27.704  1.00  0.00     0.093 A 
ATOM      8  C   UNL     1      10.657 -17.701 -27.800  1.00  0.00     0.123 A 
ATOM      9  C   UNL     1      10.797 -16.890 -26.675  1.00  0.00     0.094 A 
ATOM     10  C   UNL     1      10.263 -17.285 -25.446  1.00  0.00     0.146 A 
ATOM     11  O   UNL     1      10.428 -16.487 -24.398  1.00  0.00    -0.452 OA
ENDROOT
BRANCH   1  12
ATOM     12  C   UNL     1      10.209 -15.789 -22.101  1.00  0.00     0.029 A 
ATOM     13  C   UNL     1       9.913 -14.436 -22.328  1.00  0.00     0.062 A 
ATOM     14  C   UNL     1      10.098 -13.484 -21.315  1.00  0.00     0.162 A 
ATOM     15  C   UNL     1      10.660 -16.186 -20.830  1.00  0.00     0.062 A 
ATOM     16  C   UNL     1      10.571 -13.888 -20.055  1.00  0.00     0.200 A 
ATOM     17  C   UNL     1      10.846 -15.240 -19.814  1.00  0.00     0.162 A 
BRANCH  14  18
ATOM     18  O   UNL     1       9.815 -12.141 -21.558  1.00  0.00    -0.504 OA
ATOM     19  H   UNL     1       8.877 -11.827 -21.775  1.00  0.00     0.293 HD
ENDBRANCH  14  18
BRANCH  16  20
ATOM     20  O   UNL     1      10.765 -12.960 -19.032  1.00  0.00    -0.502 OA
ATOM     21  H   UNL     1      11.525 -12.289 -19.049  1.00  0.00     0.293 HD
ENDBRANCH  16  20
BRANCH  17  22
ATOM     22  O   UNL     1      11.300 -15.636 -18.557  1.00  0.00    -0.504 OA
ATOM     23  H   UNL     1      11.857 -16.475 -18.434  1.00  0.00     0.293 HD
ENDBRANCH  17  22
ENDBRANCH   1  12
BRANCH   2  24
ATOM     24  O   UNL     1       8.948 -18.359 -21.653  1.00  0.00    -0.502 OA
ATOM     25  H   UNL     1       9.450 -18.050 -20.830  1.00  0.00     0.293 HD
ENDBRANCH   2  24
BRANCH   6  26
ATOM     26  O   UNL     1       8.610 -20.477 -26.529  1.00  0.00    -0.507 OA
ATOM     27  H   UNL     1       8.504 -21.072 -27.338  1.00  0.00     0.293 HD
ENDBRANCH   6  26
BRANCH   8  28
ATOM     28  O   UNL     1      11.216 -17.299 -29.010  1.00  0.00    -0.508 OA
ATOM     29  H   UNL     1      11.869 -17.887 -29.514  1.00  0.00     0.293 HD
ENDBRANCH   8  28
TORSDOF 7
ENDMDL
MODEL 2
REMARK VINA RESULT:    -6.903      0.755      1.902
REMARK INTER + INTRA:          -8.434
REMARK INTER:                  -8.432
REMARK INTRA:                  -0.002
REMARK UNBOUND:                 0.084
REMARK SMILES O=c1c(O)c(-c2cc(O)c(O)c(O)c2)oc2cc(O)cc(O)c12
REMARK SMILES IDX 5 1 3 2 2 3 1 4 23 5 21 6 20 7 18 8 17 9 16 10 15 11 6 12
REMARK SMILES IDX 7 13 8 14 14 15 10 16 12 17 9 18 11 20 13 22 4 24 22 26
REMARK SMILES IDX 19 28
REMARK H PARENT 9 19 11 21 13 23 4 25 22 27 19 29
REMARK Flexibility Score: inf
ROOT
ATOM      1  C   UNL     1      10.273 -17.072 -22.944  1.00  0.00     0.180 A 
ATOM      2  C   UNL     1       9.594 -18.273 -22.680  1.00  0.00     0.208 A 
ATOM      3  C   UNL     1       9.540 -19.260 -23.677  1.00  0.00     0.238 A 
ATOM      4  O   UNL     1       8.977 -20.355 -23.415  1.00  0.00    -0.285 OA
ATOM      5  C   UNL     1      10.152 -19.025 -24.932  1.00  0.00     0.111 A 
ATOM      6  C   UNL     1      10.125 -19.938 -26.029  1.00  0.00     0.134 A 
ATOM      7  C   UNL     1      10.875 -19.659 -27.178  1.00  0.00     0.093 A 
ATOM      8  C   UNL     1      11.598 -18.469 -27.295  1.00  0.00     0.123 A 
ATOM      9  C   UNL     1      11.582 -17.545 -26.253  1.00  0.00     0.094 A 
ATOM     10  C   UNL     1      10.873 -17.812 -25.079  1.00  0.00     0.146 A 
ATOM     11  O   UNL     1      10.893 -16.909 -24.107  1.00  0.00    -0.452 OA
ENDROOT
BRANCH   1  12
ATOM     12  C   UNL     1      10.351 -15.975 -21.951  1.00  0.00     0.029 A 
ATOM     13  C   UNL     1      10.801 -16.253 -20.650  1.00  0.00     0.062 A 
ATOM     14  C   UNL     1      10.905 -15.229 -19.698  1.00  0.00     0.162 A 
ATOM     15  C   UNL     1      10.040 -14.650 -22.299  1.00  0.00     0.062 A 
ATOM     16  C   UNL     1      10.570 -13.910 -20.049  1.00  0.00     0.200 A 
ATOM     17  C   UNL     1      10.142 -13.623 -21.351  1.00  0.00     0.162 A 
BRANCH  14  18
ATOM     18  O   UNL     1      11.339 -15.519 -18.405  1.00  0.00    -0.504 OA
ATOM     19  H   UNL     1      10.919 -15.083 -17.594  1.00  0.00     0.293 HD
ENDBRANCH  14  18
BRANCH  16  20
ATOM     20  O   UNL     1      10.663 -12.876 -19.118  1.00  0.00    -0.502 OA
ATOM     21  H   UNL     1      11.553 -12.489 -18.829  1.00  0.00     0.293 HD
ENDBRANCH  16  20
BRANCH  17  22
ATOM     22  O   UNL     1       9.826 -12.311 -21.698  1.00  0.00    -0.504 OA
ATOM     23  H   UNL     1      10.545 -11.637 -21.937  1.00  0.00     0.293 HD
ENDBRANCH  17  22
ENDBRANCH   1  12
BRANCH   2  24
ATOM     24  O   UNL     1       9.015 -18.492 -21.425  1.00  0.00    -0.502 OA
ATOM     25  H   UNL     1       9.005 -17.785 -20.700  1.00  0.00     0.293 HD
ENDBRANCH   2  24
BRANCH   6  26
ATOM     26  O   UNL     1       9.363 -21.110 -26.051  1.00  0.00    -0.507 OA
ATOM     27  H   UNL     1       9.731 -22.038 -25.904  1.00  0.00     0.293 HD
ENDBRANCH   6  26
BRANCH   8  28
ATOM     28  O   UNL     1      12.329 -18.192 -28.448  1.00  0.00    -0.508 OA
ATOM     29  H   UNL     1      13.134 -18.748 -28.711  1.00  0.00     0.293 HD
ENDBRANCH   8  28
TORSDOF 7
ENDMDL
MODEL 3
REMARK VINA RESULT:    -6.873      2.235      3.419
REMARK INTER + INTRA:          -8.396
REMARK INTER:                  -8.194
REMARK INTRA:                  -0.203
REMARK UNBOUND:                 0.084
REMARK SMILES O=c1c(O)c(-c2cc(O)c(O)c(O)c2)oc2cc(O)cc(O)c12
REMARK SMILES IDX 5 1 3 2 2 3 1 4 23 5 21 6 20 7 18 8 17 9 16 10 15 11 6 12
REMARK SMILES IDX 7 13 8 14 14 15 10 16 12 17 9 18 11 20 13 22 4 24 22 26
REMARK SMILES IDX 19 28
REMARK H PARENT 9 19 11 21 13 23 4 25 22 27 19 29
REMARK Flexibility Score: inf
ROOT
ATOM      1  C   UNL     1       9.933 -15.434 -23.587  1.00  0.00     0.180 A 
ATOM      2  C   UNL     1       9.481 -16.090 -22.429  1.00  0.00     0.208 A 
ATOM      3  C   UNL     1       9.479 -17.494 -22.397  1.00  0.00     0.238 A 
ATOM      4  O   UNL     1       9.124 -18.075 -21.339  1.00  0.00    -0.285 OA
ATOM      5  C   UNL     1       9.914 -18.224 -23.530  1.00  0.00     0.111 A 
ATOM      6  C   UNL     1       9.917 -19.648 -23.623  1.00  0.00     0.134 A 
ATOM      7  C   UNL     1      10.492 -20.265 -24.741  1.00  0.00     0.093 A 
ATOM      8  C   UNL     1      11.004 -19.509 -25.798  1.00  0.00     0.123 A 
ATOM      9  C   UNL     1      10.952 -18.118 -25.742  1.00  0.00     0.094 A 
ATOM     10  C   UNL     1      10.418 -17.473 -24.624  1.00  0.00     0.146 A 
ATOM     11  O   UNL     1      10.396 -16.146 -24.607  1.00  0.00    -0.452 OA
ENDROOT
BRANCH   1  12
ATOM     12  C   UNL     1       9.941 -13.957 -23.703  1.00  0.00     0.029 A 
ATOM     13  C   UNL     1       9.063 -13.331 -24.602  1.00  0.00     0.062 A 
ATOM     14  C   UNL     1       9.035 -11.934 -24.715  1.00  0.00     0.162 A 
ATOM     15  C   UNL     1      10.769 -13.164 -22.890  1.00  0.00     0.062 A 
ATOM     16  C   UNL     1       9.882 -11.150 -23.914  1.00  0.00     0.200 A 
ATOM     17  C   UNL     1      10.745 -11.768 -22.999  1.00  0.00     0.162 A 
BRANCH  14  18
ATOM     18  O   UNL     1       8.169 -11.324 -25.622  1.00  0.00    -0.504 OA
ATOM     19  H   UNL     1       7.778 -10.406 -25.447  1.00  0.00     0.293 HD
ENDBRANCH  14  18
BRANCH  16  20
ATOM     20  O   UNL     1       9.875  -9.759 -24.011  1.00  0.00    -0.502 OA
ATOM     21  H   UNL     1       9.474  -9.170 -23.290  1.00  0.00     0.293 HD
ENDBRANCH  16  20
BRANCH  17  22
ATOM     22  O   UNL     1      11.572 -10.984 -22.197  1.00  0.00    -0.504 OA
ATOM     23  H   UNL     1      12.281 -10.380 -22.597  1.00  0.00     0.293 HD
ENDBRANCH  17  22
ENDBRANCH   1  12
BRANCH   2  24
ATOM     24  O   UNL     1       9.075 -15.349 -21.314  1.00  0.00    -0.502 OA
ATOM     25  H   UNL     1       9.452 -15.511 -20.388  1.00  0.00     0.293 HD
ENDBRANCH   2  24
BRANCH   6  26
ATOM     26  O   UNL     1       9.349 -20.494 -22.666  1.00  0.00    -0.507 OA
ATOM     27  H   UNL     1       8.565 -21.107 -22.834  1.00  0.00     0.293 HD
ENDBRANCH   6  26
BRANCH   8  28
ATOM     28  O   UNL     1      11.561 -20.131 -26.913  1.00  0.00    -0.508 OA
ATOM     29  H   UNL     1      11.625 -21.140 -26.980  1.00  0.00     0.293 HD
ENDBRANCH   8  28
TORSDOF 7
ENDMDL
MODEL 4
REMARK VINA RESULT:    -6.634      3.565      5.652
REMARK INTER + INTRA:          -8.102
REMARK INTER:                  -8.457
REMARK INTRA:                   0.355
REMARK UNBOUND:                 0.084
REMARK SMILES O=c1c(O)c(-c2cc(O)c(O)c(O)c2)oc2cc(O)cc(O)c12
REMARK SMILES IDX 5 1 3 2 2 3 1 4 23 5 21 6 20 7 18 8 17 9 16 10 15 11 6 12
REMARK SMILES IDX 7 13 8 14 14 15 10 16 12 17 9 18 11 20 13 22 4 24 22 26
REMARK SMILES IDX 19 28
REMARK H PARENT 9 19 11 21 13 23 4 25 22 27 19 29
REMARK Flexibility Score: inf
ROOT
ATOM      1  C   UNL     1       9.793 -13.278 -23.963  1.00  0.00     0.180 A 
ATOM      2  C   UNL     1       9.869 -13.373 -22.563  1.00  0.00     0.208 A 
ATOM      3  C   UNL     1      10.265 -14.588 -21.982  1.00  0.00     0.238 A 
ATOM      4  O   UNL     1      10.383 -14.650 -20.731  1.00  0.00    -0.285 OA
ATOM      5  C   UNL     1      10.566 -15.698 -22.808  1.00  0.00     0.111 A 
ATOM      6  C   UNL     1      10.939 -16.989 -22.326  1.00  0.00     0.134 A 
ATOM      7  C   UNL     1      11.341 -17.975 -23.235  1.00  0.00     0.093 A 
ATOM      8  C   UNL     1      11.320 -17.738 -24.612  1.00  0.00     0.123 A 
ATOM      9  C   UNL     1      10.901 -16.500 -25.094  1.00  0.00     0.094 A 
ATOM     10  C   UNL     1      10.528 -15.484 -24.210  1.00  0.00     0.146 A 
ATOM     11  O   UNL     1      10.145 -14.317 -24.712  1.00  0.00    -0.452 OA
ENDROOT
BRANCH   1  12
ATOM     12  C   UNL     1       9.359 -12.038 -24.647  1.00  0.00     0.029 A 
ATOM     13  C   UNL     1       8.827 -12.114 -25.943  1.00  0.00     0.062 A 
ATOM     14  C   UNL     1       8.389 -10.958 -26.604  1.00  0.00     0.162 A 
ATOM     15  C   UNL     1       9.414 -10.790 -24.002  1.00  0.00     0.062 A 
ATOM     16  C   UNL     1       8.469  -9.712 -25.960  1.00  0.00     0.200 A 
ATOM     17  C   UNL     1       8.977  -9.632 -24.657  1.00  0.00     0.162 A 
BRANCH  14  18
ATOM     18  O   UNL     1       7.876 -11.045 -27.897  1.00  0.00    -0.504 OA
ATOM     19  H   UNL     1       8.235 -11.715 -28.567  1.00  0.00     0.293 HD
ENDBRANCH  14  18
BRANCH  16  20
ATOM     20  O   UNL     1       8.041  -8.547 -26.598  1.00  0.00    -0.502 OA
ATOM     21  H   UNL     1       8.601  -7.703 -26.610  1.00  0.00     0.293 HD
ENDBRANCH  16  20
BRANCH  17  22
ATOM     22  O   UNL     1       9.040  -8.395 -24.018  1.00  0.00    -0.504 OA
ATOM     23  H   UNL     1       8.250  -7.759 -24.015  1.00  0.00     0.293 HD
ENDBRANCH  17  22
ENDBRANCH   1  12
BRANCH   2  24
ATOM     24  O   UNL     1       9.588 -12.258 -21.767  1.00  0.00    -0.502 OA
ATOM     25  H   UNL     1      10.232 -11.915 -21.064  1.00  0.00     0.293 HD
ENDBRANCH   2  24
BRANCH   6  26
ATOM     26  O   UNL     1      10.906 -17.358 -20.979  1.00  0.00    -0.507 OA
ATOM     27  H   UNL     1      11.517 -16.986 -20.266  1.00  0.00     0.293 HD
ENDBRANCH   6  26
BRANCH   8  28
ATOM     28  O   UNL     1      11.707 -18.730 -25.510  1.00  0.00    -0.508 OA
ATOM     29  H   UNL     1      11.842 -18.531 -26.494  1.00  0.00     0.293 HD
ENDBRANCH   8  28
TORSDOF 7
ENDMDL
MODEL 5
REMARK VINA RESULT:    -6.572      1.550      6.863
REMARK INTER + INTRA:          -8.025
REMARK INTER:                  -7.686
REMARK INTRA:                  -0.339
REMARK UNBOUND:                 0.084
REMARK SMILES O=c1c(O)c(-c2cc(O)c(O)c(O)c2)oc2cc(O)cc(O)c12
REMARK SMILES IDX 5 1 3 2 2 3 1 4 23 5 21 6 20 7 18 8 17 9 16 10 15 11 6 12
REMARK SMILES IDX 7 13 8 14 14 15 10 16 12 17 9 18 11 20 13 22 4 24 22 26
REMARK SMILES IDX 19 28
REMARK H PARENT 9 19 11 21 13 23 4 25 22 27 19 29
REMARK Flexibility Score: inf
ROOT
ATOM      1  C   UNL     1      10.521 -16.589 -24.721  1.00  0.00     0.180 A 
ATOM      2  C   UNL     1       9.945 -17.463 -23.784  1.00  0.00     0.208 A 
ATOM      3  C   UNL     1       9.696 -16.999 -22.482  1.00  0.00     0.238 A 
ATOM      4  O   UNL     1       9.130 -17.770 -21.664  1.00  0.00    -0.285 OA
ATOM      5  C   UNL     1      10.041 -15.672 -22.130  1.00  0.00     0.111 A 
ATOM      6  C   UNL     1       9.871 -15.109 -20.829  1.00  0.00     0.134 A 
ATOM      7  C   UNL     1      10.125 -13.747 -20.628  1.00  0.00     0.093 A 
ATOM      8  C   UNL     1      10.606 -12.943 -21.664  1.00  0.00     0.123 A 
ATOM      9  C   UNL     1      10.832 -13.498 -22.922  1.00  0.00     0.094 A 
ATOM     10  C   UNL     1      10.553 -14.845 -23.163  1.00  0.00     0.146 A 
ATOM     11  O   UNL     1      10.773 -15.331 -24.379  1.00  0.00    -0.452 OA
ENDROOT
BRANCH   1  12
ATOM     12  C   UNL     1      10.836 -17.013 -26.105  1.00  0.00     0.029 A 
ATOM     13  C   UNL     1       9.832 -16.976 -27.084  1.00  0.00     0.062 A 
ATOM     14  C   UNL     1      10.109 -17.351 -28.406  1.00  0.00     0.162 A 
ATOM     15  C   UNL     1      12.137 -17.398 -26.473  1.00  0.00     0.062 A 
ATOM     16  C   UNL     1      11.408 -17.756 -28.760  1.00  0.00     0.200 A 
ATOM     17  C   UNL     1      12.420 -17.773 -27.793  1.00  0.00     0.162 A 
BRANCH  14  18
ATOM     18  O   UNL     1       9.099 -17.324 -29.367  1.00  0.00    -0.504 OA
ATOM     19  H   UNL     1       9.130 -16.685 -30.152  1.00  0.00     0.293 HD
ENDBRANCH  14  18
BRANCH  16  20
ATOM     20  O   UNL     1      11.707 -18.136 -30.068  1.00  0.00    -0.502 OA
ATOM     21  H   UNL     1      11.520 -17.534 -30.861  1.00  0.00     0.293 HD
ENDBRANCH  16  20
BRANCH  17  22
ATOM     22  O   UNL     1      13.709 -18.161 -28.154  1.00  0.00    -0.504 OA
ATOM     23  H   UNL     1      14.064 -18.016 -29.092  1.00  0.00     0.293 HD
ENDBRANCH  17  22
ENDBRANCH   1  12
BRANCH   2  24
ATOM     24  O   UNL     1       9.592 -18.764 -24.159  1.00  0.00    -0.502 OA
ATOM     25  H   UNL     1       8.968 -19.338 -23.606  1.00  0.00     0.293 HD
ENDBRANCH   2  24
BRANCH   6  26
ATOM     26  O   UNL     1       9.483 -15.844 -19.705  1.00  0.00    -0.507 OA
ATOM     27  H   UNL     1      10.120 -16.294 -19.065  1.00  0.00     0.293 HD
ENDBRANCH   6  26
BRANCH   8  28
ATOM     28  O   UNL     1      10.871 -11.592 -21.452  1.00  0.00    -0.508 OA
ATOM     29  H   UNL     1      11.587 -11.103 -21.977  1.00  0.00     0.293 HD
ENDBRANCH   8  28
TORSDOF 7
ENDMDL
MODEL 6
REMARK VINA RESULT:    -6.562      1.533      6.998
REMARK INTER + INTRA:          -8.013
REMARK INTER:                  -7.681
REMARK INTRA:                  -0.333
REMARK UNBOUND:                 0.084
REMARK SMILES O=c1c(O)c(-c2cc(O)c(O)c(O)c2)oc2cc(O)cc(O)c12
REMARK SMILES IDX 5 1 3 2 2 3 1 4 23 5 21 6 20 7 18 8 17 9 16 10 15 11 6 12
REMARK SMILES IDX 7 13 8 14 14 15 10 16 12 17 9 18 11 20 13 22 4 24 22 26
REMARK SMILES IDX 19 28
REMARK H PARENT 9 19 11 21 13 23 4 25 22 27 19 29
REMARK Flexibility Score: inf
ROOT
ATOM      1  C   UNL     1      10.442 -16.553 -24.771  1.00  0.00     0.180 A 
ATOM      2  C   UNL     1       9.876 -17.448 -23.846  1.00  0.00     0.208 A 
ATOM      3  C   UNL     1       9.649 -17.015 -22.530  1.00  0.00     0.238 A 
ATOM      4  O   UNL     1       9.093 -17.803 -21.722  1.00  0.00    -0.285 OA
ATOM      5  C   UNL     1      10.005 -15.698 -22.151  1.00  0.00     0.111 A 
ATOM      6  C   UNL     1       9.856 -15.166 -20.835  1.00  0.00     0.134 A 
ATOM      7  C   UNL     1      10.119 -13.810 -20.605  1.00  0.00     0.093 A 
ATOM      8  C   UNL     1      10.588 -12.983 -21.628  1.00  0.00     0.123 A 
ATOM      9  C   UNL     1      10.792 -13.508 -22.903  1.00  0.00     0.094 A 
ATOM     10  C   UNL     1      10.504 -14.848 -23.171  1.00  0.00     0.146 A 
ATOM     11  O   UNL     1      10.704 -15.305 -24.402  1.00  0.00    -0.452 OA
ENDROOT
BRANCH   1  12
ATOM     12  C   UNL     1      10.734 -16.945 -26.169  1.00  0.00     0.029 A 
ATOM     13  C   UNL     1      12.028 -17.367 -26.512  1.00  0.00     0.062 A 
ATOM     14  C   UNL     1      12.325 -17.764 -27.823  1.00  0.00     0.162 A 
ATOM     15  C   UNL     1       9.727 -16.960 -27.149  1.00  0.00     0.062 A 
ATOM     16  C   UNL     1      11.317 -17.754 -28.802  1.00  0.00     0.200 A 
ATOM     17  C   UNL     1      10.018 -17.356 -28.461  1.00  0.00     0.162 A 
BRANCH  14  18
ATOM     18  O   UNL     1      13.618 -18.167 -28.155  1.00  0.00    -0.504 OA
ATOM     19  H   UNL     1      14.222 -18.621 -27.481  1.00  0.00     0.293 HD
ENDBRANCH  14  18
BRANCH  16  20
ATOM     20  O   UNL     1      11.589 -18.143 -30.114  1.00  0.00    -0.502 OA
ATOM     21  H   UNL     1      11.590 -17.482 -30.883  1.00  0.00     0.293 HD
ENDBRANCH  16  20
BRANCH  17  22
ATOM     22  O   UNL     1       9.019 -17.363 -29.433  1.00  0.00    -0.504 OA
ATOM     23  H   UNL     1       9.016 -16.694 -30.195  1.00  0.00     0.293 HD
ENDBRANCH  17  22
ENDBRANCH   1  12
BRANCH   2  24
ATOM     24  O   UNL     1       9.513 -18.738 -24.248  1.00  0.00    -0.502 OA
ATOM     25  H   UNL     1      10.175 -19.386 -24.656  1.00  0.00     0.293 HD
ENDBRANCH   2  24
BRANCH   6  26
ATOM     26  O   UNL     1       9.483 -15.926 -19.723  1.00  0.00    -0.507 OA
ATOM     27  H   UNL     1       9.189 -16.891 -19.759  1.00  0.00     0.293 HD
ENDBRANCH   6  26
BRANCH   8  28
ATOM     28  O   UNL     1      10.862 -11.639 -21.387  1.00  0.00    -0.508 OA
ATOM     29  H   UNL     1      11.505 -11.351 -20.660  1.00  0.00     0.293 HD
ENDBRANCH   8  28
TORSDOF 7
ENDMDL
MODEL 7
REMARK VINA RESULT:    -6.418      3.100      6.353
REMARK INTER + INTRA:          -7.835
REMARK INTER:                  -7.670
REMARK INTRA:                  -0.165
REMARK UNBOUND:                 0.084
REMARK SMILES O=c1c(O)c(-c2cc(O)c(O)c(O)c2)oc2cc(O)cc(O)c12
REMARK SMILES IDX 5 1 3 2 2 3 1 4 23 5 21 6 20 7 18 8 17 9 16 10 15 11 6 12
REMARK SMILES IDX 7 13 8 14 14 15 10 16 12 17 9 18 11 20 13 22 4 24 22 26
REMARK SMILES IDX 19 28
REMARK H PARENT 9 19 11 21 13 23 4 25 22 27 19 29
REMARK Flexibility Score: inf
ROOT
ATOM      1  C   UNL     1      10.070 -14.589 -23.682  1.00  0.00     0.180 A 
ATOM      2  C   UNL     1      10.615 -13.702 -22.738  1.00  0.00     0.208 A 
ATOM      3  C   UNL     1      10.558 -12.322 -22.986  1.00  0.00     0.238 A 
ATOM      4  O   UNL     1      10.999 -11.531 -22.112  1.00  0.00    -0.285 OA
ATOM      5  C   UNL     1       9.970 -11.846 -24.183  1.00  0.00     0.111 A 
ATOM      6  C   UNL     1       9.893 -10.470 -24.557  1.00  0.00     0.134 A 
ATOM      7  C   UNL     1       9.173 -10.105 -25.701  1.00  0.00     0.093 A 
ATOM      8  C   UNL     1       8.584 -11.071 -26.520  1.00  0.00     0.123 A 
ATOM      9  C   UNL     1       8.704 -12.420 -26.195  1.00  0.00     0.094 A 
ATOM     10  C   UNL     1       9.385 -12.813 -25.041  1.00  0.00     0.146 A 
ATOM     11  O   UNL     1       9.467 -14.109 -24.763  1.00  0.00    -0.452 OA
ENDROOT
BRANCH   1  12
ATOM     12  C   UNL     1      10.115 -16.058 -23.501  1.00  0.00     0.029 A 
ATOM     13  C   UNL     1      10.866 -16.841 -24.392  1.00  0.00     0.062 A 
ATOM     14  C   UNL     1      10.944 -18.231 -24.230  1.00  0.00     0.162 A 
ATOM     15  C   UNL     1       9.469 -16.682 -22.420  1.00  0.00     0.062 A 
ATOM     16  C   UNL     1      10.276 -18.848 -23.159  1.00  0.00     0.200 A 
ATOM     17  C   UNL     1       9.544 -18.071 -22.253  1.00  0.00     0.162 A 
BRANCH  14  18
ATOM     18  O   UNL     1      11.681 -18.999 -25.130  1.00  0.00    -0.504 OA
ATOM     19  H   UNL     1      11.335 -19.884 -25.480  1.00  0.00     0.293 HD
ENDBRANCH  14  18
BRANCH  16  20
ATOM     20  O   UNL     1      10.336 -20.231 -22.978  1.00  0.00    -0.502 OA
ATOM     21  H   UNL     1      10.563 -20.648 -22.084  1.00  0.00     0.293 HD
ENDBRANCH  16  20
BRANCH  17  22
ATOM     22  O   UNL     1       8.896 -18.688 -21.184  1.00  0.00    -0.504 OA
ATOM     23  H   UNL     1       8.295 -19.493 -21.321  1.00  0.00     0.293 HD
ENDBRANCH  17  22
ENDBRANCH   1  12
BRANCH   2  24
ATOM     24  O   UNL     1      11.172 -14.193 -21.552  1.00  0.00    -0.502 OA
ATOM     25  H   UNL     1      11.806 -13.645 -20.982  1.00  0.00     0.293 HD
ENDBRANCH   2  24
BRANCH   6  26
ATOM     26  O   UNL     1      10.523  -9.436 -23.859  1.00  0.00    -0.507 OA
ATOM     27  H   UNL     1      11.474  -9.466 -23.522  1.00  0.00     0.293 HD
ENDBRANCH   6  26
BRANCH   8  28
ATOM     28  O   UNL     1       7.883 -10.700 -27.665  1.00  0.00    -0.508 OA
ATOM     29  H   UNL     1       7.950 -11.233 -28.524  1.00  0.00     0.293 HD
ENDBRANCH   8  28
TORSDOF 7
ENDMDL
MODEL 8
REMARK VINA RESULT:    -6.291      4.468      7.269
REMARK INTER + INTRA:          -7.678
REMARK INTER:                  -8.111
REMARK INTRA:                   0.432
REMARK UNBOUND:                 0.084
REMARK SMILES O=c1c(O)c(-c2cc(O)c(O)c(O)c2)oc2cc(O)cc(O)c12
REMARK SMILES IDX 5 1 3 2 2 3 1 4 23 5 21 6 20 7 18 8 17 9 16 10 15 11 6 12
REMARK SMILES IDX 7 13 8 14 14 15 10 16 12 17 9 18 11 20 13 22 4 24 22 26
REMARK SMILES IDX 19 28
REMARK H PARENT 9 19 11 21 13 23 4 25 22 27 19 29
REMARK Flexibility Score: inf
ROOT
ATOM      1  C   UNL     1       8.982 -12.173 -24.596  1.00  0.00     0.180 A 
ATOM      2  C   UNL     1       8.543 -13.434 -25.035  1.00  0.00     0.208 A 
ATOM      3  C   UNL     1       8.701 -14.543 -24.189  1.00  0.00     0.238 A 
ATOM      4  O   UNL     1       8.257 -15.659 -24.565  1.00  0.00    -0.285 OA
ATOM      5  C   UNL     1       9.309 -14.380 -22.921  1.00  0.00     0.111 A 
ATOM      6  C   UNL     1       9.556 -15.441 -21.998  1.00  0.00     0.134 A 
ATOM      7  C   UNL     1      10.044 -15.144 -20.720  1.00  0.00     0.093 A 
ATOM      8  C   UNL     1      10.357 -13.833 -20.354  1.00  0.00     0.123 A 
ATOM      9  C   UNL     1      10.175 -12.798 -21.269  1.00  0.00     0.094 A 
ATOM     10  C   UNL     1       9.655 -13.058 -22.539  1.00  0.00     0.146 A 
ATOM     11  O   UNL     1       9.488 -12.041 -23.376  1.00  0.00    -0.452 OA
ENDROOT
BRANCH   1  12
ATOM     12  C   UNL     1       8.872 -10.962 -25.442  1.00  0.00     0.029 A 
ATOM     13  C   UNL     1       9.288  -9.723 -24.932  1.00  0.00     0.062 A 
ATOM     14  C   UNL     1       9.215  -8.565 -25.720  1.00  0.00     0.162 A 
ATOM     15  C   UNL     1       8.413 -11.036 -26.769  1.00  0.00     0.062 A 
ATOM     16  C   UNL     1       8.734  -8.646 -27.038  1.00  0.00     0.200 A 
ATOM     17  C   UNL     1       8.338  -9.883 -27.561  1.00  0.00     0.162 A 
BRANCH  14  18
ATOM     18  O   UNL     1       9.618  -7.337 -25.197  1.00  0.00    -0.504 OA
ATOM     19  H   UNL     1      10.377  -7.268 -24.530  1.00  0.00     0.293 HD
ENDBRANCH  14  18
BRANCH  16  20
ATOM     20  O   UNL     1       8.650  -7.508 -27.840  1.00  0.00    -0.502 OA
ATOM     21  H   UNL     1       9.399  -6.827 -27.891  1.00  0.00     0.293 HD
ENDBRANCH  16  20
BRANCH  17  22
ATOM     22  O   UNL     1       7.876  -9.959 -28.874  1.00  0.00    -0.504 OA
ATOM     23  H   UNL     1       8.148 -10.718 -29.489  1.00  0.00     0.293 HD
ENDBRANCH  17  22
ENDBRANCH   1  12
BRANCH   2  24
ATOM     24  O   UNL     1       7.925 -13.568 -26.283  1.00  0.00    -0.502 OA
ATOM     25  H   UNL     1       8.317 -14.136 -27.025  1.00  0.00     0.293 HD
ENDBRANCH   2  24
BRANCH   6  26
ATOM     26  O   UNL     1       9.365 -16.793 -22.295  1.00  0.00    -0.507 OA
ATOM     27  H   UNL     1       8.467 -17.226 -22.452  1.00  0.00     0.293 HD
ENDBRANCH   6  26
BRANCH   8  28
ATOM     28  O   UNL     1      10.856 -13.548 -19.086  1.00  0.00    -0.508 OA
ATOM     29  H   UNL     1      11.087 -12.602 -18.807  1.00  0.00     0.293 HD
ENDBRANCH   8  28
TORSDOF 7
ENDMDL
MODEL 9
REMARK VINA RESULT:    -6.117      2.169      2.674
REMARK INTER + INTRA:          -7.464
REMARK INTER:                  -7.115
REMARK INTRA:                  -0.349
REMARK UNBOUND:                 0.084
REMARK SMILES O=c1c(O)c(-c2cc(O)c(O)c(O)c2)oc2cc(O)cc(O)c12
REMARK SMILES IDX 5 1 3 2 2 3 1 4 23 5 21 6 20 7 18 8 17 9 16 10 15 11 6 12
REMARK SMILES IDX 7 13 8 14 14 15 10 16 12 17 9 18 11 20 13 22 4 24 22 26
REMARK SMILES IDX 19 28
REMARK H PARENT 9 19 11 21 13 23 4 25 22 27 19 29
REMARK Flexibility Score: inf
ROOT
ATOM      1  C   UNL     1      10.270 -15.823 -24.998  1.00  0.00     0.180 A 
ATOM      2  C   UNL     1       9.071 -15.936 -25.723  1.00  0.00     0.208 A 
ATOM      3  C   UNL     1       9.088 -16.575 -26.973  1.00  0.00     0.238 A 
ATOM      4  O   UNL     1       8.003 -16.721 -27.592  1.00  0.00    -0.285 OA
ATOM      5  C   UNL     1      10.307 -17.078 -27.490  1.00  0.00     0.111 A 
ATOM      6  C   UNL     1      10.448 -17.708 -28.763  1.00  0.00     0.134 A 
ATOM      7  C   UNL     1      11.674 -18.284 -29.115  1.00  0.00     0.093 A 
ATOM      8  C   UNL     1      12.782 -18.196 -28.269  1.00  0.00     0.123 A 
ATOM      9  C   UNL     1      12.669 -17.532 -27.049  1.00  0.00     0.094 A 
ATOM     10  C   UNL     1      11.449 -16.979 -26.654  1.00  0.00     0.146 A 
ATOM     11  O   UNL     1      11.383 -16.363 -25.479  1.00  0.00    -0.452 OA
ENDROOT
BRANCH   1  12
ATOM     12  C   UNL     1      10.335 -15.141 -23.684  1.00  0.00     0.029 A 
ATOM     13  C   UNL     1      10.650 -13.775 -23.631  1.00  0.00     0.062 A 
ATOM     14  C   UNL     1      10.696 -13.101 -22.402  1.00  0.00     0.162 A 
ATOM     15  C   UNL     1      10.030 -15.821 -22.492  1.00  0.00     0.062 A 
ATOM     16  C   UNL     1      10.412 -13.794 -21.213  1.00  0.00     0.200 A 
ATOM     17  C   UNL     1      10.075 -15.152 -21.262  1.00  0.00     0.162 A 
BRANCH  14  18
ATOM     18  O   UNL     1      11.025 -11.746 -22.361  1.00  0.00    -0.504 OA
ATOM     19  H   UNL     1      11.434 -11.325 -21.536  1.00  0.00     0.293 HD
ENDBRANCH  14  18
BRANCH  16  20
ATOM     20  O   UNL     1      10.455 -13.145 -19.979  1.00  0.00    -0.502 OA
ATOM     21  H   UNL     1      10.826 -13.591 -19.148  1.00  0.00     0.293 HD
ENDBRANCH  16  20
BRANCH  17  22
ATOM     22  O   UNL     1       9.779 -15.830 -20.081  1.00  0.00    -0.504 OA
ATOM     23  H   UNL     1      10.505 -16.086 -19.420  1.00  0.00     0.293 HD
ENDBRANCH  17  22
ENDBRANCH   1  12
BRANCH   2  24
ATOM     24  O   UNL     1       7.875 -15.451 -25.184  1.00  0.00    -0.502 OA
ATOM     25  H   UNL     1       7.196 -14.944 -25.738  1.00  0.00     0.293 HD
ENDBRANCH   2  24
BRANCH   6  26
ATOM     26  O   UNL     1       9.432 -17.769 -29.720  1.00  0.00    -0.507 OA
ATOM     27  H   UNL     1       8.477 -18.036 -29.529  1.00  0.00     0.293 HD
ENDBRANCH   6  26
BRANCH   8  28
ATOM     28  O   UNL     1      14.002 -18.760 -28.634  1.00  0.00    -0.508 OA
ATOM     29  H   UNL     1      14.160 -19.123 -29.566  1.00  0.00     0.293 HD
ENDBRANCH   8  28
TORSDOF 7
ENDMDL
