MODEL 1
REMARK VINA RESULT:    -4.697      0.000      0.000
REMARK INTER + INTRA:         -11.680
REMARK INTER:                  -9.090
REMARK INTRA:                  -2.590
REMARK UNBOUND:                -2.590
REMARK SMILES CCCCCCCCCCCCCCCCCC(=O)[O-]
REMARK SMILES IDX 10 1 11 2 12 3 13 4 14 5 15 6 16 7 17 8 18 9 19 10 20 11
REMARK SMILES IDX 9 12 8 13 7 14 6 15 5 16 4 17 3 18 2 19 1 20
REMARK H PARENT
REMARK Flexibility Score: inf
ROOT
ATOM      1  C   UNL     1     -50.697 -50.390  19.910  1.00  0.00     0.000 C 
ENDROOT
BRANCH   1   2
ATOM      2  C   UNL     1     -50.593 -49.118  19.040  1.00  0.00     0.000 C 
BRANCH   2   3
ATOM      3  C   UNL     1     -49.572 -48.094  19.564  1.00  0.00     0.000 C 
BRANCH   3   4
ATOM      4  C   UNL     1     -48.158 -48.681  19.701  1.00  0.00     0.000 C 
BRANCH   4   5
ATOM      5  C   UNL     1     -47.450 -48.867  18.346  1.00  0.00     0.000 C 
BRANCH   5   6
ATOM      6  C   UNL     1     -47.363 -50.319  17.840  1.00  0.00     0.000 C 
BRANCH   6   7
ATOM      7  C   UNL     1     -47.688 -50.522  16.347  1.00  0.00     0.006 C 
BRANCH   7   8
ATOM      8  C   UNL     1     -49.051 -51.189  16.090  1.00  0.00     0.053 C 
BRANCH   8   9
ATOM      9  C   UNL     1     -49.685 -50.725  14.813  1.00  0.00     0.041 C 
ATOM     10  O   UNL     1     -49.283 -49.671  14.252  1.00  0.00    -0.550 OA
ATOM     11  O   UNL     1     -50.744 -51.436  14.261  1.00  0.00    -0.550 OA
ENDBRANCH   8   9
ENDBRANCH   7   8
ENDBRANCH   6   7
ENDBRANCH   5   6
ENDBRANCH   4   5
ENDBRANCH   3   4
ENDBRANCH   2   3
ENDBRANCH   1   2
BRANCH   1  12
ATOM     12  C   UNL     1     -52.091 -50.545  20.545  1.00  0.00     0.000 C 
BRANCH  12  13
ATOM     13  C   UNL     1     -52.947 -49.270  20.398  1.00  0.00    -0.000 C 
BRANCH  13  14
ATOM     14  C   UNL     1     -53.920 -49.042  21.566  1.00  0.00    -0.000 C 
BRANCH  14  15
ATOM     15  C   UNL     1     -53.325 -48.164  22.676  1.00  0.00    -0.000 C 
BRANCH  15  16
ATOM     16  C   UNL     1     -52.111 -47.345  22.203  1.00  0.00    -0.000 C 
BRANCH  16  17
ATOM     17  C   UNL     1     -50.828 -47.619  23.015  1.00  0.00    -0.000 C 
BRANCH  17  18
ATOM     18  C   UNL     1     -50.968 -48.854  23.923  1.00  0.00    -0.000 C 
BRANCH  18  19
ATOM     19  C   UNL     1     -50.014 -49.992  23.526  1.00  0.00    -0.003 C 
ATOM     20  C   UNL     1     -48.575 -49.517  23.336  1.00  0.00     0.004 C 
ENDBRANCH  18  19
ENDBRANCH  17  18
ENDBRANCH  16  17
ENDBRANCH  15  16
ENDBRANCH  14  15
ENDBRANCH  13  14
ENDBRANCH  12  13
ENDBRANCH   1  12
TORSDOF 16
ENDMDL
MODEL 2
REMARK VINA RESULT:    -4.614      1.318      2.041
REMARK INTER + INTRA:         -11.519
REMARK INTER:                  -9.060
REMARK INTRA:                  -2.459
REMARK UNBOUND:                -2.590
REMARK SMILES CCCCCCCCCCCCCCCCCC(=O)[O-]
REMARK SMILES IDX 10 1 11 2 12 3 13 4 14 5 15 6 16 7 17 8 18 9 19 10 20 11
REMARK SMILES IDX 9 12 8 13 7 14 6 15 5 16 4 17 3 18 2 19 1 20
REMARK H PARENT
REMARK Flexibility Score: inf
ROOT
ATOM      1  C   UNL     1     -52.876 -49.254  20.312  1.00  0.00     0.000 C 
ENDROOT
BRANCH   1   2
ATOM      2  C   UNL     1     -51.851 -50.386  20.543  1.00  0.00     0.000 C 
BRANCH   2   3
ATOM      3  C   UNL     1     -50.539 -50.201  19.761  1.00  0.00     0.000 C 
BRANCH   3   4
ATOM      4  C   UNL     1     -50.213 -48.723  19.491  1.00  0.00     0.000 C 
BRANCH   4   5
ATOM      5  C   UNL     1     -48.720 -48.395  19.676  1.00  0.00     0.000 C 
BRANCH   5   6
ATOM      6  C   UNL     1     -47.755 -49.162  18.753  1.00  0.00     0.000 C 
BRANCH   6   7
ATOM      7  C   UNL     1     -47.818 -48.778  17.261  1.00  0.00     0.006 C 
BRANCH   7   8
ATOM      8  C   UNL     1     -47.688 -49.975  16.302  1.00  0.00     0.053 C 
BRANCH   8   9
ATOM      9  C   UNL     1     -48.584 -51.114  16.683  1.00  0.00     0.041 C 
ATOM     10  O   UNL     1     -48.107 -52.139  17.237  1.00  0.00    -0.550 OA
ATOM     11  O   UNL     1     -49.943 -51.058  16.396  1.00  0.00    -0.550 OA
ENDBRANCH   8   9
ENDBRANCH   7   8
ENDBRANCH   6   7
ENDBRANCH   5   6
ENDBRANCH   4   5
ENDBRANCH   3   4
ENDBRANCH   2   3
ENDBRANCH   1   2
BRANCH   1  12
ATOM     12  C   UNL     1     -53.869 -49.123  21.481  1.00  0.00     0.000 C 
BRANCH  12  13
ATOM     13  C   UNL     1     -54.775 -47.881  21.344  1.00  0.00    -0.000 C 
BRANCH  13  14
ATOM     14  C   UNL     1     -54.235 -46.641  22.076  1.00  0.00    -0.000 C 
BRANCH  14  15
ATOM     15  C   UNL     1     -53.194 -46.988  23.150  1.00  0.00    -0.000 C 
BRANCH  15  16
ATOM     16  C   UNL     1     -51.768 -46.564  22.758  1.00  0.00    -0.000 C 
BRANCH  16  17
ATOM     17  C   UNL     1     -50.705 -47.648  23.035  1.00  0.00    -0.000 C 
BRANCH  17  18
ATOM     18  C   UNL     1     -51.236 -48.761  23.955  1.00  0.00    -0.000 C 
BRANCH  18  19
ATOM     19  C   UNL     1     -50.185 -49.847  24.238  1.00  0.00    -0.003 C 
ATOM     20  C   UNL     1     -49.122 -49.939  23.145  1.00  0.00     0.004 C 
ENDBRANCH  18  19
ENDBRANCH  17  18
ENDBRANCH  16  17
ENDBRANCH  15  16
ENDBRANCH  14  15
ENDBRANCH  13  14
ENDBRANCH  12  13
ENDBRANCH   1  12
TORSDOF 16
ENDMDL
MODEL 3
REMARK VINA RESULT:    -4.599      9.633     12.502
REMARK INTER + INTRA:         -11.490
REMARK INTER:                  -9.211
REMARK INTRA:                  -2.279
REMARK UNBOUND:                -2.590
REMARK SMILES CCCCCCCCCCCCCCCCCC(=O)[O-]
REMARK SMILES IDX 10 1 11 2 12 3 13 4 14 5 15 6 16 7 17 8 18 9 19 10 20 11
REMARK SMILES IDX 9 12 8 13 7 14 6 15 5 16 4 17 3 18 2 19 1 20
REMARK H PARENT
REMARK Flexibility Score: inf
ROOT
ATOM      1  C   UNL     1     -41.352 -50.038  31.446  1.00  0.00     0.000 C 
ENDROOT
BRANCH   1   2
ATOM      2  C   UNL     1     -40.991 -49.637  29.999  1.00  0.00     0.000 C 
BRANCH   2   3
ATOM      3  C   UNL     1     -39.838 -48.622  29.908  1.00  0.00     0.000 C 
BRANCH   3   4
ATOM      4  C   UNL     1     -39.525 -48.207  28.462  1.00  0.00     0.000 C 
BRANCH   4   5
ATOM      5  C   UNL     1     -40.167 -46.864  28.069  1.00  0.00     0.000 C 
BRANCH   5   6
ATOM      6  C   UNL     1     -41.562 -46.961  27.424  1.00  0.00     0.000 C 
BRANCH   6   7
ATOM      7  C   UNL     1     -41.770 -48.157  26.473  1.00  0.00     0.006 C 
BRANCH   7   8
ATOM      8  C   UNL     1     -42.832 -49.162  26.956  1.00  0.00     0.053 C 
BRANCH   8   9
ATOM      9  C   UNL     1     -43.911 -49.386  25.940  1.00  0.00     0.041 C 
ATOM     10  O   UNL     1     -44.775 -50.284  26.120  1.00  0.00    -0.550 OA
ATOM     11  O   UNL     1     -43.942 -48.626  24.776  1.00  0.00    -0.550 OA
ENDBRANCH   8   9
ENDBRANCH   7   8
ENDBRANCH   6   7
ENDBRANCH   5   6
ENDBRANCH   4   5
ENDBRANCH   3   4
ENDBRANCH   2   3
ENDBRANCH   1   2
BRANCH   1  12
ATOM     12  C   UNL     1     -42.622 -50.904  31.508  1.00  0.00     0.000 C 
BRANCH  12  13
ATOM     13  C   UNL     1     -43.239 -51.141  30.114  1.00  0.00    -0.000 C 
BRANCH  13  14
ATOM     14  C   UNL     1     -44.638 -50.527  29.945  1.00  0.00    -0.000 C 
BRANCH  14  15
ATOM     15  C   UNL     1     -44.669 -49.022  30.250  1.00  0.00    -0.000 C 
BRANCH  15  16
ATOM     16  C   UNL     1     -45.681 -48.656  31.350  1.00  0.00    -0.000 C 
BRANCH  16  17
ATOM     17  C   UNL     1     -46.588 -49.832  31.769  1.00  0.00    -0.000 C 
BRANCH  17  18
ATOM     18  C   UNL     1     -46.639 -50.010  33.297  1.00  0.00    -0.000 C 
BRANCH  18  19
ATOM     19  C   UNL     1     -45.682 -51.104  33.797  1.00  0.00    -0.003 C 
ATOM     20  C   UNL     1     -45.714 -52.360  32.929  1.00  0.00     0.004 C 
ENDBRANCH  18  19
ENDBRANCH  17  18
ENDBRANCH  16  17
ENDBRANCH  15  16
ENDBRANCH  14  15
ENDBRANCH  13  14
ENDBRANCH  12  13
ENDBRANCH   1  12
TORSDOF 16
ENDMDL
MODEL 4
REMARK VINA RESULT:    -4.530     10.636     14.042
REMARK INTER + INTRA:         -11.357
REMARK INTER:                  -9.318
REMARK INTRA:                  -2.039
REMARK UNBOUND:                -2.590
REMARK SMILES CCCCCCCCCCCCCCCCCC(=O)[O-]
REMARK SMILES IDX 10 1 11 2 12 3 13 4 14 5 15 6 16 7 17 8 18 9 19 10 20 11
REMARK SMILES IDX 9 12 8 13 7 14 6 15 5 16 4 17 3 18 2 19 1 20
REMARK H PARENT
REMARK Flexibility Score: inf
ROOT
ATOM      1  C   UNL     1     -42.891 -49.602  30.412  1.00  0.00     0.000 C 
ENDROOT
BRANCH   1   2
ATOM      2  C   UNL     1     -43.809 -49.366  29.193  1.00  0.00     0.000 C 
BRANCH   2   3
ATOM      3  C   UNL     1     -45.232 -48.917  29.568  1.00  0.00     0.000 C 
BRANCH   3   4
ATOM      4  C   UNL     1     -45.416 -48.734  31.083  1.00  0.00     0.000 C 
BRANCH   4   5
ATOM      5  C   UNL     1     -46.818 -49.144  31.571  1.00  0.00     0.000 C 
BRANCH   5   6
ATOM      6  C   UNL     1     -47.044 -49.045  33.091  1.00  0.00     0.000 C 
BRANCH   6   7
ATOM      7  C   UNL     1     -46.276 -50.074  33.944  1.00  0.00     0.006 C 
BRANCH   7   8
ATOM      8  C   UNL     1     -46.369 -51.517  33.416  1.00  0.00     0.053 C 
BRANCH   8   9
ATOM      9  C   UNL     1     -45.099 -51.970  32.762  1.00  0.00     0.041 C 
ATOM     10  O   UNL     1     -45.092 -52.297  31.546  1.00  0.00    -0.550 OA
ATOM     11  O   UNL     1     -43.928 -52.066  33.505  1.00  0.00    -0.550 OA
ENDBRANCH   8   9
ENDBRANCH   7   8
ENDBRANCH   6   7
ENDBRANCH   5   6
ENDBRANCH   4   5
ENDBRANCH   3   4
ENDBRANCH   2   3
ENDBRANCH   1   2
BRANCH   1  12
ATOM     12  C   UNL     1     -41.407 -49.690  30.013  1.00  0.00     0.000 C 
BRANCH  12  13
ATOM     13  C   UNL     1     -41.219 -49.867  28.491  1.00  0.00    -0.000 C 
BRANCH  13  14
ATOM     14  C   UNL     1     -40.287 -48.820  27.859  1.00  0.00    -0.000 C 
BRANCH  14  15
ATOM     15  C   UNL     1     -40.458 -47.422  28.469  1.00  0.00    -0.000 C 
BRANCH  15  16
ATOM     16  C   UNL     1     -41.351 -46.503  27.618  1.00  0.00    -0.000 C 
BRANCH  16  17
ATOM     17  C   UNL     1     -41.117 -46.651  26.099  1.00  0.00    -0.000 C 
BRANCH  17  18
ATOM     18  C   UNL     1     -42.437 -46.672  25.308  1.00  0.00    -0.000 C 
BRANCH  18  19
ATOM     19  C   UNL     1     -43.402 -47.763  25.796  1.00  0.00    -0.003 C 
ATOM     20  C   UNL     1     -43.054 -49.147  25.254  1.00  0.00     0.004 C 
ENDBRANCH  18  19
ENDBRANCH  17  18
ENDBRANCH  16  17
ENDBRANCH  15  16
ENDBRANCH  14  15
ENDBRANCH  13  14
ENDBRANCH  12  13
ENDBRANCH   1  12
TORSDOF 16
ENDMDL
MODEL 5
REMARK VINA RESULT:    -4.514      1.125      2.248
REMARK INTER + INTRA:         -11.326
REMARK INTER:                  -8.880
REMARK INTRA:                  -2.446
REMARK UNBOUND:                -2.590
REMARK SMILES CCCCCCCCCCCCCCCCCC(=O)[O-]
REMARK SMILES IDX 10 1 11 2 12 3 13 4 14 5 15 6 16 7 17 8 18 9 19 10 20 11
REMARK SMILES IDX 9 12 8 13 7 14 6 15 5 16 4 17 3 18 2 19 1 20
REMARK H PARENT
REMARK Flexibility Score: inf
ROOT
ATOM      1  C   UNL     1     -53.318 -49.068  20.920  1.00  0.00     0.000 C 
ENDROOT
BRANCH   1   2
ATOM      2  C   UNL     1     -52.074 -49.929  20.609  1.00  0.00     0.000 C 
BRANCH   2   3
ATOM      3  C   UNL     1     -51.154 -49.321  19.536  1.00  0.00     0.000 C 
BRANCH   3   4
ATOM      4  C   UNL     1     -49.859 -50.125  19.340  1.00  0.00     0.000 C 
BRANCH   4   5
ATOM      5  C   UNL     1     -48.767 -49.332  18.597  1.00  0.00     0.000 C 
BRANCH   5   6
ATOM      6  C   UNL     1     -47.695 -50.184  17.893  1.00  0.00     0.000 C 
BRANCH   6   7
ATOM      7  C   UNL     1     -48.159 -51.577  17.424  1.00  0.00     0.006 C 
BRANCH   7   8
ATOM      8  C   UNL     1     -48.360 -51.689  15.902  1.00  0.00     0.053 C 
BRANCH   8   9
ATOM      9  C   UNL     1     -49.529 -50.885  15.418  1.00  0.00     0.041 C 
ATOM     10  O   UNL     1     -49.385 -50.056  14.482  1.00  0.00    -0.550 OA
ATOM     11  O   UNL     1     -50.771 -51.026  16.026  1.00  0.00    -0.550 OA
ENDBRANCH   8   9
ENDBRANCH   7   8
ENDBRANCH   6   7
ENDBRANCH   5   6
ENDBRANCH   4   5
ENDBRANCH   3   4
ENDBRANCH   2   3
ENDBRANCH   1   2
BRANCH   1  12
ATOM     12  C   UNL     1     -53.327 -48.569  22.376  1.00  0.00     0.000 C 
BRANCH  12  13
ATOM     13  C   UNL     1     -53.097 -47.046  22.474  1.00  0.00    -0.000 C 
BRANCH  13  14
ATOM     14  C   UNL     1     -51.764 -46.665  23.138  1.00  0.00    -0.000 C 
BRANCH  14  15
ATOM     15  C   UNL     1     -50.652 -46.375  22.120  1.00  0.00    -0.000 C 
BRANCH  15  16
ATOM     16  C   UNL     1     -49.257 -46.780  22.627  1.00  0.00    -0.000 C 
BRANCH  16  17
ATOM     17  C   UNL     1     -48.825 -48.193  22.182  1.00  0.00    -0.000 C 
BRANCH  17  18
ATOM     18  C   UNL     1     -48.649 -49.149  23.374  1.00  0.00    -0.000 C 
BRANCH  18  19
ATOM     19  C   UNL     1     -49.882 -50.037  23.607  1.00  0.00    -0.003 C 
ATOM     20  C   UNL     1     -50.640 -49.673  24.881  1.00  0.00     0.004 C 
ENDBRANCH  18  19
ENDBRANCH  17  18
ENDBRANCH  16  17
ENDBRANCH  15  16
ENDBRANCH  14  15
ENDBRANCH  13  14
ENDBRANCH  12  13
ENDBRANCH   1  12
TORSDOF 16
ENDMDL
MODEL 6
REMARK VINA RESULT:    -4.499      1.118      2.803
REMARK INTER + INTRA:         -11.297
REMARK INTER:                  -9.580
REMARK INTRA:                  -1.717
REMARK UNBOUND:                -2.590
REMARK SMILES CCCCCCCCCCCCCCCCCC(=O)[O-]
REMARK SMILES IDX 10 1 11 2 12 3 13 4 14 5 15 6 16 7 17 8 18 9 19 10 20 11
REMARK SMILES IDX 9 12 8 13 7 14 6 15 5 16 4 17 3 18 2 19 1 20
REMARK H PARENT
REMARK Flexibility Score: inf
ROOT
ATOM      1  C   UNL     1     -50.212 -49.454  21.713  1.00  0.00     0.000 C 
ENDROOT
BRANCH   1   2
ATOM      2  C   UNL     1     -49.849 -48.156  20.957  1.00  0.00     0.000 C 
BRANCH   2   3
ATOM      3  C   UNL     1     -49.681 -48.351  19.440  1.00  0.00     0.000 C 
BRANCH   3   4
ATOM      4  C   UNL     1     -48.384 -47.724  18.902  1.00  0.00     0.000 C 
BRANCH   4   5
ATOM      5  C   UNL     1     -47.818 -48.472  17.680  1.00  0.00     0.000 C 
BRANCH   5   6
ATOM      6  C   UNL     1     -47.460 -49.951  17.918  1.00  0.00     0.000 C 
BRANCH   6   7
ATOM      7  C   UNL     1     -47.757 -50.903  16.742  1.00  0.00     0.006 C 
BRANCH   7   8
ATOM      8  C   UNL     1     -49.257 -51.095  16.458  1.00  0.00     0.053 C 
BRANCH   8   9
ATOM      9  C   UNL     1     -49.610 -50.814  15.029  1.00  0.00     0.041 C 
ATOM     10  O   UNL     1     -49.226 -49.748  14.478  1.00  0.00    -0.550 OA
ATOM     11  O   UNL     1     -50.393 -51.712  14.314  1.00  0.00    -0.550 OA
ENDBRANCH   8   9
ENDBRANCH   7   8
ENDBRANCH   6   7
ENDBRANCH   5   6
ENDBRANCH   4   5
ENDBRANCH   3   4
ENDBRANCH   2   3
ENDBRANCH   1   2
BRANCH   1  12
ATOM     12  C   UNL     1     -49.384 -49.626  22.998  1.00  0.00     0.000 C 
BRANCH  12  13
ATOM     13  C   UNL     1     -50.251 -49.532  24.271  1.00  0.00    -0.000 C 
BRANCH  13  14
ATOM     14  C   UNL     1     -51.635 -48.908  24.030  1.00  0.00    -0.000 C 
BRANCH  14  15
ATOM     15  C   UNL     1     -51.747 -47.476  24.574  1.00  0.00    -0.000 C 
BRANCH  15  16
ATOM     16  C   UNL     1     -53.015 -46.750  24.092  1.00  0.00    -0.000 C 
BRANCH  16  17
ATOM     17  C   UNL     1     -53.095 -46.599  22.559  1.00  0.00    -0.000 C 
BRANCH  17  18
ATOM     18  C   UNL     1     -54.469 -47.014  22.004  1.00  0.00    -0.000 C 
BRANCH  18  19
ATOM     19  C   UNL     1     -54.525 -48.498  21.612  1.00  0.00    -0.003 C 
ATOM     20  C   UNL     1     -53.538 -48.855  20.502  1.00  0.00     0.004 C 
ENDBRANCH  18  19
ENDBRANCH  17  18
ENDBRANCH  16  17
ENDBRANCH  15  16
ENDBRANCH  14  15
ENDBRANCH  13  14
ENDBRANCH  12  13
ENDBRANCH   1  12
TORSDOF 16
ENDMDL
MODEL 7
REMARK VINA RESULT:    -4.461      9.978     13.281
REMARK INTER + INTRA:         -11.223
REMARK INTER:                  -8.907
REMARK INTRA:                  -2.316
REMARK UNBOUND:                -2.590
REMARK SMILES CCCCCCCCCCCCCCCCCC(=O)[O-]
REMARK SMILES IDX 10 1 11 2 12 3 13 4 14 5 15 6 16 7 17 8 18 9 19 10 20 11
REMARK SMILES IDX 9 12 8 13 7 14 6 15 5 16 4 17 3 18 2 19 1 20
REMARK H PARENT
REMARK Flexibility Score: inf
ROOT
ATOM      1  C   UNL     1     -44.743 -49.704  27.670  1.00  0.00     0.000 C 
ENDROOT
BRANCH   1   2
ATOM      2  C   UNL     1     -44.588 -48.568  28.704  1.00  0.00     0.000 C 
BRANCH   2   3
ATOM      3  C   UNL     1     -43.443 -48.797  29.706  1.00  0.00     0.000 C 
BRANCH   3   4
ATOM      4  C   UNL     1     -42.740 -50.149  29.506  1.00  0.00     0.000 C 
BRANCH   4   5
ATOM      5  C   UNL     1     -42.545 -50.925  30.822  1.00  0.00     0.000 C 
BRANCH   5   6
ATOM      6  C   UNL     1     -43.800 -51.057  31.704  1.00  0.00     0.000 C 
BRANCH   6   7
ATOM      7  C   UNL     1     -44.976 -51.829  31.073  1.00  0.00     0.006 C 
BRANCH   7   8
ATOM      8  C   UNL     1     -46.296 -51.705  31.856  1.00  0.00     0.053 C 
BRANCH   8   9
ATOM      9  C   UNL     1     -46.682 -50.278  32.104  1.00  0.00     0.041 C 
ATOM     10  O   UNL     1     -46.983 -49.525  31.141  1.00  0.00    -0.550 OA
ATOM     11  O   UNL     1     -46.675 -49.769  33.398  1.00  0.00    -0.550 OA
ENDBRANCH   8   9
ENDBRANCH   7   8
ENDBRANCH   6   7
ENDBRANCH   5   6
ENDBRANCH   4   5
ENDBRANCH   3   4
ENDBRANCH   2   3
ENDBRANCH   1   2
BRANCH   1  12
ATOM     12  C   UNL     1     -44.880 -49.166  26.234  1.00  0.00     0.000 C 
BRANCH  12  13
ATOM     13  C   UNL     1     -43.732 -49.642  25.319  1.00  0.00    -0.000 C 
BRANCH  13  14
ATOM     14  C   UNL     1     -42.418 -48.870  25.525  1.00  0.00    -0.000 C 
BRANCH  14  15
ATOM     15  C   UNL     1     -42.635 -47.360  25.700  1.00  0.00    -0.000 C 
BRANCH  15  16
ATOM     16  C   UNL     1     -41.610 -46.715  26.648  1.00  0.00    -0.000 C 
BRANCH  16  17
ATOM     17  C   UNL     1     -40.750 -47.740  27.417  1.00  0.00    -0.000 C 
BRANCH  17  18
ATOM     18  C   UNL     1     -39.858 -47.071  28.477  1.00  0.00    -0.000 C 
BRANCH  18  19
ATOM     19  C   UNL     1     -38.998 -48.084  29.250  1.00  0.00    -0.003 C 
ATOM     20  C   UNL     1     -37.544 -48.105  28.782  1.00  0.00     0.004 C 
ENDBRANCH  18  19
ENDBRANCH  17  18
ENDBRANCH  16  17
ENDBRANCH  15  16
ENDBRANCH  14  15
ENDBRANCH  13  14
ENDBRANCH  12  13
ENDBRANCH   1  12
TORSDOF 16
ENDMDL
MODEL 8
REMARK VINA RESULT:    -4.458      9.726     13.359
REMARK INTER + INTRA:         -11.217
REMARK INTER:                  -9.206
REMARK INTRA:                  -2.012
REMARK UNBOUND:                -2.590
REMARK SMILES CCCCCCCCCCCCCCCCCC(=O)[O-]
REMARK SMILES IDX 10 1 11 2 12 3 13 4 14 5 15 6 16 7 17 8 18 9 19 10 20 11
REMARK SMILES IDX 9 12 8 13 7 14 6 15 5 16 4 17 3 18 2 19 1 20
REMARK H PARENT
REMARK Flexibility Score: inf
ROOT
ATOM      1  C   UNL     1     -41.187 -49.665  28.391  1.00  0.00     0.000 C 
ENDROOT
BRANCH   1   2
ATOM      2  C   UNL     1     -41.436 -49.738  29.914  1.00  0.00     0.000 C 
BRANCH   2   3
ATOM      3  C   UNL     1     -42.881 -49.400  30.320  1.00  0.00     0.000 C 
BRANCH   3   4
ATOM      4  C   UNL     1     -43.808 -49.207  29.110  1.00  0.00     0.000 C 
BRANCH   4   5
ATOM      5  C   UNL     1     -45.301 -49.311  29.475  1.00  0.00     0.000 C 
BRANCH   5   6
ATOM      6  C   UNL     1     -45.626 -49.174  30.974  1.00  0.00     0.000 C 
BRANCH   6   7
ATOM      7  C   UNL     1     -46.850 -49.974  31.463  1.00  0.00     0.006 C 
BRANCH   7   8
ATOM      8  C   UNL     1     -46.563 -50.876  32.677  1.00  0.00     0.053 C 
BRANCH   8   9
ATOM      9  C   UNL     1     -45.528 -51.920  32.382  1.00  0.00     0.041 C 
ATOM     10  O   UNL     1     -45.743 -52.796  31.503  1.00  0.00    -0.550 OA
ATOM     11  O   UNL     1     -44.340 -51.947  33.102  1.00  0.00    -0.550 OA
ENDBRANCH   8   9
ENDBRANCH   7   8
ENDBRANCH   6   7
ENDBRANCH   5   6
ENDBRANCH   4   5
ENDBRANCH   3   4
ENDBRANCH   2   3
ENDBRANCH   1   2
BRANCH   1  12
ATOM     12  C   UNL     1     -40.029 -48.714  28.038  1.00  0.00     0.000 C 
BRANCH  12  13
ATOM     13  C   UNL     1     -40.336 -47.250  28.419  1.00  0.00    -0.000 C 
BRANCH  13  14
ATOM     14  C   UNL     1     -41.398 -46.589  27.525  1.00  0.00    -0.000 C 
BRANCH  14  15
ATOM     15  C   UNL     1     -41.188 -46.884  26.032  1.00  0.00    -0.000 C 
BRANCH  15  16
ATOM     16  C   UNL     1     -42.409 -46.515  25.172  1.00  0.00    -0.000 C 
BRANCH  16  17
ATOM     17  C   UNL     1     -43.513 -47.593  25.173  1.00  0.00    -0.000 C 
BRANCH  17  18
ATOM     18  C   UNL     1     -42.933 -49.019  25.156  1.00  0.00    -0.000 C 
BRANCH  18  19
ATOM     19  C   UNL     1     -43.984 -50.081  24.798  1.00  0.00    -0.003 C 
ATOM     20  C   UNL     1     -45.193 -50.054  25.731  1.00  0.00     0.004 C 
ENDBRANCH  18  19
ENDBRANCH  17  18
ENDBRANCH  16  17
ENDBRANCH  15  16
ENDBRANCH  14  15
ENDBRANCH  13  14
ENDBRANCH  12  13
ENDBRANCH   1  12
TORSDOF 16
ENDMDL
MODEL 9
REMARK VINA RESULT:    -4.430      3.678      7.319
REMARK INTER + INTRA:         -11.164
REMARK INTER:                  -9.073
REMARK INTRA:                  -2.091
REMARK UNBOUND:                -2.590
REMARK SMILES CCCCCCCCCCCCCCCCCC(=O)[O-]
REMARK SMILES IDX 10 1 11 2 12 3 13 4 14 5 15 6 16 7 17 8 18 9 19 10 20 11
REMARK SMILES IDX 9 12 8 13 7 14 6 15 5 16 4 17 3 18 2 19 1 20
REMARK H PARENT
REMARK Flexibility Score: inf
ROOT
ATOM      1  C   UNL     1     -52.009 -50.439  20.261  1.00  0.00     0.000 C 
ENDROOT
BRANCH   1   2
ATOM      2  C   UNL     1     -52.978 -49.243  20.129  1.00  0.00     0.000 C 
BRANCH   2   3
ATOM      3  C   UNL     1     -53.934 -49.088  21.325  1.00  0.00     0.000 C 
BRANCH   3   4
ATOM      4  C   UNL     1     -54.374 -47.632  21.548  1.00  0.00     0.000 C 
BRANCH   4   5
ATOM      5  C   UNL     1     -53.523 -46.904  22.606  1.00  0.00     0.000 C 
BRANCH   5   6
ATOM      6  C   UNL     1     -52.699 -47.815  23.534  1.00  0.00     0.000 C 
BRANCH   6   7
ATOM      7  C   UNL     1     -51.178 -47.815  23.283  1.00  0.00     0.006 C 
BRANCH   7   8
ATOM      8  C   UNL     1     -50.519 -49.198  23.436  1.00  0.00     0.053 C 
BRANCH   8   9
ATOM      9  C   UNL     1     -50.104 -49.481  24.849  1.00  0.00     0.041 C 
ATOM     10  O   UNL     1     -49.845 -50.658  25.211  1.00  0.00    -0.550 OA
ATOM     11  O   UNL     1     -50.036 -48.447  25.776  1.00  0.00    -0.550 OA
ENDBRANCH   8   9
ENDBRANCH   7   8
ENDBRANCH   6   7
ENDBRANCH   5   6
ENDBRANCH   4   5
ENDBRANCH   3   4
ENDBRANCH   2   3
ENDBRANCH   1   2
BRANCH   1  12
ATOM     12  C   UNL     1     -50.674 -50.185  19.538  1.00  0.00     0.000 C 
BRANCH  12  13
ATOM     13  C   UNL     1     -50.249 -48.702  19.595  1.00  0.00    -0.000 C 
BRANCH  13  14
ATOM     14  C   UNL     1     -48.728 -48.493  19.518  1.00  0.00    -0.000 C 
BRANCH  14  15
ATOM     15  C   UNL     1     -48.282 -47.838  18.202  1.00  0.00    -0.000 C 
BRANCH  15  16
ATOM     16  C   UNL     1     -47.446 -48.780  17.319  1.00  0.00    -0.000 C 
BRANCH  16  17
ATOM     17  C   UNL     1     -47.352 -50.219  17.869  1.00  0.00    -0.000 C 
BRANCH  17  18
ATOM     18  C   UNL     1     -48.071 -51.235  16.964  1.00  0.00    -0.000 C 
BRANCH  18  19
ATOM     19  C   UNL     1     -48.583 -50.606  15.659  1.00  0.00    -0.003 C 
ATOM     20  C   UNL     1     -50.010 -51.030  15.317  1.00  0.00     0.004 C 
ENDBRANCH  18  19
ENDBRANCH  17  18
ENDBRANCH  16  17
ENDBRANCH  15  16
ENDBRANCH  14  15
ENDBRANCH  13  14
ENDBRANCH  12  13
ENDBRANCH   1  12
TORSDOF 16
ENDMDL
