MODEL 1
REMARK VINA RESULT:    -4.781      0.000      0.000
REMARK INTER + INTRA:          -5.103
REMARK INTER:                  -5.061
REMARK INTRA:                  -0.042
REMARK UNBOUND:                -0.042
REMARK SMILES COc1ccc2ccc(=O)oc2c1
REMARK SMILES IDX 3 1 13 2 12 3 6 4 5 5 4 6 7 7 8 8 9 9 10 10 11 11 2 12 1 13
REMARK H PARENT
REMARK Flexibility Score: inf
ROOT
ATOM      1  C   UNL     1      -2.088   7.304  12.384  1.00  0.00     0.122 A 
ATOM      2  C   UNL     1      -2.436   5.991  12.042  1.00  0.00     0.094 A 
ATOM      3  C   UNL     1      -2.608   5.625  10.703  1.00  0.00     0.142 A 
ATOM      4  C   UNL     1      -2.431   6.586   9.686  1.00  0.00     0.018 A 
ATOM      5  C   UNL     1      -2.083   7.902  10.021  1.00  0.00     0.016 A 
ATOM      6  C   UNL     1      -1.913   8.260  11.362  1.00  0.00     0.047 A 
ATOM      7  C   UNL     1      -2.610   6.191   8.356  1.00  0.00     0.019 A 
ATOM      8  C   UNL     1      -2.956   4.870   8.076  1.00  0.00     0.094 A 
ATOM      9  C   UNL     1      -3.115   3.971   9.136  1.00  0.00     0.336 A 
ATOM     10  O   UNL     1      -3.427   2.774   8.904  1.00  0.00    -0.246 OA
ATOM     11  O   UNL     1      -2.938   4.374  10.392  1.00  0.00    -0.423 OA
ENDROOT
BRANCH   1  12
ATOM     12  O   UNL     1      -1.928   7.618  13.741  1.00  0.00    -0.497 OA
ATOM     13  C   UNL     1      -2.469   6.853  14.813  1.00  0.00     0.278 C 
ENDBRANCH   1  12
TORSDOF 1
ENDMDL
MODEL 2
REMARK VINA RESULT:    -4.688     13.956     15.052
REMARK INTER + INTRA:          -5.004
REMARK INTER:                  -4.970
REMARK INTRA:                  -0.034
REMARK UNBOUND:                -0.042
REMARK SMILES COc1ccc2ccc(=O)oc2c1
REMARK SMILES IDX 3 1 13 2 12 3 6 4 5 5 4 6 7 7 8 8 9 9 10 10 11 11 2 12 1 13
REMARK H PARENT
REMARK Flexibility Score: inf
ROOT
ATOM      1  C   UNL     1     -11.932   3.240  21.071  1.00  0.00     0.122 A 
ATOM      2  C   UNL     1     -10.742   2.508  21.171  1.00  0.00     0.094 A 
ATOM      3  C   UNL     1     -10.763   1.162  21.550  1.00  0.00     0.142 A 
ATOM      4  C   UNL     1     -11.994   0.533  21.836  1.00  0.00     0.018 A 
ATOM      5  C   UNL     1     -13.188   1.260  21.738  1.00  0.00     0.016 A 
ATOM      6  C   UNL     1     -13.159   2.606  21.359  1.00  0.00     0.047 A 
ATOM      7  C   UNL     1     -11.983  -0.813  22.213  1.00  0.00     0.019 A 
ATOM      8  C   UNL     1     -10.768  -1.491  22.295  1.00  0.00     0.094 A 
ATOM      9  C   UNL     1      -9.587  -0.804  21.997  1.00  0.00     0.336 A 
ATOM     10  O   UNL     1      -8.479  -1.398  22.065  1.00  0.00    -0.246 OA
ATOM     11  O   UNL     1      -9.625   0.478  21.641  1.00  0.00    -0.423 OA
ENDROOT
BRANCH   1  12
ATOM     12  O   UNL     1     -11.855   4.586  20.687  1.00  0.00    -0.497 OA
ATOM     13  C   UNL     1     -11.465   5.648  21.551  1.00  0.00     0.278 C 
ENDBRANCH   1  12
TORSDOF 1
ENDMDL
MODEL 3
REMARK VINA RESULT:    -4.678      1.250      4.646
REMARK INTER + INTRA:          -4.994
REMARK INTER:                  -4.961
REMARK INTRA:                  -0.033
REMARK UNBOUND:                -0.042
REMARK SMILES COc1ccc2ccc(=O)oc2c1
REMARK SMILES IDX 3 1 13 2 12 3 6 4 5 5 4 6 7 7 8 8 9 9 10 10 11 11 2 12 1 13
REMARK H PARENT
REMARK Flexibility Score: inf
ROOT
ATOM      1  C   UNL     1      -2.516   4.433   8.711  1.00  0.00     0.122 A 
ATOM      2  C   UNL     1      -2.535   4.430  10.111  1.00  0.00     0.094 A 
ATOM      3  C   UNL     1      -2.458   5.628  10.828  1.00  0.00     0.142 A 
ATOM      4  C   UNL     1      -2.359   6.854  10.136  1.00  0.00     0.018 A 
ATOM      5  C   UNL     1      -2.339   6.864   8.735  1.00  0.00     0.016 A 
ATOM      6  C   UNL     1      -2.416   5.662   8.025  1.00  0.00     0.047 A 
ATOM      7  C   UNL     1      -2.284   8.035  10.879  1.00  0.00     0.019 A 
ATOM      8  C   UNL     1      -2.308   7.970  12.271  1.00  0.00     0.094 A 
ATOM      9  C   UNL     1      -2.408   6.720  12.890  1.00  0.00     0.336 A 
ATOM     10  O   UNL     1      -2.431   6.639  14.146  1.00  0.00    -0.246 OA
ATOM     11  O   UNL     1      -2.478   5.610  12.159  1.00  0.00    -0.423 OA
ENDROOT
BRANCH   1  12
ATOM     12  O   UNL     1      -2.595   3.205   8.041  1.00  0.00    -0.497 OA
ATOM     13  C   UNL     1      -1.477   2.369   7.756  1.00  0.00     0.278 C 
ENDBRANCH   1  12
TORSDOF 1
ENDMDL
MODEL 4
REMARK VINA RESULT:    -4.631      4.786      5.864
REMARK INTER + INTRA:          -4.944
REMARK INTER:                  -4.909
REMARK INTRA:                  -0.035
REMARK UNBOUND:                -0.042
REMARK SMILES COc1ccc2ccc(=O)oc2c1
REMARK SMILES IDX 3 1 13 2 12 3 6 4 5 5 4 6 7 7 8 8 9 9 10 10 11 11 2 12 1 13
REMARK H PARENT
REMARK Flexibility Score: inf
ROOT
ATOM      1  C   UNL     1      -1.548   5.909  14.648  1.00  0.00     0.122 A 
ATOM      2  C   UNL     1      -2.817   6.007  15.232  1.00  0.00     0.094 A 
ATOM      3  C   UNL     1      -3.610   4.869  15.411  1.00  0.00     0.142 A 
ATOM      4  C   UNL     1      -3.128   3.608  14.999  1.00  0.00     0.018 A 
ATOM      5  C   UNL     1      -1.859   3.502  14.413  1.00  0.00     0.016 A 
ATOM      6  C   UNL     1      -1.073   4.645  14.237  1.00  0.00     0.047 A 
ATOM      7  C   UNL     1      -3.943   2.488  15.190  1.00  0.00     0.019 A 
ATOM      8  C   UNL     1      -5.196   2.646  15.777  1.00  0.00     0.094 A 
ATOM      9  C   UNL     1      -5.608   3.926  16.162  1.00  0.00     0.336 A 
ATOM     10  O   UNL     1      -6.737   4.091  16.694  1.00  0.00    -0.246 OA
ATOM     11  O   UNL     1      -4.813   4.976  15.968  1.00  0.00    -0.423 OA
ENDROOT
BRANCH   1  12
ATOM     12  O   UNL     1      -0.794   7.080  14.491  1.00  0.00    -0.497 OA
ATOM     13  C   UNL     1       0.627   7.117  14.401  1.00  0.00     0.278 C 
ENDBRANCH   1  12
TORSDOF 1
ENDMDL
MODEL 5
REMARK VINA RESULT:    -4.511      2.508      3.010
REMARK INTER + INTRA:          -4.817
REMARK INTER:                  -4.783
REMARK INTRA:                  -0.035
REMARK UNBOUND:                -0.042
REMARK SMILES COc1ccc2ccc(=O)oc2c1
REMARK SMILES IDX 3 1 13 2 12 3 6 4 5 5 4 6 7 7 8 8 9 9 10 10 11 11 2 12 1 13
REMARK H PARENT
REMARK Flexibility Score: inf
ROOT
ATOM      1  C   UNL     1      -1.248   7.243   9.981  1.00  0.00     0.122 A 
ATOM      2  C   UNL     1      -0.467   6.106   9.737  1.00  0.00     0.094 A 
ATOM      3  C   UNL     1      -1.044   4.945   9.214  1.00  0.00     0.142 A 
ATOM      4  C   UNL     1      -2.426   4.916   8.928  1.00  0.00     0.018 A 
ATOM      5  C   UNL     1      -3.213   6.049   9.171  1.00  0.00     0.016 A 
ATOM      6  C   UNL     1      -2.629   7.207   9.695  1.00  0.00     0.047 A 
ATOM      7  C   UNL     1      -2.974   3.740   8.406  1.00  0.00     0.019 A 
ATOM      8  C   UNL     1      -2.148   2.640   8.184  1.00  0.00     0.094 A 
ATOM      9  C   UNL     1      -0.787   2.741   8.489  1.00  0.00     0.336 A 
ATOM     10  O   UNL     1      -0.024   1.759   8.296  1.00  0.00    -0.246 OA
ATOM     11  O   UNL     1      -0.290   3.871   8.986  1.00  0.00    -0.423 OA
ENDROOT
BRANCH   1  12
ATOM     12  O   UNL     1      -0.621   8.381  10.507  1.00  0.00    -0.497 OA
ATOM     13  C   UNL     1      -1.119   9.709  10.373  1.00  0.00     0.278 C 
ENDBRANCH   1  12
TORSDOF 1
ENDMDL
MODEL 6
REMARK VINA RESULT:    -4.475      2.673      4.162
REMARK INTER + INTRA:          -4.779
REMARK INTER:                  -4.744
REMARK INTRA:                  -0.035
REMARK UNBOUND:                -0.042
REMARK SMILES COc1ccc2ccc(=O)oc2c1
REMARK SMILES IDX 3 1 13 2 12 3 6 4 5 5 4 6 7 7 8 8 9 9 10 10 11 11 2 12 1 13
REMARK H PARENT
REMARK Flexibility Score: inf
ROOT
ATOM      1  C   UNL     1      -2.811   5.402  14.868  1.00  0.00     0.122 A 
ATOM      2  C   UNL     1      -2.733   5.460  13.471  1.00  0.00     0.094 A 
ATOM      3  C   UNL     1      -2.459   6.668  12.822  1.00  0.00     0.142 A 
ATOM      4  C   UNL     1      -2.259   7.841  13.581  1.00  0.00     0.018 A 
ATOM      5  C   UNL     1      -2.336   7.790  14.979  1.00  0.00     0.016 A 
ATOM      6  C   UNL     1      -2.612   6.579  15.620  1.00  0.00     0.047 A 
ATOM      7  C   UNL     1      -1.986   9.034  12.904  1.00  0.00     0.019 A 
ATOM      8  C   UNL     1      -1.920   9.031  11.512  1.00  0.00     0.094 A 
ATOM      9  C   UNL     1      -2.128   7.831  10.825  1.00  0.00     0.336 A 
ATOM     10  O   UNL     1      -2.072   7.807   9.568  1.00  0.00    -0.246 OA
ATOM     11  O   UNL     1      -2.386   6.709  11.494  1.00  0.00    -0.423 OA
ENDROOT
BRANCH   1  12
ATOM     12  O   UNL     1      -3.090   4.166  15.469  1.00  0.00    -0.497 OA
ATOM     13  C   UNL     1      -4.339   3.489  15.375  1.00  0.00     0.278 C 
ENDBRANCH   1  12
TORSDOF 1
ENDMDL
MODEL 7
REMARK VINA RESULT:    -4.418      1.856      4.679
REMARK INTER + INTRA:          -4.718
REMARK INTER:                  -4.676
REMARK INTRA:                  -0.042
REMARK UNBOUND:                -0.042
REMARK SMILES COc1ccc2ccc(=O)oc2c1
REMARK SMILES IDX 3 1 13 2 12 3 6 4 5 5 4 6 7 7 8 8 9 9 10 10 11 11 2 12 1 13
REMARK H PARENT
REMARK Flexibility Score: inf
ROOT
ATOM      1  C   UNL     1      -2.118   7.317  10.286  1.00  0.00     0.122 A 
ATOM      2  C   UNL     1      -2.498   6.311  11.183  1.00  0.00     0.094 A 
ATOM      3  C   UNL     1      -2.507   6.551  12.561  1.00  0.00     0.142 A 
ATOM      4  C   UNL     1      -2.130   7.819  13.054  1.00  0.00     0.018 A 
ATOM      5  C   UNL     1      -1.749   8.830  12.161  1.00  0.00     0.016 A 
ATOM      6  C   UNL     1      -1.742   8.582  10.785  1.00  0.00     0.047 A 
ATOM      7  C   UNL     1      -2.149   8.030  14.436  1.00  0.00     0.019 A 
ATOM      8  C   UNL     1      -2.536   6.991  15.281  1.00  0.00     0.094 A 
ATOM      9  C   UNL     1      -2.898   5.761  14.722  1.00  0.00     0.336 A 
ATOM     10  O   UNL     1      -3.250   4.810  15.468  1.00  0.00    -0.246 OA
ATOM     11  O   UNL     1      -2.871   5.587  13.403  1.00  0.00    -0.423 OA
ENDROOT
BRANCH   1  12
ATOM     12  O   UNL     1      -2.126   7.024   8.915  1.00  0.00    -0.497 OA
ATOM     13  C   UNL     1      -2.826   5.930   8.330  1.00  0.00     0.278 C 
ENDBRANCH   1  12
TORSDOF 1
ENDMDL
MODEL 8
REMARK VINA RESULT:    -4.408      2.627      4.309
REMARK INTER + INTRA:          -4.708
REMARK INTER:                  -4.672
REMARK INTRA:                  -0.035
REMARK UNBOUND:                -0.042
REMARK SMILES COc1ccc2ccc(=O)oc2c1
REMARK SMILES IDX 3 1 13 2 12 3 6 4 5 5 4 6 7 7 8 8 9 9 10 10 11 11 2 12 1 13
REMARK H PARENT
REMARK Flexibility Score: inf
ROOT
ATOM      1  C   UNL     1      -1.835   8.167  11.636  1.00  0.00     0.122 A 
ATOM      2  C   UNL     1      -2.258   6.832  11.624  1.00  0.00     0.094 A 
ATOM      3  C   UNL     1      -2.572   6.173  12.817  1.00  0.00     0.142 A 
ATOM      4  C   UNL     1      -2.462   6.859  14.046  1.00  0.00     0.018 A 
ATOM      5  C   UNL     1      -2.039   8.195  14.065  1.00  0.00     0.016 A 
ATOM      6  C   UNL     1      -1.727   8.846  12.868  1.00  0.00     0.047 A 
ATOM      7  C   UNL     1      -2.783   6.175  15.223  1.00  0.00     0.019 A 
ATOM      8  C   UNL     1      -3.198   4.847  15.150  1.00  0.00     0.094 A 
ATOM      9  C   UNL     1      -3.285   4.231  13.897  1.00  0.00     0.336 A 
ATOM     10  O   UNL     1      -3.658   3.032  13.809  1.00  0.00    -0.246 OA
ATOM     11  O   UNL     1      -2.974   4.905  12.792  1.00  0.00    -0.423 OA
ENDROOT
BRANCH   1  12
ATOM     12  O   UNL     1      -1.533   8.780  10.412  1.00  0.00    -0.497 OA
ATOM     13  C   UNL     1      -1.357  10.183  10.236  1.00  0.00     0.278 C 
ENDBRANCH   1  12
TORSDOF 1
ENDMDL
