MODEL 1
REMARK VINA RESULT:    -5.600      0.000      0.000
REMARK INTER + INTRA:          -7.345
REMARK INTER:                  -6.910
REMARK INTRA:                  -0.435
REMARK UNBOUND:                -0.435
REMARK SMILES CCCCC=CC(C)=O
REMARK SMILES IDX 4 1 3 2 2 3 1 4 5 5 6 6 7 7 9 8 8 9
REMARK H PARENT
REMARK Flexibility Score: inf
ROOT
ATOM      1  C   UNL     1     109.045  48.191  65.176  1.00  0.00     0.027 C 
ENDROOT
BRANCH   1   2
ATOM      2  C   UNL     1     107.650  48.735  64.841  1.00  0.00     0.004 C 
BRANCH   2   3
ATOM      3  C   UNL     1     107.746  50.100  64.149  1.00  0.00    -0.003 C 
ATOM      4  C   UNL     1     107.033  50.085  62.801  1.00  0.00     0.004 C 
ENDBRANCH   2   3
ENDBRANCH   1   2
BRANCH   1   5
ATOM      5  C   UNL     1     109.251  46.819  64.592  1.00  0.00    -0.023 C 
ATOM      6  C   UNL     1     109.529  46.543  63.307  1.00  0.00     0.042 C 
BRANCH   6   7
ATOM      7  C   UNL     1     109.733  47.526  62.218  1.00  0.00     0.152 C 
ATOM      8  O   UNL     1     110.605  48.432  62.298  1.00  0.00    -0.295 OA
ATOM      9  C   UNL     1     108.931  47.401  60.962  1.00  0.00     0.093 C 
ENDBRANCH   6   7
ENDBRANCH   1   5
TORSDOF 4
ENDMDL
MODEL 2
REMARK VINA RESULT:    -5.513      1.890      3.231
REMARK INTER + INTRA:          -7.237
REMARK INTER:                  -6.741
REMARK INTRA:                  -0.496
REMARK UNBOUND:                -0.435
REMARK SMILES CCCCC=CC(C)=O
REMARK SMILES IDX 4 1 3 2 2 3 1 4 5 5 6 6 7 7 9 8 8 9
REMARK H PARENT
REMARK Flexibility Score: inf
ROOT
ATOM      1  C   UNL     1     109.323  50.370  63.596  1.00  0.00     0.027 C 
ENDROOT
BRANCH   1   2
ATOM      2  C   UNL     1     109.648  49.904  62.170  1.00  0.00     0.004 C 
BRANCH   2   3
ATOM      3  C   UNL     1     108.376  49.810  61.321  1.00  0.00    -0.003 C 
ATOM      4  C   UNL     1     108.249  48.437  60.667  1.00  0.00     0.004 C 
ENDBRANCH   2   3
ENDBRANCH   1   2
BRANCH   1   5
ATOM      5  C   UNL     1     108.028  49.778  64.083  1.00  0.00    -0.023 C 
ATOM      6  C   UNL     1     107.888  48.606  64.724  1.00  0.00     0.042 C 
BRANCH   6   7
ATOM      7  C   UNL     1     108.976  47.683  65.120  1.00  0.00     0.152 C 
ATOM      8  O   UNL     1     109.539  47.765  66.245  1.00  0.00    -0.295 OA
ATOM      9  C   UNL     1     109.372  46.580  64.191  1.00  0.00     0.093 C 
ENDBRANCH   6   7
ENDBRANCH   1   5
TORSDOF 4
ENDMDL
MODEL 3
REMARK VINA RESULT:    -5.501      1.206      3.080
REMARK INTER + INTRA:          -7.222
REMARK INTER:                  -6.721
REMARK INTRA:                  -0.501
REMARK UNBOUND:                -0.435
REMARK SMILES CCCCC=CC(C)=O
REMARK SMILES IDX 4 1 3 2 2 3 1 4 5 5 6 6 7 7 9 8 8 9
REMARK H PARENT
REMARK Flexibility Score: inf
ROOT
ATOM      1  C   UNL     1     107.745  48.396  64.646  1.00  0.00     0.027 C 
ENDROOT
BRANCH   1   2
ATOM      2  C   UNL     1     109.035  47.973  65.361  1.00  0.00     0.004 C 
BRANCH   2   3
ATOM      3  C   UNL     1     109.486  46.582  64.901  1.00  0.00    -0.003 C 
ATOM      4  C   UNL     1     109.576  46.507  63.379  1.00  0.00     0.004 C 
ENDBRANCH   2   3
ENDBRANCH   1   2
BRANCH   1   5
ATOM      5  C   UNL     1     107.673  49.891  64.487  1.00  0.00    -0.023 C 
ATOM      6  C   UNL     1     108.237  50.607  63.499  1.00  0.00     0.042 C 
BRANCH   6   7
ATOM      7  C   UNL     1     109.001  50.073  62.349  1.00  0.00     0.152 C 
ATOM      8  O   UNL     1     110.250  49.913  62.398  1.00  0.00    -0.295 OA
ATOM      9  C   UNL     1     108.265  49.647  61.119  1.00  0.00     0.093 C 
ENDBRANCH   6   7
ENDBRANCH   1   5
TORSDOF 4
ENDMDL
MODEL 4
REMARK VINA RESULT:    -5.411      0.850      2.795
REMARK INTER + INTRA:          -7.112
REMARK INTER:                  -6.686
REMARK INTRA:                  -0.425
REMARK UNBOUND:                -0.435
REMARK SMILES CCCCC=CC(C)=O
REMARK SMILES IDX 4 1 3 2 2 3 1 4 5 5 6 6 7 7 9 8 8 9
REMARK H PARENT
REMARK Flexibility Score: inf
ROOT
ATOM      1  C   UNL     1     108.127  49.911  64.196  1.00  0.00     0.027 C 
ENDROOT
BRANCH   1   2
ATOM      2  C   UNL     1     107.817  48.585  64.903  1.00  0.00     0.004 C 
BRANCH   2   3
ATOM      3  C   UNL     1     109.107  47.854  65.288  1.00  0.00    -0.003 C 
ATOM      4  C   UNL     1     109.310  46.606  64.433  1.00  0.00     0.004 C 
ENDBRANCH   2   3
ENDBRANCH   1   2
BRANCH   1   5
ATOM      5  C   UNL     1     107.327  50.055  62.930  1.00  0.00    -0.023 C 
ATOM      6  C   UNL     1     107.699  49.633  61.709  1.00  0.00     0.042 C 
BRANCH   6   7
ATOM      7  C   UNL     1     108.942  48.904  61.370  1.00  0.00     0.152 C 
ATOM      8  O   UNL     1     110.081  49.381  61.622  1.00  0.00    -0.295 OA
ATOM      9  C   UNL     1     108.846  47.535  60.775  1.00  0.00     0.093 C 
ENDBRANCH   6   7
ENDBRANCH   1   5
TORSDOF 4
ENDMDL
MODEL 5
REMARK VINA RESULT:    -5.378      1.322      3.047
REMARK INTER + INTRA:          -7.071
REMARK INTER:                  -6.618
REMARK INTRA:                  -0.453
REMARK UNBOUND:                -0.435
REMARK SMILES CCCCC=CC(C)=O
REMARK SMILES IDX 4 1 3 2 2 3 1 4 5 5 6 6 7 7 9 8 8 9
REMARK H PARENT
REMARK Flexibility Score: inf
ROOT
ATOM      1  C   UNL     1     107.632  50.042  64.265  1.00  0.00     0.027 C 
ENDROOT
BRANCH   1   2
ATOM      2  C   UNL     1     107.616  48.638  64.883  1.00  0.00     0.004 C 
BRANCH   2   3
ATOM      3  C   UNL     1     109.038  48.162  65.199  1.00  0.00    -0.003 C 
ATOM      4  C   UNL     1     109.227  46.698  64.814  1.00  0.00     0.004 C 
ENDBRANCH   2   3
ENDBRANCH   1   2
BRANCH   1   5
ATOM      5  C   UNL     1     107.054  50.035  62.875  1.00  0.00    -0.023 C 
ATOM      6  C   UNL     1     107.712  49.709  61.750  1.00  0.00     0.042 C 
BRANCH   6   7
ATOM      7  C   UNL     1     109.116  49.250  61.651  1.00  0.00     0.152 C 
ATOM      8  O   UNL     1     109.406  48.053  61.383  1.00  0.00    -0.295 OA
ATOM      9  C   UNL     1     110.222  50.245  61.804  1.00  0.00     0.093 C 
ENDBRANCH   6   7
ENDBRANCH   1   5
TORSDOF 4
ENDMDL
MODEL 6
REMARK VINA RESULT:    -5.240      1.320      3.322
REMARK INTER + INTRA:          -6.900
REMARK INTER:                  -6.473
REMARK INTRA:                  -0.427
REMARK UNBOUND:                -0.435
REMARK SMILES CCCCC=CC(C)=O
REMARK SMILES IDX 4 1 3 2 2 3 1 4 5 5 6 6 7 7 9 8 8 9
REMARK H PARENT
REMARK Flexibility Score: inf
ROOT
ATOM      1  C   UNL     1     109.888  47.503  62.539  1.00  0.00     0.027 C 
ENDROOT
BRANCH   1   2
ATOM      2  C   UNL     1     109.485  46.338  63.452  1.00  0.00     0.004 C 
BRANCH   2   3
ATOM      3  C   UNL     1     109.411  46.787  64.915  1.00  0.00    -0.003 C 
ATOM      4  C   UNL     1     108.719  48.142  65.041  1.00  0.00     0.004 C 
ENDBRANCH   2   3
ENDBRANCH   1   2
BRANCH   1   5
ATOM      5  C   UNL     1     109.083  47.506  61.267  1.00  0.00    -0.023 C 
ATOM      6  C   UNL     1     108.316  48.515  60.822  1.00  0.00     0.042 C 
BRANCH   6   7
ATOM      7  C   UNL     1     108.141  49.839  61.462  1.00  0.00     0.152 C 
ATOM      8  O   UNL     1     108.898  50.810  61.195  1.00  0.00    -0.295 OA
ATOM      9  C   UNL     1     106.995  50.051  62.398  1.00  0.00     0.093 C 
ENDBRANCH   6   7
ENDBRANCH   1   5
TORSDOF 4
ENDMDL
MODEL 7
REMARK VINA RESULT:    -5.121      1.451      2.775
REMARK INTER + INTRA:          -6.754
REMARK INTER:                  -6.355
REMARK INTRA:                  -0.400
REMARK UNBOUND:                -0.435
REMARK SMILES CCCCC=CC(C)=O
REMARK SMILES IDX 4 1 3 2 2 3 1 4 5 5 6 6 7 7 9 8 8 9
REMARK H PARENT
REMARK Flexibility Score: inf
ROOT
ATOM      1  C   UNL     1     107.065  49.365  63.012  1.00  0.00     0.027 C 
ENDROOT
BRANCH   1   2
ATOM      2  C   UNL     1     107.223  50.691  62.258  1.00  0.00     0.004 C 
BRANCH   2   3
ATOM      3  C   UNL     1     108.254  50.563  61.131  1.00  0.00    -0.003 C 
ATOM      4  C   UNL     1     109.563  51.252  61.500  1.00  0.00     0.004 C 
ENDBRANCH   2   3
ENDBRANCH   1   2
BRANCH   1   5
ATOM      5  C   UNL     1     107.846  49.371  64.299  1.00  0.00    -0.023 C 
ATOM      6  C   UNL     1     108.885  48.572  64.594  1.00  0.00     0.042 C 
BRANCH   6   7
ATOM      7  C   UNL     1     109.500  47.560  63.705  1.00  0.00     0.152 C 
ATOM      8  O   UNL     1     110.083  47.883  62.636  1.00  0.00    -0.295 OA
ATOM      9  C   UNL     1     109.489  46.123  64.119  1.00  0.00     0.093 C 
ENDBRANCH   6   7
ENDBRANCH   1   5
TORSDOF 4
ENDMDL
MODEL 8
REMARK VINA RESULT:    -5.035      1.819      2.734
REMARK INTER + INTRA:          -6.647
REMARK INTER:                  -6.266
REMARK INTRA:                  -0.381
REMARK UNBOUND:                -0.435
REMARK SMILES CCCCC=CC(C)=O
REMARK SMILES IDX 4 1 3 2 2 3 1 4 5 5 6 6 7 7 9 8 8 9
REMARK H PARENT
REMARK Flexibility Score: inf
ROOT
ATOM      1  C   UNL     1     107.216  49.169  63.308  1.00  0.00     0.027 C 
ENDROOT
BRANCH   1   2
ATOM      2  C   UNL     1     107.360  50.454  62.482  1.00  0.00     0.004 C 
BRANCH   2   3
ATOM      3  C   UNL     1     108.318  50.245  61.304  1.00  0.00    -0.003 C 
ATOM      4  C   UNL     1     109.640  50.971  61.532  1.00  0.00     0.004 C 
ENDBRANCH   2   3
ENDBRANCH   1   2
BRANCH   1   5
ATOM      5  C   UNL     1     108.145  49.172  64.492  1.00  0.00    -0.023 C 
ATOM      6  C   UNL     1     109.039  48.216  64.795  1.00  0.00     0.042 C 
BRANCH   6   7
ATOM      7  C   UNL     1     109.324  46.994  64.009  1.00  0.00     0.152 C 
ATOM      8  O   UNL     1     109.038  45.846  64.441  1.00  0.00    -0.295 OA
ATOM      9  C   UNL     1     109.905  47.128  62.638  1.00  0.00     0.093 C 
ENDBRANCH   6   7
ENDBRANCH   1   5
TORSDOF 4
ENDMDL
MODEL 9
REMARK VINA RESULT:    -4.943      1.736      2.391
REMARK INTER + INTRA:          -6.534
REMARK INTER:                  -5.965
REMARK INTRA:                  -0.569
REMARK UNBOUND:                -0.435
REMARK SMILES CCCCC=CC(C)=O
REMARK SMILES IDX 4 1 3 2 2 3 1 4 5 5 6 6 7 7 9 8 8 9
REMARK H PARENT
REMARK Flexibility Score: inf
ROOT
ATOM      1  C   UNL     1     109.531  50.571  63.851  1.00  0.00     0.027 C 
ENDROOT
BRANCH   1   2
ATOM      2  C   UNL     1     108.863  51.795  63.212  1.00  0.00     0.004 C 
BRANCH   2   3
ATOM      3  C   UNL     1     108.905  51.706  61.682  1.00  0.00    -0.003 C 
ATOM      4  C   UNL     1     107.499  51.596  61.098  1.00  0.00     0.004 C 
ENDBRANCH   2   3
ENDBRANCH   1   2
BRANCH   1   5
ATOM      5  C   UNL     1     108.526  49.491  64.147  1.00  0.00    -0.023 C 
ATOM      6  C   UNL     1     108.342  48.368  63.432  1.00  0.00     0.042 C 
BRANCH   6   7
ATOM      7  C   UNL     1     109.113  47.944  62.242  1.00  0.00     0.152 C 
ATOM      8  O   UNL     1     110.265  47.441  62.342  1.00  0.00    -0.295 OA
ATOM      9  C   UNL     1     108.486  48.050  60.889  1.00  0.00     0.093 C 
ENDBRANCH   6   7
ENDBRANCH   1   5
TORSDOF 4
ENDMDL
