MODEL 1
REMARK VINA RESULT:    -3.313      0.000      0.000
REMARK INTER + INTRA:          -4.693
REMARK INTER:                  -4.282
REMARK INTRA:                  -0.412
REMARK UNBOUND:                -0.412
REMARK SMILES C=CC(=O)CCCCC
REMARK SMILES IDX 6 1 7 2 8 3 9 4 5 5 3 6 4 7 2 8 1 9
REMARK H PARENT
REMARK Flexibility Score: inf
ROOT
ATOM      1  C   UNL     1      -7.399   2.960  52.945  1.00  0.00     0.008 C 
ENDROOT
BRANCH   1   2
ATOM      2  C   UNL     1      -5.990   3.429  53.325  1.00  0.00     0.000 C 
BRANCH   2   3
ATOM      3  C   UNL     1      -5.987   4.109  54.699  1.00  0.00    -0.003 C 
ATOM      4  C   UNL     1      -7.303   4.836  54.957  1.00  0.00     0.004 C 
ENDBRANCH   2   3
ENDBRANCH   1   2
BRANCH   1   5
ATOM      5  C   UNL     1      -7.701   3.260  51.469  1.00  0.00     0.080 C 
BRANCH   5   6
ATOM      6  C   UNL     1      -7.570   4.725  51.124  1.00  0.00     0.155 C 
ATOM      7  O   UNL     1      -6.582   5.132  50.454  1.00  0.00    -0.295 OA
BRANCH   6   8
ATOM      8  C   UNL     1      -8.575   5.720  51.553  1.00  0.00     0.039 C 
ATOM      9  C   UNL     1      -9.796   5.809  51.025  1.00  0.00     0.012 C 
ENDBRANCH   6   8
ENDBRANCH   5   6
ENDBRANCH   1   5
TORSDOF 5
ENDMDL
MODEL 2
REMARK VINA RESULT:    -3.299      9.920     11.492
REMARK INTER + INTRA:          -4.675
REMARK INTER:                  -4.204
REMARK INTRA:                  -0.472
REMARK UNBOUND:                -0.412
REMARK SMILES C=CC(=O)CCCCC
REMARK SMILES IDX 6 1 7 2 8 3 9 4 5 5 3 6 4 7 2 8 1 9
REMARK H PARENT
REMARK Flexibility Score: inf
ROOT
ATOM      1  C   UNL     1       2.452   0.816  53.769  1.00  0.00     0.008 C 
ENDROOT
BRANCH   1   2
ATOM      2  C   UNL     1       2.559   0.844  55.298  1.00  0.00     0.000 C 
BRANCH   2   3
ATOM      3  C   UNL     1       1.263   1.360  55.933  1.00  0.00    -0.003 C 
ATOM      4  C   UNL     1       0.325   0.210  56.285  1.00  0.00     0.004 C 
ENDBRANCH   2   3
ENDBRANCH   1   2
BRANCH   1   5
ATOM      5  C   UNL     1       2.960  -0.518  53.203  1.00  0.00     0.080 C 
BRANCH   5   6
ATOM      6  C   UNL     1       2.054  -1.682  53.531  1.00  0.00     0.155 C 
ATOM      7  O   UNL     1       0.888  -1.731  53.054  1.00  0.00    -0.295 OA
BRANCH   6   8
ATOM      8  C   UNL     1       2.493  -2.787  54.408  1.00  0.00     0.039 C 
ATOM      9  C   UNL     1       3.769  -3.125  54.587  1.00  0.00     0.012 C 
ENDBRANCH   6   8
ENDBRANCH   5   6
ENDBRANCH   1   5
TORSDOF 5
ENDMDL
MODEL 3
REMARK VINA RESULT:    -3.275      9.862     11.430
REMARK INTER + INTRA:          -4.644
REMARK INTER:                  -4.190
REMARK INTRA:                  -0.454
REMARK UNBOUND:                -0.412
REMARK SMILES C=CC(=O)CCCCC
REMARK SMILES IDX 6 1 7 2 8 3 9 4 5 5 3 6 4 7 2 8 1 9
REMARK H PARENT
REMARK Flexibility Score: inf
ROOT
ATOM      1  C   UNL     1       1.585  -1.343  53.335  1.00  0.00     0.008 C 
ENDROOT
BRANCH   1   2
ATOM      2  C   UNL     1       2.083  -2.645  53.974  1.00  0.00     0.000 C 
BRANCH   2   3
ATOM      3  C   UNL     1       3.574  -2.556  54.317  1.00  0.00    -0.003 C 
ATOM      4  C   UNL     1       3.811  -2.768  55.809  1.00  0.00     0.004 C 
ENDBRANCH   2   3
ENDBRANCH   1   2
BRANCH   1   5
ATOM      5  C   UNL     1       2.670  -0.257  53.381  1.00  0.00     0.080 C 
BRANCH   5   6
ATOM      6  C   UNL     1       2.284   0.929  54.235  1.00  0.00     0.155 C 
ATOM      7  O   UNL     1       2.230   2.083  53.729  1.00  0.00    -0.295 OA
BRANCH   6   8
ATOM      8  C   UNL     1       1.963   0.783  55.671  1.00  0.00     0.039 C 
ATOM      9  C   UNL     1       0.755   1.014  56.183  1.00  0.00     0.012 C 
ENDBRANCH   6   8
ENDBRANCH   5   6
ENDBRANCH   1   5
TORSDOF 5
ENDMDL
MODEL 4
REMARK VINA RESULT:    -3.274      1.572      2.555
REMARK INTER + INTRA:          -4.642
REMARK INTER:                  -4.206
REMARK INTRA:                  -0.437
REMARK UNBOUND:                -0.412
REMARK SMILES C=CC(=O)CCCCC
REMARK SMILES IDX 6 1 7 2 8 3 9 4 5 5 3 6 4 7 2 8 1 9
REMARK H PARENT
REMARK Flexibility Score: inf
ROOT
ATOM      1  C   UNL     1      -8.419   4.910  54.179  1.00  0.00     0.008 C 
ENDROOT
BRANCH   1   2
ATOM      2  C   UNL     1      -7.557   5.722  55.153  1.00  0.00     0.000 C 
BRANCH   2   3
ATOM      3  C   UNL     1      -6.281   4.960  55.527  1.00  0.00    -0.003 C 
ATOM      4  C   UNL     1      -5.930   3.918  54.469  1.00  0.00     0.004 C 
ENDBRANCH   2   3
ENDBRANCH   1   2
BRANCH   1   5
ATOM      5  C   UNL     1      -9.255   5.833  53.280  1.00  0.00     0.080 C 
BRANCH   5   6
ATOM      6  C   UNL     1      -8.879   5.734  51.819  1.00  0.00     0.155 C 
ATOM      7  O   UNL     1      -9.725   6.018  50.928  1.00  0.00    -0.295 OA
BRANCH   6   8
ATOM      8  C   UNL     1      -7.532   5.306  51.388  1.00  0.00     0.039 C 
ATOM      9  C   UNL     1      -7.281   4.133  50.809  1.00  0.00     0.012 C 
ENDBRANCH   6   8
ENDBRANCH   5   6
ENDBRANCH   1   5
TORSDOF 5
ENDMDL
MODEL 5
REMARK VINA RESULT:    -3.256      1.656      2.309
REMARK INTER + INTRA:          -4.619
REMARK INTER:                  -4.101
REMARK INTRA:                  -0.518
REMARK UNBOUND:                -0.412
REMARK SMILES C=CC(=O)CCCCC
REMARK SMILES IDX 6 1 7 2 8 3 9 4 5 5 3 6 4 7 2 8 1 9
REMARK H PARENT
REMARK Flexibility Score: inf
ROOT
ATOM      1  C   UNL     1      -7.729   3.878  51.043  1.00  0.00     0.008 C 
ENDROOT
BRANCH   1   2
ATOM      2  C   UNL     1      -7.267   3.060  52.255  1.00  0.00     0.000 C 
BRANCH   2   3
ATOM      3  C   UNL     1      -6.066   3.722  52.941  1.00  0.00    -0.003 C 
ATOM      4  C   UNL     1      -6.209   3.683  54.460  1.00  0.00     0.004 C 
ENDBRANCH   2   3
ENDBRANCH   1   2
BRANCH   1   5
ATOM      5  C   UNL     1      -7.840   5.369  51.394  1.00  0.00     0.080 C 
BRANCH   5   6
ATOM      6  C   UNL     1      -9.267   5.823  51.601  1.00  0.00     0.155 C 
ATOM      7  O   UNL     1     -10.051   5.916  50.618  1.00  0.00    -0.295 OA
BRANCH   6   8
ATOM      8  C   UNL     1      -9.786   6.173  52.940  1.00  0.00     0.039 C 
ATOM      9  C   UNL     1      -9.408   5.560  54.061  1.00  0.00     0.012 C 
ENDBRANCH   6   8
ENDBRANCH   5   6
ENDBRANCH   1   5
TORSDOF 5
ENDMDL
MODEL 6
REMARK VINA RESULT:    -3.252      0.894      1.193
REMARK INTER + INTRA:          -4.614
REMARK INTER:                  -4.096
REMARK INTRA:                  -0.518
REMARK UNBOUND:                -0.412
REMARK SMILES C=CC(=O)CCCCC
REMARK SMILES IDX 6 1 7 2 8 3 9 4 5 5 3 6 4 7 2 8 1 9
REMARK H PARENT
REMARK Flexibility Score: inf
ROOT
ATOM      1  C   UNL     1      -5.931   3.738  53.389  1.00  0.00     0.008 C 
ENDROOT
BRANCH   1   2
ATOM      2  C   UNL     1      -6.508   3.675  54.809  1.00  0.00     0.000 C 
BRANCH   2   3
ATOM      3  C   UNL     1      -6.183   4.953  55.592  1.00  0.00    -0.003 C 
ATOM      4  C   UNL     1      -7.347   5.938  55.547  1.00  0.00     0.004 C 
ENDBRANCH   2   3
ENDBRANCH   1   2
BRANCH   1   5
ATOM      5  C   UNL     1      -7.034   3.553  52.337  1.00  0.00     0.080 C 
BRANCH   5   6
ATOM      6  C   UNL     1      -7.300   4.804  51.533  1.00  0.00     0.155 C 
ATOM      7  O   UNL     1      -6.637   5.036  50.485  1.00  0.00    -0.295 OA
BRANCH   6   8
ATOM      8  C   UNL     1      -8.326   5.788  51.937  1.00  0.00     0.039 C 
ATOM      9  C   UNL     1      -9.480   5.454  52.514  1.00  0.00     0.012 C 
ENDBRANCH   6   8
ENDBRANCH   5   6
ENDBRANCH   1   5
TORSDOF 5
ENDMDL
MODEL 7
REMARK VINA RESULT:    -3.233      1.969      3.910
REMARK INTER + INTRA:          -4.589
REMARK INTER:                  -4.180
REMARK INTRA:                  -0.410
REMARK UNBOUND:                -0.412
REMARK SMILES C=CC(=O)CCCCC
REMARK SMILES IDX 6 1 7 2 8 3 9 4 5 5 3 6 4 7 2 8 1 9
REMARK H PARENT
REMARK Flexibility Score: inf
ROOT
ATOM      1  C   UNL     1      -7.156   3.115  52.547  1.00  0.00     0.008 C 
ENDROOT
BRANCH   1   2
ATOM      2  C   UNL     1      -7.434   3.817  51.213  1.00  0.00     0.000 C 
BRANCH   2   3
ATOM      3  C   UNL     1      -7.581   5.331  51.407  1.00  0.00    -0.003 C 
ATOM      4  C   UNL     1      -9.050   5.745  51.424  1.00  0.00     0.004 C 
ENDBRANCH   2   3
ENDBRANCH   1   2
BRANCH   1   5
ATOM      5  C   UNL     1      -5.887   3.671  53.210  1.00  0.00     0.080 C 
BRANCH   5   6
ATOM      6  C   UNL     1      -5.942   3.632  54.720  1.00  0.00     0.155 C 
ATOM      7  O   UNL     1      -5.653   2.570  55.336  1.00  0.00    -0.295 OA
BRANCH   6   8
ATOM      8  C   UNL     1      -6.333   4.814  55.516  1.00  0.00     0.039 C 
ATOM      9  C   UNL     1      -7.326   5.635  55.177  1.00  0.00     0.012 C 
ENDBRANCH   6   8
ENDBRANCH   5   6
ENDBRANCH   1   5
TORSDOF 5
ENDMDL
MODEL 8
REMARK VINA RESULT:    -3.174      1.903      2.240
REMARK INTER + INTRA:          -4.514
REMARK INTER:                  -3.947
REMARK INTRA:                  -0.568
REMARK UNBOUND:                -0.412
REMARK SMILES C=CC(=O)CCCCC
REMARK SMILES IDX 6 1 7 2 8 3 9 4 5 5 3 6 4 7 2 8 1 9
REMARK H PARENT
REMARK Flexibility Score: inf
ROOT
ATOM      1  C   UNL     1      -6.575   2.712  54.309  1.00  0.00     0.008 C 
ENDROOT
BRANCH   1   2
ATOM      2  C   UNL     1      -5.828   4.037  54.500  1.00  0.00     0.000 C 
BRANCH   2   3
ATOM      3  C   UNL     1      -6.624   4.995  55.394  1.00  0.00    -0.003 C 
ATOM      4  C   UNL     1      -7.779   5.633  54.628  1.00  0.00     0.004 C 
ENDBRANCH   2   3
ENDBRANCH   1   2
BRANCH   1   5
ATOM      5  C   UNL     1      -6.610   2.307  52.828  1.00  0.00     0.080 C 
BRANCH   5   6
ATOM      6  C   UNL     1      -7.798   2.875  52.087  1.00  0.00     0.155 C 
ATOM      7  O   UNL     1      -8.969   2.574  52.443  1.00  0.00    -0.295 OA
BRANCH   6   8
ATOM      8  C   UNL     1      -7.634   3.787  50.936  1.00  0.00     0.039 C 
ATOM      9  C   UNL     1      -6.990   4.952  51.003  1.00  0.00     0.012 C 
ENDBRANCH   6   8
ENDBRANCH   5   6
ENDBRANCH   1   5
TORSDOF 5
ENDMDL
MODEL 9
REMARK VINA RESULT:    -3.155      1.604      3.931
REMARK INTER + INTRA:          -4.489
REMARK INTER:                  -4.057
REMARK INTRA:                  -0.432
REMARK UNBOUND:                -0.412
REMARK SMILES C=CC(=O)CCCCC
REMARK SMILES IDX 6 1 7 2 8 3 9 4 5 5 3 6 4 7 2 8 1 9
REMARK H PARENT
REMARK Flexibility Score: inf
ROOT
ATOM      1  C   UNL     1      -7.238   4.742  50.907  1.00  0.00     0.008 C 
ENDROOT
BRANCH   1   2
ATOM      2  C   UNL     1      -8.110   5.769  51.637  1.00  0.00     0.000 C 
BRANCH   2   3
ATOM      3  C   UNL     1      -9.522   5.817  51.041  1.00  0.00    -0.003 C 
ATOM      4  C   UNL     1     -10.584   5.822  52.137  1.00  0.00     0.004 C 
ENDBRANCH   2   3
ENDBRANCH   1   2
BRANCH   1   5
ATOM      5  C   UNL     1      -7.695   3.309  51.217  1.00  0.00     0.080 C 
BRANCH   5   6
ATOM      6  C   UNL     1      -7.554   2.946  52.677  1.00  0.00     0.155 C 
ATOM      7  O   UNL     1      -8.571   2.625  53.351  1.00  0.00    -0.295 OA
BRANCH   6   8
ATOM      8  C   UNL     1      -6.243   2.954  53.359  1.00  0.00     0.039 C 
ATOM      9  C   UNL     1      -5.911   3.830  54.306  1.00  0.00     0.012 C 
ENDBRANCH   6   8
ENDBRANCH   5   6
ENDBRANCH   1   5
TORSDOF 5
ENDMDL
