MODEL 1
REMARK VINA RESULT:    -4.635      0.000      0.000
REMARK INTER + INTRA:          -6.194
REMARK INTER:                  -5.990
REMARK INTRA:                  -0.204
REMARK UNBOUND:                -0.204
REMARK SMILES C=CC(=O)CCCCC
REMARK SMILES IDX 6 1 7 2 8 3 9 4 5 5 3 6 4 7 2 8 1 9
REMARK H PARENT
REMARK Flexibility Score: inf
ROOT
ATOM      1  C   UNL     1     -25.145  19.935 -33.590  1.00  0.00     0.008 C 
ENDROOT
BRANCH   1   2
ATOM      2  C   UNL     1     -23.837  20.671 -33.900  1.00  0.00     0.000 C 
BRANCH   2   3
ATOM      3  C   UNL     1     -23.254  21.314 -32.635  1.00  0.00    -0.003 C 
ATOM      4  C   UNL     1     -22.615  20.266 -31.729  1.00  0.00     0.004 C 
ENDBRANCH   2   3
ENDBRANCH   1   2
BRANCH   1   5
ATOM      5  C   UNL     1     -26.299  20.487 -34.434  1.00  0.00     0.080 C 
BRANCH   5   6
ATOM      6  C   UNL     1     -27.618  20.159 -33.800  1.00  0.00     0.155 C 
ATOM      7  O   UNL     1     -28.016  18.962 -33.784  1.00  0.00    -0.295 OA
BRANCH   6   8
ATOM      8  C   UNL     1     -28.417  21.224 -33.164  1.00  0.00     0.039 C 
ATOM      9  C   UNL     1     -27.997  22.486 -33.090  1.00  0.00     0.012 C 
ENDBRANCH   6   8
ENDBRANCH   5   6
ENDBRANCH   1   5
TORSDOF 5
ENDMDL
MODEL 2
REMARK VINA RESULT:    -4.551      1.797      4.337
REMARK INTER + INTRA:          -6.085
REMARK INTER:                  -5.845
REMARK INTRA:                  -0.240
REMARK UNBOUND:                -0.204
REMARK SMILES C=CC(=O)CCCCC
REMARK SMILES IDX 6 1 7 2 8 3 9 4 5 5 3 6 4 7 2 8 1 9
REMARK H PARENT
REMARK Flexibility Score: inf
ROOT
ATOM      1  C   UNL     1     -26.019  19.850 -33.473  1.00  0.00     0.008 C 
ENDROOT
BRANCH   1   2
ATOM      2  C   UNL     1     -26.889  20.849 -34.244  1.00  0.00     0.000 C 
BRANCH   2   3
ATOM      3  C   UNL     1     -28.124  21.250 -33.426  1.00  0.00    -0.003 C 
ATOM      4  C   UNL     1     -28.065  22.720 -33.023  1.00  0.00     0.004 C 
ENDBRANCH   2   3
ENDBRANCH   1   2
BRANCH   1   5
ATOM      5  C   UNL     1     -24.553  19.952 -33.903  1.00  0.00     0.080 C 
BRANCH   5   6
ATOM      6  C   UNL     1     -23.644  19.729 -32.731  1.00  0.00     0.155 C 
ATOM      7  O   UNL     1     -23.413  18.551 -32.343  1.00  0.00    -0.295 OA
BRANCH   6   8
ATOM      8  C   UNL     1     -22.994  20.877 -32.070  1.00  0.00     0.039 C 
ATOM      9  C   UNL     1     -23.334  22.139 -32.331  1.00  0.00     0.012 C 
ENDBRANCH   6   8
ENDBRANCH   5   6
ENDBRANCH   1   5
TORSDOF 5
ENDMDL
MODEL 3
REMARK VINA RESULT:    -4.451      1.777      4.692
REMARK INTER + INTRA:          -5.956
REMARK INTER:                  -5.796
REMARK INTRA:                  -0.159
REMARK UNBOUND:                -0.204
REMARK SMILES C=CC(=O)CCCCC
REMARK SMILES IDX 6 1 7 2 8 3 9 4 5 5 3 6 4 7 2 8 1 9
REMARK H PARENT
REMARK Flexibility Score: inf
ROOT
ATOM      1  C   UNL     1     -27.110  20.849 -34.409  1.00  0.00     0.008 C 
ENDROOT
BRANCH   1   2
ATOM      2  C   UNL     1     -28.458  20.996 -33.694  1.00  0.00     0.000 C 
BRANCH   2   3
ATOM      3  C   UNL     1     -28.790  19.737 -32.882  1.00  0.00    -0.003 C 
ATOM      4  C   UNL     1     -30.106  19.117 -33.340  1.00  0.00     0.004 C 
ENDBRANCH   2   3
ENDBRANCH   1   2
BRANCH   1   5
ATOM      5  C   UNL     1     -26.114  20.066 -33.548  1.00  0.00     0.080 C 
BRANCH   5   6
ATOM      6  C   UNL     1     -24.729  20.174 -34.115  1.00  0.00     0.155 C 
ATOM      7  O   UNL     1     -24.475  19.648 -35.233  1.00  0.00    -0.295 OA
BRANCH   6   8
ATOM      8  C   UNL     1     -23.690  20.929 -33.388  1.00  0.00     0.039 C 
ATOM      9  C   UNL     1     -22.888  20.358 -32.491  1.00  0.00     0.012 C 
ENDBRANCH   6   8
ENDBRANCH   5   6
ENDBRANCH   1   5
TORSDOF 5
ENDMDL
MODEL 4
REMARK VINA RESULT:    -4.040      8.324      9.466
REMARK INTER + INTRA:          -5.425
REMARK INTER:                  -4.991
REMARK INTRA:                  -0.434
REMARK UNBOUND:                -0.204
REMARK SMILES C=CC(=O)CCCCC
REMARK SMILES IDX 6 1 7 2 8 3 9 4 5 5 3 6 4 7 2 8 1 9
REMARK H PARENT
REMARK Flexibility Score: inf
ROOT
ATOM      1  C   UNL     1     -27.603  11.130 -30.467  1.00  0.00     0.008 C 
ENDROOT
BRANCH   1   2
ATOM      2  C   UNL     1     -29.107  11.248 -30.743  1.00  0.00     0.000 C 
BRANCH   2   3
ATOM      3  C   UNL     1     -29.764  12.249 -29.784  1.00  0.00    -0.003 C 
ATOM      4  C   UNL     1     -28.963  12.384 -28.493  1.00  0.00     0.004 C 
ENDBRANCH   2   3
ENDBRANCH   1   2
BRANCH   1   5
ATOM      5  C   UNL     1     -26.792  11.318 -31.754  1.00  0.00     0.080 C 
BRANCH   5   6
ATOM      6  C   UNL     1     -26.381  12.751 -31.913  1.00  0.00     0.155 C 
ATOM      7  O   UNL     1     -26.134  13.200 -33.065  1.00  0.00    -0.295 OA
BRANCH   6   8
ATOM      8  C   UNL     1     -26.310  13.634 -30.732  1.00  0.00     0.039 C 
ATOM      9  C   UNL     1     -25.173  14.198 -30.328  1.00  0.00     0.012 C 
ENDBRANCH   6   8
ENDBRANCH   5   6
ENDBRANCH   1   5
TORSDOF 5
ENDMDL
MODEL 5
REMARK VINA RESULT:    -4.009      8.734      9.918
REMARK INTER + INTRA:          -5.385
REMARK INTER:                  -4.903
REMARK INTRA:                  -0.482
REMARK UNBOUND:                -0.204
REMARK SMILES C=CC(=O)CCCCC
REMARK SMILES IDX 6 1 7 2 8 3 9 4 5 5 3 6 4 7 2 8 1 9
REMARK H PARENT
REMARK Flexibility Score: inf
ROOT
ATOM      1  C   UNL     1     -26.764  11.972 -28.727  1.00  0.00     0.008 C 
ENDROOT
BRANCH   1   2
ATOM      2  C   UNL     1     -28.006  12.749 -28.275  1.00  0.00     0.000 C 
BRANCH   2   3
ATOM      3  C   UNL     1     -29.291  11.993 -28.638  1.00  0.00    -0.003 C 
ATOM      4  C   UNL     1     -29.767  12.356 -30.041  1.00  0.00     0.004 C 
ENDBRANCH   2   3
ENDBRANCH   1   2
BRANCH   1   5
ATOM      5  C   UNL     1     -25.915  12.805 -29.692  1.00  0.00     0.080 C 
BRANCH   5   6
ATOM      6  C   UNL     1     -26.311  12.531 -31.112  1.00  0.00     0.155 C 
ATOM      7  O   UNL     1     -26.314  13.477 -31.947  1.00  0.00    -0.295 OA
BRANCH   6   8
ATOM      8  C   UNL     1     -26.649  11.158 -31.533  1.00  0.00     0.039 C 
ATOM      9  C   UNL     1     -27.105  10.875 -32.752  1.00  0.00     0.012 C 
ENDBRANCH   6   8
ENDBRANCH   5   6
ENDBRANCH   1   5
TORSDOF 5
ENDMDL
MODEL 6
REMARK VINA RESULT:    -3.958      8.900      9.512
REMARK INTER + INTRA:          -5.319
REMARK INTER:                  -4.842
REMARK INTRA:                  -0.476
REMARK UNBOUND:                -0.204
REMARK SMILES C=CC(=O)CCCCC
REMARK SMILES IDX 6 1 7 2 8 3 9 4 5 5 3 6 4 7 2 8 1 9
REMARK H PARENT
REMARK Flexibility Score: inf
ROOT
ATOM      1  C   UNL     1     -25.898  11.941 -30.382  1.00  0.00     0.008 C 
ENDROOT
BRANCH   1   2
ATOM      2  C   UNL     1     -24.697  12.588 -29.684  1.00  0.00     0.000 C 
BRANCH   2   3
ATOM      3  C   UNL     1     -24.605  14.082 -30.017  1.00  0.00    -0.003 C 
ATOM      4  C   UNL     1     -25.979  14.658 -30.347  1.00  0.00     0.004 C 
ENDBRANCH   2   3
ENDBRANCH   1   2
BRANCH   1   5
ATOM      5  C   UNL     1     -26.544  10.875 -29.491  1.00  0.00     0.080 C 
BRANCH   5   6
ATOM      6  C   UNL     1     -27.156  11.505 -28.276  1.00  0.00     0.155 C 
ATOM      7  O   UNL     1     -26.735  11.180 -27.132  1.00  0.00    -0.295 OA
BRANCH   6   8
ATOM      8  C   UNL     1     -28.209  12.529 -28.425  1.00  0.00     0.039 C 
ATOM      9  C   UNL     1     -29.383  12.269 -28.998  1.00  0.00     0.012 C 
ENDBRANCH   6   8
ENDBRANCH   5   6
ENDBRANCH   1   5
TORSDOF 5
ENDMDL
MODEL 7
REMARK VINA RESULT:    -3.906      8.292      9.291
REMARK INTER + INTRA:          -5.251
REMARK INTER:                  -4.872
REMARK INTRA:                  -0.379
REMARK UNBOUND:                -0.204
REMARK SMILES C=CC(=O)CCCCC
REMARK SMILES IDX 6 1 7 2 8 3 9 4 5 5 3 6 4 7 2 8 1 9
REMARK H PARENT
REMARK Flexibility Score: inf
ROOT
ATOM      1  C   UNL     1     -25.965  11.714 -29.282  1.00  0.00     0.008 C 
ENDROOT
BRANCH   1   2
ATOM      2  C   UNL     1     -27.166  11.227 -28.462  1.00  0.00     0.000 C 
BRANCH   2   3
ATOM      3  C   UNL     1     -28.132  12.381 -28.164  1.00  0.00    -0.003 C 
ATOM      4  C   UNL     1     -29.396  12.275 -29.011  1.00  0.00     0.004 C 
ENDBRANCH   2   3
ENDBRANCH   1   2
BRANCH   1   5
ATOM      5  C   UNL     1     -26.273  11.679 -30.782  1.00  0.00     0.080 C 
BRANCH   5   6
ATOM      6  C   UNL     1     -26.188  13.057 -31.369  1.00  0.00     0.155 C 
ATOM      7  O   UNL     1     -26.239  13.200 -32.622  1.00  0.00    -0.295 OA
BRANCH   6   8
ATOM      8  C   UNL     1     -26.089  14.233 -30.483  1.00  0.00     0.039 C 
ATOM      9  C   UNL     1     -25.032  15.043 -30.485  1.00  0.00     0.012 C 
ENDBRANCH   6   8
ENDBRANCH   5   6
ENDBRANCH   1   5
TORSDOF 5
ENDMDL
MODEL 8
REMARK VINA RESULT:    -3.792     13.038     13.846
REMARK INTER + INTRA:          -5.105
REMARK INTER:                  -4.593
REMARK INTRA:                  -0.512
REMARK UNBOUND:                -0.204
REMARK SMILES C=CC(=O)CCCCC
REMARK SMILES IDX 6 1 7 2 8 3 9 4 5 5 3 6 4 7 2 8 1 9
REMARK H PARENT
REMARK Flexibility Score: inf
ROOT
ATOM      1  C   UNL     1     -13.813  16.234 -32.000  1.00  0.00     0.008 C 
ENDROOT
BRANCH   1   2
ATOM      2  C   UNL     1     -13.374  16.203 -30.531  1.00  0.00     0.000 C 
BRANCH   2   3
ATOM      3  C   UNL     1     -12.079  15.397 -30.361  1.00  0.00    -0.003 C 
ATOM      4  C   UNL     1     -11.949  14.857 -28.941  1.00  0.00     0.004 C 
ENDBRANCH   2   3
ENDBRANCH   1   2
BRANCH   1   5
ATOM      5  C   UNL     1     -13.338  14.981 -32.742  1.00  0.00     0.080 C 
BRANCH   5   6
ATOM      6  C   UNL     1     -14.500  14.090 -33.068  1.00  0.00     0.155 C 
ATOM      7  O   UNL     1     -14.783  13.860 -34.275  1.00  0.00    -0.295 OA
BRANCH   6   8
ATOM      8  C   UNL     1     -15.273  13.457 -31.982  1.00  0.00     0.039 C 
ATOM      9  C   UNL     1     -14.722  12.615 -31.109  1.00  0.00     0.012 C 
ENDBRANCH   6   8
ENDBRANCH   5   6
ENDBRANCH   1   5
TORSDOF 5
ENDMDL
MODEL 9
REMARK VINA RESULT:    -3.754      6.875      8.513
REMARK INTER + INTRA:          -5.055
REMARK INTER:                  -4.956
REMARK INTRA:                  -0.099
REMARK UNBOUND:                -0.204
REMARK SMILES C=CC(=O)CCCCC
REMARK SMILES IDX 6 1 7 2 8 3 9 4 5 5 3 6 4 7 2 8 1 9
REMARK H PARENT
REMARK Flexibility Score: inf
ROOT
ATOM      1  C   UNL     1     -26.249  14.318 -30.043  1.00  0.00     0.008 C 
ENDROOT
BRANCH   1   2
ATOM      2  C   UNL     1     -26.983  12.971 -30.049  1.00  0.00     0.000 C 
BRANCH   2   3
ATOM      3  C   UNL     1     -27.905  12.843 -28.829  1.00  0.00    -0.003 C 
ATOM      4  C   UNL     1     -29.250  12.236 -29.217  1.00  0.00     0.004 C 
ENDBRANCH   2   3
ENDBRANCH   1   2
BRANCH   1   5
ATOM      5  C   UNL     1     -24.749  14.127 -30.284  1.00  0.00     0.080 C 
BRANCH   5   6
ATOM      6  C   UNL     1     -24.150  15.363 -30.886  1.00  0.00     0.155 C 
ATOM      7  O   UNL     1     -24.833  16.423 -30.928  1.00  0.00    -0.295 OA
BRANCH   6   8
ATOM      8  C   UNL     1     -22.761  15.345 -31.383  1.00  0.00     0.039 C 
ATOM      9  C   UNL     1     -21.737  14.946 -30.630  1.00  0.00     0.012 C 
ENDBRANCH   6   8
ENDBRANCH   5   6
ENDBRANCH   1   5
TORSDOF 5
ENDMDL
