MODEL 1
REMARK VINA RESULT:    -3.992      0.000      0.000
REMARK INTER + INTRA:          -4.437
REMARK INTER:                  -4.225
REMARK INTRA:                  -0.212
REMARK UNBOUND:                -0.212
REMARK SMILES CC1=CC[C@@H]2[C@H]3[C@H](C(C)C)CC[C@]2(C)[C@@H]13
REMARK SMILES IDX 1 1 2 2 3 3 4 4 5 5 6 6 15 7 13 8 12 9 11 10 7 11 14 12 8 13
REMARK SMILES IDX 9 14 10 15
REMARK H PARENT
REMARK Flexibility Score: inf
ROOT
ATOM      1  C   UNL     1       8.412   8.566  14.999  1.00  0.00     0.039 C 
ATOM      2  C   UNL     1       7.820   7.935  13.775  1.00  0.00    -0.073 C 
ATOM      3  C   UNL     1       8.607   7.490  12.761  1.00  0.00    -0.027 C 
ATOM      4  C   UNL     1       7.946   6.838  11.543  1.00  0.00     0.031 C 
ATOM      5  C   UNL     1       6.389   6.844  11.699  1.00  0.00     0.003 C 
ATOM      6  C   UNL     1       5.974   8.260  12.162  1.00  0.00     0.004 C 
ATOM      7  C   UNL     1       6.307   7.784  13.600  1.00  0.00     0.024 C 
ATOM      8  C   UNL     1       5.958   6.359  13.105  1.00  0.00    -0.022 C 
ATOM      9  C   UNL     1       4.414   6.139  13.114  1.00  0.00     0.008 C 
ATOM     10  C   UNL     1       3.624   7.440  12.808  1.00  0.00     0.005 C 
ATOM     11  C   UNL     1       4.444   8.449  11.944  1.00  0.00    -0.005 C 
ATOM     12  C   UNL     1       6.692   5.150  13.732  1.00  0.00     0.012 C 
ENDROOT
BRANCH  11  13
ATOM     13  C   UNL     1       4.003   9.936  12.103  1.00  0.00    -0.014 C 
ATOM     14  C   UNL     1       2.512  10.121  12.432  1.00  0.00     0.007 C 
ATOM     15  C   UNL     1       4.387  10.774  10.875  1.00  0.00     0.007 C 
ENDBRANCH  11  13
TORSDOF 1
ENDMDL
MODEL 2
REMARK VINA RESULT:    -2.818      2.120      6.153
REMARK INTER + INTRA:          -3.194
REMARK INTER:                  -2.891
REMARK INTRA:                  -0.303
REMARK UNBOUND:                -0.212
REMARK SMILES CC1=CC[C@@H]2[C@H]3[C@H](C(C)C)CC[C@]2(C)[C@@H]13
REMARK SMILES IDX 1 1 2 2 3 3 4 4 5 5 6 6 15 7 13 8 12 9 11 10 7 11 14 12 8 13
REMARK SMILES IDX 9 14 10 15
REMARK H PARENT
REMARK Flexibility Score: inf
ROOT
ATOM      1  C   UNL     1       1.748  11.866  15.313  1.00  0.00     0.039 C 
ATOM      2  C   UNL     1       1.619  11.630  13.839  1.00  0.00    -0.073 C 
ATOM      3  C   UNL     1       0.410  11.668  13.222  1.00  0.00    -0.027 C 
ATOM      4  C   UNL     1       0.342  11.437  11.709  1.00  0.00     0.031 C 
ATOM      5  C   UNL     1       1.770  11.150  11.137  1.00  0.00     0.003 C 
ATOM      6  C   UNL     1       2.443  10.113  12.068  1.00  0.00     0.004 C 
ATOM      7  C   UNL     1       2.836  11.315  12.965  1.00  0.00     0.024 C 
ATOM      8  C   UNL     1       2.810  12.165  11.671  1.00  0.00    -0.022 C 
ATOM      9  C   UNL     1       4.141  11.994  10.875  1.00  0.00     0.008 C 
ATOM     10  C   UNL     1       4.752  10.576  11.035  1.00  0.00     0.005 C 
ATOM     11  C   UNL     1       3.674   9.490  11.345  1.00  0.00    -0.005 C 
ATOM     12  C   UNL     1       2.411  13.657  11.766  1.00  0.00     0.012 C 
ENDROOT
BRANCH  11  13
ATOM     13  C   UNL     1       4.223   8.235  12.089  1.00  0.00    -0.014 C 
ATOM     14  C   UNL     1       3.620   8.016  13.487  1.00  0.00     0.007 C 
ATOM     15  C   UNL     1       5.757   8.249  12.166  1.00  0.00     0.007 C 
ENDBRANCH  11  13
TORSDOF 1
ENDMDL
MODEL 3
REMARK VINA RESULT:    -2.384      3.921      6.361
REMARK INTER + INTRA:          -2.736
REMARK INTER:                  -2.489
REMARK INTRA:                  -0.246
REMARK UNBOUND:                -0.212
REMARK SMILES CC1=CC[C@@H]2[C@H]3[C@H](C(C)C)CC[C@]2(C)[C@@H]13
REMARK SMILES IDX 1 1 2 2 3 3 4 4 5 5 6 6 15 7 13 8 12 9 11 10 7 11 14 12 8 13
REMARK SMILES IDX 9 14 10 15
REMARK H PARENT
REMARK Flexibility Score: inf
ROOT
ATOM      1  C   UNL     1       4.385   9.795  10.904  1.00  0.00     0.039 C 
ATOM      2  C   UNL     1       3.239  10.628  11.396  1.00  0.00    -0.073 C 
ATOM      3  C   UNL     1       1.992  10.488  10.877  1.00  0.00    -0.027 C 
ATOM      4  C   UNL     1       0.857  11.353  11.432  1.00  0.00     0.031 C 
ATOM      5  C   UNL     1       1.399  12.319  12.537  1.00  0.00     0.003 C 
ATOM      6  C   UNL     1       2.695  12.965  11.995  1.00  0.00     0.004 C 
ATOM      7  C   UNL     1       3.424  11.687  12.486  1.00  0.00     0.024 C 
ATOM      8  C   UNL     1       2.304  11.574  13.549  1.00  0.00    -0.022 C 
ATOM      9  C   UNL     1       2.597  12.515  14.757  1.00  0.00     0.008 C 
ATOM     10  C   UNL     1       3.340  13.811  14.336  1.00  0.00     0.005 C 
ATOM     11  C   UNL     1       3.052  14.213  12.855  1.00  0.00    -0.005 C 
ATOM     12  C   UNL     1       1.875  10.168  14.034  1.00  0.00     0.012 C 
ENDROOT
BRANCH  11  13
ATOM     13  C   UNL     1       4.165  15.085  12.199  1.00  0.00    -0.014 C 
ATOM     14  C   UNL     1       3.774  16.558  11.994  1.00  0.00     0.007 C 
ATOM     15  C   UNL     1       4.656  14.474  10.878  1.00  0.00     0.007 C 
ENDBRANCH  11  13
TORSDOF 1
ENDMDL
MODEL 4
REMARK VINA RESULT:    -2.055      2.480      6.190
REMARK INTER + INTRA:          -2.387
REMARK INTER:                  -2.150
REMARK INTRA:                  -0.237
REMARK UNBOUND:                -0.212
REMARK SMILES CC1=CC[C@@H]2[C@H]3[C@H](C(C)C)CC[C@]2(C)[C@@H]13
REMARK SMILES IDX 1 1 2 2 3 3 4 4 5 5 6 6 15 7 13 8 12 9 11 10 7 11 14 12 8 13
REMARK SMILES IDX 9 14 10 15
REMARK H PARENT
REMARK Flexibility Score: inf
ROOT
ATOM      1  C   UNL     1       4.689  14.636  10.875  1.00  0.00     0.039 C 
ATOM      2  C   UNL     1       3.922  13.713  11.773  1.00  0.00    -0.073 C 
ATOM      3  C   UNL     1       3.649  14.048  13.061  1.00  0.00    -0.027 C 
ATOM      4  C   UNL     1       2.845  13.072  13.925  1.00  0.00     0.031 C 
ATOM      5  C   UNL     1       2.503  11.779  13.114  1.00  0.00     0.003 C 
ATOM      6  C   UNL     1       3.797  11.324  12.399  1.00  0.00     0.004 C 
ATOM      7  C   UNL     1       3.431  12.345  11.291  1.00  0.00     0.024 C 
ATOM      8  C   UNL     1       1.957  12.120  11.706  1.00  0.00    -0.022 C 
ATOM      9  C   UNL     1       1.395  10.820  11.051  1.00  0.00     0.008 C 
ATOM     10  C   UNL     1       2.480   9.725  10.875  1.00  0.00     0.005 C 
ATOM     11  C   UNL     1       3.634   9.851  11.919  1.00  0.00    -0.005 C 
ATOM     12  C   UNL     1       0.954  13.290  11.562  1.00  0.00     0.012 C 
ENDROOT
BRANCH  11  13
ATOM     13  C   UNL     1       4.986   9.225  11.461  1.00  0.00    -0.014 C 
ATOM     14  C   UNL     1       4.864   7.798  10.902  1.00  0.00     0.007 C 
ATOM     15  C   UNL     1       6.039   9.272  12.578  1.00  0.00     0.007 C 
ENDBRANCH  11  13
TORSDOF 1
ENDMDL
MODEL 5
REMARK VINA RESULT:    -1.662      5.131      7.565
REMARK INTER + INTRA:          -1.971
REMARK INTER:                  -1.759
REMARK INTRA:                  -0.212
REMARK UNBOUND:                -0.212
REMARK SMILES CC1=CC[C@@H]2[C@H]3[C@H](C(C)C)CC[C@]2(C)[C@@H]13
REMARK SMILES IDX 1 1 2 2 3 3 4 4 5 5 6 6 15 7 13 8 12 9 11 10 7 11 14 12 8 13
REMARK SMILES IDX 9 14 10 15
REMARK H PARENT
REMARK Flexibility Score: inf
ROOT
ATOM      1  C   UNL     1       3.612  13.124  15.116  1.00  0.00     0.039 C 
ATOM      2  C   UNL     1       3.602  13.073  13.618  1.00  0.00    -0.073 C 
ATOM      3  C   UNL     1       4.234  12.080  12.943  1.00  0.00    -0.027 C 
ATOM      4  C   UNL     1       4.174  12.070  11.412  1.00  0.00     0.031 C 
ATOM      5  C   UNL     1       3.372  13.307  10.890  1.00  0.00     0.003 C 
ATOM      6  C   UNL     1       3.886  14.550  11.655  1.00  0.00     0.004 C 
ATOM      7  C   UNL     1       2.900  14.146  12.782  1.00  0.00     0.024 C 
ATOM      8  C   UNL     1       2.046  13.493  11.667  1.00  0.00    -0.022 C 
ATOM      9  C   UNL     1       1.178  14.567  10.941  1.00  0.00     0.008 C 
ATOM     10  C   UNL     1       1.876  15.951  10.875  1.00  0.00     0.005 C 
ATOM     11  C   UNL     1       3.433  15.841  10.910  1.00  0.00    -0.005 C 
ATOM     12  C   UNL     1       1.204  12.241  12.009  1.00  0.00     0.012 C 
ENDROOT
BRANCH  11  13
ATOM     13  C   UNL     1       4.155  17.115  11.444  1.00  0.00    -0.014 C 
ATOM     14  C   UNL     1       3.375  18.421  11.224  1.00  0.00     0.007 C 
ATOM     15  C   UNL     1       5.576  17.240  10.875  1.00  0.00     0.007 C 
ENDBRANCH  11  13
TORSDOF 1
ENDMDL
