MODEL 1
REMARK VINA RESULT:    47.136      0.000      0.000
REMARK INTER + INTRA:          51.509
REMARK INTER:                  51.270
REMARK INTRA:                   0.239
REMARK UNBOUND:                 0.239
REMARK SMILES C[C@@H]1[C@H](C)CC[C@]2(C(=O)[O-])CC[C@@]3(C)C(=CC[C@H]4[C@]5(C)CC[C@H](O)C(C)(C)[C@H]5CC[C@]43C)[C@@H]12
REMARK SMILES IDX 7 1 6 2 11 3 33 4 5 5 12 6 15 7 2 8 3 9 13 10 16 11 1 12
REMARK SMILES IDX 4 13 14 14 31 15 17 16 18 17 30 18 32 19 19 20 29 21 28 22
REMARK SMILES IDX 21 23 20 24 25 25 22 26 23 27 26 28 27 29 8 30 9 31 10 32
REMARK SMILES IDX 24 33
REMARK H PARENT 24 34
REMARK Flexibility Score: inf
ROOT
ATOM      1  C   UNL     1      15.771  39.728 -12.940  1.00  0.00     0.017 C 
ATOM      2  C   UNL     1      16.843  40.723 -13.454  1.00  0.00     0.014 C 
ATOM      3  C   UNL     1      14.786  39.385 -14.125  1.00  0.00     0.014 C 
ATOM      4  C   UNL     1      14.933  40.361 -11.770  1.00  0.00     0.030 C 
ATOM      5  C   UNL     1      17.715  41.274 -12.325  1.00  0.00     0.004 C 
ATOM      6  C   UNL     1      13.287  39.260 -13.725  1.00  0.00     0.013 C 
ATOM      7  C   UNL     1      13.943  39.280 -11.290  1.00  0.00    -0.063 C 
ATOM      8  C   UNL     1      15.772  41.110 -10.673  1.00  0.00    -0.003 C 
ATOM      9  C   UNL     1      16.869  42.036 -11.293  1.00  0.00    -0.011 C 
ATOM     10  C   UNL     1      13.057  38.582 -12.332  1.00  0.00    -0.006 C 
ATOM     11  C   UNL     1      13.861  38.848 -10.019  1.00  0.00    -0.027 C 
ATOM     12  C   UNL     1      14.872  41.942  -9.723  1.00  0.00     0.008 C 
ATOM     13  C   UNL     1      16.323  43.357 -11.888  1.00  0.00     0.008 C 
ATOM     14  C   UNL     1      13.521  37.084 -12.476  1.00  0.00     0.017 C 
ATOM     15  C   UNL     1      11.534  38.673 -11.823  1.00  0.00    -0.020 C 
ATOM     16  C   UNL     1      12.813  37.857  -9.618  1.00  0.00     0.032 C 
ATOM     17  C   UNL     1      11.431  38.129 -10.304  1.00  0.00     0.006 C 
ATOM     18  C   UNL     1      11.025  40.157 -11.888  1.00  0.00     0.008 C 
ATOM     19  C   UNL     1      10.606  37.837 -12.790  1.00  0.00     0.012 C 
ATOM     20  C   UNL     1      10.430  38.919  -9.339  1.00  0.00    -0.025 C 
ATOM     21  C   UNL     1       9.636  40.420 -11.270  1.00  0.00     0.005 C 
ATOM     22  C   UNL     1       9.199  39.400 -10.190  1.00  0.00     0.003 C 
ATOM     23  C   UNL     1       9.933  37.925  -8.239  1.00  0.00     0.010 C 
ATOM     24  C   UNL     1      11.161  40.118  -8.652  1.00  0.00     0.012 C 
ATOM     25  C   UNL     1       7.861  39.795  -9.420  1.00  0.00    -0.006 C 
ATOM     26  C   UNL     1       8.759  38.460  -7.426  1.00  0.00     0.033 C 
ATOM     27  C   UNL     1       7.544  38.732  -8.323  1.00  0.00     0.120 C 
ATOM     28  C   UNL     1       6.684  39.811 -10.432  1.00  0.00     0.014 C 
ATOM     29  C   UNL     1       7.864  41.204  -8.758  1.00  0.00     0.014 C 
ENDROOT
BRANCH   1  30
ATOM     30  C   UNL     1      16.512  38.461 -12.504  1.00  0.00     0.048 C 
ATOM     31  O   UNL     1      16.878  38.301 -11.308  1.00  0.00    -0.550 OA
ATOM     32  O   UNL     1      16.880  37.506 -13.448  1.00  0.00    -0.550 OA
ENDBRANCH   1  30
BRANCH  27  33
ATOM     33  O   UNL     1       7.118  37.530  -8.915  1.00  0.00    -0.393 OA
ATOM     34  H   UNL     1       7.359  36.793  -8.301  1.00  0.00     0.210 HD
ENDBRANCH  27  33
TORSDOF 2
ENDMDL
