MODEL 1
REMARK VINA RESULT:     3.636      0.000      0.000
REMARK INTER + INTRA:           4.812
REMARK INTER:                   5.123
REMARK INTRA:                  -0.312
REMARK UNBOUND:                -0.312
REMARK SMILES CCCCCCCCC(=O)[O-]
REMARK SMILES IDX 6 1 7 2 8 3 9 4 10 5 11 6 5 7 4 8 3 9 2 10 1 11
REMARK H PARENT
REMARK Flexibility Score: inf
ROOT
ATOM      1  C   UNL     1      11.968  11.993  17.630  1.00  0.00     0.000 C 
ENDROOT
BRANCH   1   2
ATOM      2  C   UNL     1      11.066  12.516  16.502  1.00  0.00     0.006 C 
BRANCH   2   3
ATOM      3  C   UNL     1       9.827  11.631  16.337  1.00  0.00     0.053 C 
BRANCH   3   4
ATOM      4  C   UNL     1       8.769  12.349  15.559  1.00  0.00     0.041 C 
ATOM      5  O   UNL     1       7.923  13.065  16.155  1.00  0.00    -0.550 OA
ATOM      6  O   UNL     1       8.688  12.187  14.182  1.00  0.00    -0.550 OA
ENDBRANCH   3   4
ENDBRANCH   2   3
ENDBRANCH   1   2
BRANCH   1   7
ATOM      7  C   UNL     1      13.459  12.022  17.256  1.00  0.00     0.000 C 
BRANCH   7   8
ATOM      8  C   UNL     1      14.167  13.295  17.751  1.00  0.00    -0.000 C 
BRANCH   8   9
ATOM      9  C   UNL     1      14.355  14.337  16.636  1.00  0.00    -0.000 C 
BRANCH   9  10
ATOM     10  C   UNL     1      13.763  15.706  17.002  1.00  0.00    -0.003 C 
ATOM     11  C   UNL     1      14.711  16.491  17.904  1.00  0.00     0.004 C 
ENDBRANCH   9  10
ENDBRANCH   8   9
ENDBRANCH   7   8
ENDBRANCH   1   7
TORSDOF 7
ENDMDL
MODEL 2
REMARK VINA RESULT:     3.676      3.047      5.403
REMARK INTER + INTRA:           4.868
REMARK INTER:                   5.165
REMARK INTRA:                  -0.297
REMARK UNBOUND:                -0.312
REMARK SMILES CCCCCCCCC(=O)[O-]
REMARK SMILES IDX 6 1 7 2 8 3 9 4 10 5 11 6 5 7 4 8 3 9 2 10 1 11
REMARK H PARENT
REMARK Flexibility Score: inf
ROOT
ATOM      1  C   UNL     1      11.377  12.410  16.711  1.00  0.00     0.000 C 
ENDROOT
BRANCH   1   2
ATOM      2  C   UNL     1      12.439  11.729  17.587  1.00  0.00     0.006 C 
BRANCH   2   3
ATOM      3  C   UNL     1      13.456  12.750  18.108  1.00  0.00     0.053 C 
BRANCH   3   4
ATOM      4  C   UNL     1      14.126  13.449  16.968  1.00  0.00     0.041 C 
ATOM      5  O   UNL     1      14.805  12.794  16.135  1.00  0.00    -0.550 OA
ATOM      6  O   UNL     1      14.044  14.831  16.853  1.00  0.00    -0.550 OA
ENDBRANCH   3   4
ENDBRANCH   2   3
ENDBRANCH   1   2
BRANCH   1   7
ATOM      7  C   UNL     1      10.111  11.554  16.545  1.00  0.00     0.000 C 
BRANCH   7   8
ATOM      8  C   UNL     1       9.248  12.000  15.351  1.00  0.00    -0.000 C 
BRANCH   8   9
ATOM      9  C   UNL     1       8.055  12.869  15.779  1.00  0.00    -0.000 C 
BRANCH   9  10
ATOM     10  C   UNL     1       8.016  13.114  17.294  1.00  0.00    -0.003 C 
ATOM     11  C   UNL     1       7.876  14.601  17.607  1.00  0.00     0.004 C 
ENDBRANCH   9  10
ENDBRANCH   8   9
ENDBRANCH   7   8
ENDBRANCH   1   7
TORSDOF 7
ENDMDL
MODEL 3
REMARK VINA RESULT:     3.780      3.060      5.474
REMARK INTER + INTRA:           5.015
REMARK INTER:                   5.286
REMARK INTRA:                  -0.271
REMARK UNBOUND:                -0.312
REMARK SMILES CCCCCCCCC(=O)[O-]
REMARK SMILES IDX 6 1 7 2 8 3 9 4 10 5 11 6 5 7 4 8 3 9 2 10 1 11
REMARK H PARENT
REMARK Flexibility Score: inf
ROOT
ATOM      1  C   UNL     1      12.716  12.079  17.471  1.00  0.00     0.000 C 
ENDROOT
BRANCH   1   2
ATOM      2  C   UNL     1      13.799  13.102  17.847  1.00  0.00     0.006 C 
BRANCH   2   3
ATOM      3  C   UNL     1      14.157  13.985  16.647  1.00  0.00     0.053 C 
BRANCH   3   4
ATOM      4  C   UNL     1      13.994  15.431  16.994  1.00  0.00     0.041 C 
ATOM      5  O   UNL     1      13.279  16.178  16.275  1.00  0.00    -0.550 OA
ATOM      6  O   UNL     1      14.671  15.966  18.082  1.00  0.00    -0.550 OA
ENDBRANCH   3   4
ENDBRANCH   2   3
ENDBRANCH   1   2
BRANCH   1   7
ATOM      7  C   UNL     1      11.598  12.691  16.612  1.00  0.00     0.000 C 
BRANCH   7   8
ATOM      8  C   UNL     1      10.251  11.971  16.795  1.00  0.00    -0.000 C 
BRANCH   8   9
ATOM      9  C   UNL     1       9.410  11.957  15.509  1.00  0.00    -0.000 C 
BRANCH   9  10
ATOM     10  C   UNL     1       8.086  12.721  15.662  1.00  0.00    -0.003 C 
ATOM     11  C   UNL     1       7.978  13.360  17.043  1.00  0.00     0.004 C 
ENDBRANCH   9  10
ENDBRANCH   8   9
ENDBRANCH   7   8
ENDBRANCH   1   7
TORSDOF 7
ENDMDL
