MODEL 1
REMARK VINA RESULT:    -4.543      0.000      0.000
REMARK INTER + INTRA:          -4.543
REMARK INTER:                  -4.543
REMARK INTRA:                   0.000
REMARK UNBOUND:                 0.000
REMARK SMILES O=c1ccc2ccc3occc3c2o1
REMARK SMILES IDX 6 1 7 2 8 3 12 4 11 5 10 6 9 7 13 8 5 9 4 10 3 11 2 12 1 13
REMARK SMILES IDX 14 14
REMARK H PARENT
REMARK Flexibility Score: inf
ROOT
ATOM      1  C   UNL     1      47.078  16.518  -4.594  1.00  0.00     0.016 A 
ATOM      2  C   UNL     1      48.090  17.100  -5.381  1.00  0.00     0.048 A 
ATOM      3  C   UNL     1      49.342  16.489  -5.395  1.00  0.00     0.137 A 
ATOM      4  C   UNL     1      49.603  15.355  -4.672  1.00  0.00     0.064 A 
ATOM      5  C   UNL     1      50.915  15.022  -4.910  1.00  0.00     0.054 A 
ATOM      6  C   UNL     1      51.374  16.002  -5.783  1.00  0.00     0.196 A 
ATOM      7  O   UNL     1      50.410  16.864  -6.055  1.00  0.00    -0.464 OA
ATOM      8  C   UNL     1      48.628  14.751  -3.882  1.00  0.00     0.149 A 
ATOM      9  C   UNL     1      47.342  15.347  -3.844  1.00  0.00     0.018 A 
ATOM     10  C   UNL     1      46.359  14.744  -3.053  1.00  0.00     0.019 A 
ATOM     11  C   UNL     1      46.673  13.589  -2.334  1.00  0.00     0.094 A 
ATOM     12  C   UNL     1      47.966  13.060  -2.422  1.00  0.00     0.336 A 
ATOM     13  O   UNL     1      48.264  12.019  -1.779  1.00  0.00    -0.246 OA
ATOM     14  O   UNL     1      48.887  13.649  -3.181  1.00  0.00    -0.422 OA
ENDROOT
TORSDOF 0
ENDMDL
MODEL 2
REMARK VINA RESULT:    -4.442      6.235      7.881
REMARK INTER + INTRA:          -4.442
REMARK INTER:                  -4.442
REMARK INTRA:                   0.000
REMARK UNBOUND:                 0.000
REMARK SMILES O=c1ccc2ccc3occc3c2o1
REMARK SMILES IDX 6 1 7 2 8 3 12 4 11 5 10 6 9 7 13 8 5 9 4 10 3 11 2 12 1 13
REMARK SMILES IDX 14 14
REMARK H PARENT
REMARK Flexibility Score: inf
ROOT
ATOM      1  C   UNL     1      43.152  20.314  -4.267  1.00  0.00     0.016 A 
ATOM      2  C   UNL     1      42.358  21.141  -3.449  1.00  0.00     0.048 A 
ATOM      3  C   UNL     1      41.867  20.608  -2.259  1.00  0.00     0.137 A 
ATOM      4  C   UNL     1      42.136  19.321  -1.877  1.00  0.00     0.064 A 
ATOM      5  C   UNL     1      41.508  19.122  -0.670  1.00  0.00     0.054 A 
ATOM      6  C   UNL     1      40.884  20.334  -0.396  1.00  0.00     0.196 A 
ATOM      7  O   UNL     1      41.117  21.203  -1.364  1.00  0.00    -0.464 OA
ATOM      8  C   UNL     1      42.916  18.472  -2.659  1.00  0.00     0.149 A 
ATOM      9  C   UNL     1      43.432  18.982  -3.877  1.00  0.00     0.018 A 
ATOM     10  C   UNL     1      44.217  18.135  -4.665  1.00  0.00     0.019 A 
ATOM     11  C   UNL     1      44.463  16.831  -4.234  1.00  0.00     0.094 A 
ATOM     12  C   UNL     1      43.918  16.400  -3.018  1.00  0.00     0.336 A 
ATOM     13  O   UNL     1      44.132  15.227  -2.615  1.00  0.00    -0.246 OA
ATOM     14  O   UNL     1      43.174  17.222  -2.282  1.00  0.00    -0.422 OA
ENDROOT
TORSDOF 0
ENDMDL
MODEL 3
REMARK VINA RESULT:    -4.415      5.798      7.257
REMARK INTER + INTRA:          -4.415
REMARK INTER:                  -4.415
REMARK INTRA:                   0.000
REMARK UNBOUND:                 0.000
REMARK SMILES O=c1ccc2ccc3occc3c2o1
REMARK SMILES IDX 6 1 7 2 8 3 12 4 11 5 10 6 9 7 13 8 5 9 4 10 3 11 2 12 1 13
REMARK SMILES IDX 14 14
REMARK H PARENT
REMARK Flexibility Score: inf
ROOT
ATOM      1  C   UNL     1      43.784  19.623  -4.882  1.00  0.00     0.016 A 
ATOM      2  C   UNL     1      44.491  18.443  -5.183  1.00  0.00     0.048 A 
ATOM      3  C   UNL     1      44.439  17.396  -4.265  1.00  0.00     0.137 A 
ATOM      4  C   UNL     1      43.727  17.490  -3.099  1.00  0.00     0.064 A 
ATOM      5  C   UNL     1      43.885  16.296  -2.436  1.00  0.00     0.054 A 
ATOM      6  C   UNL     1      44.706  15.540  -3.266  1.00  0.00     0.196 A 
ATOM      7  O   UNL     1      45.019  16.224  -4.352  1.00  0.00    -0.464 OA
ATOM      8  C   UNL     1      43.014  18.640  -2.766  1.00  0.00     0.149 A 
ATOM      9  C   UNL     1      43.046  19.726  -3.678  1.00  0.00     0.018 A 
ATOM     10  C   UNL     1      42.333  20.883  -3.349  1.00  0.00     0.019 A 
ATOM     11  C   UNL     1      41.622  20.931  -2.150  1.00  0.00     0.094 A 
ATOM     12  C   UNL     1      41.639  19.817  -1.301  1.00  0.00     0.336 A 
ATOM     13  O   UNL     1      41.002  19.846  -0.215  1.00  0.00    -0.246 OA
ATOM     14  O   UNL     1      42.324  18.726  -1.632  1.00  0.00    -0.422 OA
ENDROOT
TORSDOF 0
ENDMDL
MODEL 4
REMARK VINA RESULT:    -4.373      2.343      4.512
REMARK INTER + INTRA:          -4.373
REMARK INTER:                  -4.373
REMARK INTRA:                   0.000
REMARK UNBOUND:                 0.000
REMARK SMILES O=c1ccc2ccc3occc3c2o1
REMARK SMILES IDX 6 1 7 2 8 3 12 4 11 5 10 6 9 7 13 8 5 9 4 10 3 11 2 12 1 13
REMARK SMILES IDX 14 14
REMARK H PARENT
REMARK Flexibility Score: inf
ROOT
ATOM      1  C   UNL     1      48.402  14.972  -4.235  1.00  0.00     0.016 A 
ATOM      2  C   UNL     1      49.019  13.797  -3.765  1.00  0.00     0.048 A 
ATOM      3  C   UNL     1      48.334  13.029  -2.824  1.00  0.00     0.137 A 
ATOM      4  C   UNL     1      47.098  13.388  -2.358  1.00  0.00     0.064 A 
ATOM      5  C   UNL     1      46.715  12.424  -1.455  1.00  0.00     0.054 A 
ATOM      6  C   UNL     1      47.774  11.522  -1.435  1.00  0.00     0.196 A 
ATOM      7  O   UNL     1      48.726  11.911  -2.264  1.00  0.00    -0.464 OA
ATOM      8  C   UNL     1      46.456  14.543  -2.798  1.00  0.00     0.149 A 
ATOM      9  C   UNL     1      47.124  15.348  -3.755  1.00  0.00     0.018 A 
ATOM     10  C   UNL     1      46.484  16.508  -4.203  1.00  0.00     0.019 A 
ATOM     11  C   UNL     1      45.224  16.833  -3.697  1.00  0.00     0.094 A 
ATOM     12  C   UNL     1      44.628  15.986  -2.753  1.00  0.00     0.336 A 
ATOM     13  O   UNL     1      43.492  16.266  -2.289  1.00  0.00    -0.246 OA
ATOM     14  O   UNL     1      45.254  14.887  -2.342  1.00  0.00    -0.422 OA
ENDROOT
TORSDOF 0
ENDMDL
MODEL 5
REMARK VINA RESULT:    -4.360      1.428      2.545
REMARK INTER + INTRA:          -4.360
REMARK INTER:                  -4.360
REMARK INTRA:                   0.000
REMARK UNBOUND:                 0.000
REMARK SMILES O=c1ccc2ccc3occc3c2o1
REMARK SMILES IDX 6 1 7 2 8 3 12 4 11 5 10 6 9 7 13 8 5 9 4 10 3 11 2 12 1 13
REMARK SMILES IDX 14 14
REMARK H PARENT
REMARK Flexibility Score: inf
ROOT
ATOM      1  C   UNL     1      50.369  13.855  -4.271  1.00  0.00     0.016 A 
ATOM      2  C   UNL     1      50.847  14.888  -5.100  1.00  0.00     0.048 A 
ATOM      3  C   UNL     1      49.991  15.951  -5.384  1.00  0.00     0.137 A 
ATOM      4  C   UNL     1      48.718  16.008  -4.882  1.00  0.00     0.064 A 
ATOM      5  C   UNL     1      48.155  17.172  -5.350  1.00  0.00     0.054 A 
ATOM      6  C   UNL     1      49.151  17.756  -6.125  1.00  0.00     0.196 A 
ATOM      7  O   UNL     1      50.237  17.003  -6.125  1.00  0.00    -0.464 OA
ATOM      8  C   UNL     1      48.208  15.006  -4.060  1.00  0.00     0.149 A 
ATOM      9  C   UNL     1      49.053  13.909  -3.751  1.00  0.00     0.018 A 
ATOM     10  C   UNL     1      48.547  12.900  -2.925  1.00  0.00     0.019 A 
ATOM     11  C   UNL     1      47.243  13.003  -2.439  1.00  0.00     0.094 A 
ATOM     12  C   UNL     1      46.470  14.117  -2.789  1.00  0.00     0.336 A 
ATOM     13  O   UNL     1      45.292  14.224  -2.357  1.00  0.00    -0.246 OA
ATOM     14  O   UNL     1      46.970  15.067  -3.576  1.00  0.00    -0.422 OA
ENDROOT
TORSDOF 0
ENDMDL
MODEL 6
REMARK VINA RESULT:    -4.314      1.758      4.336
REMARK INTER + INTRA:          -4.314
REMARK INTER:                  -4.314
REMARK INTRA:                   0.000
REMARK UNBOUND:                 0.000
REMARK SMILES O=c1ccc2ccc3occc3c2o1
REMARK SMILES IDX 6 1 7 2 8 3 12 4 11 5 10 6 9 7 13 8 5 9 4 10 3 11 2 12 1 13
REMARK SMILES IDX 14 14
REMARK H PARENT
REMARK Flexibility Score: inf
ROOT
ATOM      1  C   UNL     1      48.468  16.156  -4.427  1.00  0.00     0.016 A 
ATOM      2  C   UNL     1      47.506  15.604  -3.559  1.00  0.00     0.048 A 
ATOM      3  C   UNL     1      47.714  14.309  -3.089  1.00  0.00     0.137 A 
ATOM      4  C   UNL     1      48.814  13.576  -3.447  1.00  0.00     0.064 A 
ATOM      5  C   UNL     1      48.709  12.360  -2.814  1.00  0.00     0.054 A 
ATOM      6  C   UNL     1      47.520  12.440  -2.096  1.00  0.00     0.196 A 
ATOM      7  O   UNL     1      46.949  13.617  -2.280  1.00  0.00    -0.464 OA
ATOM      8  C   UNL     1      49.787  14.087  -4.303  1.00  0.00     0.149 A 
ATOM      9  C   UNL     1      49.607  15.402  -4.801  1.00  0.00     0.018 A 
ATOM     10  C   UNL     1      50.581  15.920  -5.660  1.00  0.00     0.019 A 
ATOM     11  C   UNL     1      51.684  15.135  -5.997  1.00  0.00     0.094 A 
ATOM     12  C   UNL     1      51.792  13.844  -5.464  1.00  0.00     0.336 A 
ATOM     13  O   UNL     1      52.782  13.125  -5.759  1.00  0.00    -0.246 OA
ATOM     14  O   UNL     1      50.854  13.370  -4.648  1.00  0.00    -0.422 OA
ENDROOT
TORSDOF 0
ENDMDL
MODEL 7
REMARK VINA RESULT:    -4.302      1.742      4.684
REMARK INTER + INTRA:          -4.302
REMARK INTER:                  -4.302
REMARK INTRA:                   0.000
REMARK UNBOUND:                 0.000
REMARK SMILES O=c1ccc2ccc3occc3c2o1
REMARK SMILES IDX 6 1 7 2 8 3 12 4 11 5 10 6 9 7 13 8 5 9 4 10 3 11 2 12 1 13
REMARK SMILES IDX 14 14
REMARK H PARENT
REMARK Flexibility Score: inf
ROOT
ATOM      1  C   UNL     1      47.942  13.111  -2.733  1.00  0.00     0.016 A 
ATOM      2  C   UNL     1      46.619  13.427  -2.368  1.00  0.00     0.048 A 
ATOM      3  C   UNL     1      46.076  14.620  -2.841  1.00  0.00     0.137 A 
ATOM      4  C   UNL     1      46.789  15.474  -3.639  1.00  0.00     0.064 A 
ATOM      5  C   UNL     1      45.965  16.539  -3.921  1.00  0.00     0.054 A 
ATOM      6  C   UNL     1      44.778  16.249  -3.258  1.00  0.00     0.196 A 
ATOM      7  O   UNL     1      44.874  15.095  -2.621  1.00  0.00    -0.464 OA
ATOM      8  C   UNL     1      48.099  15.198  -4.021  1.00  0.00     0.149 A 
ATOM      9  C   UNL     1      48.684  13.992  -3.557  1.00  0.00     0.018 A 
ATOM     10  C   UNL     1      49.999  13.709  -3.939  1.00  0.00     0.019 A 
ATOM     11  C   UNL     1      50.686  14.611  -4.753  1.00  0.00     0.094 A 
ATOM     12  C   UNL     1      50.039  15.781  -5.170  1.00  0.00     0.336 A 
ATOM     13  O   UNL     1      50.646  16.604  -5.905  1.00  0.00    -0.246 OA
ATOM     14  O   UNL     1      48.788  16.032  -4.796  1.00  0.00    -0.422 OA
ENDROOT
TORSDOF 0
ENDMDL
MODEL 8
REMARK VINA RESULT:    -4.287      1.174      4.473
REMARK INTER + INTRA:          -4.287
REMARK INTER:                  -4.287
REMARK INTRA:                   0.000
REMARK UNBOUND:                 0.000
REMARK SMILES O=c1ccc2ccc3occc3c2o1
REMARK SMILES IDX 6 1 7 2 8 3 12 4 11 5 10 6 9 7 13 8 5 9 4 10 3 11 2 12 1 13
REMARK SMILES IDX 14 14
REMARK H PARENT
REMARK Flexibility Score: inf
ROOT
ATOM      1  C   UNL     1      45.845  15.288  -3.490  1.00  0.00     0.016 A 
ATOM      2  C   UNL     1      45.384  14.216  -2.701  1.00  0.00     0.048 A 
ATOM      3  C   UNL     1      46.307  13.247  -2.310  1.00  0.00     0.137 A 
ATOM      4  C   UNL     1      47.626  13.315  -2.671  1.00  0.00     0.064 A 
ATOM      5  C   UNL     1      48.248  12.217  -2.125  1.00  0.00     0.054 A 
ATOM      6  C   UNL     1      47.236  11.539  -1.453  1.00  0.00     0.196 A 
ATOM      7  O   UNL     1      46.088  12.179  -1.581  1.00  0.00    -0.464 OA
ATOM      8  C   UNL     1      48.119  14.359  -3.450  1.00  0.00     0.149 A 
ATOM      9  C   UNL     1      47.208  15.363  -3.866  1.00  0.00     0.018 A 
ATOM     10  C   UNL     1      47.697  16.414  -4.648  1.00  0.00     0.019 A 
ATOM     11  C   UNL     1      49.049  16.440  -4.991  1.00  0.00     0.094 A 
ATOM     12  C   UNL     1      49.887  15.411  -4.542  1.00  0.00     0.336 A 
ATOM     13  O   UNL     1      51.110  15.421  -4.843  1.00  0.00    -0.246 OA
ATOM     14  O   UNL     1      49.402  14.420  -3.798  1.00  0.00    -0.422 OA
ENDROOT
TORSDOF 0
ENDMDL
MODEL 9
REMARK VINA RESULT:    -4.257      7.905      9.499
REMARK INTER + INTRA:          -4.257
REMARK INTER:                  -4.257
REMARK INTRA:                   0.000
REMARK UNBOUND:                 0.000
REMARK SMILES O=c1ccc2ccc3occc3c2o1
REMARK SMILES IDX 6 1 7 2 8 3 12 4 11 5 10 6 9 7 13 8 5 9 4 10 3 11 2 12 1 13
REMARK SMILES IDX 14 14
REMARK H PARENT
REMARK Flexibility Score: inf
ROOT
ATOM      1  C   UNL     1      43.057  19.003  -3.049  1.00  0.00     0.016 A 
ATOM      2  C   UNL     1      42.747  18.010  -3.999  1.00  0.00     0.048 A 
ATOM      3  C   UNL     1      41.434  17.546  -4.056  1.00  0.00     0.137 A 
ATOM      4  C   UNL     1      40.459  18.026  -3.223  1.00  0.00     0.064 A 
ATOM      5  C   UNL     1      39.297  17.363  -3.543  1.00  0.00     0.054 A 
ATOM      6  C   UNL     1      39.658  16.502  -4.574  1.00  0.00     0.196 A 
ATOM      7  O   UNL     1      40.941  16.635  -4.859  1.00  0.00    -0.464 OA
ATOM      8  C   UNL     1      40.726  19.007  -2.271  1.00  0.00     0.149 A 
ATOM      9  C   UNL     1      42.052  19.502  -2.185  1.00  0.00     0.018 A 
ATOM     10  C   UNL     1      42.326  20.488  -1.232  1.00  0.00     0.019 A 
ATOM     11  C   UNL     1      41.299  20.946  -0.405  1.00  0.00     0.094 A 
ATOM     12  C   UNL     1      40.015  20.407  -0.551  1.00  0.00     0.336 A 
ATOM     13  O   UNL     1      39.078  20.810   0.187  1.00  0.00    -0.246 OA
ATOM     14  O   UNL     1      39.774  19.470  -1.465  1.00  0.00    -0.422 OA
ENDROOT
TORSDOF 0
ENDMDL
