MODEL 1
REMARK VINA RESULT:    -3.756      0.000      0.000
REMARK INTER + INTRA:          -5.210
REMARK INTER:                  -5.293
REMARK INTRA:                   0.084
REMARK UNBOUND:                 0.084
REMARK SMILES CC1=CCC(=C(C)C)C(=O)CC(C)=CCC1
REMARK SMILES IDX 12 1 14 2 13 3 15 4 16 5 2 6 1 7 3 8 11 10 9 11 10 12 5 13
REMARK SMILES IDX 6 14 7 15 8 16 4 17
REMARK H PARENT
REMARK Flexibility Score: 60.00
ROOT
ATOM      1  C   UNL     1     -10.434  17.926   5.459  1.00  0.00    -0.070 C 
ATOM      2  C   UNL     1     -10.395  16.574   5.498  1.00  0.00    -0.027 C 
ATOM      3  C   UNL     1     -10.129  18.607   4.149  1.00  0.00     0.039 C 
ENDROOT
BRANCH   2   4
ATOM      4  C   UNL     1     -10.528  15.743   6.748  1.00  0.00     0.032 C 
BRANCH   4   5
ATOM      5  C   UNL     1      -9.145  15.255   7.197  1.00  0.00     0.034 C 
BRANCH   5   6
ATOM      6  C   UNL     1      -8.661  15.960   8.448  1.00  0.00    -0.077 C 
ATOM      7  C   UNL     1      -9.030  15.382   9.792  1.00  0.00     0.039 C 
ATOM      8  C   UNL     1      -7.847  17.046   8.430  1.00  0.00    -0.023 CG0
ATOM      9  G   UNL     1      -7.389  17.835   7.217  1.00  0.00     0.000 G0
ENDBRANCH   5   6
ENDBRANCH   4   5
ENDBRANCH   2   4
BRANCH   1  10
ATOM     10  C   UNL     1     -10.787  18.786   6.657  1.00  0.00     0.111 C 
BRANCH  10  11
ATOM     11  C   UNL     1      -9.557  19.241   7.405  1.00  0.00     0.163 C 
ATOM     12  O   UNL     1      -9.734  19.748   8.547  1.00  0.00    -0.294 OA
BRANCH  11  13
ATOM     13  C   UNL     1      -8.160  19.103   6.876  1.00  0.00    -0.002 C 
ATOM     14  C   UNL     1      -7.543  20.155   6.255  1.00  0.00    -0.069 C 
ATOM     15  C   UNL     1      -6.069  20.136   5.918  1.00  0.00     0.039 C 
ATOM     16  C   UNL     1      -8.317  21.380   5.823  1.00  0.00     0.039 C 
BRANCH  13  17
ATOM     17  C   UNL     1      -7.394  17.828   7.214  1.00  0.00     0.066 CG0
ATOM     18  G   UNL     1      -7.870  17.056   8.432  1.00  0.00     0.000 G0
ENDBRANCH  13  17
ENDBRANCH  11  13
ENDBRANCH  10  11
ENDBRANCH   1  10
TORSDOF 0
ENDMDL
MODEL 2
REMARK VINA RESULT:    -3.724      2.026      4.247
REMARK INTER + INTRA:          -5.164
REMARK INTER:                  -5.446
REMARK INTRA:                   0.282
REMARK UNBOUND:                 0.084
REMARK SMILES CC1=CCC(=C(C)C)C(=O)CC(C)=CCC1
REMARK SMILES IDX 12 1 14 2 13 3 15 4 16 5 2 6 1 7 3 8 11 10 9 11 10 12 5 13
REMARK SMILES IDX 6 14 7 15 8 16 4 17
REMARK H PARENT
REMARK Flexibility Score: 60.00
ROOT
ATOM      1  C   UNL     1      -9.653  16.657   6.033  1.00  0.00    -0.070 C 
ATOM      2  C   UNL     1     -10.235  17.257   4.968  1.00  0.00    -0.027 C 
ATOM      3  C   UNL     1     -10.461  15.649   6.809  1.00  0.00     0.039 C 
ENDROOT
BRANCH   2   4
ATOM      4  C   UNL     1      -9.628  18.386   4.176  1.00  0.00     0.032 C 
BRANCH   4   5
ATOM      5  C   UNL     1      -9.935  19.725   4.859  1.00  0.00     0.034 C 
BRANCH   5   6
ATOM      6  C   UNL     1     -11.190  19.667   5.707  1.00  0.00    -0.077 C 
ATOM      7  C   UNL     1     -12.522  19.515   5.016  1.00  0.00     0.039 C 
ATOM      8  C   UNL     1     -11.180  19.670   7.064  1.00  0.00    -0.023 CG0
ATOM      9  G   UNL     1      -9.983  19.869   7.977  1.00  0.00     0.000 G0
ENDBRANCH   5   6
ENDBRANCH   4   5
ENDBRANCH   2   4
BRANCH   1  10
ATOM     10  C   UNL     1      -8.227  16.933   6.470  1.00  0.00     0.111 C 
BRANCH  10  11
ATOM     11  C   UNL     1      -8.126  18.192   7.296  1.00  0.00     0.163 C 
ATOM     12  O   UNL     1      -7.117  18.925   7.103  1.00  0.00    -0.294 OA
BRANCH  11  13
ATOM     13  C   UNL     1      -9.158  18.618   8.299  1.00  0.00    -0.002 C 
ATOM     14  C   UNL     1      -9.234  18.006   9.521  1.00  0.00    -0.069 C 
ATOM     15  C   UNL     1     -10.094  18.551  10.639  1.00  0.00     0.039 C 
ATOM     16  C   UNL     1      -8.497  16.717   9.805  1.00  0.00     0.039 C 
BRANCH  13  17
ATOM     17  C   UNL     1      -9.985  19.860   7.986  1.00  0.00     0.066 CG0
ATOM     18  G   UNL     1     -11.169  19.667   7.056  1.00  0.00     0.000 G0
ENDBRANCH  13  17
ENDBRANCH  11  13
ENDBRANCH  10  11
ENDBRANCH   1  10
TORSDOF 0
ENDMDL
MODEL 3
REMARK VINA RESULT:    -3.686      4.047      6.337
REMARK INTER + INTRA:          -5.110
REMARK INTER:                  -5.205
REMARK INTRA:                   0.094
REMARK UNBOUND:                 0.084
REMARK SMILES CC1=CCC(=C(C)C)C(=O)CC(C)=CCC1
REMARK SMILES IDX 12 1 14 2 13 3 15 4 16 5 2 6 1 7 3 8 11 10 9 11 10 12 5 13
REMARK SMILES IDX 6 14 7 15 8 16 4 17
REMARK H PARENT
REMARK Flexibility Score: 60.00
ROOT
ATOM      1  C   UNL     1     -10.947  16.182  12.853  1.00  0.00    -0.070 C 
ATOM      2  C   UNL     1     -10.579  15.950  14.134  1.00  0.00    -0.027 C 
ATOM      3  C   UNL     1     -11.438  15.017  12.033  1.00  0.00     0.039 C 
ENDROOT
BRANCH   2   4
ATOM      4  C   UNL     1      -9.932  16.962  15.043  1.00  0.00     0.032 C 
BRANCH   4   5
ATOM      5  C   UNL     1      -8.441  16.642  15.202  1.00  0.00     0.034 C 
BRANCH   5   6
ATOM      6  C   UNL     1      -7.553  17.657  14.510  1.00  0.00    -0.077 C 
ATOM      7  C   UNL     1      -7.069  18.848  15.299  1.00  0.00     0.039 C 
ATOM      8  C   UNL     1      -7.104  17.518  13.238  1.00  0.00    -0.023 CG0
ATOM      9  G   UNL     1      -7.492  16.447  12.234  1.00  0.00     0.000 G0
ENDBRANCH   5   6
ENDBRANCH   4   5
ENDBRANCH   2   4
BRANCH   1  10
ATOM     10  C   UNL     1     -10.907  17.554  12.209  1.00  0.00     0.111 C 
BRANCH  10  11
ATOM     11  C   UNL     1      -9.560  17.850  11.595  1.00  0.00     0.163 C 
ATOM     12  O   UNL     1      -9.266  19.063  11.412  1.00  0.00    -0.294 OA
BRANCH  11  13
ATOM     13  C   UNL     1      -8.563  16.792  11.222  1.00  0.00    -0.002 C 
ATOM     14  C   UNL     1      -8.535  16.280   9.953  1.00  0.00    -0.069 C 
ATOM     15  C   UNL     1      -7.410  15.392   9.471  1.00  0.00     0.039 C 
ATOM     16  C   UNL     1      -9.660  16.533   8.975  1.00  0.00     0.039 C 
BRANCH  13  17
ATOM     17  C   UNL     1      -7.477  16.447  12.235  1.00  0.00     0.066 CG0
ATOM     18  G   UNL     1      -7.114  17.534  13.232  1.00  0.00     0.000 G0
ENDBRANCH  13  17
ENDBRANCH  11  13
ENDBRANCH  10  11
ENDBRANCH   1  10
TORSDOF 0
ENDMDL
MODEL 4
REMARK VINA RESULT:    -3.651     11.967     13.832
REMARK INTER + INTRA:          -5.061
REMARK INTER:                  -4.949
REMARK INTRA:                  -0.112
REMARK UNBOUND:                 0.084
REMARK SMILES CC1=CCC(=C(C)C)C(=O)CC(C)=CCC1
REMARK SMILES IDX 12 1 14 2 13 3 15 4 16 5 2 6 1 7 3 8 11 10 9 11 10 12 5 13
REMARK SMILES IDX 6 14 7 15 8 16 4 17
REMARK H PARENT
REMARK Flexibility Score: 60.00
ROOT
ATOM      1  C   UNL     1      -7.546  20.614  19.969  1.00  0.00    -0.070 C 
ATOM      2  C   UNL     1      -7.393  20.591  21.313  1.00  0.00    -0.027 C 
ATOM      3  C   UNL     1      -8.315  21.759  19.361  1.00  0.00     0.039 C 
ENDROOT
BRANCH   2   4
ATOM      4  C   UNL     1      -6.785  19.454  22.093  1.00  0.00     0.032 C 
BRANCH   4   5
ATOM      5  C   UNL     1      -5.368  19.830  22.544  1.00  0.00     0.034 C 
BRANCH   5   6
ATOM      6  C   UNL     1      -4.364  18.728  22.276  1.00  0.00    -0.077 C 
ATOM      7  C   UNL     1      -4.212  17.627  23.297  1.00  0.00     0.039 C 
ATOM      8  C   UNL     1      -3.642  18.631  21.132  1.00  0.00    -0.023 CG0
ATOM      9  G   UNL     1      -3.579  19.634  19.993  1.00  0.00     0.000 G0
ENDBRANCH   5   6
ENDBRANCH   4   5
ENDBRANCH   2   4
BRANCH   1  10
ATOM     10  C   UNL     1      -6.967  19.560  19.045  1.00  0.00     0.111 C 
BRANCH  10  11
ATOM     11  C   UNL     1      -5.649  19.996  18.450  1.00  0.00     0.163 C 
ATOM     12  O   UNL     1      -5.663  21.024  17.718  1.00  0.00    -0.294 OA
BRANCH  11  13
ATOM     13  C   UNL     1      -4.348  19.293  18.699  1.00  0.00    -0.002 C 
ATOM     14  C   UNL     1      -3.793  18.494  17.736  1.00  0.00    -0.069 C 
ATOM     15  C   UNL     1      -2.384  17.958  17.853  1.00  0.00     0.039 C 
ATOM     16  C   UNL     1      -4.581  18.060  16.521  1.00  0.00     0.039 C 
BRANCH  13  17
ATOM     17  C   UNL     1      -3.583  19.641  19.972  1.00  0.00     0.066 CG0
ATOM     18  G   UNL     1      -3.654  18.629  21.101  1.00  0.00     0.000 G0
ENDBRANCH  13  17
ENDBRANCH  11  13
ENDBRANCH  10  11
ENDBRANCH   1  10
TORSDOF 0
ENDMDL
MODEL 5
REMARK VINA RESULT:    -3.642      6.185      8.546
REMARK INTER + INTRA:          -5.048
REMARK INTER:                  -5.124
REMARK INTRA:                   0.075
REMARK UNBOUND:                 0.084
REMARK SMILES CC1=CCC(=C(C)C)C(=O)CC(C)=CCC1
REMARK SMILES IDX 12 1 14 2 13 3 15 4 16 5 2 6 1 7 3 8 11 10 9 11 10 12 5 13
REMARK SMILES IDX 6 14 7 15 8 16 4 17
REMARK H PARENT
REMARK Flexibility Score: 60.00
ROOT
ATOM      1  C   UNL     1      -8.257  19.083  13.257  1.00  0.00    -0.070 C 
ATOM      2  C   UNL     1      -9.390  19.140  12.519  1.00  0.00    -0.027 C 
ATOM      3  C   UNL     1      -7.573  20.380  13.607  1.00  0.00     0.039 C 
ENDROOT
BRANCH   2   4
ATOM      4  C   UNL     1     -10.116  17.944  11.959  1.00  0.00     0.032 C 
BRANCH   4   5
ATOM      5  C   UNL     1     -11.106  17.402  12.996  1.00  0.00     0.034 C 
BRANCH   5   6
ATOM      6  C   UNL     1     -10.967  15.908  13.205  1.00  0.00    -0.077 C 
ATOM      7  C   UNL     1     -11.378  14.981  12.088  1.00  0.00     0.039 C 
ATOM      8  C   UNL     1     -10.420  15.353  14.316  1.00  0.00    -0.023 CG0
ATOM      9  G   UNL     1      -9.988  16.064  15.586  1.00  0.00     0.000 G0
ENDBRANCH   5   6
ENDBRANCH   4   5
ENDBRANCH   2   4
BRANCH   1  10
ATOM     10  C   UNL     1      -7.655  17.787  13.763  1.00  0.00     0.111 C 
BRANCH  10  11
ATOM     11  C   UNL     1      -7.934  17.572  15.231  1.00  0.00     0.163 C 
ATOM     12  O   UNL     1      -7.687  18.534  16.009  1.00  0.00    -0.294 OA
BRANCH  11  13
ATOM     13  C   UNL     1      -8.502  16.303  15.795  1.00  0.00    -0.002 C 
ATOM     14  C   UNL     1      -7.736  15.488  16.584  1.00  0.00    -0.069 C 
ATOM     15  C   UNL     1      -8.329  14.332  17.358  1.00  0.00     0.039 C 
ATOM     16  C   UNL     1      -6.238  15.670  16.686  1.00  0.00     0.039 C 
BRANCH  13  17
ATOM     17  C   UNL     1      -9.995  16.050  15.616  1.00  0.00     0.066 CG0
ATOM     18  G   UNL     1     -10.414  15.363  14.328  1.00  0.00     0.000 G0
ENDBRANCH  13  17
ENDBRANCH  11  13
ENDBRANCH  10  11
ENDBRANCH   1  10
TORSDOF 0
ENDMDL
MODEL 6
REMARK VINA RESULT:    -3.588     14.597     16.138
REMARK INTER + INTRA:          -4.973
REMARK INTER:                  -4.955
REMARK INTRA:                  -0.018
REMARK UNBOUND:                 0.084
REMARK SMILES CC1=CCC(=C(C)C)C(=O)CC(C)=CCC1
REMARK SMILES IDX 12 1 14 2 13 3 15 4 16 5 2 6 1 7 3 8 11 10 9 11 10 12 5 13
REMARK SMILES IDX 6 14 7 15 8 16 4 17
REMARK H PARENT
REMARK Flexibility Score: 60.00
ROOT
ATOM      1  C   UNL     1      -9.904  22.788  20.331  1.00  0.00    -0.070 C 
ATOM      2  C   UNL     1     -10.968  23.624  20.375  1.00  0.00    -0.027 C 
ATOM      3  C   UNL     1      -8.546  23.382  20.055  1.00  0.00     0.039 C 
ENDROOT
BRANCH   2   4
ATOM      4  C   UNL     1     -12.405  23.185  20.491  1.00  0.00     0.032 C 
BRANCH   4   5
ATOM      5  C   UNL     1     -12.847  23.234  21.959  1.00  0.00     0.034 C 
BRANCH   5   6
ATOM      6  C   UNL     1     -13.852  22.152  22.297  1.00  0.00    -0.077 C 
ATOM      7  C   UNL     1     -15.279  22.322  21.836  1.00  0.00     0.039 C 
ATOM      8  C   UNL     1     -13.527  20.996  22.928  1.00  0.00    -0.023 CG0
ATOM      9  G   UNL     1     -12.185  20.620  23.532  1.00  0.00     0.000 G0
ENDBRANCH   5   6
ENDBRANCH   4   5
ENDBRANCH   2   4
BRANCH   1  10
ATOM     10  C   UNL     1     -10.007  21.294  20.563  1.00  0.00     0.111 C 
BRANCH  10  11
ATOM     11  C   UNL     1     -10.107  20.958  22.032  1.00  0.00     0.163 C 
ATOM     12  O   UNL     1      -9.286  21.521  22.806  1.00  0.00    -0.294 OA
BRANCH  11  13
ATOM     13  C   UNL     1     -11.130  20.022  22.606  1.00  0.00    -0.002 C 
ATOM     14  C   UNL     1     -11.021  18.671  22.418  1.00  0.00    -0.069 C 
ATOM     15  C   UNL     1     -11.888  17.684  23.166  1.00  0.00     0.039 C 
ATOM     16  C   UNL     1     -10.055  18.091  21.409  1.00  0.00     0.039 C 
BRANCH  13  17
ATOM     17  C   UNL     1     -12.178  20.605  23.548  1.00  0.00     0.066 CG0
ATOM     18  G   UNL     1     -13.506  20.994  22.925  1.00  0.00     0.000 G0
ENDBRANCH  13  17
ENDBRANCH  11  13
ENDBRANCH  10  11
ENDBRANCH   1  10
TORSDOF 0
ENDMDL
MODEL 7
REMARK VINA RESULT:    -3.446      1.545      2.962
REMARK INTER + INTRA:          -4.772
REMARK INTER:                  -4.824
REMARK INTRA:                   0.052
REMARK UNBOUND:                 0.084
REMARK SMILES CC1=CCC(=C(C)C)C(=O)CC(C)=CCC1
REMARK SMILES IDX 12 1 14 2 13 3 15 4 16 5 2 6 1 7 3 8 11 10 9 11 10 12 5 13
REMARK SMILES IDX 6 14 7 15 8 16 4 17
REMARK H PARENT
REMARK Flexibility Score: 60.00
ROOT
ATOM      1  C   UNL     1     -10.133  19.610   6.147  1.00  0.00    -0.070 C 
ATOM      2  C   UNL     1     -11.055  18.793   5.587  1.00  0.00    -0.027 C 
ATOM      3  C   UNL     1     -10.575  20.982   6.586  1.00  0.00     0.039 C 
ENDROOT
BRANCH   2   4
ATOM      4  C   UNL     1     -10.756  17.454   4.963  1.00  0.00     0.032 C 
BRANCH   4   5
ATOM      5  C   UNL     1     -10.727  16.369   6.046  1.00  0.00     0.034 C 
BRANCH   5   6
ATOM      6  C   UNL     1      -9.653  15.330   5.796  1.00  0.00    -0.077 C 
ATOM      7  C   UNL     1      -9.754  14.470   4.561  1.00  0.00     0.039 C 
ATOM      8  C   UNL     1      -8.559  15.176   6.583  1.00  0.00    -0.023 CG0
ATOM      9  G   UNL     1      -8.262  15.876   7.898  1.00  0.00     0.000 G0
ENDBRANCH   5   6
ENDBRANCH   4   5
ENDBRANCH   2   4
BRANCH   1  10
ATOM     10  C   UNL     1      -8.689  19.208   6.372  1.00  0.00     0.111 C 
BRANCH  10  11
ATOM     11  C   UNL     1      -8.512  18.442   7.661  1.00  0.00     0.163 C 
ATOM     12  O   UNL     1      -9.190  18.825   8.654  1.00  0.00    -0.294 OA
BRANCH  11  13
ATOM     13  C   UNL     1      -7.604  17.256   7.810  1.00  0.00    -0.002 C 
ATOM     14  C   UNL     1      -6.263  17.429   8.020  1.00  0.00    -0.069 C 
ATOM     15  C   UNL     1      -5.357  16.282   8.405  1.00  0.00     0.039 C 
ATOM     16  C   UNL     1      -5.602  18.775   7.829  1.00  0.00     0.039 C 
BRANCH  13  17
ATOM     17  C   UNL     1      -8.246  15.876   7.903  1.00  0.00     0.066 CG0
ATOM     18  G   UNL     1      -8.556  15.185   6.587  1.00  0.00     0.000 G0
ENDBRANCH  13  17
ENDBRANCH  11  13
ENDBRANCH  10  11
ENDBRANCH   1  10
TORSDOF 0
ENDMDL
MODEL 8
REMARK VINA RESULT:    -3.445     12.399     14.355
REMARK INTER + INTRA:          -4.772
REMARK INTER:                  -4.754
REMARK INTRA:                  -0.017
REMARK UNBOUND:                 0.084
REMARK SMILES CC1=CCC(=C(C)C)C(=O)CC(C)=CCC1
REMARK SMILES IDX 12 1 14 2 13 3 15 4 16 5 2 6 1 7 3 8 11 10 9 11 10 12 5 13
REMARK SMILES IDX 6 14 7 15 8 16 4 17
REMARK H PARENT
REMARK Flexibility Score: 60.00
ROOT
ATOM      1  C   UNL     1      -6.775  20.478  18.212  1.00  0.00    -0.070 C 
ATOM      2  C   UNL     1      -7.722  21.125  18.929  1.00  0.00    -0.027 C 
ATOM      3  C   UNL     1      -6.319  21.097  16.916  1.00  0.00     0.039 C 
ENDROOT
BRANCH   2   4
ATOM      4  C   UNL     1      -8.394  20.579  20.163  1.00  0.00     0.032 C 
BRANCH   4   5
ATOM      5  C   UNL     1      -7.680  21.099  21.417  1.00  0.00     0.034 C 
BRANCH   5   6
ATOM      6  C   UNL     1      -7.356  19.991  22.400  1.00  0.00    -0.077 C 
ATOM      7  C   UNL     1      -8.468  19.436  23.255  1.00  0.00     0.039 C 
ATOM      8  C   UNL     1      -6.132  19.414  22.504  1.00  0.00    -0.023 CG0
ATOM      9  G   UNL     1      -4.853  19.831  21.799  1.00  0.00     0.000 G0
ENDBRANCH   5   6
ENDBRANCH   4   5
ENDBRANCH   2   4
BRANCH   1  10
ATOM     10  C   UNL     1      -6.137  19.176  18.656  1.00  0.00     0.111 C 
BRANCH  10  11
ATOM     11  C   UNL     1      -4.763  19.394  19.244  1.00  0.00     0.163 C 
ATOM     12  O   UNL     1      -3.916  19.984  18.519  1.00  0.00    -0.294 OA
BRANCH  11  13
ATOM     13  C   UNL     1      -4.373  18.973  20.630  1.00  0.00    -0.002 C 
ATOM     14  C   UNL     1      -3.490  17.945  20.822  1.00  0.00    -0.069 C 
ATOM     15  C   UNL     1      -2.894  17.642  22.178  1.00  0.00     0.039 C 
ATOM     16  C   UNL     1      -3.099  17.019  19.692  1.00  0.00     0.039 C 
BRANCH  13  17
ATOM     17  C   UNL     1      -4.842  19.837  21.795  1.00  0.00     0.066 CG0
ATOM     18  G   UNL     1      -6.125  19.405  22.484  1.00  0.00     0.000 G0
ENDBRANCH  13  17
ENDBRANCH  11  13
ENDBRANCH  10  11
ENDBRANCH   1  10
TORSDOF 0
ENDMDL
MODEL 9
REMARK VINA RESULT:    -3.442      1.673      4.052
REMARK INTER + INTRA:          -4.766
REMARK INTER:                  -4.609
REMARK INTRA:                  -0.157
REMARK UNBOUND:                 0.084
REMARK SMILES CC1=CCC(=C(C)C)C(=O)CC(C)=CCC1
REMARK SMILES IDX 12 1 14 2 13 3 15 4 16 5 2 6 1 7 3 8 11 10 9 11 10 12 5 13
REMARK SMILES IDX 6 14 7 15 8 16 4 17
REMARK H PARENT
REMARK Flexibility Score: 60.00
ROOT
ATOM      1  C   UNL     1     -10.422  19.776   6.454  1.00  0.00    -0.070 C 
ATOM      2  C   UNL     1      -9.493  20.488   5.774  1.00  0.00    -0.027 C 
ATOM      3  C   UNL     1     -11.850  19.833   5.975  1.00  0.00     0.039 C 
ENDROOT
BRANCH   2   4
ATOM      4  C   UNL     1      -8.058  20.662   6.199  1.00  0.00     0.032 C 
BRANCH   4   5
ATOM      5  C   UNL     1      -7.175  19.631   5.485  1.00  0.00     0.034 C 
BRANCH   5   6
ATOM      6  C   UNL     1      -6.099  19.065   6.389  1.00  0.00    -0.077 C 
ATOM      7  C   UNL     1      -4.900  19.924   6.709  1.00  0.00     0.039 C 
ATOM      8  C   UNL     1      -6.185  17.853   6.992  1.00  0.00    -0.023 CG0
ATOM      9  G   UNL     1      -7.254  16.795   6.786  1.00  0.00     0.000 G0
ENDBRANCH   5   6
ENDBRANCH   4   5
ENDBRANCH   2   4
BRANCH   1  10
ATOM     10  C   UNL     1     -10.095  18.913   7.657  1.00  0.00     0.111 C 
BRANCH  10  11
ATOM     11  C   UNL     1      -9.698  17.513   7.253  1.00  0.00     0.163 C 
ATOM     12  O   UNL     1     -10.460  16.910   6.448  1.00  0.00    -0.294 OA
BRANCH  11  13
ATOM     13  C   UNL     1      -8.454  16.827   7.736  1.00  0.00    -0.002 C 
ATOM     14  C   UNL     1      -8.457  16.127   8.912  1.00  0.00    -0.069 C 
ATOM     15  C   UNL     1      -7.306  15.235   9.318  1.00  0.00     0.039 C 
ATOM     16  C   UNL     1      -9.596  16.249   9.899  1.00  0.00     0.039 C 
BRANCH  13  17
ATOM     17  C   UNL     1      -7.256  16.781   6.794  1.00  0.00     0.066 CG0
ATOM     18  G   UNL     1      -6.195  17.848   6.996  1.00  0.00     0.000 G0
ENDBRANCH  13  17
ENDBRANCH  11  13
ENDBRANCH  10  11
ENDBRANCH   1  10
TORSDOF 0
ENDMDL
