MODEL 1
REMARK VINA RESULT:    69.441      0.000      0.000
REMARK INTER + INTRA:         107.091
REMARK INTER:                 101.917
REMARK INTRA:                   5.174
REMARK UNBOUND:                 5.174
REMARK SMILES O=c1c(O[C@H]2O[C@@H](CO)[C@@H](O)[C@@H](O)[C@H]2O)c(-c2ccc(O)c(O)c2)oc2cc(O)cc(O)c12
REMARK SMILES IDX 4 1 3 2 16 3 25 4 2 5 26 6 1 7 33 8 27 9 31 10 28 11 30 12
REMARK SMILES IDX 17 13 18 14 19 15 20 16 24 17 22 18 21 19 23 21 32 23 29 25
REMARK SMILES IDX 5 27 14 28 6 29 12 30 7 31 10 32 15 33 13 35 8 37 9 38 11 40
REMARK H PARENT 21 20 23 22 32 24 29 26 15 34 13 36 9 39 11 41
REMARK Flexibility Score: inf
ROOT
ATOM      1  O   UNL     1       2.019  -2.146  -0.351  1.00  0.00    -0.454 OA
ENDROOT
BRANCH   1   2
ATOM      2  C   UNL     1       1.859  -1.294   0.755  1.00  0.00     0.214 A 
ATOM      3  C   UNL     1       2.936  -0.860   1.562  1.00  0.00     0.180 A 
ATOM      4  O   UNL     1       2.704  -0.120   2.641  1.00  0.00    -0.452 OA
ATOM      5  C   UNL     1       0.567  -0.865   1.083  1.00  0.00     0.239 A 
ATOM      6  C   UNL     1       1.490   0.277   3.004  1.00  0.00     0.146 A 
ATOM      7  O   UNL     1      -0.399  -1.213   0.350  1.00  0.00    -0.285 OA
ATOM      8  C   UNL     1       0.358  -0.071   2.230  1.00  0.00     0.111 A 
ATOM      9  C   UNL     1       1.345   1.054   4.159  1.00  0.00     0.094 A 
ATOM     10  C   UNL     1      -0.921   0.378   2.639  1.00  0.00     0.134 A 
ATOM     11  C   UNL     1       0.078   1.486   4.563  1.00  0.00     0.123 A 
ATOM     12  C   UNL     1      -1.049   1.150   3.804  1.00  0.00     0.093 A 
BRANCH   3  13
ATOM     13  C   UNL     1       4.334  -1.160   1.227  1.00  0.00     0.025 A 
ATOM     14  C   UNL     1       5.223  -1.585   2.223  1.00  0.00     0.016 A 
ATOM     15  C   UNL     1       6.554  -1.867   1.904  1.00  0.00     0.051 A 
ATOM     16  C   UNL     1       7.013  -1.702   0.589  1.00  0.00     0.157 A 
ATOM     17  C   UNL     1       4.786  -1.013  -0.093  1.00  0.00     0.062 A 
ATOM     18  C   UNL     1       6.127  -1.258  -0.411  1.00  0.00     0.158 A 
BRANCH  16  19
ATOM     19  O   UNL     1       8.343  -1.976   0.273  1.00  0.00    -0.504 OA
ATOM     20  H   UNL     1       8.848  -2.733   0.719  1.00  0.00     0.293 HD
ENDBRANCH  16  19
BRANCH  18  21
ATOM     21  O   UNL     1       6.561  -1.058  -1.722  1.00  0.00    -0.504 OA
ATOM     22  H   UNL     1       5.913  -0.982  -2.496  1.00  0.00     0.293 HD
ENDBRANCH  18  21
ENDBRANCH   3  13
BRANCH  10  23
ATOM     23  O   UNL     1      -2.063   0.064   1.901  1.00  0.00    -0.507 OA
ATOM     24  H   UNL     1      -2.013  -0.457   1.034  1.00  0.00     0.293 HD
ENDBRANCH  10  23
BRANCH  11  25
ATOM     25  O   UNL     1      -0.074   2.246   5.718  1.00  0.00    -0.508 OA
ATOM     26  H   UNL     1      -0.987   2.534   6.051  1.00  0.00     0.293 HD
ENDBRANCH  11  25
ENDBRANCH   1   2
BRANCH   1  27
ATOM     27  C   UNL     1       0.937  -2.723  -1.091  1.00  0.00     0.339 C 
ATOM     28  C   UNL     1       0.990  -2.259  -2.573  1.00  0.00     0.214 C 
ATOM     29  O   UNL     1      -0.293  -2.352  -0.492  1.00  0.00    -0.332 OA
ATOM     30  C   UNL     1      -0.424  -1.963  -3.125  1.00  0.00     0.180 C 
ATOM     31  C   UNL     1      -1.364  -3.114  -1.030  1.00  0.00     0.179 C 
ATOM     32  C   UNL     1      -1.412  -3.024  -2.595  1.00  0.00     0.177 C 
BRANCH  28  33
ATOM     33  O   UNL     1       1.810  -1.125  -2.714  1.00  0.00    -0.384 OA
ATOM     34  H   UNL     1       1.206  -0.339  -2.704  1.00  0.00     0.211 HD
ENDBRANCH  28  33
BRANCH  30  35
ATOM     35  O   UNL     1      -0.829  -0.677  -2.712  1.00  0.00    -0.387 OA
ATOM     36  H   UNL     1      -0.955  -0.707  -1.729  1.00  0.00     0.211 HD
ENDBRANCH  30  35
BRANCH  31  37
ATOM     37  C   UNL     1      -2.666  -2.684  -0.328  1.00  0.00     0.191 C 
BRANCH  37  38
ATOM     38  O   UNL     1      -3.127  -1.451  -0.812  1.00  0.00    -0.394 OA
ATOM     39  H   UNL     1      -2.321  -0.908  -1.021  1.00  0.00     0.210 HD
ENDBRANCH  37  38
ENDBRANCH  31  37
BRANCH  32  40
ATOM     40  O   UNL     1      -2.711  -2.851  -3.110  1.00  0.00    -0.387 OA
ATOM     41  H   UNL     1      -3.169  -3.731  -3.117  1.00  0.00     0.211 HD
ENDBRANCH  32  40
ENDBRANCH   1  27
TORSDOF 12
ENDMDL
MODEL 2
REMARK VINA RESULT:    70.199      2.033      6.441
REMARK INTER + INTRA:         108.204
REMARK INTER:                 108.778
REMARK INTRA:                  -0.574
REMARK UNBOUND:                 5.174
REMARK SMILES O=c1c(O[C@H]2O[C@@H](CO)[C@@H](O)[C@@H](O)[C@H]2O)c(-c2ccc(O)c(O)c2)oc2cc(O)cc(O)c12
REMARK SMILES IDX 4 1 3 2 16 3 25 4 2 5 26 6 1 7 33 8 27 9 31 10 28 11 30 12
REMARK SMILES IDX 17 13 18 14 19 15 20 16 24 17 22 18 21 19 23 21 32 23 29 25
REMARK SMILES IDX 5 27 14 28 6 29 12 30 7 31 10 32 15 33 13 35 8 37 9 38 11 40
REMARK H PARENT 21 20 23 22 32 24 29 26 15 34 13 36 9 39 11 41
REMARK Flexibility Score: inf
ROOT
ATOM      1  O   UNL     1      -0.230  -0.079   1.834  1.00  0.00    -0.454 OA
ENDROOT
BRANCH   1   2
ATOM      2  C   UNL     1       1.068  -0.483   1.475  1.00  0.00     0.214 A 
ATOM      3  C   UNL     1       1.336  -1.366   0.405  1.00  0.00     0.180 A 
ATOM      4  O   UNL     1       2.580  -1.771   0.171  1.00  0.00    -0.452 OA
ATOM      5  C   UNL     1       2.146   0.004   2.223  1.00  0.00     0.239 A 
ATOM      6  C   UNL     1       3.624  -1.360   0.881  1.00  0.00     0.146 A 
ATOM      7  O   UNL     1       1.925   0.822   3.157  1.00  0.00    -0.285 OA
ATOM      8  C   UNL     1       3.456  -0.438   1.941  1.00  0.00     0.111 A 
ATOM      9  C   UNL     1       4.898  -1.843   0.560  1.00  0.00     0.094 A 
ATOM     10  C   UNL     1       4.592  -0.013   2.672  1.00  0.00     0.134 A 
ATOM     11  C   UNL     1       6.015  -1.425   1.291  1.00  0.00     0.123 A 
ATOM     12  C   UNL     1       5.860  -0.513   2.340  1.00  0.00     0.093 A 
BRANCH   3  13
ATOM     13  C   UNL     1       0.284  -1.832  -0.508  1.00  0.00     0.025 A 
ATOM     14  C   UNL     1       0.578  -2.086  -1.854  1.00  0.00     0.016 A 
ATOM     15  C   UNL     1      -0.425  -2.526  -2.721  1.00  0.00     0.051 A 
ATOM     16  C   UNL     1      -1.737  -2.692  -2.255  1.00  0.00     0.157 A 
ATOM     17  C   UNL     1      -1.024  -2.016  -0.034  1.00  0.00     0.062 A 
ATOM     18  C   UNL     1      -2.040  -2.422  -0.907  1.00  0.00     0.158 A 
BRANCH  16  19
ATOM     19  O   UNL     1      -2.738  -3.125  -3.124  1.00  0.00    -0.504 OA
ATOM     20  H   UNL     1      -3.538  -2.542  -3.343  1.00  0.00     0.293 HD
ENDBRANCH  16  19
BRANCH  18  21
ATOM     21  O   UNL     1      -3.342  -2.551  -0.420  1.00  0.00    -0.504 OA
ATOM     22  H   UNL     1      -4.152  -2.415  -1.011  1.00  0.00     0.293 HD
ENDBRANCH  18  21
ENDBRANCH   3  13
BRANCH  10  23
ATOM     23  O   UNL     1       4.471   0.900   3.720  1.00  0.00    -0.507 OA
ATOM     24  H   UNL     1       4.081   0.636   4.617  1.00  0.00     0.293 HD
ENDBRANCH  10  23
BRANCH  11  25
ATOM     25  O   UNL     1       7.281  -1.914   0.986  1.00  0.00    -0.508 OA
ATOM     26  H   UNL     1       7.823  -2.446   1.657  1.00  0.00     0.293 HD
ENDBRANCH  11  25
ENDBRANCH   1   2
BRANCH   1  27
ATOM     27  C   UNL     1      -0.732   1.255   1.689  1.00  0.00     0.339 C 
ATOM     28  C   UNL     1      -2.011   1.446   2.550  1.00  0.00     0.214 C 
ATOM     29  O   UNL     1      -1.004   1.509   0.321  1.00  0.00    -0.332 OA
ATOM     30  C   UNL     1      -3.072   2.292   1.808  1.00  0.00     0.180 C 
ATOM     31  C   UNL     1      -1.244   2.893   0.106  1.00  0.00     0.179 C 
ATOM     32  C   UNL     1      -2.370   3.440   1.049  1.00  0.00     0.177 C 
BRANCH  28  33
ATOM     33  O   UNL     1      -2.557   0.203   2.919  1.00  0.00    -0.384 OA
ATOM     34  H   UNL     1      -3.367   0.076   2.360  1.00  0.00     0.211 HD
ENDBRANCH  28  33
BRANCH  30  35
ATOM     35  O   UNL     1      -3.775   1.473   0.902  1.00  0.00    -0.387 OA
ATOM     36  H   UNL     1      -3.222   1.394   0.082  1.00  0.00     0.211 HD
ENDBRANCH  30  35
BRANCH  31  37
ATOM     37  C   UNL     1      -1.510   3.109  -1.396  1.00  0.00     0.191 C 
BRANCH  37  38
ATOM     38  O   UNL     1      -1.267   1.942  -2.135  1.00  0.00    -0.394 OA
ATOM     39  H   UNL     1      -1.562   1.181  -1.568  1.00  0.00     0.210 HD
ENDBRANCH  37  38
ENDBRANCH  31  37
BRANCH  32  40
ATOM     40  O   UNL     1      -3.287   4.290   0.399  1.00  0.00    -0.387 OA
ATOM     41  H   UNL     1      -3.160   4.201  -0.580  1.00  0.00     0.211 HD
ENDBRANCH  32  40
ENDBRANCH   1  27
TORSDOF 12
ENDMDL
