MODEL 1
REMARK VINA RESULT:    -4.430      0.000      0.000
REMARK INTER + INTRA:          -8.386
REMARK INTER:                  -7.150
REMARK INTRA:                  -1.236
REMARK UNBOUND:                -1.236
REMARK SMILES C[C@H]1O[C@@H](OC[C@H]2O[C@@H](Oc3c(-c4ccc(O)c(O)c4)oc4cc(O)cc(O)c4c3=O)[C@H](O)[C@@H](O)[C@@H]2O)[C@H](O)[C@@H](O)[C@@H]1O
REMARK SMILES IDX 7 1 36 2 34 3 32 4 9 5 8 6 6 7 5 8 4 9 1 10 2 11 42 12 3 13
REMARK SMILES IDX 40 14 38 15 43 16 41 18 39 20 37 22 35 24 10 26 11 27 12 28
REMARK SMILES IDX 30 29 21 30 29 31 31 32 22 33 27 34 23 35 26 36 24 37 13 38
REMARK SMILES IDX 20 39 14 40 18 41 15 42 16 43 19 44 17 46 28 48 25 50 33 52
REMARK H PARENT 43 17 41 19 39 21 37 23 35 25 19 45 17 47 28 49 25 51 33 53
REMARK Flexibility Score: inf
ROOT
ATOM      1  C   UNL     1      81.708 -26.535  84.750  1.00  0.00     0.180 C 
ATOM      2  C   UNL     1      82.759 -27.516  85.392  1.00  0.00     0.177 C 
ATOM      3  C   UNL     1      82.091 -28.477  86.458  1.00  0.00     0.180 C 
ATOM      4  C   UNL     1      81.012 -27.799  87.371  1.00  0.00     0.214 C 
ATOM      5  C   UNL     1      80.766 -26.312  86.960  1.00  0.00     0.339 C 
ATOM      6  O   UNL     1      80.658 -26.269  85.594  1.00  0.00    -0.332 OA
ENDROOT
BRANCH   1   7
ATOM      7  C   UNL     1      80.908 -26.857  83.429  1.00  0.00     0.198 C 
BRANCH   7   8
ATOM      8  O   UNL     1      80.009 -27.854  83.831  1.00  0.00    -0.347 OA
BRANCH   8   9
ATOM      9  C   UNL     1      79.954 -29.176  83.297  1.00  0.00     0.281 C 
ATOM     10  C   UNL     1      81.009 -26.141  79.393  1.00  0.00     0.041 C 
ATOM     11  C   UNL     1      79.507 -28.381  80.997  1.00  0.00     0.150 C 
ATOM     12  C   UNL     1      77.941 -28.414  81.606  1.00  0.00     0.174 C 
ATOM     13  O   UNL     1      80.268 -29.246  81.908  1.00  0.00    -0.344 OA
ATOM     14  C   UNL     1      77.676 -29.761  82.372  1.00  0.00     0.179 C 
ATOM     15  C   UNL     1      78.685 -30.042  83.501  1.00  0.00     0.202 C 
BRANCH  12  16
ATOM     16  O   UNL     1      76.963 -28.256  80.636  1.00  0.00    -0.388 OA
ATOM     17  H   UNL     1      76.271 -28.967  80.631  1.00  0.00     0.211 HD
ENDBRANCH  12  16
BRANCH  14  18
ATOM     18  O   UNL     1      76.380 -29.784  82.900  1.00  0.00    -0.387 OA
ATOM     19  H   UNL     1      75.881 -30.455  82.361  1.00  0.00     0.211 HD
ENDBRANCH  14  18
BRANCH  15  20
ATOM     20  O   UNL     1      79.083 -31.382  83.423  1.00  0.00    -0.385 OA
ATOM     21  H   UNL     1      79.158 -31.746  84.364  1.00  0.00     0.211 HD
ENDBRANCH  15  20
ENDBRANCH   8   9
ENDBRANCH   7   8
ENDBRANCH   1   7
BRANCH   2  22
ATOM     22  O   UNL     1      83.694 -26.693  86.072  1.00  0.00    -0.387 OA
ATOM     23  H   UNL     1      83.258 -26.235  86.821  1.00  0.00     0.211 HD
ENDBRANCH   2  22
BRANCH   3  24
ATOM     24  O   UNL     1      81.538 -29.619  85.774  1.00  0.00    -0.387 OA
ATOM     25  H   UNL     1      81.858 -30.405  86.279  1.00  0.00     0.211 HD
ENDBRANCH   3  24
BRANCH   5  26
ATOM     26  O   UNL     1      79.533 -25.683  87.454  1.00  0.00    -0.454 OA
BRANCH  26  27
ATOM     27  C   UNL     1      78.623 -24.958  86.571  1.00  0.00     0.214 A 
ATOM     28  C   UNL     1      78.573 -23.167  86.534  1.00  0.00     0.180 A 
ATOM     29  C   UNL     1      77.335 -25.836  85.519  1.00  0.00     0.239 A 
ATOM     30  O   UNL     1      77.447 -22.445  85.577  1.00  0.00    -0.452 OA
ATOM     31  C   UNL     1      76.233 -24.837  84.549  1.00  0.00     0.111 A 
ATOM     32  O   UNL     1      77.450 -27.101  85.292  1.00  0.00    -0.285 OA
ATOM     33  C   UNL     1      76.313 -23.120  84.682  1.00  0.00     0.146 A 
ATOM     34  C   UNL     1      75.309 -25.367  83.677  1.00  0.00     0.134 A 
ATOM     35  C   UNL     1      75.461 -22.412  83.858  1.00  0.00     0.094 A 
ATOM     36  C   UNL     1      74.509 -24.497  82.925  1.00  0.00     0.093 A 
ATOM     37  C   UNL     1      74.587 -23.087  82.970  1.00  0.00     0.123 A 
BRANCH  28  38
ATOM     38  C   UNL     1      79.797 -22.513  86.995  1.00  0.00     0.025 A 
ATOM     39  C   UNL     1      80.219 -22.750  88.339  1.00  0.00     0.062 A 
ATOM     40  C   UNL     1      80.826 -22.554  86.022  1.00  0.00     0.016 A 
ATOM     41  C   UNL     1      81.511 -23.247  88.566  1.00  0.00     0.158 A 
ATOM     42  C   UNL     1      81.965 -23.373  86.201  1.00  0.00     0.051 A 
ATOM     43  C   UNL     1      82.289 -23.708  87.534  1.00  0.00     0.157 A 
BRANCH  41  44
ATOM     44  O   UNL     1      82.072 -23.091  89.849  1.00  0.00    -0.504 OA
ATOM     45  H   UNL     1      82.916 -22.547  89.885  1.00  0.00     0.293 HD
ENDBRANCH  41  44
BRANCH  43  46
ATOM     46  O   UNL     1      83.310 -24.640  87.781  1.00  0.00    -0.504 OA
ATOM     47  H   UNL     1      83.307 -25.460  87.194  1.00  0.00     0.293 HD
ENDBRANCH  43  46
ENDBRANCH  28  38
BRANCH  34  48
ATOM     48  O   UNL     1      75.240 -26.750  83.525  1.00  0.00    -0.507 OA
ATOM     49  H   UNL     1      76.038 -27.353  83.717  1.00  0.00     0.293 HD
ENDBRANCH  34  48
BRANCH  37  50
ATOM     50  O   UNL     1      73.810 -22.300  82.107  1.00  0.00    -0.508 OA
ATOM     51  H   UNL     1      73.007 -22.700  81.616  1.00  0.00     0.293 HD
ENDBRANCH  37  50
ENDBRANCH  26  27
ENDBRANCH   5  26
BRANCH   4  52
ATOM     52  O   UNL     1      81.403 -27.911  88.727  1.00  0.00    -0.384 OA
ATOM     53  H   UNL     1      82.086 -28.650  88.752  1.00  0.00     0.211 HD
ENDBRANCH   4  52
TORSDOF 16
ENDMDL
MODEL 2
REMARK VINA RESULT:    -3.985      1.610      2.500
REMARK INTER + INTRA:          -7.667
REMARK INTER:                  -7.447
REMARK INTRA:                  -0.221
REMARK UNBOUND:                -1.236
REMARK SMILES C[C@H]1O[C@@H](OC[C@H]2O[C@@H](Oc3c(-c4ccc(O)c(O)c4)oc4cc(O)cc(O)c4c3=O)[C@H](O)[C@@H](O)[C@@H]2O)[C@H](O)[C@@H](O)[C@@H]1O
REMARK SMILES IDX 7 1 36 2 34 3 32 4 9 5 8 6 6 7 5 8 4 9 1 10 2 11 42 12 3 13
REMARK SMILES IDX 40 14 38 15 43 16 41 18 39 20 37 22 35 24 10 26 11 27 12 28
REMARK SMILES IDX 30 29 21 30 29 31 31 32 22 33 27 34 23 35 26 36 24 37 13 38
REMARK SMILES IDX 20 39 14 40 18 41 15 42 16 43 19 44 17 46 28 48 25 50 33 52
REMARK H PARENT 43 17 41 19 39 21 37 23 35 25 19 45 17 47 28 49 25 51 33 53
REMARK Flexibility Score: inf
ROOT
ATOM      1  C   UNL     1      82.406 -28.038  84.946  1.00  0.00     0.180 C 
ATOM      2  C   UNL     1      83.921 -28.237  85.327  1.00  0.00     0.177 C 
ATOM      3  C   UNL     1      84.098 -28.615  86.854  1.00  0.00     0.180 C 
ATOM      4  C   UNL     1      83.152 -27.845  87.837  1.00  0.00     0.214 C 
ATOM      5  C   UNL     1      82.159 -26.916  87.067  1.00  0.00     0.339 C 
ATOM      6  O   UNL     1      81.648 -27.632  86.016  1.00  0.00    -0.332 OA
ENDROOT
BRANCH   1   7
ATOM      7  C   UNL     1      81.486 -29.196  84.397  1.00  0.00     0.198 C 
BRANCH   7   8
ATOM      8  O   UNL     1      80.883 -28.622  83.270  1.00  0.00    -0.347 OA
BRANCH   8   9
ATOM      9  C   UNL     1      79.685 -27.847  83.283  1.00  0.00     0.281 C 
ATOM     10  C   UNL     1      78.236 -32.658  83.851  1.00  0.00     0.041 C 
ATOM     11  C   UNL     1      78.268 -29.767  82.630  1.00  0.00     0.150 C 
ATOM     12  C   UNL     1      78.758 -29.236  81.113  1.00  0.00     0.174 C 
ATOM     13  O   UNL     1      78.507 -28.617  83.512  1.00  0.00    -0.344 OA
ATOM     14  C   UNL     1      78.610 -27.675  81.001  1.00  0.00     0.179 C 
ATOM     15  C   UNL     1      79.363 -26.900  82.099  1.00  0.00     0.202 C 
BRANCH  12  16
ATOM     16  O   UNL     1      78.065 -29.823  80.066  1.00  0.00    -0.388 OA
ATOM     17  H   UNL     1      77.122 -29.529  79.981  1.00  0.00     0.211 HD
ENDBRANCH  12  16
BRANCH  14  18
ATOM     18  O   UNL     1      79.039 -27.225  79.747  1.00  0.00    -0.387 OA
ATOM     19  H   UNL     1      78.219 -27.165  79.187  1.00  0.00     0.211 HD
ENDBRANCH  14  18
BRANCH  15  20
ATOM     20  O   UNL     1      78.524 -25.894  82.592  1.00  0.00    -0.385 OA
ATOM     21  H   UNL     1      77.910 -25.598  81.845  1.00  0.00     0.211 HD
ENDBRANCH  15  20
ENDBRANCH   8   9
ENDBRANCH   7   8
ENDBRANCH   1   7
BRANCH   2  22
ATOM     22  O   UNL     1      84.544 -26.979  85.114  1.00  0.00    -0.387 OA
ATOM     23  H   UNL     1      85.344 -26.900  85.675  1.00  0.00     0.211 HD
ENDBRANCH   2  22
BRANCH   3  24
ATOM     24  O   UNL     1      83.940 -30.040  87.003  1.00  0.00    -0.387 OA
ATOM     25  H   UNL     1      83.763 -30.184  87.964  1.00  0.00     0.211 HD
ENDBRANCH   3  24
BRANCH   5  26
ATOM     26  O   UNL     1      80.981 -26.445  87.810  1.00  0.00    -0.454 OA
BRANCH  26  27
ATOM     27  C   UNL     1      79.935 -25.645  87.179  1.00  0.00     0.214 A 
ATOM     28  C   UNL     1      79.824 -23.874  87.428  1.00  0.00     0.180 A 
ATOM     29  C   UNL     1      78.541 -26.421  86.184  1.00  0.00     0.239 A 
ATOM     30  O   UNL     1      78.553 -23.076  86.752  1.00  0.00    -0.452 OA
ATOM     31  C   UNL     1      77.283 -25.348  85.536  1.00  0.00     0.111 A 
ATOM     32  O   UNL     1      78.663 -27.631  85.749  1.00  0.00    -0.285 OA
ATOM     33  C   UNL     1      77.328 -23.668  85.922  1.00  0.00     0.146 A 
ATOM     34  C   UNL     1      76.264 -25.789  84.723  1.00  0.00     0.134 A 
ATOM     35  C   UNL     1      76.347 -22.890  85.339  1.00  0.00     0.094 A 
ATOM     36  C   UNL     1      75.341 -24.859  84.228  1.00  0.00     0.093 A 
ATOM     37  C   UNL     1      75.379 -23.470  84.481  1.00  0.00     0.123 A 
BRANCH  28  38
ATOM     38  C   UNL     1      81.079 -23.232  87.818  1.00  0.00     0.025 A 
ATOM     39  C   UNL     1      81.868 -23.862  88.829  1.00  0.00     0.062 A 
ATOM     40  C   UNL     1      81.803 -22.747  86.702  1.00  0.00     0.016 A 
ATOM     41  C   UNL     1      83.203 -24.181  88.545  1.00  0.00     0.158 A 
ATOM     42  C   UNL     1      83.001 -23.371  86.283  1.00  0.00     0.051 A 
ATOM     43  C   UNL     1      83.700 -24.103  87.268  1.00  0.00     0.157 A 
BRANCH  41  44
ATOM     44  O   UNL     1      84.081 -24.405  89.624  1.00  0.00    -0.504 OA
ATOM     45  H   UNL     1      83.655 -24.394  90.534  1.00  0.00     0.293 HD
ENDBRANCH  41  44
BRANCH  43  46
ATOM     46  O   UNL     1      84.812 -24.875  86.893  1.00  0.00    -0.504 OA
ATOM     47  H   UNL     1      85.022 -25.659  87.491  1.00  0.00     0.293 HD
ENDBRANCH  43  46
ENDBRANCH  28  38
BRANCH  34  48
ATOM     48  O   UNL     1      76.218 -27.135  84.368  1.00  0.00    -0.507 OA
ATOM     49  H   UNL     1      75.700 -27.819  84.917  1.00  0.00     0.293 HD
ENDBRANCH  34  48
BRANCH  37  50
ATOM     50  O   UNL     1      74.466 -22.604  83.861  1.00  0.00    -0.508 OA
ATOM     51  H   UNL     1      73.468 -22.654  84.081  1.00  0.00     0.293 HD
ENDBRANCH  37  50
ENDBRANCH  26  27
ENDBRANCH   5  26
BRANCH   4  52
ATOM     52  O   UNL     1      83.930 -27.121  88.772  1.00  0.00    -0.384 OA
ATOM     53  H   UNL     1      83.470 -27.243  89.660  1.00  0.00     0.211 HD
ENDBRANCH   4  52
TORSDOF 16
ENDMDL
MODEL 3
REMARK VINA RESULT:    -3.906      1.909      8.174
REMARK INTER + INTRA:          -7.540
REMARK INTER:                  -6.585
REMARK INTRA:                  -0.955
REMARK UNBOUND:                -1.236
REMARK SMILES C[C@H]1O[C@@H](OC[C@H]2O[C@@H](Oc3c(-c4ccc(O)c(O)c4)oc4cc(O)cc(O)c4c3=O)[C@H](O)[C@@H](O)[C@@H]2O)[C@H](O)[C@@H](O)[C@@H]1O
REMARK SMILES IDX 7 1 36 2 34 3 32 4 9 5 8 6 6 7 5 8 4 9 1 10 2 11 42 12 3 13
REMARK SMILES IDX 40 14 38 15 43 16 41 18 39 20 37 22 35 24 10 26 11 27 12 28
REMARK SMILES IDX 30 29 21 30 29 31 31 32 22 33 27 34 23 35 26 36 24 37 13 38
REMARK SMILES IDX 20 39 14 40 18 41 15 42 16 43 19 44 17 46 28 48 25 50 33 52
REMARK H PARENT 43 17 41 19 39 21 37 23 35 25 19 45 17 47 28 49 25 51 33 53
REMARK Flexibility Score: inf
ROOT
ATOM      1  C   UNL     1      76.977 -24.109  85.411  1.00  0.00     0.180 C 
ATOM      2  C   UNL     1      75.577 -23.508  85.013  1.00  0.00     0.177 C 
ATOM      3  C   UNL     1      74.460 -24.627  84.930  1.00  0.00     0.180 C 
ATOM      4  C   UNL     1      74.928 -25.979  84.289  1.00  0.00     0.214 C 
ATOM      5  C   UNL     1      76.452 -25.953  83.946  1.00  0.00     0.339 C 
ATOM      6  O   UNL     1      77.113 -25.419  85.022  1.00  0.00    -0.332 OA
ENDROOT
BRANCH   1   7
ATOM      7  C   UNL     1      77.486 -24.223  86.899  1.00  0.00     0.198 C 
BRANCH   7   8
ATOM      8  O   UNL     1      78.871 -24.045  86.782  1.00  0.00    -0.347 OA
BRANCH   8   9
ATOM      9  C   UNL     1      79.559 -22.808  86.961  1.00  0.00     0.281 C 
ATOM     10  C   UNL     1      81.931 -25.186  83.181  1.00  0.00     0.041 C 
ATOM     11  C   UNL     1      81.630 -23.643  85.898  1.00  0.00     0.150 C 
ATOM     12  C   UNL     1      81.878 -24.167  87.476  1.00  0.00     0.174 C 
ATOM     13  O   UNL     1      80.609 -22.595  86.020  1.00  0.00    -0.344 OA
ATOM     14  C   UNL     1      81.557 -23.015  88.495  1.00  0.00     0.179 C 
ATOM     15  C   UNL     1      80.136 -22.436  88.350  1.00  0.00     0.202 C 
BRANCH  12  16
ATOM     16  O   UNL     1      83.165 -24.624  87.715  1.00  0.00    -0.388 OA
ATOM     17  H   UNL     1      83.770 -23.953  88.122  1.00  0.00     0.211 HD
ENDBRANCH  12  16
BRANCH  14  18
ATOM     18  O   UNL     1      81.740 -23.453  89.812  1.00  0.00    -0.387 OA
ATOM     19  H   UNL     1      81.222 -22.822  90.381  1.00  0.00     0.211 HD
ENDBRANCH  14  18
BRANCH  15  20
ATOM     20  O   UNL     1      80.214 -21.040  88.405  1.00  0.00    -0.385 OA
ATOM     21  H   UNL     1      80.260 -20.762  89.376  1.00  0.00     0.211 HD
ENDBRANCH  15  20
ENDBRANCH   8   9
ENDBRANCH   7   8
ENDBRANCH   1   7
BRANCH   2  22
ATOM     22  O   UNL     1      75.743 -22.961  83.714  1.00  0.00    -0.387 OA
ATOM     23  H   UNL     1      76.465 -22.297  83.717  1.00  0.00     0.211 HD
ENDBRANCH   2  22
BRANCH   3  24
ATOM     24  O   UNL     1      73.920 -24.846  86.248  1.00  0.00    -0.387 OA
ATOM     25  H   UNL     1      73.676 -23.949  86.583  1.00  0.00     0.211 HD
ENDBRANCH   3  24
BRANCH   5  26
ATOM     26  O   UNL     1      77.101 -27.251  83.712  1.00  0.00    -0.454 OA
BRANCH  26  27
ATOM     27  C   UNL     1      78.517 -27.472  83.992  1.00  0.00     0.214 A 
ATOM     28  C   UNL     1      79.681 -27.887  82.695  1.00  0.00     0.180 A 
ATOM     29  C   UNL     1      79.202 -27.489  85.744  1.00  0.00     0.239 A 
ATOM     30  O   UNL     1      81.235 -28.212  83.125  1.00  0.00    -0.452 OA
ATOM     31  C   UNL     1      80.927 -27.851  85.958  1.00  0.00     0.111 A 
ATOM     32  O   UNL     1      78.513 -26.970  86.704  1.00  0.00    -0.285 OA
ATOM     33  C   UNL     1      81.878 -28.269  84.583  1.00  0.00     0.146 A 
ATOM     34  C   UNL     1      81.558 -27.807  87.181  1.00  0.00     0.134 A 
ATOM     35  C   UNL     1      83.221 -28.485  84.822  1.00  0.00     0.094 A 
ATOM     36  C   UNL     1      82.933 -28.070  87.244  1.00  0.00     0.093 A 
ATOM     37  C   UNL     1      83.751 -28.362  86.131  1.00  0.00     0.123 A 
BRANCH  28  38
ATOM     38  C   UNL     1      79.273 -27.472  81.353  1.00  0.00     0.025 A 
ATOM     39  C   UNL     1      79.767 -26.227  80.856  1.00  0.00     0.062 A 
ATOM     40  C   UNL     1      79.301 -28.545  80.428  1.00  0.00     0.016 A 
ATOM     41  C   UNL     1      80.460 -26.210  79.637  1.00  0.00     0.158 A 
ATOM     42  C   UNL     1      80.282 -28.605  79.411  1.00  0.00     0.051 A 
ATOM     43  C   UNL     1      80.857 -27.374  79.027  1.00  0.00     0.157 A 
BRANCH  41  44
ATOM     44  O   UNL     1      80.578 -24.986  78.951  1.00  0.00    -0.504 OA
ATOM     45  H   UNL     1      80.792 -25.060  77.972  1.00  0.00     0.293 HD
ENDBRANCH  41  44
BRANCH  43  46
ATOM     46  O   UNL     1      81.943 -27.369  78.136  1.00  0.00    -0.504 OA
ATOM     47  H   UNL     1      82.376 -28.264  77.969  1.00  0.00     0.293 HD
ENDBRANCH  43  46
ENDBRANCH  28  38
BRANCH  34  48
ATOM     48  O   UNL     1      80.824 -27.442  88.307  1.00  0.00    -0.507 OA
ATOM     49  H   UNL     1      81.133 -27.677  89.249  1.00  0.00     0.293 HD
ENDBRANCH  34  48
BRANCH  37  50
ATOM     50  O   UNL     1      85.138 -28.516  86.282  1.00  0.00    -0.508 OA
ATOM     51  H   UNL     1      85.564 -29.446  86.267  1.00  0.00     0.293 HD
ENDBRANCH  37  50
ENDBRANCH  26  27
ENDBRANCH   5  26
BRANCH   4  52
ATOM     52  O   UNL     1      74.138 -26.260  83.149  1.00  0.00    -0.384 OA
ATOM     53  H   UNL     1      73.226 -26.498  83.503  1.00  0.00     0.211 HD
ENDBRANCH   4  52
TORSDOF 16
ENDMDL
MODEL 4
REMARK VINA RESULT:    -3.478      2.411      6.581
REMARK INTER + INTRA:          -6.849
REMARK INTER:                  -5.778
REMARK INTRA:                  -1.072
REMARK UNBOUND:                -1.236
REMARK SMILES C[C@H]1O[C@@H](OC[C@H]2O[C@@H](Oc3c(-c4ccc(O)c(O)c4)oc4cc(O)cc(O)c4c3=O)[C@H](O)[C@@H](O)[C@@H]2O)[C@H](O)[C@@H](O)[C@@H]1O
REMARK SMILES IDX 7 1 36 2 34 3 32 4 9 5 8 6 6 7 5 8 4 9 1 10 2 11 42 12 3 13
REMARK SMILES IDX 40 14 38 15 43 16 41 18 39 20 37 22 35 24 10 26 11 27 12 28
REMARK SMILES IDX 30 29 21 30 29 31 31 32 22 33 27 34 23 35 26 36 24 37 13 38
REMARK SMILES IDX 20 39 14 40 18 41 15 42 16 43 19 44 17 46 28 48 25 50 33 52
REMARK H PARENT 43 17 41 19 39 21 37 23 35 25 19 45 17 47 28 49 25 51 33 53
REMARK Flexibility Score: inf
ROOT
ATOM      1  C   UNL     1      79.536 -29.204  83.731  1.00  0.00     0.180 C 
ATOM      2  C   UNL     1      78.991 -30.365  82.817  1.00  0.00     0.177 C 
ATOM      3  C   UNL     1      78.070 -29.814  81.654  1.00  0.00     0.180 C 
ATOM      4  C   UNL     1      77.110 -28.646  82.071  1.00  0.00     0.214 C 
ATOM      5  C   UNL     1      77.342 -28.216  83.555  1.00  0.00     0.339 C 
ATOM      6  O   UNL     1      78.695 -28.119  83.754  1.00  0.00    -0.332 OA
ENDROOT
BRANCH   1   7
ATOM      7  C   UNL     1      80.907 -28.467  83.479  1.00  0.00     0.198 C 
BRANCH   7   8
ATOM      8  O   UNL     1      81.328 -28.115  84.768  1.00  0.00    -0.347 OA
BRANCH   8   9
ATOM      9  C   UNL     1      82.337 -28.789  85.517  1.00  0.00     0.281 C 
ATOM     10  C   UNL     1      79.279 -26.640  88.923  1.00  0.00     0.041 C 
ATOM     11  C   UNL     1      81.988 -27.382  87.522  1.00  0.00     0.150 C 
ATOM     12  C   UNL     1      83.069 -26.417  86.672  1.00  0.00     0.174 C 
ATOM     13  O   UNL     1      82.148 -28.716  86.929  1.00  0.00    -0.344 OA
ATOM     14  C   UNL     1      84.269 -27.278  86.132  1.00  0.00     0.179 C 
ATOM     15  C   UNL     1      83.833 -28.472  85.261  1.00  0.00     0.202 C 
BRANCH  12  16
ATOM     16  O   UNL     1      83.580 -25.364  87.415  1.00  0.00    -0.388 OA
ATOM     17  H   UNL     1      82.986 -25.050  88.145  1.00  0.00     0.211 HD
ENDBRANCH  12  16
BRANCH  14  18
ATOM     18  O   UNL     1      85.161 -26.483  85.403  1.00  0.00    -0.387 OA
ATOM     19  H   UNL     1      86.068 -26.836  85.609  1.00  0.00     0.211 HD
ENDBRANCH  14  18
BRANCH  15  20
ATOM     20  O   UNL     1      84.566 -29.599  85.649  1.00  0.00    -0.385 OA
ATOM     21  H   UNL     1      85.257 -29.790  84.936  1.00  0.00     0.211 HD
ENDBRANCH  15  20
ENDBRANCH   8   9
ENDBRANCH   7   8
ENDBRANCH   1   7
BRANCH   2  22
ATOM     22  O   UNL     1      78.189 -31.179  83.660  1.00  0.00    -0.387 OA
ATOM     23  H   UNL     1      78.757 -31.688  84.276  1.00  0.00     0.211 HD
ENDBRANCH   2  22
BRANCH   3  24
ATOM     24  O   UNL     1      78.903 -29.420  80.546  1.00  0.00    -0.387 OA
ATOM     25  H   UNL     1      78.297 -29.372  79.768  1.00  0.00     0.211 HD
ENDBRANCH   3  24
BRANCH   5  26
ATOM     26  O   UNL     1      76.808 -26.907  83.956  1.00  0.00    -0.454 OA
BRANCH  26  27
ATOM     27  C   UNL     1      77.501 -26.045  84.910  1.00  0.00     0.214 A 
ATOM     28  C   UNL     1      76.755 -25.572  86.469  1.00  0.00     0.180 A 
ATOM     29  C   UNL     1      79.157 -25.245  84.518  1.00  0.00     0.239 A 
ATOM     30  O   UNL     1      77.575 -24.520  87.431  1.00  0.00    -0.452 OA
ATOM     31  C   UNL     1      79.859 -24.151  85.728  1.00  0.00     0.111 A 
ATOM     32  O   UNL     1      79.877 -25.706  83.550  1.00  0.00    -0.285 OA
ATOM     33  C   UNL     1      78.964 -23.786  87.155  1.00  0.00     0.146 A 
ATOM     34  C   UNL     1      81.103 -23.577  85.591  1.00  0.00     0.134 A 
ATOM     35  C   UNL     1      79.598 -22.971  88.073  1.00  0.00     0.094 A 
ATOM     36  C   UNL     1      81.589 -22.758  86.619  1.00  0.00     0.093 A 
ATOM     37  C   UNL     1      80.904 -22.482  87.823  1.00  0.00     0.123 A 
BRANCH  28  38
ATOM     38  C   UNL     1      75.717 -26.484  86.950  1.00  0.00     0.025 A 
ATOM     39  C   UNL     1      76.029 -27.330  88.057  1.00  0.00     0.062 A 
ATOM     40  C   UNL     1      74.443 -25.866  87.003  1.00  0.00     0.016 A 
ATOM     41  C   UNL     1      75.210 -27.289  89.195  1.00  0.00     0.158 A 
ATOM     42  C   UNL     1      73.836 -25.551  88.241  1.00  0.00     0.051 A 
ATOM     43  C   UNL     1      74.259 -26.312  89.353  1.00  0.00     0.157 A 
BRANCH  41  44
ATOM     44  O   UNL     1      75.251 -28.377  90.088  1.00  0.00    -0.504 OA
ATOM     45  H   UNL     1      76.101 -28.468  90.616  1.00  0.00     0.293 HD
ENDBRANCH  41  44
BRANCH  43  46
ATOM     46  O   UNL     1      73.817 -25.957  90.638  1.00  0.00    -0.504 OA
ATOM     47  H   UNL     1      73.621 -26.725  91.262  1.00  0.00     0.293 HD
ENDBRANCH  43  46
ENDBRANCH  28  38
BRANCH  34  48
ATOM     48  O   UNL     1      81.864 -23.876  84.464  1.00  0.00    -0.507 OA
ATOM     49  H   UNL     1      82.762 -24.352  84.532  1.00  0.00     0.293 HD
ENDBRANCH  34  48
BRANCH  37  50
ATOM     50  O   UNL     1      81.515 -21.728  88.837  1.00  0.00    -0.508 OA
ATOM     51  H   UNL     1      80.955 -21.307  89.582  1.00  0.00     0.293 HD
ENDBRANCH  37  50
ENDBRANCH  26  27
ENDBRANCH   5  26
BRANCH   4  52
ATOM     52  O   UNL     1      75.768 -29.033  81.840  1.00  0.00    -0.384 OA
ATOM     53  H   UNL     1      75.692 -29.973  82.191  1.00  0.00     0.211 HD
ENDBRANCH   4  52
TORSDOF 16
ENDMDL
MODEL 5
REMARK VINA RESULT:    -3.381      2.028      5.890
REMARK INTER + INTRA:          -6.692
REMARK INTER:                  -6.794
REMARK INTRA:                   0.102
REMARK UNBOUND:                -1.236
REMARK SMILES C[C@H]1O[C@@H](OC[C@H]2O[C@@H](Oc3c(-c4ccc(O)c(O)c4)oc4cc(O)cc(O)c4c3=O)[C@H](O)[C@@H](O)[C@@H]2O)[C@H](O)[C@@H](O)[C@@H]1O
REMARK SMILES IDX 7 1 36 2 34 3 32 4 9 5 8 6 6 7 5 8 4 9 1 10 2 11 42 12 3 13
REMARK SMILES IDX 40 14 38 15 43 16 41 18 39 20 37 22 35 24 10 26 11 27 12 28
REMARK SMILES IDX 30 29 21 30 29 31 31 32 22 33 27 34 23 35 26 36 24 37 13 38
REMARK SMILES IDX 20 39 14 40 18 41 15 42 16 43 19 44 17 46 28 48 25 50 33 52
REMARK H PARENT 43 17 41 19 39 21 37 23 35 25 19 45 17 47 28 49 25 51 33 53
REMARK Flexibility Score: inf
ROOT
ATOM      1  C   UNL     1      79.405 -23.348  87.390  1.00  0.00     0.180 C 
ATOM      2  C   UNL     1      80.223 -22.431  88.375  1.00  0.00     0.177 C 
ATOM      3  C   UNL     1      81.392 -21.666  87.632  1.00  0.00     0.180 C 
ATOM      4  C   UNL     1      82.155 -22.513  86.556  1.00  0.00     0.214 C 
ATOM      5  C   UNL     1      81.522 -23.932  86.391  1.00  0.00     0.339 C 
ATOM      6  O   UNL     1      80.161 -23.777  86.327  1.00  0.00    -0.332 OA
ENDROOT
BRANCH   1   7
ATOM      7  C   UNL     1      78.117 -22.867  86.618  1.00  0.00     0.198 C 
BRANCH   7   8
ATOM      8  O   UNL     1      77.188 -23.886  86.872  1.00  0.00    -0.347 OA
BRANCH   8   9
ATOM      9  C   UNL     1      77.146 -25.145  86.204  1.00  0.00     0.281 C 
ATOM     10  C   UNL     1      74.647 -21.908  83.230  1.00  0.00     0.041 C 
ATOM     11  C   UNL     1      75.151 -24.534  84.874  1.00  0.00     0.150 C 
ATOM     12  C   UNL     1      74.410 -25.096  86.273  1.00  0.00     0.174 C 
ATOM     13  O   UNL     1      76.506 -25.097  84.930  1.00  0.00    -0.344 OA
ATOM     14  C   UNL     1      75.050 -26.458  86.727  1.00  0.00     0.179 C 
ATOM     15  C   UNL     1      76.576 -26.390  86.931  1.00  0.00     0.202 C 
BRANCH  12  16
ATOM     16  O   UNL     1      73.040 -25.270  86.147  1.00  0.00    -0.388 OA
ATOM     17  H   UNL     1      72.677 -25.036  85.255  1.00  0.00     0.211 HD
ENDBRANCH  12  16
BRANCH  14  18
ATOM     18  O   UNL     1      74.451 -26.919  87.905  1.00  0.00    -0.387 OA
ATOM     19  H   UNL     1      73.513 -27.143  87.661  1.00  0.00     0.211 HD
ENDBRANCH  14  18
BRANCH  15  20
ATOM     20  O   UNL     1      77.157 -27.517  86.340  1.00  0.00    -0.385 OA
ATOM     21  H   UNL     1      76.930 -28.325  86.903  1.00  0.00     0.211 HD
ENDBRANCH  15  20
ENDBRANCH   8   9
ENDBRANCH   7   8
ENDBRANCH   1   7
BRANCH   2  22
ATOM     22  O   UNL     1      80.810 -23.308  89.325  1.00  0.00    -0.387 OA
ATOM     23  H   UNL     1      81.786 -23.212  89.314  1.00  0.00     0.211 HD
ENDBRANCH   2  22
BRANCH   3  24
ATOM     24  O   UNL     1      80.862 -20.458  87.049  1.00  0.00    -0.387 OA
ATOM     25  H   UNL     1      79.909 -20.648  86.877  1.00  0.00     0.211 HD
ENDBRANCH   3  24
BRANCH   5  26
ATOM     26  O   UNL     1      81.872 -24.676  85.172  1.00  0.00    -0.454 OA
BRANCH  26  27
ATOM     27  C   UNL     1      81.341 -26.008  84.896  1.00  0.00     0.214 A 
ATOM     28  C   UNL     1      82.324 -27.485  85.146  1.00  0.00     0.180 A 
ATOM     29  C   UNL     1      79.649 -26.271  84.119  1.00  0.00     0.239 A 
ATOM     30  O   UNL     1      81.669 -28.932  84.714  1.00  0.00    -0.452 OA
ATOM     31  C   UNL     1      79.150 -27.937  83.756  1.00  0.00     0.111 A 
ATOM     32  O   UNL     1      78.785 -25.312  84.129  1.00  0.00    -0.285 OA
ATOM     33  C   UNL     1      80.259 -29.227  84.031  1.00  0.00     0.146 A 
ATOM     34  C   UNL     1      77.904 -28.259  83.268  1.00  0.00     0.134 A 
ATOM     35  C   UNL     1      79.780 -30.498  83.776  1.00  0.00     0.094 A 
ATOM     36  C   UNL     1      77.589 -29.606  83.051  1.00  0.00     0.093 A 
ATOM     37  C   UNL     1      78.454 -30.691  83.316  1.00  0.00     0.123 A 
BRANCH  28  38
ATOM     38  C   UNL     1      83.418 -27.336  86.104  1.00  0.00     0.025 A 
ATOM     39  C   UNL     1      84.229 -26.163  86.018  1.00  0.00     0.062 A 
ATOM     40  C   UNL     1      83.037 -27.712  87.416  1.00  0.00     0.016 A 
ATOM     41  C   UNL     1      84.368 -25.350  87.152  1.00  0.00     0.158 A 
ATOM     42  C   UNL     1      82.873 -26.742  88.433  1.00  0.00     0.051 A 
ATOM     43  C   UNL     1      83.581 -25.533  88.261  1.00  0.00     0.157 A 
BRANCH  41  44
ATOM     44  O   UNL     1      85.458 -24.460  87.208  1.00  0.00    -0.504 OA
ATOM     45  H   UNL     1      85.318 -23.579  86.745  1.00  0.00     0.293 HD
ENDBRANCH  41  44
BRANCH  43  46
ATOM     46  O   UNL     1      83.349 -24.467  89.147  1.00  0.00    -0.504 OA
ATOM     47  H   UNL     1      83.566 -23.548  88.793  1.00  0.00     0.293 HD
ENDBRANCH  43  46
ENDBRANCH  28  38
BRANCH  34  48
ATOM     48  O   UNL     1      76.974 -27.242  83.065  1.00  0.00    -0.507 OA
ATOM     49  H   UNL     1      75.986 -27.438  82.915  1.00  0.00     0.293 HD
ENDBRANCH  34  48
BRANCH  37  50
ATOM     50  O   UNL     1      78.013 -32.014  83.156  1.00  0.00    -0.508 OA
ATOM     51  H   UNL     1      78.647 -32.735  82.804  1.00  0.00     0.293 HD
ENDBRANCH  37  50
ENDBRANCH  26  27
ENDBRANCH   5  26
BRANCH   4  52
ATOM     52  O   UNL     1      83.526 -22.587  86.899  1.00  0.00    -0.384 OA
ATOM     53  H   UNL     1      83.929 -23.257  86.264  1.00  0.00     0.211 HD
ENDBRANCH   4  52
TORSDOF 16
ENDMDL
MODEL 6
REMARK VINA RESULT:    -3.243      1.810      6.274
REMARK INTER + INTRA:          -6.469
REMARK INTER:                  -5.057
REMARK INTRA:                  -1.412
REMARK UNBOUND:                -1.236
REMARK SMILES C[C@H]1O[C@@H](OC[C@H]2O[C@@H](Oc3c(-c4ccc(O)c(O)c4)oc4cc(O)cc(O)c4c3=O)[C@H](O)[C@@H](O)[C@@H]2O)[C@H](O)[C@@H](O)[C@@H]1O
REMARK SMILES IDX 7 1 36 2 34 3 32 4 9 5 8 6 6 7 5 8 4 9 1 10 2 11 42 12 3 13
REMARK SMILES IDX 40 14 38 15 43 16 41 18 39 20 37 22 35 24 10 26 11 27 12 28
REMARK SMILES IDX 30 29 21 30 29 31 31 32 22 33 27 34 23 35 26 36 24 37 13 38
REMARK SMILES IDX 20 39 14 40 18 41 15 42 16 43 19 44 17 46 28 48 25 50 33 52
REMARK H PARENT 43 17 41 19 39 21 37 23 35 25 19 45 17 47 28 49 25 51 33 53
REMARK Flexibility Score: inf
ROOT
ATOM      1  C   UNL     1      79.510 -24.725  87.061  1.00  0.00     0.180 C 
ATOM      2  C   UNL     1      80.159 -23.326  87.385  1.00  0.00     0.177 C 
ATOM      3  C   UNL     1      80.631 -22.580  86.072  1.00  0.00     0.180 C 
ATOM      4  C   UNL     1      81.290 -23.502  84.990  1.00  0.00     0.214 C 
ATOM      5  C   UNL     1      81.257 -25.004  85.420  1.00  0.00     0.339 C 
ATOM      6  O   UNL     1      80.002 -25.272  85.902  1.00  0.00    -0.332 OA
ENDROOT
BRANCH   1   7
ATOM      7  C   UNL     1      77.967 -24.934  86.816  1.00  0.00     0.198 C 
BRANCH   7   8
ATOM      8  O   UNL     1      77.682 -24.047  85.770  1.00  0.00    -0.347 OA
BRANCH   8   9
ATOM      9  C   UNL     1      76.525 -23.216  85.688  1.00  0.00     0.281 C 
ATOM     10  C   UNL     1      75.027 -27.462  87.988  1.00  0.00     0.041 C 
ATOM     11  C   UNL     1      74.965 -25.124  85.895  1.00  0.00     0.150 C 
ATOM     12  C   UNL     1      75.236 -25.146  84.237  1.00  0.00     0.174 C 
ATOM     13  O   UNL     1      75.372 -23.776  86.312  1.00  0.00    -0.344 OA
ATOM     14  C   UNL     1      75.122 -23.695  83.641  1.00  0.00     0.179 C 
ATOM     15  C   UNL     1      76.057 -22.673  84.314  1.00  0.00     0.202 C 
BRANCH  12  16
ATOM     16  O   UNL     1      74.373 -25.979  83.542  1.00  0.00    -0.388 OA
ATOM     17  H   UNL     1      74.783 -26.438  82.764  1.00  0.00     0.211 HD
ENDBRANCH  12  16
BRANCH  14  18
ATOM     18  O   UNL     1      75.369 -23.705  82.264  1.00  0.00    -0.387 OA
ATOM     19  H   UNL     1      75.446 -24.663  82.009  1.00  0.00     0.211 HD
ENDBRANCH  14  18
BRANCH  15  20
ATOM     20  O   UNL     1      75.335 -21.499  84.558  1.00  0.00    -0.385 OA
ATOM     21  H   UNL     1      74.918 -21.567  85.476  1.00  0.00     0.211 HD
ENDBRANCH  15  20
ENDBRANCH   8   9
ENDBRANCH   7   8
ENDBRANCH   1   7
BRANCH   2  22
ATOM     22  O   UNL     1      81.311 -23.603  88.167  1.00  0.00    -0.387 OA
ATOM     23  H   UNL     1      81.608 -22.791  88.629  1.00  0.00     0.211 HD
ENDBRANCH   2  22
BRANCH   3  24
ATOM     24  O   UNL     1      79.512 -21.860  85.516  1.00  0.00    -0.387 OA
ATOM     25  H   UNL     1      79.078 -21.418  86.284  1.00  0.00     0.211 HD
ENDBRANCH   3  24
BRANCH   5  26
ATOM     26  O   UNL     1      81.475 -26.001  84.363  1.00  0.00    -0.454 OA
BRANCH  26  27
ATOM     27  C   UNL     1      80.739 -27.261  84.321  1.00  0.00     0.214 A 
ATOM     28  C   UNL     1      81.474 -28.802  84.868  1.00  0.00     0.180 A 
ATOM     29  C   UNL     1      79.026 -27.397  83.556  1.00  0.00     0.239 A 
ATOM     30  O   UNL     1      80.597 -30.183  84.691  1.00  0.00    -0.452 OA
ATOM     31  C   UNL     1      78.269 -29.002  83.491  1.00  0.00     0.111 A 
ATOM     32  O   UNL     1      78.326 -26.330  83.363  1.00  0.00    -0.285 OA
ATOM     33  C   UNL     1      79.158 -30.376  84.032  1.00  0.00     0.146 A 
ATOM     34  C   UNL     1      76.987 -29.210  83.034  1.00  0.00     0.134 A 
ATOM     35  C   UNL     1      78.483 -31.581  84.000  1.00  0.00     0.094 A 
ATOM     36  C   UNL     1      76.461 -30.508  83.059  1.00  0.00     0.093 A 
ATOM     37  C   UNL     1      77.143 -31.647  83.545  1.00  0.00     0.123 A 
BRANCH  28  38
ATOM     38  C   UNL     1      82.578 -28.649  85.814  1.00  0.00     0.025 A 
ATOM     39  C   UNL     1      83.733 -27.926  85.386  1.00  0.00     0.062 A 
ATOM     40  C   UNL     1      82.125 -28.345  87.122  1.00  0.00     0.016 A 
ATOM     41  C   UNL     1      84.164 -26.827  86.143  1.00  0.00     0.158 A 
ATOM     42  C   UNL     1      82.321 -27.060  87.680  1.00  0.00     0.051 A 
ATOM     43  C   UNL     1      83.389 -26.305  87.148  1.00  0.00     0.157 A 
BRANCH  41  44
ATOM     44  O   UNL     1      85.491 -26.382  85.981  1.00  0.00    -0.504 OA
ATOM     45  H   UNL     1      86.105 -26.571  86.754  1.00  0.00     0.293 HD
ENDBRANCH  41  44
BRANCH  43  46
ATOM     46  O   UNL     1      83.549 -24.966  87.541  1.00  0.00    -0.504 OA
ATOM     47  H   UNL     1      82.776 -24.353  87.334  1.00  0.00     0.293 HD
ENDBRANCH  43  46
ENDBRANCH  28  38
BRANCH  34  48
ATOM     48  O   UNL     1      76.232 -28.116  82.619  1.00  0.00    -0.507 OA
ATOM     49  H   UNL     1      76.620 -27.392  82.018  1.00  0.00     0.293 HD
ENDBRANCH  34  48
BRANCH  37  50
ATOM     50  O   UNL     1      76.497 -32.890  83.618  1.00  0.00    -0.508 OA
ATOM     51  H   UNL     1      76.586 -33.570  82.859  1.00  0.00     0.293 HD
ENDBRANCH  37  50
ENDBRANCH  26  27
ENDBRANCH   5  26
BRANCH   4  52
ATOM     52  O   UNL     1      82.610 -23.059  84.732  1.00  0.00    -0.384 OA
ATOM     53  H   UNL     1      82.726 -23.119  83.734  1.00  0.00     0.211 HD
ENDBRANCH   4  52
TORSDOF 16
ENDMDL
MODEL 7
REMARK VINA RESULT:    -3.200      1.790      5.911
REMARK INTER + INTRA:          -6.399
REMARK INTER:                  -5.309
REMARK INTRA:                  -1.090
REMARK UNBOUND:                -1.236
REMARK SMILES C[C@H]1O[C@@H](OC[C@H]2O[C@@H](Oc3c(-c4ccc(O)c(O)c4)oc4cc(O)cc(O)c4c3=O)[C@H](O)[C@@H](O)[C@@H]2O)[C@H](O)[C@@H](O)[C@@H]1O
REMARK SMILES IDX 7 1 36 2 34 3 32 4 9 5 8 6 6 7 5 8 4 9 1 10 2 11 42 12 3 13
REMARK SMILES IDX 40 14 38 15 43 16 41 18 39 20 37 22 35 24 10 26 11 27 12 28
REMARK SMILES IDX 30 29 21 30 29 31 31 32 22 33 27 34 23 35 26 36 24 37 13 38
REMARK SMILES IDX 20 39 14 40 18 41 15 42 16 43 19 44 17 46 28 48 25 50 33 52
REMARK H PARENT 43 17 41 19 39 21 37 23 35 25 19 45 17 47 28 49 25 51 33 53
REMARK Flexibility Score: inf
ROOT
ATOM      1  C   UNL     1      78.933 -22.959  87.028  1.00  0.00     0.180 C 
ATOM      2  C   UNL     1      79.482 -21.873  88.028  1.00  0.00     0.177 C 
ATOM      3  C   UNL     1      81.054 -21.962  88.187  1.00  0.00     0.180 C 
ATOM      4  C   UNL     1      81.630 -23.418  88.240  1.00  0.00     0.214 C 
ATOM      5  C   UNL     1      80.508 -24.486  88.033  1.00  0.00     0.339 C 
ATOM      6  O   UNL     1      79.731 -24.075  86.981  1.00  0.00    -0.332 OA
ENDROOT
BRANCH   1   7
ATOM      7  C   UNL     1      78.745 -22.705  85.483  1.00  0.00     0.198 C 
BRANCH   7   8
ATOM      8  O   UNL     1      77.507 -23.300  85.206  1.00  0.00    -0.347 OA
BRANCH   8   9
ATOM      9  C   UNL     1      76.253 -22.620  85.185  1.00  0.00     0.281 C 
ATOM     10  C   UNL     1      75.431 -26.975  87.620  1.00  0.00     0.041 C 
ATOM     11  C   UNL     1      74.956 -24.702  85.508  1.00  0.00     0.150 C 
ATOM     12  C   UNL     1      75.130 -24.721  83.837  1.00  0.00     0.174 C 
ATOM     13  O   UNL     1      75.216 -23.306  85.884  1.00  0.00    -0.344 OA
ATOM     14  C   UNL     1      74.802 -23.307  83.233  1.00  0.00     0.179 C 
ATOM     15  C   UNL     1      75.641 -22.165  83.836  1.00  0.00     0.202 C 
BRANCH  12  16
ATOM     16  O   UNL     1      74.338 -25.668  83.205  1.00  0.00    -0.388 OA
ATOM     17  H   UNL     1      73.684 -26.118  83.799  1.00  0.00     0.211 HD
ENDBRANCH  12  16
BRANCH  14  18
ATOM     18  O   UNL     1      74.968 -23.312  81.843  1.00  0.00    -0.387 OA
ATOM     19  H   UNL     1      75.946 -23.224  81.687  1.00  0.00     0.211 HD
ENDBRANCH  14  18
BRANCH  15  20
ATOM     20  O   UNL     1      74.795 -21.084  84.109  1.00  0.00    -0.385 OA
ATOM     21  H   UNL     1      74.111 -21.382  84.792  1.00  0.00     0.211 HD
ENDBRANCH  15  20
ENDBRANCH   8   9
ENDBRANCH   7   8
ENDBRANCH   1   7
BRANCH   2  22
ATOM     22  O   UNL     1      78.899 -22.174  89.287  1.00  0.00    -0.387 OA
ATOM     23  H   UNL     1      79.258 -21.576  89.976  1.00  0.00     0.211 HD
ENDBRANCH   2  22
BRANCH   3  24
ATOM     24  O   UNL     1      81.674 -21.206  87.126  1.00  0.00    -0.387 OA
ATOM     25  H   UNL     1      81.244 -20.317  87.154  1.00  0.00     0.211 HD
ENDBRANCH   3  24
BRANCH   5  26
ATOM     26  O   UNL     1      80.943 -25.843  87.672  1.00  0.00    -0.454 OA
BRANCH  26  27
ATOM     27  C   UNL     1      80.713 -26.404  86.344  1.00  0.00     0.214 A 
ATOM     28  C   UNL     1      82.049 -26.626  85.170  1.00  0.00     0.180 A 
ATOM     29  C   UNL     1      78.988 -26.797  85.706  1.00  0.00     0.239 A 
ATOM     30  O   UNL     1      81.673 -27.176  83.666  1.00  0.00    -0.452 OA
ATOM     31  C   UNL     1      78.834 -27.400  84.043  1.00  0.00     0.111 A 
ATOM     32  O   UNL     1      78.008 -26.905  86.539  1.00  0.00    -0.285 OA
ATOM     33  C   UNL     1      80.239 -27.505  83.050  1.00  0.00     0.146 A 
ATOM     34  C   UNL     1      77.636 -27.801  83.497  1.00  0.00     0.134 A 
ATOM     35  C   UNL     1      80.047 -28.031  81.788  1.00  0.00     0.094 A 
ATOM     36  C   UNL     1      77.620 -28.300  82.188  1.00  0.00     0.093 A 
ATOM     37  C   UNL     1      78.760 -28.449  81.367  1.00  0.00     0.123 A 
BRANCH  28  38
ATOM     38  C   UNL     1      83.379 -26.728  85.770  1.00  0.00     0.025 A 
ATOM     39  C   UNL     1      84.087 -25.518  86.040  1.00  0.00     0.062 A 
ATOM     40  C   UNL     1      83.429 -27.700  86.800  1.00  0.00     0.016 A 
ATOM     41  C   UNL     1      84.540 -25.274  87.345  1.00  0.00     0.158 A 
ATOM     42  C   UNL     1      83.553 -27.319  88.156  1.00  0.00     0.051 A 
ATOM     43  C   UNL     1      84.136 -26.056  88.398  1.00  0.00     0.157 A 
BRANCH  41  44
ATOM     44  O   UNL     1      85.566 -24.327  87.531  1.00  0.00    -0.504 OA
ATOM     45  H   UNL     1      85.803 -24.132  88.488  1.00  0.00     0.293 HD
ENDBRANCH  41  44
BRANCH  43  46
ATOM     46  O   UNL     1      84.152 -25.543  89.706  1.00  0.00    -0.504 OA
ATOM     47  H   UNL     1      84.794 -24.783  89.871  1.00  0.00     0.293 HD
ENDBRANCH  43  46
ENDBRANCH  28  38
BRANCH  34  48
ATOM     48  O   UNL     1      76.487 -27.758  84.283  1.00  0.00    -0.507 OA
ATOM     49  H   UNL     1      76.496 -28.030  85.264  1.00  0.00     0.293 HD
ENDBRANCH  34  48
BRANCH  37  50
ATOM     50  O   UNL     1      78.658 -29.049  80.103  1.00  0.00    -0.508 OA
ATOM     51  H   UNL     1      79.480 -29.139  79.501  1.00  0.00     0.293 HD
ENDBRANCH  37  50
ENDBRANCH  26  27
ENDBRANCH   5  26
BRANCH   4  52
ATOM     52  O   UNL     1      82.318 -23.610  89.462  1.00  0.00    -0.384 OA
ATOM     53  H   UNL     1      82.054 -22.834  90.047  1.00  0.00     0.211 HD
ENDBRANCH   4  52
TORSDOF 16
ENDMDL
MODEL 8
REMARK VINA RESULT:    -2.969      2.055      2.524
REMARK INTER + INTRA:          -6.027
REMARK INTER:                  -5.095
REMARK INTRA:                  -0.932
REMARK UNBOUND:                -1.236
REMARK SMILES C[C@H]1O[C@@H](OC[C@H]2O[C@@H](Oc3c(-c4ccc(O)c(O)c4)oc4cc(O)cc(O)c4c3=O)[C@H](O)[C@@H](O)[C@@H]2O)[C@H](O)[C@@H](O)[C@@H]1O
REMARK SMILES IDX 7 1 36 2 34 3 32 4 9 5 8 6 6 7 5 8 4 9 1 10 2 11 42 12 3 13
REMARK SMILES IDX 40 14 38 15 43 16 41 18 39 20 37 22 35 24 10 26 11 27 12 28
REMARK SMILES IDX 30 29 21 30 29 31 31 32 22 33 27 34 23 35 26 36 24 37 13 38
REMARK SMILES IDX 20 39 14 40 18 41 15 42 16 43 19 44 17 46 28 48 25 50 33 52
REMARK H PARENT 43 17 41 19 39 21 37 23 35 25 19 45 17 47 28 49 25 51 33 53
REMARK Flexibility Score: inf
ROOT
ATOM      1  C   UNL     1      81.925 -28.705  84.931  1.00  0.00     0.180 C 
ATOM      2  C   UNL     1      83.437 -29.065  85.188  1.00  0.00     0.177 C 
ATOM      3  C   UNL     1      84.070 -28.164  86.325  1.00  0.00     0.180 C 
ATOM      4  C   UNL     1      83.632 -26.660  86.295  1.00  0.00     0.214 C 
ATOM      5  C   UNL     1      82.574 -26.394  85.176  1.00  0.00     0.339 C 
ATOM      6  O   UNL     1      81.642 -27.397  85.237  1.00  0.00    -0.332 OA
ENDROOT
BRANCH   1   7
ATOM      7  C   UNL     1      80.723 -29.413  85.666  1.00  0.00     0.198 C 
BRANCH   7   8
ATOM      8  O   UNL     1      79.776 -29.582  84.648  1.00  0.00    -0.347 OA
BRANCH   8   9
ATOM      9  C   UNL     1      79.653 -30.739  83.823  1.00  0.00     0.281 C 
ATOM     10  C   UNL     1      79.480 -26.773  80.691  1.00  0.00     0.041 C 
ATOM     11  C   UNL     1      78.574 -29.487  81.982  1.00  0.00     0.150 C 
ATOM     12  C   UNL     1      77.228 -29.844  82.922  1.00  0.00     0.174 C 
ATOM     13  O   UNL     1      79.593 -30.445  82.429  1.00  0.00    -0.344 OA
ATOM     14  C   UNL     1      77.245 -31.354  83.358  1.00  0.00     0.179 C 
ATOM     15  C   UNL     1      78.529 -31.771  84.099  1.00  0.00     0.202 C 
BRANCH  12  16
ATOM     16  O   UNL     1      76.022 -29.579  82.292  1.00  0.00    -0.388 OA
ATOM     17  H   UNL     1      75.382 -30.336  82.294  1.00  0.00     0.211 HD
ENDBRANCH  12  16
BRANCH  14  18
ATOM     18  O   UNL     1      76.137 -31.651  84.160  1.00  0.00    -0.387 OA
ATOM     19  H   UNL     1      75.370 -31.168  83.751  1.00  0.00     0.211 HD
ENDBRANCH  14  18
BRANCH  15  20
ATOM     20  O   UNL     1      78.963 -33.000  83.587  1.00  0.00    -0.385 OA
ATOM     21  H   UNL     1      79.165 -33.614  84.364  1.00  0.00     0.211 HD
ENDBRANCH  15  20
ENDBRANCH   8   9
ENDBRANCH   7   8
ENDBRANCH   1   7
BRANCH   2  22
ATOM     22  O   UNL     1      84.117 -28.779  83.975  1.00  0.00    -0.387 OA
ATOM     23  H   UNL     1      84.751 -29.496  83.767  1.00  0.00     0.211 HD
ENDBRANCH   2  22
BRANCH   3  24
ATOM     24  O   UNL     1      83.778 -28.756  87.607  1.00  0.00    -0.387 OA
ATOM     25  H   UNL     1      84.656 -28.981  87.997  1.00  0.00     0.211 HD
ENDBRANCH   3  24
BRANCH   5  26
ATOM     26  O   UNL     1      81.797 -25.151  85.281  1.00  0.00    -0.454 OA
BRANCH  26  27
ATOM     27  C   UNL     1      80.374 -25.150  85.608  1.00  0.00     0.214 A 
ATOM     28  C   UNL     1      79.775 -24.621  87.212  1.00  0.00     0.180 A 
ATOM     29  C   UNL     1      79.076 -25.840  84.435  1.00  0.00     0.239 A 
ATOM     30  O   UNL     1      78.163 -24.749  87.516  1.00  0.00    -0.452 OA
ATOM     31  C   UNL     1      77.386 -25.858  84.982  1.00  0.00     0.111 A 
ATOM     32  O   UNL     1      79.367 -26.012  83.189  1.00  0.00    -0.285 OA
ATOM     33  C   UNL     1      77.014 -25.344  86.585  1.00  0.00     0.146 A 
ATOM     34  C   UNL     1      76.341 -26.258  84.181  1.00  0.00     0.134 A 
ATOM     35  C   UNL     1      75.674 -25.335  86.919  1.00  0.00     0.094 A 
ATOM     36  C   UNL     1      75.037 -26.199  84.689  1.00  0.00     0.093 A 
ATOM     37  C   UNL     1      74.692 -25.733  85.977  1.00  0.00     0.123 A 
BRANCH  28  38
ATOM     38  C   UNL     1      80.676 -23.724  87.935  1.00  0.00     0.025 A 
ATOM     39  C   UNL     1      81.720 -24.308  88.715  1.00  0.00     0.062 A 
ATOM     40  C   UNL     1      81.059 -22.606  87.154  1.00  0.00     0.016 A 
ATOM     41  C   UNL     1      83.046 -23.926  88.469  1.00  0.00     0.158 A 
ATOM     42  C   UNL     1      82.378 -22.482  86.657  1.00  0.00     0.051 A 
ATOM     43  C   UNL     1      83.380 -23.179  87.367  1.00  0.00     0.157 A 
BRANCH  41  44
ATOM     44  O   UNL     1      84.008 -24.161  89.471  1.00  0.00    -0.504 OA
ATOM     45  H   UNL     1      84.963 -24.024  89.190  1.00  0.00     0.293 HD
ENDBRANCH  41  44
BRANCH  43  46
ATOM     46  O   UNL     1      84.684 -23.229  86.847  1.00  0.00    -0.504 OA
ATOM     47  H   UNL     1      85.350 -23.761  87.385  1.00  0.00     0.293 HD
ENDBRANCH  43  46
ENDBRANCH  28  38
BRANCH  34  48
ATOM     48  O   UNL     1      76.605 -26.650  82.871  1.00  0.00    -0.507 OA
ATOM     49  H   UNL     1      75.927 -26.517  82.123  1.00  0.00     0.293 HD
ENDBRANCH  34  48
BRANCH  37  50
ATOM     50  O   UNL     1      73.347 -25.620  86.361  1.00  0.00    -0.508 OA
ATOM     51  H   UNL     1      72.598 -25.926  85.735  1.00  0.00     0.293 HD
ENDBRANCH  37  50
ENDBRANCH  26  27
ENDBRANCH   5  26
BRANCH   4  52
ATOM     52  O   UNL     1      84.774 -25.838  86.144  1.00  0.00    -0.384 OA
ATOM     53  H   UNL     1      85.319 -26.263  85.411  1.00  0.00     0.211 HD
ENDBRANCH   4  52
TORSDOF 16
ENDMDL
MODEL 9
REMARK VINA RESULT:    -2.885      2.083      8.354
REMARK INTER + INTRA:          -5.892
REMARK INTER:                  -4.631
REMARK INTRA:                  -1.261
REMARK UNBOUND:                -1.236
REMARK SMILES C[C@H]1O[C@@H](OC[C@H]2O[C@@H](Oc3c(-c4ccc(O)c(O)c4)oc4cc(O)cc(O)c4c3=O)[C@H](O)[C@@H](O)[C@@H]2O)[C@H](O)[C@@H](O)[C@@H]1O
REMARK SMILES IDX 7 1 36 2 34 3 32 4 9 5 8 6 6 7 5 8 4 9 1 10 2 11 42 12 3 13
REMARK SMILES IDX 40 14 38 15 43 16 41 18 39 20 37 22 35 24 10 26 11 27 12 28
REMARK SMILES IDX 30 29 21 30 29 31 31 32 22 33 27 34 23 35 26 36 24 37 13 38
REMARK SMILES IDX 20 39 14 40 18 41 15 42 16 43 19 44 17 46 28 48 25 50 33 52
REMARK H PARENT 43 17 41 19 39 21 37 23 35 25 19 45 17 47 28 49 25 51 33 53
REMARK Flexibility Score: inf
ROOT
ATOM      1  C   UNL     1      76.935 -24.001  85.314  1.00  0.00     0.180 C 
ATOM      2  C   UNL     1      75.482 -23.474  85.010  1.00  0.00     0.177 C 
ATOM      3  C   UNL     1      74.419 -24.646  85.015  1.00  0.00     0.180 C 
ATOM      4  C   UNL     1      74.907 -25.982  84.356  1.00  0.00     0.214 C 
ATOM      5  C   UNL     1      76.400 -25.886  83.906  1.00  0.00     0.339 C 
ATOM      6  O   UNL     1      77.107 -25.307  84.929  1.00  0.00    -0.332 OA
ENDROOT
BRANCH   1   7
ATOM      7  C   UNL     1      77.550 -24.072  86.765  1.00  0.00     0.198 C 
BRANCH   7   8
ATOM      8  O   UNL     1      78.913 -23.828  86.550  1.00  0.00    -0.347 OA
BRANCH   8   9
ATOM      9  C   UNL     1      79.962 -24.171  87.453  1.00  0.00     0.281 C 
ATOM     10  C   UNL     1      77.128 -20.740  89.853  1.00  0.00     0.041 C 
ATOM     11  C   UNL     1      79.743 -22.064  88.732  1.00  0.00     0.150 C 
ATOM     12  C   UNL     1      80.776 -21.558  87.507  1.00  0.00     0.174 C 
ATOM     13  O   UNL     1      79.859 -23.528  88.722  1.00  0.00    -0.344 OA
ATOM     14  C   UNL     1      81.936 -22.599  87.299  1.00  0.00     0.179 C 
ATOM     15  C   UNL     1      81.442 -24.029  87.012  1.00  0.00     0.202 C 
BRANCH  12  16
ATOM     16  O   UNL     1      81.336 -20.310  87.732  1.00  0.00    -0.388 OA
ATOM     17  H   UNL     1      80.717 -19.549  87.584  1.00  0.00     0.211 HD
ENDBRANCH  12  16
BRANCH  14  18
ATOM     18  O   UNL     1      82.787 -22.192  86.265  1.00  0.00    -0.387 OA
ATOM     19  H   UNL     1      82.693 -22.880  85.552  1.00  0.00     0.211 HD
ENDBRANCH  14  18
BRANCH  15  20
ATOM     20  O   UNL     1      82.190 -24.925  87.784  1.00  0.00    -0.385 OA
ATOM     21  H   UNL     1      82.812 -25.432  87.169  1.00  0.00     0.211 HD
ENDBRANCH  15  20
ENDBRANCH   8   9
ENDBRANCH   7   8
ENDBRANCH   1   7
BRANCH   2  22
ATOM     22  O   UNL     1      75.531 -22.935  83.698  1.00  0.00    -0.387 OA
ATOM     23  H   UNL     1      76.417 -22.554  83.522  1.00  0.00     0.211 HD
ENDBRANCH   2  22
BRANCH   3  24
ATOM     24  O   UNL     1      73.983 -24.875  86.370  1.00  0.00    -0.387 OA
ATOM     25  H   UNL     1      73.563 -25.769  86.362  1.00  0.00     0.211 HD
ENDBRANCH   3  24
BRANCH   5  26
ATOM     26  O   UNL     1      77.095 -27.154  83.640  1.00  0.00    -0.454 OA
BRANCH  26  27
ATOM     27  C   UNL     1      78.509 -27.344  83.949  1.00  0.00     0.214 A 
ATOM     28  C   UNL     1      79.722 -27.648  82.666  1.00  0.00     0.180 A 
ATOM     29  C   UNL     1      79.145 -27.436  85.717  1.00  0.00     0.239 A 
ATOM     30  O   UNL     1      81.274 -27.946  83.125  1.00  0.00    -0.452 OA
ATOM     31  C   UNL     1      80.874 -27.753  85.963  1.00  0.00     0.111 A 
ATOM     32  O   UNL     1      78.412 -26.994  86.683  1.00  0.00    -0.285 OA
ATOM     33  C   UNL     1      81.877 -28.063  84.596  1.00  0.00     0.146 A 
ATOM     34  C   UNL     1      81.469 -27.757  87.205  1.00  0.00     0.134 A 
ATOM     35  C   UNL     1      83.220 -28.249  84.863  1.00  0.00     0.094 A 
ATOM     36  C   UNL     1      82.849 -27.978  87.295  1.00  0.00     0.093 A 
ATOM     37  C   UNL     1      83.708 -28.182  86.192  1.00  0.00     0.123 A 
BRANCH  28  38
ATOM     38  C   UNL     1      79.338 -27.173  81.337  1.00  0.00     0.025 A 
ATOM     39  C   UNL     1      80.014 -26.029  80.814  1.00  0.00     0.062 A 
ATOM     40  C   UNL     1      79.152 -28.237  80.421  1.00  0.00     0.016 A 
ATOM     41  C   UNL     1      80.653 -26.129  79.569  1.00  0.00     0.158 A 
ATOM     42  C   UNL     1      80.070 -28.461  79.368  1.00  0.00     0.051 A 
ATOM     43  C   UNL     1      80.828 -27.343  78.954  1.00  0.00     0.157 A 
BRANCH  41  44
ATOM     44  O   UNL     1      80.947 -24.942  78.871  1.00  0.00    -0.504 OA
ATOM     45  H   UNL     1      80.879 -24.098  79.411  1.00  0.00     0.293 HD
ENDBRANCH  41  44
BRANCH  43  46
ATOM     46  O   UNL     1      81.865 -27.521  78.023  1.00  0.00    -0.504 OA
ATOM     47  H   UNL     1      82.795 -27.328  78.361  1.00  0.00     0.293 HD
ENDBRANCH  43  46
ENDBRANCH  28  38
BRANCH  34  48
ATOM     48  O   UNL     1      80.691 -27.480  88.327  1.00  0.00    -0.507 OA
ATOM     49  H   UNL     1      79.897 -28.061  88.587  1.00  0.00     0.293 HD
ENDBRANCH  34  48
BRANCH  37  50
ATOM     50  O   UNL     1      85.094 -28.299  86.376  1.00  0.00    -0.508 OA
ATOM     51  H   UNL     1      85.745 -27.960  85.664  1.00  0.00     0.293 HD
ENDBRANCH  37  50
ENDBRANCH  26  27
ENDBRANCH   5  26
BRANCH   4  52
ATOM     52  O   UNL     1      74.054 -26.315  83.276  1.00  0.00    -0.384 OA
ATOM     53  H   UNL     1      74.387 -27.200  82.931  1.00  0.00     0.211 HD
ENDBRANCH   4  52
TORSDOF 16
ENDMDL
