MODEL 1
REMARK VINA RESULT:     0.502      0.000      0.000
REMARK INTER + INTRA:           0.512
REMARK INTER:                   0.619
REMARK INTRA:                  -0.108
REMARK UNBOUND:                -0.108
REMARK SMILES CCCCCC(=O)[O-]
REMARK SMILES IDX 4 1 5 2 6 3 7 4 8 5 3 6 2 7 1 8
REMARK H PARENT
REMARK Flexibility Score: inf
ROOT
ATOM      1  C   UNL     1      27.991 -16.117  15.304  1.00  0.00     0.006 C 
ENDROOT
BRANCH   1   2
ATOM      2  C   UNL     1      28.638 -14.929  16.021  1.00  0.00     0.053 C 
BRANCH   2   3
ATOM      3  C   UNL     1      29.120 -15.335  17.378  1.00  0.00     0.041 C 
ATOM      4  O   UNL     1      29.823 -14.546  18.064  1.00  0.00    -0.550 OA
ATOM      5  O   UNL     1      28.752 -16.566  17.907  1.00  0.00    -0.550 OA
ENDBRANCH   2   3
ENDBRANCH   1   2
BRANCH   1   6
ATOM      6  C   UNL     1      28.207 -16.029  13.788  1.00  0.00     0.000 C 
BRANCH   6   7
ATOM      7  C   UNL     1      28.868 -17.304  13.253  1.00  0.00    -0.003 C 
ATOM      8  C   UNL     1      30.359 -17.330  13.577  1.00  0.00     0.004 C 
ENDBRANCH   6   7
ENDBRANCH   1   6
TORSDOF 4
ENDMDL
MODEL 2
REMARK VINA RESULT:     0.903      2.648      4.214
REMARK INTER + INTRA:           1.006
REMARK INTER:                   1.094
REMARK INTRA:                  -0.087
REMARK UNBOUND:                -0.108
REMARK SMILES CCCCCC(=O)[O-]
REMARK SMILES IDX 4 1 5 2 6 3 7 4 8 5 3 6 2 7 1 8
REMARK H PARENT
REMARK Flexibility Score: inf
ROOT
ATOM      1  C   UNL     1      28.089 -15.725  15.642  1.00  0.00     0.006 C 
ENDROOT
BRANCH   1   2
ATOM      2  C   UNL     1      28.794 -15.519  14.298  1.00  0.00     0.053 C 
BRANCH   2   3
ATOM      3  C   UNL     1      29.005 -16.830  13.610  1.00  0.00     0.041 C 
ATOM      4  O   UNL     1      28.034 -17.432  13.079  1.00  0.00    -0.550 OA
ATOM      5  O   UNL     1      30.283 -17.366  13.512  1.00  0.00    -0.550 OA
ENDBRANCH   2   3
ENDBRANCH   1   2
BRANCH   1   6
ATOM      6  C   UNL     1      29.067 -16.244  16.702  1.00  0.00     0.000 C 
BRANCH   6   7
ATOM      7  C   UNL     1      29.184 -15.260  17.871  1.00  0.00    -0.003 C 
ATOM      8  C   UNL     1      29.098 -13.815  17.387  1.00  0.00     0.004 C 
ENDBRANCH   6   7
ENDBRANCH   1   6
TORSDOF 4
ENDMDL
MODEL 3
REMARK VINA RESULT:     0.952      2.598      4.208
REMARK INTER + INTRA:           1.067
REMARK INTER:                   1.154
REMARK INTRA:                  -0.087
REMARK UNBOUND:                -0.108
REMARK SMILES CCCCCC(=O)[O-]
REMARK SMILES IDX 4 1 5 2 6 3 7 4 8 5 3 6 2 7 1 8
REMARK H PARENT
REMARK Flexibility Score: inf
ROOT
ATOM      1  C   UNL     1      28.218 -15.786  15.638  1.00  0.00     0.006 C 
ENDROOT
BRANCH   1   2
ATOM      2  C   UNL     1      28.576 -15.596  14.161  1.00  0.00     0.053 C 
BRANCH   2   3
ATOM      3  C   UNL     1      28.937 -16.906  13.536  1.00  0.00     0.041 C 
ATOM      4  O   UNL     1      28.057 -17.595  12.954  1.00  0.00    -0.550 OA
ATOM      5  O   UNL     1      30.255 -17.345  13.553  1.00  0.00    -0.550 OA
ENDBRANCH   2   3
ENDBRANCH   1   2
BRANCH   1   6
ATOM      6  C   UNL     1      28.700 -14.597  16.478  1.00  0.00     0.000 C 
BRANCH   6   7
ATOM      7  C   UNL     1      29.335 -15.073  17.790  1.00  0.00    -0.003 C 
ATOM      8  C   UNL     1      28.801 -16.444  18.195  1.00  0.00     0.004 C 
ENDBRANCH   6   7
ENDBRANCH   1   6
TORSDOF 4
ENDMDL
