MODEL 1
REMARK VINA RESULT:    -4.362      0.000      0.000
REMARK INTER + INTRA:          -6.035
REMARK INTER:                  -5.637
REMARK INTRA:                  -0.399
REMARK UNBOUND:                -0.399
REMARK SMILES CCO[C@H]1O[C@H](CO)[C@@H](O)[C@@H](O)[C@H]1O
REMARK SMILES IDX 4 1 13 2 11 3 9 4 6 5 5 6 3 7 2 8 1 9 14 10 12 12 7 14 8 15
REMARK SMILES IDX 10 17
REMARK H PARENT 14 11 12 13 8 16 10 18
REMARK Flexibility Score: inf
ROOT
ATOM      1  C   UNL     1      10.072  -5.971  35.478  1.00  0.00     0.281 C 
ATOM      2  C   UNL     1      10.029  -4.541  34.902  1.00  0.00     0.202 C 
ATOM      3  C   UNL     1      11.331  -3.759  35.185  1.00  0.00     0.179 C 
ATOM      4  C   UNL     1      11.774  -3.944  36.654  1.00  0.00     0.177 C 
ATOM      5  C   UNL     1      11.710  -5.435  37.082  1.00  0.00     0.178 C 
ATOM      6  O   UNL     1      10.409  -5.954  36.858  1.00  0.00    -0.341 OA
ENDROOT
BRANCH   1   7
ATOM      7  O   UNL     1      10.956  -6.789  34.730  1.00  0.00    -0.350 OA
BRANCH   7   8
ATOM      8  C   UNL     1      10.461  -8.110  34.657  1.00  0.00     0.160 C 
ATOM      9  C   UNL     1       9.869  -8.343  33.277  1.00  0.00     0.035 C 
ENDBRANCH   7   8
ENDBRANCH   1   7
BRANCH   2  10
ATOM     10  O   UNL     1       9.770  -4.593  33.523  1.00  0.00    -0.385 OA
ATOM     11  H   UNL     1      10.266  -5.378  33.169  1.00  0.00     0.211 HD
ENDBRANCH   2  10
BRANCH   3  12
ATOM     12  O   UNL     1      12.347  -4.090  34.267  1.00  0.00    -0.387 OA
ATOM     13  H   UNL     1      13.113  -3.479  34.412  1.00  0.00     0.211 HD
ENDBRANCH   3  12
BRANCH   5  14
ATOM     14  C   UNL     1      12.029  -5.600  38.577  1.00  0.00     0.191 C 
BRANCH  14  15
ATOM     15  O   UNL     1      13.355  -5.244  38.861  1.00  0.00    -0.394 OA
ATOM     16  H   UNL     1      13.387  -4.253  38.876  1.00  0.00     0.210 HD
ENDBRANCH  14  15
ENDBRANCH   5  14
BRANCH   4  17
ATOM     17  O   UNL     1      13.046  -3.381  36.864  1.00  0.00    -0.387 OA
ATOM     18  H   UNL     1      13.180  -3.287  37.844  1.00  0.00     0.211 HD
ENDBRANCH   4  17
TORSDOF 7
ENDMDL
MODEL 2
REMARK VINA RESULT:    -4.260      2.148      3.125
REMARK INTER + INTRA:          -5.904
REMARK INTER:                  -5.443
REMARK INTRA:                  -0.461
REMARK UNBOUND:                -0.399
REMARK SMILES CCO[C@H]1O[C@H](CO)[C@@H](O)[C@@H](O)[C@H]1O
REMARK SMILES IDX 4 1 13 2 11 3 9 4 6 5 5 6 3 7 2 8 1 9 14 10 12 12 7 14 8 15
REMARK SMILES IDX 10 17
REMARK H PARENT 14 11 12 13 8 16 10 18
REMARK Flexibility Score: inf
ROOT
ATOM      1  C   UNL     1       9.563  -5.357  35.604  1.00  0.00     0.281 C 
ATOM      2  C   UNL     1       8.892  -5.214  36.985  1.00  0.00     0.202 C 
ATOM      3  C   UNL     1       9.137  -3.823  37.612  1.00  0.00     0.179 C 
ATOM      4  C   UNL     1      10.621  -3.414  37.473  1.00  0.00     0.177 C 
ATOM      5  C   UNL     1      11.148  -3.670  36.035  1.00  0.00     0.178 C 
ATOM      6  O   UNL     1      10.944  -5.026  35.673  1.00  0.00    -0.341 OA
ENDROOT
BRANCH   1   7
ATOM      7  O   UNL     1       8.884  -4.581  34.630  1.00  0.00    -0.350 OA
BRANCH   7   8
ATOM      8  C   UNL     1       8.895  -5.241  33.381  1.00  0.00     0.160 C 
ATOM      9  C   UNL     1       8.503  -6.695  33.585  1.00  0.00     0.035 C 
ENDBRANCH   7   8
ENDBRANCH   1   7
BRANCH   2  10
ATOM     10  O   UNL     1       7.516  -5.471  36.871  1.00  0.00    -0.385 OA
ATOM     11  H   UNL     1       7.370  -6.396  37.203  1.00  0.00     0.211 HD
ENDBRANCH   2  10
BRANCH   3  12
ATOM     12  O   UNL     1       8.258  -2.854  37.091  1.00  0.00    -0.387 OA
ATOM     13  H   UNL     1       8.788  -2.066  36.809  1.00  0.00     0.211 HD
ENDBRANCH   3  12
BRANCH   5  14
ATOM     14  C   UNL     1      12.656  -3.382  35.935  1.00  0.00     0.191 C 
BRANCH  14  15
ATOM     15  O   UNL     1      12.903  -2.017  35.723  1.00  0.00    -0.394 OA
ATOM     16  H   UNL     1      12.039  -1.547  35.854  1.00  0.00     0.210 HD
ENDBRANCH  14  15
ENDBRANCH   5  14
BRANCH   4  17
ATOM     17  O   UNL     1      10.809  -2.080  37.882  1.00  0.00    -0.387 OA
ATOM     18  H   UNL     1      10.034  -1.822  38.447  1.00  0.00     0.211 HD
ENDBRANCH   4  17
TORSDOF 7
ENDMDL
MODEL 3
REMARK VINA RESULT:    -4.241      1.658      3.643
REMARK INTER + INTRA:          -5.880
REMARK INTER:                  -5.489
REMARK INTRA:                  -0.391
REMARK UNBOUND:                -0.399
REMARK SMILES CCO[C@H]1O[C@H](CO)[C@@H](O)[C@@H](O)[C@H]1O
REMARK SMILES IDX 4 1 13 2 11 3 9 4 6 5 5 6 3 7 2 8 1 9 14 10 12 12 7 14 8 15
REMARK SMILES IDX 10 17
REMARK H PARENT 14 11 12 13 8 16 10 18
REMARK Flexibility Score: inf
ROOT
ATOM      1  C   UNL     1      10.838  -5.589  37.653  1.00  0.00     0.281 C 
ATOM      2  C   UNL     1       9.903  -6.018  36.504  1.00  0.00     0.202 C 
ATOM      3  C   UNL     1      10.442  -5.588  35.122  1.00  0.00     0.179 C 
ATOM      4  C   UNL     1      10.936  -4.124  35.156  1.00  0.00     0.177 C 
ATOM      5  C   UNL     1      11.822  -3.854  36.402  1.00  0.00     0.178 C 
ATOM      6  O   UNL     1      11.121  -4.198  37.587  1.00  0.00    -0.341 OA
ENDROOT
BRANCH   1   7
ATOM      7  O   UNL     1      12.023  -6.368  37.655  1.00  0.00    -0.350 OA
BRANCH   7   8
ATOM      8  C   UNL     1      12.510  -6.518  38.973  1.00  0.00     0.160 C 
ATOM      9  C   UNL     1      13.995  -6.197  38.994  1.00  0.00     0.035 C 
ENDBRANCH   7   8
ENDBRANCH   1   7
BRANCH   2  10
ATOM     10  O   UNL     1       9.703  -7.407  36.549  1.00  0.00    -0.385 OA
ATOM     11  H   UNL     1      10.597  -7.828  36.441  1.00  0.00     0.211 HD
ENDBRANCH   2  10
BRANCH   3  12
ATOM     12  O   UNL     1      11.424  -6.479  34.645  1.00  0.00    -0.387 OA
ATOM     13  H   UNL     1      10.971  -7.248  34.217  1.00  0.00     0.211 HD
ENDBRANCH   3  12
BRANCH   5  14
ATOM     14  C   UNL     1      12.206  -2.368  36.502  1.00  0.00     0.191 C 
BRANCH  14  15
ATOM     15  O   UNL     1      13.035  -1.981  35.439  1.00  0.00    -0.394 OA
ATOM     16  H   UNL     1      13.187  -2.791  34.886  1.00  0.00     0.210 HD
ENDBRANCH  14  15
ENDBRANCH   5  14
BRANCH   4  17
ATOM     17  O   UNL     1      11.586  -3.790  33.955  1.00  0.00    -0.387 OA
ATOM     18  H   UNL     1      12.566  -3.857  34.109  1.00  0.00     0.211 HD
ENDBRANCH   4  17
TORSDOF 7
ENDMDL
MODEL 4
REMARK VINA RESULT:    -4.167      1.694      4.159
REMARK INTER + INTRA:          -5.783
REMARK INTER:                  -5.480
REMARK INTRA:                  -0.303
REMARK UNBOUND:                -0.399
REMARK SMILES CCO[C@H]1O[C@H](CO)[C@@H](O)[C@@H](O)[C@H]1O
REMARK SMILES IDX 4 1 13 2 11 3 9 4 6 5 5 6 3 7 2 8 1 9 14 10 12 12 7 14 8 15
REMARK SMILES IDX 10 17
REMARK H PARENT 14 11 12 13 8 16 10 18
REMARK Flexibility Score: inf
ROOT
ATOM      1  C   UNL     1      10.427  -5.772  37.264  1.00  0.00     0.281 C 
ATOM      2  C   UNL     1      11.898  -5.310  37.229  1.00  0.00     0.202 C 
ATOM      3  C   UNL     1      12.127  -4.170  36.212  1.00  0.00     0.179 C 
ATOM      4  C   UNL     1      11.425  -4.481  34.871  1.00  0.00     0.177 C 
ATOM      5  C   UNL     1       9.972  -4.980  35.094  1.00  0.00     0.178 C 
ATOM      6  O   UNL     1       9.966  -6.103  35.960  1.00  0.00    -0.341 OA
ENDROOT
BRANCH   1   7
ATOM      7  O   UNL     1       9.606  -4.794  37.880  1.00  0.00    -0.350 OA
BRANCH   7   8
ATOM      8  C   UNL     1       8.314  -5.315  38.115  1.00  0.00     0.160 C 
ATOM      9  C   UNL     1       8.411  -6.446  39.125  1.00  0.00     0.035 C 
ENDBRANCH   7   8
ENDBRANCH   1   7
BRANCH   2  10
ATOM     10  O   UNL     1      12.302  -4.917  38.515  1.00  0.00    -0.385 OA
ATOM     11  H   UNL     1      12.614  -3.976  38.442  1.00  0.00     0.211 HD
ENDBRANCH   2  10
BRANCH   3  12
ATOM     12  O   UNL     1      11.754  -2.918  36.740  1.00  0.00    -0.387 OA
ATOM     13  H   UNL     1      11.409  -3.053  37.658  1.00  0.00     0.211 HD
ENDBRANCH   3  12
BRANCH   5  14
ATOM     14  C   UNL     1       9.320  -5.409  33.769  1.00  0.00     0.191 C 
BRANCH  14  15
ATOM     15  O   UNL     1       8.730  -4.320  33.111  1.00  0.00    -0.394 OA
ATOM     16  H   UNL     1       8.997  -3.506  33.612  1.00  0.00     0.210 HD
ENDBRANCH  14  15
ENDBRANCH   5  14
BRANCH   4  17
ATOM     17  O   UNL     1      11.483  -3.370  34.009  1.00  0.00    -0.387 OA
ATOM     18  H   UNL     1      10.838  -3.525  33.269  1.00  0.00     0.211 HD
ENDBRANCH   4  17
TORSDOF 7
ENDMDL
MODEL 5
REMARK VINA RESULT:    -4.049      1.956      2.790
REMARK INTER + INTRA:          -5.632
REMARK INTER:                  -5.223
REMARK INTRA:                  -0.408
REMARK UNBOUND:                -0.399
REMARK SMILES CCO[C@H]1O[C@H](CO)[C@@H](O)[C@@H](O)[C@H]1O
REMARK SMILES IDX 4 1 13 2 11 3 9 4 6 5 5 6 3 7 2 8 1 9 14 10 12 12 7 14 8 15
REMARK SMILES IDX 10 17
REMARK H PARENT 14 11 12 13 8 16 10 18
REMARK Flexibility Score: inf
ROOT
ATOM      1  C   UNL     1      10.582  -4.992  34.932  1.00  0.00     0.281 C 
ATOM      2  C   UNL     1      11.708  -3.939  34.901  1.00  0.00     0.202 C 
ATOM      3  C   UNL     1      11.968  -3.322  36.293  1.00  0.00     0.179 C 
ATOM      4  C   UNL     1      10.637  -2.951  36.986  1.00  0.00     0.177 C 
ATOM      5  C   UNL     1       9.602  -4.104  36.880  1.00  0.00     0.178 C 
ATOM      6  O   UNL     1       9.403  -4.460  35.520  1.00  0.00    -0.341 OA
ENDROOT
BRANCH   1   7
ATOM      7  O   UNL     1      11.013  -6.172  35.590  1.00  0.00    -0.350 OA
BRANCH   7   8
ATOM      8  C   UNL     1      10.784  -7.302  34.774  1.00  0.00     0.160 C 
ATOM      9  C   UNL     1       9.521  -8.005  35.243  1.00  0.00     0.035 C 
ENDBRANCH   7   8
ENDBRANCH   1   7
BRANCH   2  10
ATOM     10  O   UNL     1      12.881  -4.514  34.386  1.00  0.00    -0.385 OA
ATOM     11  H   UNL     1      13.632  -4.182  34.947  1.00  0.00     0.211 HD
ENDBRANCH   2  10
BRANCH   3  12
ATOM     12  O   UNL     1      12.778  -4.155  37.090  1.00  0.00    -0.387 OA
ATOM     13  H   UNL     1      12.232  -4.505  37.838  1.00  0.00     0.211 HD
ENDBRANCH   3  12
BRANCH   5  14
ATOM     14  C   UNL     1       8.239  -3.685  37.456  1.00  0.00     0.191 C 
BRANCH  14  15
ATOM     15  O   UNL     1       8.156  -2.293  37.613  1.00  0.00    -0.394 OA
ATOM     16  H   UNL     1       8.831  -2.042  38.295  1.00  0.00     0.210 HD
ENDBRANCH  14  15
ENDBRANCH   5  14
BRANCH   4  17
ATOM     17  O   UNL     1      10.862  -2.557  38.318  1.00  0.00    -0.387 OA
ATOM     18  H   UNL     1      10.093  -1.996  38.604  1.00  0.00     0.211 HD
ENDBRANCH   4  17
TORSDOF 7
ENDMDL
MODEL 6
REMARK VINA RESULT:    -4.041      2.159      4.982
REMARK INTER + INTRA:          -5.621
REMARK INTER:                  -5.277
REMARK INTRA:                  -0.344
REMARK UNBOUND:                -0.399
REMARK SMILES CCO[C@H]1O[C@H](CO)[C@@H](O)[C@@H](O)[C@H]1O
REMARK SMILES IDX 4 1 13 2 11 3 9 4 6 5 5 6 3 7 2 8 1 9 14 10 12 12 7 14 8 15
REMARK SMILES IDX 10 17
REMARK H PARENT 14 11 12 13 8 16 10 18
REMARK Flexibility Score: inf
ROOT
ATOM      1  C   UNL     1      10.644  -3.609  37.597  1.00  0.00     0.281 C 
ATOM      2  C   UNL     1      11.721  -4.411  36.839  1.00  0.00     0.202 C 
ATOM      3  C   UNL     1      11.479  -4.414  35.314  1.00  0.00     0.179 C 
ATOM      4  C   UNL     1       9.994  -4.697  34.993  1.00  0.00     0.177 C 
ATOM      5  C   UNL     1       9.050  -3.842  35.880  1.00  0.00     0.178 C 
ATOM      6  O   UNL     1       9.339  -4.056  37.253  1.00  0.00    -0.341 OA
ENDROOT
BRANCH   1   7
ATOM      7  O   UNL     1      10.800  -2.217  37.373  1.00  0.00    -0.350 OA
BRANCH   7   8
ATOM      8  C   UNL     1      10.157  -1.480  38.392  1.00  0.00     0.160 C 
ATOM      9  C   UNL     1      10.599  -0.028  38.308  1.00  0.00     0.035 C 
ENDBRANCH   7   8
ENDBRANCH   1   7
BRANCH   2  10
ATOM     10  O   UNL     1      12.993  -3.898  37.140  1.00  0.00    -0.385 OA
ATOM     11  H   UNL     1      13.229  -4.233  38.046  1.00  0.00     0.211 HD
ENDBRANCH   2  10
BRANCH   3  12
ATOM     12  O   UNL     1      11.946  -3.230  34.709  1.00  0.00    -0.387 OA
ATOM     13  H   UNL     1      11.422  -2.468  35.063  1.00  0.00     0.211 HD
ENDBRANCH   3  12
BRANCH   5  14
ATOM     14  C   UNL     1       7.576  -4.217  35.650  1.00  0.00     0.191 C 
BRANCH  14  15
ATOM     15  O   UNL     1       7.451  -5.528  35.167  1.00  0.00    -0.394 OA
ATOM     16  H   UNL     1       8.327  -5.971  35.314  1.00  0.00     0.210 HD
ENDBRANCH  14  15
ENDBRANCH   5  14
BRANCH   4  17
ATOM     17  O   UNL     1       9.739  -4.525  33.620  1.00  0.00    -0.387 OA
ATOM     18  H   UNL     1      10.184  -5.268  33.132  1.00  0.00     0.211 HD
ENDBRANCH   4  17
TORSDOF 7
ENDMDL
MODEL 7
REMARK VINA RESULT:    -4.034      1.655      2.660
REMARK INTER + INTRA:          -5.611
REMARK INTER:                  -5.211
REMARK INTRA:                  -0.400
REMARK UNBOUND:                -0.399
REMARK SMILES CCO[C@H]1O[C@H](CO)[C@@H](O)[C@@H](O)[C@H]1O
REMARK SMILES IDX 4 1 13 2 11 3 9 4 6 5 5 6 3 7 2 8 1 9 14 10 12 12 7 14 8 15
REMARK SMILES IDX 10 17
REMARK H PARENT 14 11 12 13 8 16 10 18
REMARK Flexibility Score: inf
ROOT
ATOM      1  C   UNL     1      11.513  -4.088  36.332  1.00  0.00     0.281 C 
ATOM      2  C   UNL     1      12.681  -3.098  36.516  1.00  0.00     0.202 C 
ATOM      3  C   UNL     1      14.009  -3.816  36.844  1.00  0.00     0.179 C 
ATOM      4  C   UNL     1      13.793  -4.903  37.922  1.00  0.00     0.177 C 
ATOM      5  C   UNL     1      12.549  -5.776  37.606  1.00  0.00     0.178 C 
ATOM      6  O   UNL     1      11.401  -4.957  37.452  1.00  0.00    -0.341 OA
ENDROOT
BRANCH   1   7
ATOM      7  O   UNL     1      11.650  -4.809  35.119  1.00  0.00    -0.350 OA
BRANCH   7   8
ATOM      8  C   UNL     1      10.394  -5.299  34.694  1.00  0.00     0.160 C 
ATOM      9  C   UNL     1      10.449  -6.816  34.633  1.00  0.00     0.035 C 
ENDBRANCH   7   8
ENDBRANCH   1   7
BRANCH   2  10
ATOM     10  O   UNL     1      12.816  -2.305  35.365  1.00  0.00    -0.385 OA
ATOM     11  H   UNL     1      13.710  -2.508  34.982  1.00  0.00     0.211 HD
ENDBRANCH   2  10
BRANCH   3  12
ATOM     12  O   UNL     1      14.629  -4.320  35.684  1.00  0.00    -0.387 OA
ATOM     13  H   UNL     1      15.043  -5.193  35.902  1.00  0.00     0.211 HD
ENDBRANCH   3  12
BRANCH   5  14
ATOM     14  C   UNL     1      12.263  -6.772  38.742  1.00  0.00     0.191 C 
BRANCH  14  15
ATOM     15  O   UNL     1      13.122  -7.879  38.681  1.00  0.00    -0.394 OA
ATOM     16  H   UNL     1      13.990  -7.588  39.063  1.00  0.00     0.210 HD
ENDBRANCH  14  15
ENDBRANCH   5  14
BRANCH   4  17
ATOM     17  O   UNL     1      14.958  -5.673  38.092  1.00  0.00    -0.387 OA
ATOM     18  H   UNL     1      15.509  -5.578  37.270  1.00  0.00     0.211 HD
ENDBRANCH   4  17
TORSDOF 7
ENDMDL
MODEL 8
REMARK VINA RESULT:    -4.014      1.558      3.042
REMARK INTER + INTRA:          -5.586
REMARK INTER:                  -5.123
REMARK INTRA:                  -0.463
REMARK UNBOUND:                -0.399
REMARK SMILES CCO[C@H]1O[C@H](CO)[C@@H](O)[C@@H](O)[C@H]1O
REMARK SMILES IDX 4 1 13 2 11 3 9 4 6 5 5 6 3 7 2 8 1 9 14 10 12 12 7 14 8 15
REMARK SMILES IDX 10 17
REMARK H PARENT 14 11 12 13 8 16 10 18
REMARK Flexibility Score: inf
ROOT
ATOM      1  C   UNL     1      10.575  -5.805  35.157  1.00  0.00     0.281 C 
ATOM      2  C   UNL     1      10.720  -6.933  36.198  1.00  0.00     0.202 C 
ATOM      3  C   UNL     1      11.147  -6.399  37.583  1.00  0.00     0.179 C 
ATOM      4  C   UNL     1      12.299  -5.377  37.446  1.00  0.00     0.177 C 
ATOM      5  C   UNL     1      12.011  -4.346  36.322  1.00  0.00     0.178 C 
ATOM      6  O   UNL     1      11.755  -5.014  35.096  1.00  0.00    -0.341 OA
ENDROOT
BRANCH   1   7
ATOM      7  O   UNL     1       9.427  -5.017  35.425  1.00  0.00    -0.350 OA
BRANCH   7   8
ATOM      8  C   UNL     1       8.860  -4.549  34.218  1.00  0.00     0.160 C 
ATOM      9  C   UNL     1       8.800  -5.694  33.221  1.00  0.00     0.035 C 
ENDBRANCH   7   8
ENDBRANCH   1   7
BRANCH   2  10
ATOM     10  O   UNL     1       9.515  -7.649  36.292  1.00  0.00    -0.385 OA
ATOM     11  H   UNL     1       9.286  -7.945  35.371  1.00  0.00     0.211 HD
ENDBRANCH   2  10
BRANCH   3  12
ATOM     12  O   UNL     1      10.051  -5.884  38.304  1.00  0.00    -0.387 OA
ATOM     13  H   UNL     1      10.395  -5.309  39.033  1.00  0.00     0.211 HD
ENDBRANCH   3  12
BRANCH   5  14
ATOM     14  C   UNL     1      13.212  -3.411  36.102  1.00  0.00     0.191 C 
BRANCH  14  15
ATOM     15  O   UNL     1      14.425  -4.066  36.361  1.00  0.00    -0.394 OA
ATOM     16  H   UNL     1      14.371  -4.407  37.291  1.00  0.00     0.210 HD
ENDBRANCH  14  15
ENDBRANCH   5  14
BRANCH   4  17
ATOM     17  O   UNL     1      12.567  -4.761  38.681  1.00  0.00    -0.387 OA
ATOM     18  H   UNL     1      11.889  -5.078  39.334  1.00  0.00     0.211 HD
ENDBRANCH   4  17
TORSDOF 7
ENDMDL
MODEL 9
REMARK VINA RESULT:    -3.958     13.148     15.055
REMARK INTER + INTRA:          -5.514
REMARK INTER:                  -5.151
REMARK INTRA:                  -0.364
REMARK UNBOUND:                -0.399
REMARK SMILES CCO[C@H]1O[C@H](CO)[C@@H](O)[C@@H](O)[C@H]1O
REMARK SMILES IDX 4 1 13 2 11 3 9 4 6 5 5 6 3 7 2 8 1 9 14 10 12 12 7 14 8 15
REMARK SMILES IDX 10 17
REMARK H PARENT 14 11 12 13 8 16 10 18
REMARK Flexibility Score: inf
ROOT
ATOM      1  C   UNL     1      21.865   2.166  28.081  1.00  0.00     0.281 C 
ATOM      2  C   UNL     1      21.581   3.127  29.254  1.00  0.00     0.202 C 
ATOM      3  C   UNL     1      20.141   3.684  29.216  1.00  0.00     0.179 C 
ATOM      4  C   UNL     1      19.767   4.141  27.787  1.00  0.00     0.177 C 
ATOM      5  C   UNL     1      20.166   3.078  26.729  1.00  0.00     0.178 C 
ATOM      6  O   UNL     1      21.549   2.774  26.836  1.00  0.00    -0.341 OA
ENDROOT
BRANCH   1   7
ATOM      7  O   UNL     1      21.176   0.938  28.257  1.00  0.00    -0.350 OA
BRANCH   7   8
ATOM      8  C   UNL     1      22.090  -0.139  28.280  1.00  0.00     0.160 C 
ATOM      9  C   UNL     1      21.501  -1.271  29.106  1.00  0.00     0.035 C 
ENDBRANCH   7   8
ENDBRANCH   1   7
BRANCH   2  10
ATOM     10  O   UNL     1      21.829   2.473  30.472  1.00  0.00    -0.385 OA
ATOM     11  H   UNL     1      22.153   1.561  30.246  1.00  0.00     0.211 HD
ENDBRANCH   2  10
BRANCH   3  12
ATOM     12  O   UNL     1      19.213   2.769  29.751  1.00  0.00    -0.387 OA
ATOM     13  H   UNL     1      18.648   2.425  29.014  1.00  0.00     0.211 HD
ENDBRANCH   3  12
BRANCH   5  14
ATOM     14  C   UNL     1      19.910   3.588  25.301  1.00  0.00     0.191 C 
BRANCH  14  15
ATOM     15  O   UNL     1      18.564   3.440  24.938  1.00  0.00    -0.394 OA
ATOM     16  H   UNL     1      18.143   4.334  25.030  1.00  0.00     0.210 HD
ENDBRANCH  14  15
ENDBRANCH   5  14
BRANCH   4  17
ATOM     17  O   UNL     1      18.404   4.482  27.715  1.00  0.00    -0.387 OA
ATOM     18  H   UNL     1      18.316   5.442  27.956  1.00  0.00     0.211 HD
ENDBRANCH   4  17
TORSDOF 7
ENDMDL
