MODEL 1
REMARK VINA RESULT:    -7.003      0.000      0.000
REMARK INTER + INTRA:          -9.501
REMARK INTER:                  -9.050
REMARK INTRA:                  -0.451
REMARK UNBOUND:                -0.451
REMARK SMILES COc1cc(-c2[o+]c3cc(O)cc(O)c3cc2O)cc(OC)c1O
REMARK SMILES IDX 6 1 7 2 8 3 9 4 10 5 12 6 13 7 15 8 16 9 17 10 5 11 3 12
REMARK SMILES IDX 4 13 23 14 20 15 19 16 2 17 1 18 24 19 21 21 22 22 18 23
REMARK SMILES IDX 11 25 14 27
REMARK H PARENT 24 20 18 24 11 26 14 28
REMARK Flexibility Score: inf
ROOT
ATOM      1  C   UNL     1     -22.015  11.807 -34.990  1.00  0.00     0.402 A 
ATOM      2  O   UNL     1     -22.051  11.582 -36.301  1.00  0.00    -0.202 OA
ATOM      3  C   UNL     1     -20.960  11.429 -37.045  1.00  0.00     0.368 A 
ATOM      4  C   UNL     1     -21.099  11.198 -38.416  1.00  0.00     0.162 A 
ATOM      5  C   UNL     1     -19.973  11.036 -39.222  1.00  0.00     0.128 A 
ATOM      6  C   UNL     1     -18.696  11.106 -38.656  1.00  0.00     0.093 A 
ATOM      7  C   UNL     1     -18.529  11.336 -37.284  1.00  0.00     0.136 A 
ATOM      8  C   UNL     1     -19.672  11.498 -36.461  1.00  0.00     0.125 A 
ATOM      9  C   UNL     1     -19.602  11.720 -35.076  1.00  0.00     0.078 A 
ATOM     10  C   UNL     1     -20.774  11.866 -34.329  1.00  0.00     0.223 A 
ENDROOT
BRANCH   1  11
ATOM     11  C   UNL     1     -23.300  11.970 -34.272  1.00  0.00     0.091 A 
ATOM     12  C   UNL     1     -25.209  13.374 -33.688  1.00  0.00     0.165 A 
ATOM     13  C   UNL     1     -23.996  13.183 -34.374  1.00  0.00     0.069 A 
ATOM     14  C   UNL     1     -25.718  12.346 -32.884  1.00  0.00     0.200 A 
ATOM     15  C   UNL     1     -25.019  11.132 -32.753  1.00  0.00     0.165 A 
ATOM     16  C   UNL     1     -23.806  10.956 -33.445  1.00  0.00     0.069 A 
BRANCH  12  17
ATOM     17  O   UNL     1     -25.938  14.571 -33.780  1.00  0.00    -0.493 OA
ATOM     18  C   UNL     1     -25.480  15.746 -34.443  1.00  0.00     0.278 C 
ENDBRANCH  12  17
BRANCH  14  19
ATOM     19  O   UNL     1     -26.924  12.549 -32.213  1.00  0.00    -0.502 OA
ATOM     20  H   UNL     1     -27.191  12.007 -31.401  1.00  0.00     0.293 HD
ENDBRANCH  14  19
BRANCH  15  21
ATOM     21  O   UNL     1     -25.555  10.129 -31.928  1.00  0.00    -0.493 OA
ATOM     22  C   UNL     1     -25.241   9.963 -30.548  1.00  0.00     0.278 C 
ENDBRANCH  15  21
ENDBRANCH   1  11
BRANCH  10  23
ATOM     23  O   UNL     1     -20.707  12.036 -32.945  1.00  0.00    -0.500 OA
ATOM     24  H   UNL     1     -20.375  12.898 -32.531  1.00  0.00     0.294 HD
ENDBRANCH  10  23
BRANCH   5  25
ATOM     25  O   UNL     1     -20.132  10.806 -40.587  1.00  0.00    -0.507 OA
ATOM     26  H   UNL     1     -21.010  10.474 -40.971  1.00  0.00     0.293 HD
ENDBRANCH   5  25
BRANCH   7  27
ATOM     27  O   UNL     1     -17.219  11.396 -36.796  1.00  0.00    -0.507 OA
ATOM     28  H   UNL     1     -16.978  11.447 -35.817  1.00  0.00     0.293 HD
ENDBRANCH   7  27
TORSDOF 7
ENDMDL
MODEL 2
REMARK VINA RESULT:    -6.955      0.077      2.635
REMARK INTER + INTRA:          -9.438
REMARK INTER:                  -9.020
REMARK INTRA:                  -0.418
REMARK UNBOUND:                -0.451
REMARK SMILES COc1cc(-c2[o+]c3cc(O)cc(O)c3cc2O)cc(OC)c1O
REMARK SMILES IDX 6 1 7 2 8 3 9 4 10 5 12 6 13 7 15 8 16 9 17 10 5 11 3 12
REMARK SMILES IDX 4 13 23 14 20 15 19 16 2 17 1 18 24 19 21 21 22 22 18 23
REMARK SMILES IDX 11 25 14 27
REMARK H PARENT 24 20 18 24 11 26 14 28
REMARK Flexibility Score: inf
ROOT
ATOM      1  C   UNL     1     -21.944  11.834 -34.974  1.00  0.00     0.402 A 
ATOM      2  O   UNL     1     -21.989  11.616 -36.285  1.00  0.00    -0.202 OA
ATOM      3  C   UNL     1     -20.904  11.444 -37.034  1.00  0.00     0.368 A 
ATOM      4  C   UNL     1     -21.052  11.223 -38.406  1.00  0.00     0.162 A 
ATOM      5  C   UNL     1     -19.933  11.041 -39.217  1.00  0.00     0.128 A 
ATOM      6  C   UNL     1     -18.652  11.081 -38.654  1.00  0.00     0.093 A 
ATOM      7  C   UNL     1     -18.476  11.301 -37.281  1.00  0.00     0.136 A 
ATOM      8  C   UNL     1     -19.613  11.483 -36.454  1.00  0.00     0.125 A 
ATOM      9  C   UNL     1     -19.534  11.696 -35.068  1.00  0.00     0.078 A 
ATOM     10  C   UNL     1     -20.700  11.863 -34.316  1.00  0.00     0.223 A 
ENDROOT
BRANCH   1  11
ATOM     11  C   UNL     1     -23.222  12.021 -34.250  1.00  0.00     0.091 A 
ATOM     12  C   UNL     1     -24.949  11.116 -32.781  1.00  0.00     0.165 A 
ATOM     13  C   UNL     1     -23.728  10.975 -33.465  1.00  0.00     0.069 A 
ATOM     14  C   UNL     1     -25.673  12.311 -32.898  1.00  0.00     0.200 A 
ATOM     15  C   UNL     1     -25.189  13.361 -33.700  1.00  0.00     0.165 A 
ATOM     16  C   UNL     1     -23.967  13.204 -34.379  1.00  0.00     0.069 A 
BRANCH  12  17
ATOM     17  O   UNL     1     -25.476  10.093 -31.976  1.00  0.00    -0.493 OA
ATOM     18  C   UNL     1     -25.230   9.957 -30.580  1.00  0.00     0.278 C 
ENDBRANCH  12  17
BRANCH  14  19
ATOM     19  O   UNL     1     -26.880  12.438 -32.210  1.00  0.00    -0.502 OA
ATOM     20  H   UNL     1     -27.237  13.334 -31.902  1.00  0.00     0.293 HD
ENDBRANCH  14  19
BRANCH  15  21
ATOM     21  O   UNL     1     -25.949  14.538 -33.802  1.00  0.00    -0.493 OA
ATOM     22  C   UNL     1     -25.449  15.786 -34.273  1.00  0.00     0.278 C 
ENDBRANCH  15  21
ENDBRANCH   1  11
BRANCH  10  23
ATOM     23  O   UNL     1     -20.625  12.024 -32.932  1.00  0.00    -0.500 OA
ATOM     24  H   UNL     1     -19.837  12.485 -32.492  1.00  0.00     0.294 HD
ENDBRANCH  10  23
BRANCH   5  25
ATOM     25  O   UNL     1     -20.101  10.822 -40.582  1.00  0.00    -0.507 OA
ATOM     26  H   UNL     1     -19.494  10.194 -41.097  1.00  0.00     0.293 HD
ENDBRANCH   5  25
BRANCH   7  27
ATOM     27  O   UNL     1     -17.164  11.331 -36.798  1.00  0.00    -0.507 OA
ATOM     28  H   UNL     1     -16.559  10.524 -36.744  1.00  0.00     0.293 HD
ENDBRANCH   7  27
TORSDOF 7
ENDMDL
MODEL 3
REMARK VINA RESULT:    -6.906      5.159      8.344
REMARK INTER + INTRA:          -9.375
REMARK INTER:                  -8.853
REMARK INTRA:                  -0.522
REMARK UNBOUND:                -0.451
REMARK SMILES COc1cc(-c2[o+]c3cc(O)cc(O)c3cc2O)cc(OC)c1O
REMARK SMILES IDX 6 1 7 2 8 3 9 4 10 5 12 6 13 7 15 8 16 9 17 10 5 11 3 12
REMARK SMILES IDX 4 13 23 14 20 15 19 16 2 17 1 18 24 19 21 21 22 22 18 23
REMARK SMILES IDX 11 25 14 27
REMARK H PARENT 24 20 18 24 11 26 14 28
REMARK Flexibility Score: inf
ROOT
ATOM      1  C   UNL     1     -21.929  15.187 -40.110  1.00  0.00     0.402 A 
ATOM      2  O   UNL     1     -22.718  15.978 -39.390  1.00  0.00    -0.202 OA
ATOM      3  C   UNL     1     -23.122  17.176 -39.800  1.00  0.00     0.368 A 
ATOM      4  C   UNL     1     -23.950  17.936 -38.970  1.00  0.00     0.162 A 
ATOM      5  C   UNL     1     -24.388  19.198 -39.372  1.00  0.00     0.128 A 
ATOM      6  C   UNL     1     -23.995  19.707 -40.615  1.00  0.00     0.093 A 
ATOM      7  C   UNL     1     -23.166  18.965 -41.467  1.00  0.00     0.136 A 
ATOM      8  C   UNL     1     -22.722  17.680 -41.061  1.00  0.00     0.125 A 
ATOM      9  C   UNL     1     -21.899  16.862 -41.853  1.00  0.00     0.078 A 
ATOM     10  C   UNL     1     -21.506  15.604 -41.387  1.00  0.00     0.223 A 
ENDROOT
BRANCH   1  11
ATOM     11  C   UNL     1     -21.539  13.878 -39.540  1.00  0.00     0.091 A 
ATOM     12  C   UNL     1     -19.938  12.537 -38.277  1.00  0.00     0.165 A 
ATOM     13  C   UNL     1     -20.344  13.772 -38.815  1.00  0.00     0.069 A 
ATOM     14  C   UNL     1     -20.731  11.400 -38.481  1.00  0.00     0.200 A 
ATOM     15  C   UNL     1     -21.922  11.486 -39.225  1.00  0.00     0.165 A 
ATOM     16  C   UNL     1     -22.313  12.728 -39.758  1.00  0.00     0.069 A 
BRANCH  12  17
ATOM     17  O   UNL     1     -18.753  12.400 -37.534  1.00  0.00    -0.493 OA
ATOM     18  C   UNL     1     -17.882  13.475 -37.198  1.00  0.00     0.278 C 
ENDBRANCH  12  17
BRANCH  14  19
ATOM     19  O   UNL     1     -20.316  10.183 -37.937  1.00  0.00    -0.502 OA
ATOM     20  H   UNL     1     -20.390   9.978 -36.948  1.00  0.00     0.293 HD
ENDBRANCH  14  19
BRANCH  15  21
ATOM     21  O   UNL     1     -22.683  10.321 -39.419  1.00  0.00    -0.493 OA
ATOM     22  C   UNL     1     -22.556   9.447 -40.536  1.00  0.00     0.278 C 
ENDBRANCH  15  21
ENDBRANCH   1  11
BRANCH  10  23
ATOM     23  O   UNL     1     -20.731  14.769 -42.193  1.00  0.00    -0.500 OA
ATOM     24  H   UNL     1     -20.872  14.717 -43.195  1.00  0.00     0.294 HD
ENDBRANCH  10  23
BRANCH   5  25
ATOM     25  O   UNL     1     -25.213  19.940 -38.531  1.00  0.00    -0.507 OA
ATOM     26  H   UNL     1     -25.980  19.511 -38.025  1.00  0.00     0.293 HD
ENDBRANCH   5  25
BRANCH   7  27
ATOM     27  O   UNL     1     -22.815  19.545 -42.690  1.00  0.00    -0.507 OA
ATOM     28  H   UNL     1     -21.889  19.874 -42.919  1.00  0.00     0.293 HD
ENDBRANCH   7  27
TORSDOF 7
ENDMDL
MODEL 4
REMARK VINA RESULT:    -6.870      5.100      8.386
REMARK INTER + INTRA:          -9.330
REMARK INTER:                  -8.827
REMARK INTRA:                  -0.502
REMARK UNBOUND:                -0.451
REMARK SMILES COc1cc(-c2[o+]c3cc(O)cc(O)c3cc2O)cc(OC)c1O
REMARK SMILES IDX 6 1 7 2 8 3 9 4 10 5 12 6 13 7 15 8 16 9 17 10 5 11 3 12
REMARK SMILES IDX 4 13 23 14 20 15 19 16 2 17 1 18 24 19 21 21 22 22 18 23
REMARK SMILES IDX 11 25 14 27
REMARK H PARENT 24 20 18 24 11 26 14 28
REMARK Flexibility Score: inf
ROOT
ATOM      1  C   UNL     1     -21.895  15.195 -40.119  1.00  0.00     0.402 A 
ATOM      2  O   UNL     1     -22.687  15.988 -39.403  1.00  0.00    -0.202 OA
ATOM      3  C   UNL     1     -23.096  17.182 -39.822  1.00  0.00     0.368 A 
ATOM      4  C   UNL     1     -23.926  17.944 -38.996  1.00  0.00     0.162 A 
ATOM      5  C   UNL     1     -24.368  19.201 -39.407  1.00  0.00     0.128 A 
ATOM      6  C   UNL     1     -23.978  19.703 -40.653  1.00  0.00     0.093 A 
ATOM      7  C   UNL     1     -23.146  18.959 -41.501  1.00  0.00     0.136 A 
ATOM      8  C   UNL     1     -22.697  17.678 -41.086  1.00  0.00     0.125 A 
ATOM      9  C   UNL     1     -21.873  16.857 -41.873  1.00  0.00     0.078 A 
ATOM     10  C   UNL     1     -21.474  15.605 -41.399  1.00  0.00     0.223 A 
ENDROOT
BRANCH   1  11
ATOM     11  C   UNL     1     -21.500  13.891 -39.540  1.00  0.00     0.091 A 
ATOM     12  C   UNL     1     -21.965  11.517 -39.213  1.00  0.00     0.165 A 
ATOM     13  C   UNL     1     -22.305  12.766 -39.765  1.00  0.00     0.069 A 
ATOM     14  C   UNL     1     -20.816  11.403 -38.418  1.00  0.00     0.200 A 
ATOM     15  C   UNL     1     -20.010  12.529 -38.165  1.00  0.00     0.165 A 
ATOM     16  C   UNL     1     -20.364  13.770 -38.724  1.00  0.00     0.069 A 
BRANCH  12  17
ATOM     17  O   UNL     1     -22.742  10.368 -39.430  1.00  0.00    -0.493 OA
ATOM     18  C   UNL     1     -22.574   9.475 -40.526  1.00  0.00     0.278 C 
ENDBRANCH  12  17
BRANCH  14  19
ATOM     19  O   UNL     1     -20.490  10.157 -37.880  1.00  0.00    -0.502 OA
ATOM     20  H   UNL     1     -20.711   9.289 -38.351  1.00  0.00     0.293 HD
ENDBRANCH  14  19
BRANCH  15  21
ATOM     21  O   UNL     1     -18.874  12.377 -37.353  1.00  0.00    -0.493 OA
ATOM     22  C   UNL     1     -17.904  13.393 -37.120  1.00  0.00     0.278 C 
ENDBRANCH  15  21
ENDBRANCH   1  11
BRANCH  10  23
ATOM     23  O   UNL     1     -20.697  14.767 -42.200  1.00  0.00    -0.500 OA
ATOM     24  H   UNL     1     -20.283  15.093 -43.065  1.00  0.00     0.294 HD
ENDBRANCH  10  23
BRANCH   5  25
ATOM     25  O   UNL     1     -25.196  19.946 -38.570  1.00  0.00    -0.507 OA
ATOM     26  H   UNL     1     -26.142  20.191 -38.839  1.00  0.00     0.293 HD
ENDBRANCH   5  25
BRANCH   7  27
ATOM     27  O   UNL     1     -22.799  19.532 -42.728  1.00  0.00    -0.507 OA
ATOM     28  H   UNL     1     -22.139  19.130 -43.377  1.00  0.00     0.293 HD
ENDBRANCH   7  27
TORSDOF 7
ENDMDL
MODEL 5
REMARK VINA RESULT:    -6.769      2.620      4.476
REMARK INTER + INTRA:          -9.199
REMARK INTER:                  -8.728
REMARK INTRA:                  -0.471
REMARK UNBOUND:                -0.451
REMARK SMILES COc1cc(-c2[o+]c3cc(O)cc(O)c3cc2O)cc(OC)c1O
REMARK SMILES IDX 6 1 7 2 8 3 9 4 10 5 12 6 13 7 15 8 16 9 17 10 5 11 3 12
REMARK SMILES IDX 4 13 23 14 20 15 19 16 2 17 1 18 24 19 21 21 22 22 18 23
REMARK SMILES IDX 11 25 14 27
REMARK H PARENT 24 20 18 24 11 26 14 28
REMARK Flexibility Score: inf
ROOT
ATOM      1  C   UNL     1     -22.594  13.909 -38.016  1.00  0.00     0.402 A 
ATOM      2  O   UNL     1     -21.561  13.414 -37.340  1.00  0.00    -0.202 OA
ATOM      3  C   UNL     1     -20.627  12.647 -37.894  1.00  0.00     0.368 A 
ATOM      4  C   UNL     1     -19.580  12.172 -37.100  1.00  0.00     0.162 A 
ATOM      5  C   UNL     1     -18.586  11.364 -37.652  1.00  0.00     0.128 A 
ATOM      6  C   UNL     1     -18.638  11.026 -39.009  1.00  0.00     0.093 A 
ATOM      7  C   UNL     1     -19.677  11.490 -39.827  1.00  0.00     0.136 A 
ATOM      8  C   UNL     1     -20.687  12.314 -39.268  1.00  0.00     0.125 A 
ATOM      9  C   UNL     1     -21.759  12.835 -40.013  1.00  0.00     0.078 A 
ATOM     10  C   UNL     1     -22.714  13.645 -39.394  1.00  0.00     0.223 A 
ENDROOT
BRANCH   1  11
ATOM     11  C   UNL     1     -23.576  14.742 -37.285  1.00  0.00     0.091 A 
ATOM     12  C   UNL     1     -24.457  16.954 -36.747  1.00  0.00     0.165 A 
ATOM     13  C   UNL     1     -23.549  16.135 -37.443  1.00  0.00     0.069 A 
ATOM     14  C   UNL     1     -25.388  16.370 -35.877  1.00  0.00     0.200 A 
ATOM     15  C   UNL     1     -25.413  14.975 -35.692  1.00  0.00     0.165 A 
ATOM     16  C   UNL     1     -24.497  14.170 -36.394  1.00  0.00     0.069 A 
BRANCH  12  17
ATOM     17  O   UNL     1     -24.466  18.350 -36.893  1.00  0.00    -0.493 OA
ATOM     18  C   UNL     1     -25.102  19.047 -37.960  1.00  0.00     0.278 C 
ENDBRANCH  12  17
BRANCH  14  19
ATOM     19  O   UNL     1     -26.285  17.195 -35.197  1.00  0.00    -0.502 OA
ATOM     20  H   UNL     1     -26.914  17.824 -35.680  1.00  0.00     0.293 HD
ENDBRANCH  14  19
BRANCH  15  21
ATOM     21  O   UNL     1     -26.352  14.428 -34.802  1.00  0.00    -0.493 OA
ATOM     22  C   UNL     1     -26.025  13.786 -33.574  1.00  0.00     0.278 C 
ENDBRANCH  15  21
ENDBRANCH   1  11
BRANCH  10  23
ATOM     23  O   UNL     1     -23.751  14.204 -40.143  1.00  0.00    -0.500 OA
ATOM     24  H   UNL     1     -24.723  14.045 -39.906  1.00  0.00     0.294 HD
ENDBRANCH  10  23
BRANCH   5  25
ATOM     25  O   UNL     1     -17.550  10.900 -36.845  1.00  0.00    -0.507 OA
ATOM     26  H   UNL     1     -17.171  11.462 -36.092  1.00  0.00     0.293 HD
ENDBRANCH   5  25
BRANCH   7  27
ATOM     27  O   UNL     1     -19.659  11.105 -41.171  1.00  0.00    -0.507 OA
ATOM     28  H   UNL     1     -20.269  10.407 -41.571  1.00  0.00     0.293 HD
ENDBRANCH   7  27
TORSDOF 7
ENDMDL
MODEL 6
REMARK VINA RESULT:    -6.757      1.517      3.189
REMARK INTER + INTRA:          -9.183
REMARK INTER:                  -8.769
REMARK INTRA:                  -0.414
REMARK UNBOUND:                -0.451
REMARK SMILES COc1cc(-c2[o+]c3cc(O)cc(O)c3cc2O)cc(OC)c1O
REMARK SMILES IDX 6 1 7 2 8 3 9 4 10 5 12 6 13 7 15 8 16 9 17 10 5 11 3 12
REMARK SMILES IDX 4 13 23 14 20 15 19 16 2 17 1 18 24 19 21 21 22 22 18 23
REMARK SMILES IDX 11 25 14 27
REMARK H PARENT 24 20 18 24 11 26 14 28
REMARK Flexibility Score: inf
ROOT
ATOM      1  C   UNL     1     -21.837  11.841 -34.414  1.00  0.00     0.402 A 
ATOM      2  O   UNL     1     -20.857  11.937 -33.520  1.00  0.00    -0.202 OA
ATOM      3  C   UNL     1     -19.571  11.796 -33.828  1.00  0.00     0.368 A 
ATOM      4  C   UNL     1     -18.614  11.913 -32.817  1.00  0.00     0.162 A 
ATOM      5  C   UNL     1     -17.258  11.767 -33.109  1.00  0.00     0.128 A 
ATOM      6  C   UNL     1     -16.853  11.503 -34.422  1.00  0.00     0.093 A 
ATOM      7  C   UNL     1     -17.794  11.382 -35.454  1.00  0.00     0.136 A 
ATOM      8  C   UNL     1     -19.173  11.532 -35.160  1.00  0.00     0.125 A 
ATOM      9  C   UNL     1     -20.185  11.439 -36.131  1.00  0.00     0.078 A 
ATOM     10  C   UNL     1     -21.523  11.604 -35.766  1.00  0.00     0.223 A 
ENDROOT
BRANCH   1  11
ATOM     11  C   UNL     1     -23.232  12.007 -33.946  1.00  0.00     0.091 A 
ATOM     12  C   UNL     1     -25.248  13.377 -33.814  1.00  0.00     0.165 A 
ATOM     13  C   UNL     1     -23.927  13.183 -34.260  1.00  0.00     0.069 A 
ATOM     14  C   UNL     1     -25.866  12.390 -33.036  1.00  0.00     0.200 A 
ATOM     15  C   UNL     1     -25.173  11.214 -32.694  1.00  0.00     0.165 A 
ATOM     16  C   UNL     1     -23.853  11.035 -33.147  1.00  0.00     0.069 A 
BRANCH  12  17
ATOM     17  O   UNL     1     -25.976  14.537 -34.122  1.00  0.00    -0.493 OA
ATOM     18  C   UNL     1     -25.396  15.819 -34.347  1.00  0.00     0.278 C 
ENDBRANCH  12  17
BRANCH  14  19
ATOM     19  O   UNL     1     -27.178  12.595 -32.604  1.00  0.00    -0.502 OA
ATOM     20  H   UNL     1     -27.395  13.107 -31.758  1.00  0.00     0.293 HD
ENDBRANCH  14  19
BRANCH  15  21
ATOM     21  O   UNL     1     -25.823  10.253 -31.901  1.00  0.00    -0.493 OA
ATOM     22  C   UNL     1     -25.814  10.237 -30.477  1.00  0.00     0.278 C 
ENDBRANCH  15  21
ENDBRANCH   1  11
BRANCH  10  23
ATOM     23  O   UNL     1     -22.525  11.562 -36.737  1.00  0.00    -0.500 OA
ATOM     24  H   UNL     1     -22.921  12.409 -37.128  1.00  0.00     0.294 HD
ENDBRANCH  10  23
BRANCH   5  25
ATOM     25  O   UNL     1     -16.318  11.887 -32.088  1.00  0.00    -0.507 OA
ATOM     26  H   UNL     1     -15.644  11.154 -31.898  1.00  0.00     0.293 HD
ENDBRANCH   5  25
BRANCH   7  27
ATOM     27  O   UNL     1     -17.309  11.113 -36.738  1.00  0.00    -0.507 OA
ATOM     28  H   UNL     1     -16.742  10.312 -36.976  1.00  0.00     0.293 HD
ENDBRANCH   7  27
TORSDOF 7
ENDMDL
MODEL 7
REMARK VINA RESULT:    -6.734      2.653      5.195
REMARK INTER + INTRA:          -9.154
REMARK INTER:                  -8.686
REMARK INTRA:                  -0.467
REMARK UNBOUND:                -0.451
REMARK SMILES COc1cc(-c2[o+]c3cc(O)cc(O)c3cc2O)cc(OC)c1O
REMARK SMILES IDX 6 1 7 2 8 3 9 4 10 5 12 6 13 7 15 8 16 9 17 10 5 11 3 12
REMARK SMILES IDX 4 13 23 14 20 15 19 16 2 17 1 18 24 19 21 21 22 22 18 23
REMARK SMILES IDX 11 25 14 27
REMARK H PARENT 24 20 18 24 11 26 14 28
REMARK Flexibility Score: inf
ROOT
ATOM      1  C   UNL     1     -22.541  13.977 -38.027  1.00  0.00     0.402 A 
ATOM      2  O   UNL     1     -21.501  13.498 -37.351  1.00  0.00    -0.202 OA
ATOM      3  C   UNL     1     -20.573  12.717 -37.895  1.00  0.00     0.368 A 
ATOM      4  C   UNL     1     -19.518  12.260 -37.101  1.00  0.00     0.162 A 
ATOM      5  C   UNL     1     -18.531  11.438 -37.644  1.00  0.00     0.128 A 
ATOM      6  C   UNL     1     -18.598  11.067 -38.992  1.00  0.00     0.093 A 
ATOM      7  C   UNL     1     -19.645  11.511 -39.809  1.00  0.00     0.136 A 
ATOM      8  C   UNL     1     -20.649  12.350 -39.260  1.00  0.00     0.125 A 
ATOM      9  C   UNL     1     -21.728  12.853 -40.006  1.00  0.00     0.078 A 
ATOM     10  C   UNL     1     -22.676  13.679 -39.397  1.00  0.00     0.223 A 
ENDROOT
BRANCH   1  11
ATOM     11  C   UNL     1     -23.514  14.829 -37.306  1.00  0.00     0.091 A 
ATOM     12  C   UNL     1     -25.390  15.015 -35.756  1.00  0.00     0.165 A 
ATOM     13  C   UNL     1     -24.441  14.233 -36.441  1.00  0.00     0.069 A 
ATOM     14  C   UNL     1     -25.416  16.402 -35.955  1.00  0.00     0.200 A 
ATOM     15  C   UNL     1     -24.506  17.012 -36.838  1.00  0.00     0.165 A 
ATOM     16  C   UNL     1     -23.564  16.216 -37.515  1.00  0.00     0.069 A 
BRANCH  12  17
ATOM     17  O   UNL     1     -26.324  14.450 -34.872  1.00  0.00    -0.493 OA
ATOM     18  C   UNL     1     -25.987  13.796 -33.652  1.00  0.00     0.278 C 
ENDBRANCH  12  17
BRANCH  14  19
ATOM     19  O   UNL     1     -26.360  17.164 -35.266  1.00  0.00    -0.502 OA
ATOM     20  H   UNL     1     -26.278  18.168 -35.167  1.00  0.00     0.293 HD
ENDBRANCH  14  19
BRANCH  15  21
ATOM     21  O   UNL     1     -24.570  18.403 -37.020  1.00  0.00    -0.493 OA
ATOM     22  C   UNL     1     -25.202  19.047 -38.122  1.00  0.00     0.278 C 
ENDBRANCH  15  21
ENDBRANCH   1  11
BRANCH  10  23
ATOM     23  O   UNL     1     -23.720  14.220 -40.148  1.00  0.00    -0.500 OA
ATOM     24  H   UNL     1     -23.551  14.713 -41.016  1.00  0.00     0.294 HD
ENDBRANCH  10  23
BRANCH   5  25
ATOM     25  O   UNL     1     -17.486  10.993 -36.837  1.00  0.00    -0.507 OA
ATOM     26  H   UNL     1     -17.350  10.009 -36.640  1.00  0.00     0.293 HD
ENDBRANCH   5  25
BRANCH   7  27
ATOM     27  O   UNL     1     -19.643  11.092 -41.143  1.00  0.00    -0.507 OA
ATOM     28  H   UNL     1     -20.447  11.128 -41.753  1.00  0.00     0.293 HD
ENDBRANCH   7  27
TORSDOF 7
ENDMDL
MODEL 8
REMARK VINA RESULT:    -6.706      1.521      4.109
REMARK INTER + INTRA:          -9.117
REMARK INTER:                  -8.676
REMARK INTRA:                  -0.440
REMARK UNBOUND:                -0.451
REMARK SMILES COc1cc(-c2[o+]c3cc(O)cc(O)c3cc2O)cc(OC)c1O
REMARK SMILES IDX 6 1 7 2 8 3 9 4 10 5 12 6 13 7 15 8 16 9 17 10 5 11 3 12
REMARK SMILES IDX 4 13 23 14 20 15 19 16 2 17 1 18 24 19 21 21 22 22 18 23
REMARK SMILES IDX 11 25 14 27
REMARK H PARENT 24 20 18 24 11 26 14 28
REMARK Flexibility Score: inf
ROOT
ATOM      1  C   UNL     1     -21.919  12.043 -34.501  1.00  0.00     0.402 A 
ATOM      2  O   UNL     1     -20.929  12.103 -33.615  1.00  0.00    -0.202 OA
ATOM      3  C   UNL     1     -19.655  11.891 -33.929  1.00  0.00     0.368 A 
ATOM      4  C   UNL     1     -18.685  11.974 -32.926  1.00  0.00     0.162 A 
ATOM      5  C   UNL     1     -17.341  11.753 -33.225  1.00  0.00     0.128 A 
ATOM      6  C   UNL     1     -16.960  11.446 -34.536  1.00  0.00     0.093 A 
ATOM      7  C   UNL     1     -17.913  11.357 -35.559  1.00  0.00     0.136 A 
ATOM      8  C   UNL     1     -19.281  11.583 -35.259  1.00  0.00     0.125 A 
ATOM      9  C   UNL     1     -20.302  11.527 -36.221  1.00  0.00     0.078 A 
ATOM     10  C   UNL     1     -21.628  11.767 -35.851  1.00  0.00     0.223 A 
ENDROOT
BRANCH   1  11
ATOM     11  C   UNL     1     -23.300  12.289 -34.027  1.00  0.00     0.091 A 
ATOM     12  C   UNL     1     -25.276  11.501 -32.830  1.00  0.00     0.165 A 
ATOM     13  C   UNL     1     -23.957  11.303 -33.278  1.00  0.00     0.069 A 
ATOM     14  C   UNL     1     -25.943  12.691 -33.149  1.00  0.00     0.200 A 
ATOM     15  C   UNL     1     -25.304  13.681 -33.919  1.00  0.00     0.165 A 
ATOM     16  C   UNL     1     -23.986  13.468 -34.361  1.00  0.00     0.069 A 
BRANCH  12  17
ATOM     17  O   UNL     1     -25.957  10.539 -32.067  1.00  0.00    -0.493 OA
ATOM     18  C   UNL     1     -25.698  10.268 -30.692  1.00  0.00     0.278 C 
ENDBRANCH  12  17
BRANCH  14  19
ATOM     19  O   UNL     1     -27.249  12.874 -32.694  1.00  0.00    -0.502 OA
ATOM     20  H   UNL     1     -27.856  13.594 -33.066  1.00  0.00     0.293 HD
ENDBRANCH  14  19
BRANCH  15  21
ATOM     21  O   UNL     1     -26.010  14.855 -34.229  1.00  0.00    -0.493 OA
ATOM     22  C   UNL     1     -25.409  16.067 -34.677  1.00  0.00     0.278 C 
ENDBRANCH  15  21
ENDBRANCH   1  11
BRANCH  10  23
ATOM     23  O   UNL     1     -22.637  11.761 -36.814  1.00  0.00    -0.500 OA
ATOM     24  H   UNL     1     -22.589  11.164 -37.632  1.00  0.00     0.294 HD
ENDBRANCH  10  23
BRANCH   5  25
ATOM     25  O   UNL     1     -16.388  11.842 -32.212  1.00  0.00    -0.507 OA
ATOM     26  H   UNL     1     -16.623  11.653 -31.244  1.00  0.00     0.293 HD
ENDBRANCH   5  25
BRANCH   7  27
ATOM     27  O   UNL     1     -17.452  11.041 -36.841  1.00  0.00    -0.507 OA
ATOM     28  H   UNL     1     -16.672  11.495 -37.294  1.00  0.00     0.293 HD
ENDBRANCH   7  27
TORSDOF 7
ENDMDL
MODEL 9
REMARK VINA RESULT:    -6.408      4.123      8.074
REMARK INTER + INTRA:          -8.732
REMARK INTER:                  -8.185
REMARK INTRA:                  -0.547
REMARK UNBOUND:                -0.451
REMARK SMILES COc1cc(-c2[o+]c3cc(O)cc(O)c3cc2O)cc(OC)c1O
REMARK SMILES IDX 6 1 7 2 8 3 9 4 10 5 12 6 13 7 15 8 16 9 17 10 5 11 3 12
REMARK SMILES IDX 4 13 23 14 20 15 19 16 2 17 1 18 24 19 21 21 22 22 18 23
REMARK SMILES IDX 11 25 14 27
REMARK H PARENT 24 20 18 24 11 26 14 28
REMARK Flexibility Score: inf
ROOT
ATOM      1  C   UNL     1     -21.995  14.547 -38.559  1.00  0.00     0.402 A 
ATOM      2  O   UNL     1     -22.765  14.974 -37.562  1.00  0.00    -0.202 OA
ATOM      3  C   UNL     1     -23.797  15.794 -37.737  1.00  0.00     0.368 A 
ATOM      4  C   UNL     1     -24.547  16.190 -36.626  1.00  0.00     0.162 A 
ATOM      5  C   UNL     1     -25.633  17.051 -36.778  1.00  0.00     0.128 A 
ATOM      6  C   UNL     1     -25.975  17.523 -38.050  1.00  0.00     0.093 A 
ATOM      7  C   UNL     1     -25.240  17.140 -39.181  1.00  0.00     0.136 A 
ATOM      8  C   UNL     1     -24.136  16.262 -39.029  1.00  0.00     0.125 A 
ATOM      9  C   UNL     1     -23.351  15.816 -40.105  1.00  0.00     0.078 A 
ATOM     10  C   UNL     1     -22.281  14.947 -39.878  1.00  0.00     0.223 A 
ENDROOT
BRANCH   1  11
ATOM     11  C   UNL     1     -20.868  13.643 -38.236  1.00  0.00     0.091 A 
ATOM     12  C   UNL     1     -20.027  11.373 -37.923  1.00  0.00     0.165 A 
ATOM     13  C   UNL     1     -21.074  12.256 -38.243  1.00  0.00     0.069 A 
ATOM     14  C   UNL     1     -18.769  11.888 -37.579  1.00  0.00     0.200 A 
ATOM     15  C   UNL     1     -18.554  13.278 -37.545  1.00  0.00     0.165 A 
ATOM     16  C   UNL     1     -19.611  14.148 -37.867  1.00  0.00     0.069 A 
BRANCH  12  17
ATOM     17  O   UNL     1     -20.196   9.979 -37.934  1.00  0.00    -0.493 OA
ATOM     18  C   UNL     1     -20.845   9.237 -36.906  1.00  0.00     0.278 C 
ENDBRANCH  12  17
BRANCH  14  19
ATOM     19  O   UNL     1     -17.740  10.999 -37.267  1.00  0.00    -0.502 OA
ATOM     20  H   UNL     1     -16.991  10.788 -37.915  1.00  0.00     0.293 HD
ENDBRANCH  14  19
BRANCH  15  21
ATOM     21  O   UNL     1     -17.283  13.756 -37.183  1.00  0.00    -0.493 OA
ATOM     22  C   UNL     1     -16.921  14.181 -35.873  1.00  0.00     0.278 C 
ENDBRANCH  15  21
ENDBRANCH   1  11
BRANCH  10  23
ATOM     23  O   UNL     1     -21.531  14.463 -40.951  1.00  0.00    -0.500 OA
ATOM     24  H   UNL     1     -21.201  15.074 -41.688  1.00  0.00     0.294 HD
ENDBRANCH  10  23
BRANCH   5  25
ATOM     25  O   UNL     1     -26.368  17.435 -35.659  1.00  0.00    -0.507 OA
ATOM     26  H   UNL     1     -27.217  17.982 -35.743  1.00  0.00     0.293 HD
ENDBRANCH   5  25
BRANCH   7  27
ATOM     27  O   UNL     1     -25.643  17.657 -40.416  1.00  0.00    -0.507 OA
ATOM     28  H   UNL     1     -25.040  18.169 -41.043  1.00  0.00     0.293 HD
ENDBRANCH   7  27
TORSDOF 7
ENDMDL
