MODEL 1
REMARK VINA RESULT:    -7.193      0.000      0.000
REMARK INTER + INTRA:         -12.027
REMARK INTER:                 -10.557
REMARK INTRA:                  -1.470
REMARK UNBOUND:                -1.470
REMARK SMILES O=c1c(O[C@@H]2O[C@@H](CO)[C@H](O)[C@H](O)[C@H]2O)c(-c2ccc(O)c(O)c2)oc2cc(O)cc(O)c12
REMARK SMILES IDX 4 1 3 2 16 3 25 4 2 5 26 6 1 7 33 8 27 9 31 10 28 11 30 12
REMARK SMILES IDX 17 13 18 14 19 15 20 16 24 17 22 18 21 19 23 21 32 23 29 25
REMARK SMILES IDX 5 27 14 28 6 29 12 30 7 31 10 32 15 33 13 35 8 37 9 38 11 40
REMARK H PARENT 21 20 23 22 32 24 29 26 15 34 13 36 9 39 11 41
REMARK Flexibility Score: inf
ROOT
ATOM      1  O   UNL     1     -10.012  -8.609  39.104  1.00  0.00    -0.454 OA
ENDROOT
BRANCH   1   2
ATOM      2  C   UNL     1     -11.207  -7.877  39.225  1.00  0.00     0.214 A 
ATOM      3  C   UNL     1     -11.578  -7.400  40.495  1.00  0.00     0.180 A 
ATOM      4  O   UNL     1     -12.739  -6.781  40.660  1.00  0.00    -0.452 OA
ATOM      5  C   UNL     1     -12.054  -7.608  38.130  1.00  0.00     0.239 A 
ATOM      6  C   UNL     1     -13.582  -6.531  39.666  1.00  0.00     0.146 A 
ATOM      7  O   UNL     1     -11.722  -8.007  36.985  1.00  0.00    -0.285 OA
ATOM      8  C   UNL     1     -13.266  -6.899  38.332  1.00  0.00     0.111 A 
ATOM      9  C   UNL     1     -14.793  -5.898  39.963  1.00  0.00     0.094 A 
ATOM     10  C   UNL     1     -14.195  -6.562  37.298  1.00  0.00     0.134 A 
ATOM     11  C   UNL     1     -15.714  -5.625  38.955  1.00  0.00     0.123 A 
ATOM     12  C   UNL     1     -15.412  -5.957  37.632  1.00  0.00     0.093 A 
BRANCH   3  13
ATOM     13  C   UNL     1     -10.723  -7.613  41.686  1.00  0.00     0.025 A 
ATOM     14  C   UNL     1      -9.873  -6.585  42.120  1.00  0.00     0.016 A 
ATOM     15  C   UNL     1      -9.063  -6.766  43.243  1.00  0.00     0.051 A 
ATOM     16  C   UNL     1      -9.083  -7.979  43.943  1.00  0.00     0.157 A 
ATOM     17  C   UNL     1     -10.720  -8.839  42.374  1.00  0.00     0.062 A 
ATOM     18  C   UNL     1      -9.915  -9.022  43.503  1.00  0.00     0.158 A 
BRANCH  16  19
ATOM     19  O   UNL     1      -8.278  -8.155  45.067  1.00  0.00    -0.504 OA
ATOM     20  H   UNL     1      -8.498  -7.710  45.952  1.00  0.00     0.293 HD
ENDBRANCH  16  19
BRANCH  18  21
ATOM     21  O   UNL     1      -9.952 -10.245  44.171  1.00  0.00    -0.504 OA
ATOM     22  H   UNL     1      -9.351 -11.018  43.914  1.00  0.00     0.293 HD
ENDBRANCH  18  21
ENDBRANCH   3  13
BRANCH  10  23
ATOM     23  O   UNL     1     -13.965  -6.777  35.935  1.00  0.00    -0.507 OA
ATOM     24  H   UNL     1     -14.611  -7.219  35.298  1.00  0.00     0.293 HD
ENDBRANCH  10  23
BRANCH  11  25
ATOM     25  O   UNL     1     -16.925  -5.017  39.279  1.00  0.00    -0.508 OA
ATOM     26  H   UNL     1     -17.734  -5.563  39.554  1.00  0.00     0.293 HD
ENDBRANCH  11  25
ENDBRANCH   1   2
BRANCH   1  27
ATOM     27  C   UNL     1      -8.703  -8.061  38.904  1.00  0.00     0.339 C 
ATOM     28  C   UNL     1      -7.634  -8.839  39.710  1.00  0.00     0.214 C 
ATOM     29  O   UNL     1      -8.390  -8.024  37.521  1.00  0.00    -0.332 OA
ATOM     30  C   UNL     1      -7.303 -10.217  39.088  1.00  0.00     0.180 C 
ATOM     31  C   UNL     1      -8.362  -9.322  36.953  1.00  0.00     0.179 C 
ATOM     32  C   UNL     1      -7.198 -10.146  37.546  1.00  0.00     0.177 C 
BRANCH  28  33
ATOM     33  O   UNL     1      -6.466  -8.066  39.845  1.00  0.00    -0.384 OA
ATOM     34  H   UNL     1      -6.566  -7.260  39.277  1.00  0.00     0.211 HD
ENDBRANCH  28  33
BRANCH  30  35
ATOM     35  O   UNL     1      -8.225 -11.196  39.508  1.00  0.00    -0.387 OA
ATOM     36  H   UNL     1      -7.833 -11.681  40.275  1.00  0.00     0.211 HD
ENDBRANCH  30  35
BRANCH  31  37
ATOM     37  C   UNL     1      -8.200  -9.175  35.434  1.00  0.00     0.191 C 
BRANCH  37  38
ATOM     38  O   UNL     1      -8.730 -10.300  34.783  1.00  0.00    -0.394 OA
ATOM     39  H   UNL     1      -9.412 -10.691  35.397  1.00  0.00     0.210 HD
ENDBRANCH  37  38
ENDBRANCH  31  37
BRANCH  32  40
ATOM     40  O   UNL     1      -7.199 -11.442  37.004  1.00  0.00    -0.387 OA
ATOM     41  H   UNL     1      -6.251 -11.696  36.863  1.00  0.00     0.211 HD
ENDBRANCH  32  40
ENDBRANCH   1  27
TORSDOF 12
ENDMDL
MODEL 2
REMARK VINA RESULT:    -7.156      6.578     10.006
REMARK INTER + INTRA:         -11.972
REMARK INTER:                 -10.483
REMARK INTRA:                  -1.489
REMARK UNBOUND:                -1.470
REMARK SMILES O=c1c(O[C@@H]2O[C@@H](CO)[C@H](O)[C@H](O)[C@H]2O)c(-c2ccc(O)c(O)c2)oc2cc(O)cc(O)c12
REMARK SMILES IDX 4 1 3 2 16 3 25 4 2 5 26 6 1 7 33 8 27 9 31 10 28 11 30 12
REMARK SMILES IDX 17 13 18 14 19 15 20 16 24 17 22 18 21 19 23 21 32 23 29 25
REMARK SMILES IDX 5 27 14 28 6 29 12 30 7 31 10 32 15 33 13 35 8 37 9 38 11 40
REMARK H PARENT 21 20 23 22 32 24 29 26 15 34 13 36 9 39 11 41
REMARK Flexibility Score: inf
ROOT
ATOM      1  O   UNL     1     -13.377  -8.044  46.996  1.00  0.00    -0.454 OA
ENDROOT
BRANCH   1   2
ATOM      2  C   UNL     1     -12.439  -7.006  46.849  1.00  0.00     0.214 A 
ATOM      3  C   UNL     1     -12.592  -6.108  45.778  1.00  0.00     0.180 A 
ATOM      4  O   UNL     1     -11.678  -5.171  45.561  1.00  0.00    -0.452 OA
ATOM      5  C   UNL     1     -11.347  -6.833  47.725  1.00  0.00     0.239 A 
ATOM      6  C   UNL     1     -10.619  -4.988  46.339  1.00  0.00     0.146 A 
ATOM      7  O   UNL     1     -11.213  -7.614  48.700  1.00  0.00    -0.285 OA
ATOM      8  C   UNL     1     -10.415  -5.789  47.493  1.00  0.00     0.111 A 
ATOM      9  C   UNL     1      -9.705  -3.988  45.995  1.00  0.00     0.094 A 
ATOM     10  C   UNL     1      -9.279  -5.513  48.317  1.00  0.00     0.134 A 
ATOM     11  C   UNL     1      -8.574  -3.765  46.774  1.00  0.00     0.123 A 
ATOM     12  C   UNL     1      -8.366  -4.526  47.928  1.00  0.00     0.093 A 
BRANCH   3  13
ATOM     13  C   UNL     1     -13.732  -6.205  44.838  1.00  0.00     0.025 A 
ATOM     14  C   UNL     1     -13.493  -6.183  43.456  1.00  0.00     0.016 A 
ATOM     15  C   UNL     1     -14.556  -6.277  42.555  1.00  0.00     0.051 A 
ATOM     16  C   UNL     1     -15.873  -6.385  43.021  1.00  0.00     0.157 A 
ATOM     17  C   UNL     1     -15.057  -6.286  45.303  1.00  0.00     0.062 A 
ATOM     18  C   UNL     1     -16.124  -6.387  44.403  1.00  0.00     0.158 A 
BRANCH  16  19
ATOM     19  O   UNL     1     -16.932  -6.485  42.119  1.00  0.00    -0.504 OA
ATOM     20  H   UNL     1     -17.857  -6.771  42.419  1.00  0.00     0.293 HD
ENDBRANCH  16  19
BRANCH  18  21
ATOM     21  O   UNL     1     -17.423  -6.484  44.900  1.00  0.00    -0.504 OA
ATOM     22  H   UNL     1     -17.798  -5.813  45.558  1.00  0.00     0.293 HD
ENDBRANCH  18  21
ENDBRANCH   3  13
BRANCH  10  23
ATOM     23  O   UNL     1      -9.013  -6.158  49.529  1.00  0.00    -0.507 OA
ATOM     24  H   UNL     1      -9.591  -6.870  49.949  1.00  0.00     0.293 HD
ENDBRANCH  10  23
BRANCH  11  25
ATOM     25  O   UNL     1      -7.663  -2.780  46.397  1.00  0.00    -0.508 OA
ATOM     26  H   UNL     1      -7.711  -1.841  46.776  1.00  0.00     0.293 HD
ENDBRANCH  11  25
ENDBRANCH   1   2
BRANCH   1  27
ATOM     27  C   UNL     1     -13.178  -9.419  46.644  1.00  0.00     0.339 C 
ATOM     28  C   UNL     1     -13.252 -10.337  47.888  1.00  0.00     0.214 C 
ATOM     29  O   UNL     1     -14.107  -9.813  45.648  1.00  0.00    -0.332 OA
ATOM     30  C   UNL     1     -14.700 -10.534  48.400  1.00  0.00     0.180 C 
ATOM     31  C   UNL     1     -15.444  -9.716  46.107  1.00  0.00     0.179 C 
ATOM     32  C   UNL     1     -15.702 -10.736  47.238  1.00  0.00     0.177 C 
BRANCH  28  33
ATOM     33  O   UNL     1     -12.654 -11.581  47.615  1.00  0.00    -0.384 OA
ATOM     34  H   UNL     1     -13.377 -12.251  47.510  1.00  0.00     0.211 HD
ENDBRANCH  28  33
BRANCH  30  35
ATOM     35  O   UNL     1     -15.085  -9.478  49.249  1.00  0.00    -0.387 OA
ATOM     36  H   UNL     1     -16.066  -9.520  49.367  1.00  0.00     0.211 HD
ENDBRANCH  30  35
BRANCH  31  37
ATOM     37  C   UNL     1     -16.378  -9.982  44.919  1.00  0.00     0.191 C 
BRANCH  37  38
ATOM     38  O   UNL     1     -17.672  -9.526  45.212  1.00  0.00    -0.394 OA
ATOM     39  H   UNL     1     -18.212  -9.641  44.381  1.00  0.00     0.210 HD
ENDBRANCH  37  38
ENDBRANCH  31  37
BRANCH  32  40
ATOM     40  O   UNL     1     -17.018 -10.609  47.711  1.00  0.00    -0.387 OA
ATOM     41  H   UNL     1     -17.330 -11.522  47.943  1.00  0.00     0.211 HD
ENDBRANCH  32  40
ENDBRANCH   1  27
TORSDOF 12
ENDMDL
MODEL 3
REMARK VINA RESULT:    -6.851      1.223      2.655
REMARK INTER + INTRA:         -11.525
REMARK INTER:                  -9.993
REMARK INTRA:                  -1.532
REMARK UNBOUND:                -1.470
REMARK SMILES O=c1c(O[C@@H]2O[C@@H](CO)[C@H](O)[C@H](O)[C@H]2O)c(-c2ccc(O)c(O)c2)oc2cc(O)cc(O)c12
REMARK SMILES IDX 4 1 3 2 16 3 25 4 2 5 26 6 1 7 33 8 27 9 31 10 28 11 30 12
REMARK SMILES IDX 17 13 18 14 19 15 20 16 24 17 22 18 21 19 23 21 32 23 29 25
REMARK SMILES IDX 5 27 14 28 6 29 12 30 7 31 10 32 15 33 13 35 8 37 9 38 11 40
REMARK H PARENT 21 20 23 22 32 24 29 26 15 34 13 36 9 39 11 41
REMARK Flexibility Score: inf
ROOT
ATOM      1  O   UNL     1     -10.120  -8.347  39.797  1.00  0.00    -0.454 OA
ENDROOT
BRANCH   1   2
ATOM      2  C   UNL     1     -11.348  -7.661  39.787  1.00  0.00     0.214 A 
ATOM      3  C   UNL     1     -11.864  -7.189  41.007  1.00  0.00     0.180 A 
ATOM      4  O   UNL     1     -13.059  -6.613  41.045  1.00  0.00    -0.452 OA
ATOM      5  C   UNL     1     -12.088  -7.434  38.608  1.00  0.00     0.239 A 
ATOM      6  C   UNL     1     -13.805  -6.404  39.968  1.00  0.00     0.146 A 
ATOM      7  O   UNL     1     -11.626  -7.829  37.508  1.00  0.00    -0.285 OA
ATOM      8  C   UNL     1     -13.340  -6.770  38.677  1.00  0.00     0.111 A 
ATOM      9  C   UNL     1     -15.062  -5.816  40.132  1.00  0.00     0.094 A 
ATOM     10  C   UNL     1     -14.170  -6.477  37.550  1.00  0.00     0.134 A 
ATOM     11  C   UNL     1     -15.884  -5.586  39.033  1.00  0.00     0.123 A 
ATOM     12  C   UNL     1     -15.437  -5.917  37.752  1.00  0.00     0.093 A 
BRANCH   3  13
ATOM     13  C   UNL     1     -11.127  -7.358  42.281  1.00  0.00     0.025 A 
ATOM     14  C   UNL     1     -10.335  -6.308  42.767  1.00  0.00     0.016 A 
ATOM     15  C   UNL     1      -9.638  -6.449  43.969  1.00  0.00     0.051 A 
ATOM     16  C   UNL     1      -9.713  -7.644  44.697  1.00  0.00     0.157 A 
ATOM     17  C   UNL     1     -11.179  -8.567  42.999  1.00  0.00     0.062 A 
ATOM     18  C   UNL     1     -10.487  -8.709  44.206  1.00  0.00     0.158 A 
BRANCH  16  19
ATOM     19  O   UNL     1      -9.020  -7.780  45.898  1.00  0.00    -0.504 OA
ATOM     20  H   UNL     1      -8.480  -7.015  46.288  1.00  0.00     0.293 HD
ENDBRANCH  16  19
BRANCH  18  21
ATOM     21  O   UNL     1     -10.577  -9.914  44.901  1.00  0.00    -0.504 OA
ATOM     22  H   UNL     1      -9.765 -10.365  45.303  1.00  0.00     0.293 HD
ENDBRANCH  18  21
ENDBRANCH   3  13
BRANCH  10  23
ATOM     23  O   UNL     1     -13.795  -6.694  36.220  1.00  0.00    -0.507 OA
ATOM     24  H   UNL     1     -13.185  -7.433  35.901  1.00  0.00     0.293 HD
ENDBRANCH  10  23
BRANCH  11  25
ATOM     25  O   UNL     1     -17.145  -5.023  39.225  1.00  0.00    -0.508 OA
ATOM     26  H   UNL     1     -17.957  -5.597  39.418  1.00  0.00     0.293 HD
ENDBRANCH  11  25
ENDBRANCH   1   2
BRANCH   1  27
ATOM     27  C   UNL     1      -9.859  -9.619  39.190  1.00  0.00     0.339 C 
ATOM     28  C   UNL     1      -8.595  -9.569  38.296  1.00  0.00     0.214 C 
ATOM     29  O   UNL     1      -9.758 -10.627  40.181  1.00  0.00    -0.332 OA
ATOM     30  C   UNL     1      -7.284  -9.536  39.117  1.00  0.00     0.180 C 
ATOM     31  C   UNL     1      -8.679 -10.388  41.069  1.00  0.00     0.179 C 
ATOM     32  C   UNL     1      -7.331 -10.504  40.323  1.00  0.00     0.177 C 
BRANCH  28  33
ATOM     33  O   UNL     1      -8.588 -10.654  37.400  1.00  0.00    -0.384 OA
ATOM     34  H   UNL     1      -9.530 -10.901  37.212  1.00  0.00     0.211 HD
ENDBRANCH  28  33
BRANCH  30  35
ATOM     35  O   UNL     1      -6.966  -8.222  39.510  1.00  0.00    -0.387 OA
ATOM     36  H   UNL     1      -6.179  -8.260  40.108  1.00  0.00     0.211 HD
ENDBRANCH  30  35
BRANCH  31  37
ATOM     37  C   UNL     1      -8.757 -11.416  42.205  1.00  0.00     0.191 C 
BRANCH  37  38
ATOM     38  O   UNL     1      -8.135 -10.909  43.356  1.00  0.00    -0.394 OA
ATOM     39  H   UNL     1      -7.886 -11.696  43.916  1.00  0.00     0.210 HD
ENDBRANCH  37  38
ENDBRANCH  31  37
BRANCH  32  40
ATOM     40  O   UNL     1      -6.269 -10.231  41.201  1.00  0.00    -0.387 OA
ATOM     41  H   UNL     1      -6.579  -9.514  41.812  1.00  0.00     0.211 HD
ENDBRANCH  32  40
ENDBRANCH   1  27
TORSDOF 12
ENDMDL
MODEL 4
REMARK VINA RESULT:    -6.834      6.517      9.994
REMARK INTER + INTRA:         -11.500
REMARK INTER:                 -10.185
REMARK INTRA:                  -1.315
REMARK UNBOUND:                -1.470
REMARK SMILES O=c1c(O[C@@H]2O[C@@H](CO)[C@H](O)[C@H](O)[C@H]2O)c(-c2ccc(O)c(O)c2)oc2cc(O)cc(O)c12
REMARK SMILES IDX 4 1 3 2 16 3 25 4 2 5 26 6 1 7 33 8 27 9 31 10 28 11 30 12
REMARK SMILES IDX 17 13 18 14 19 15 20 16 24 17 22 18 21 19 23 21 32 23 29 25
REMARK SMILES IDX 5 27 14 28 6 29 12 30 7 31 10 32 15 33 13 35 8 37 9 38 11 40
REMARK H PARENT 21 20 23 22 32 24 29 26 15 34 13 36 9 39 11 41
REMARK Flexibility Score: inf
ROOT
ATOM      1  O   UNL     1     -13.729  -8.440  46.499  1.00  0.00    -0.454 OA
ENDROOT
BRANCH   1   2
ATOM      2  C   UNL     1     -12.395  -8.007  46.380  1.00  0.00     0.214 A 
ATOM      3  C   UNL     1     -12.048  -6.750  46.906  1.00  0.00     0.180 A 
ATOM      4  O   UNL     1     -10.821  -6.275  46.736  1.00  0.00    -0.452 OA
ATOM      5  C   UNL     1     -11.395  -8.775  45.749  1.00  0.00     0.239 A 
ATOM      6  C   UNL     1      -9.855  -6.947  46.123  1.00  0.00     0.146 A 
ATOM      7  O   UNL     1     -11.687  -9.911  45.297  1.00  0.00    -0.285 OA
ATOM      8  C   UNL     1     -10.079  -8.258  45.628  1.00  0.00     0.111 A 
ATOM      9  C   UNL     1      -8.607  -6.333  45.975  1.00  0.00     0.094 A 
ATOM     10  C   UNL     1      -8.986  -8.949  45.019  1.00  0.00     0.134 A 
ATOM     11  C   UNL     1      -7.566  -6.995  45.331  1.00  0.00     0.123 A 
ATOM     12  C   UNL     1      -7.759  -8.295  44.856  1.00  0.00     0.093 A 
BRANCH   3  13
ATOM     13  C   UNL     1     -13.035  -5.902  47.613  1.00  0.00     0.025 A 
ATOM     14  C   UNL     1     -13.235  -6.075  48.990  1.00  0.00     0.016 A 
ATOM     15  C   UNL     1     -14.158  -5.281  49.674  1.00  0.00     0.051 A 
ATOM     16  C   UNL     1     -14.903  -4.311  48.991  1.00  0.00     0.157 A 
ATOM     17  C   UNL     1     -13.804  -4.947  46.924  1.00  0.00     0.062 A 
ATOM     18  C   UNL     1     -14.726  -4.146  47.607  1.00  0.00     0.158 A 
BRANCH  16  19
ATOM     19  O   UNL     1     -15.820  -3.517  49.676  1.00  0.00    -0.504 OA
ATOM     20  H   UNL     1     -16.033  -3.677  50.655  1.00  0.00     0.293 HD
ENDBRANCH  16  19
BRANCH  18  21
ATOM     21  O   UNL     1     -15.456  -3.196  46.894  1.00  0.00    -0.504 OA
ATOM     22  H   UNL     1     -16.173  -3.458  46.228  1.00  0.00     0.293 HD
ENDBRANCH  18  21
ENDBRANCH   3  13
BRANCH  10  23
ATOM     23  O   UNL     1      -9.042 -10.276  44.578  1.00  0.00    -0.507 OA
ATOM     24  H   UNL     1      -9.363 -11.059  45.127  1.00  0.00     0.293 HD
ENDBRANCH  10  23
BRANCH  11  25
ATOM     25  O   UNL     1      -6.339  -6.353  45.171  1.00  0.00    -0.508 OA
ATOM     26  H   UNL     1      -5.633  -6.711  44.539  1.00  0.00     0.293 HD
ENDBRANCH  11  25
ENDBRANCH   1   2
BRANCH   1  27
ATOM     27  C   UNL     1     -14.174  -9.627  47.167  1.00  0.00     0.339 C 
ATOM     28  C   UNL     1     -15.186  -9.297  48.292  1.00  0.00     0.214 C 
ATOM     29  O   UNL     1     -14.714 -10.547  46.232  1.00  0.00    -0.332 OA
ATOM     30  C   UNL     1     -16.583  -8.914  47.745  1.00  0.00     0.180 C 
ATOM     31  C   UNL     1     -15.851 -10.018  45.571  1.00  0.00     0.179 C 
ATOM     32  C   UNL     1     -17.013  -9.824  46.570  1.00  0.00     0.177 C 
BRANCH  28  33
ATOM     33  O   UNL     1     -15.288 -10.376  49.190  1.00  0.00    -0.384 OA
ATOM     34  H   UNL     1     -15.359 -11.210  48.657  1.00  0.00     0.211 HD
ENDBRANCH  28  33
BRANCH  30  35
ATOM     35  O   UNL     1     -16.634  -7.549  47.400  1.00  0.00    -0.387 OA
ATOM     36  H   UNL     1     -16.425  -7.019  48.208  1.00  0.00     0.211 HD
ENDBRANCH  30  35
BRANCH  31  37
ATOM     37  C   UNL     1     -16.254 -10.996  44.459  1.00  0.00     0.191 C 
BRANCH  37  38
ATOM     38  O   UNL     1     -17.231 -10.414  43.638  1.00  0.00    -0.394 OA
ATOM     39  H   UNL     1     -17.994 -10.167  44.231  1.00  0.00     0.210 HD
ENDBRANCH  37  38
ENDBRANCH  31  37
BRANCH  32  40
ATOM     40  O   UNL     1     -18.124  -9.267  45.914  1.00  0.00    -0.387 OA
ATOM     41  H   UNL     1     -18.749  -8.957  46.619  1.00  0.00     0.211 HD
ENDBRANCH  32  40
ENDBRANCH   1  27
TORSDOF 12
ENDMDL
MODEL 5
REMARK VINA RESULT:    -6.816      6.529      9.348
REMARK INTER + INTRA:         -11.474
REMARK INTER:                  -9.902
REMARK INTRA:                  -1.572
REMARK UNBOUND:                -1.470
REMARK SMILES O=c1c(O[C@@H]2O[C@@H](CO)[C@H](O)[C@H](O)[C@H]2O)c(-c2ccc(O)c(O)c2)oc2cc(O)cc(O)c12
REMARK SMILES IDX 4 1 3 2 16 3 25 4 2 5 26 6 1 7 33 8 27 9 31 10 28 11 30 12
REMARK SMILES IDX 17 13 18 14 19 15 20 16 24 17 22 18 21 19 23 21 32 23 29 25
REMARK SMILES IDX 5 27 14 28 6 29 12 30 7 31 10 32 15 33 13 35 8 37 9 38 11 40
REMARK H PARENT 21 20 23 22 32 24 29 26 15 34 13 36 9 39 11 41
REMARK Flexibility Score: inf
ROOT
ATOM      1  O   UNL     1     -13.551  -7.432  46.059  1.00  0.00    -0.454 OA
ENDROOT
BRANCH   1   2
ATOM      2  C   UNL     1     -12.951  -6.181  45.825  1.00  0.00     0.214 A 
ATOM      3  C   UNL     1     -13.468  -5.370  44.800  1.00  0.00     0.180 A 
ATOM      4  O   UNL     1     -12.874  -4.223  44.496  1.00  0.00    -0.452 OA
ATOM      5  C   UNL     1     -11.849  -5.710  46.568  1.00  0.00     0.239 A 
ATOM      6  C   UNL     1     -11.817  -3.752  45.146  1.00  0.00     0.146 A 
ATOM      7  O   UNL     1     -11.393  -6.415  47.503  1.00  0.00    -0.285 OA
ATOM      8  C   UNL     1     -11.267  -4.456  46.250  1.00  0.00     0.111 A 
ATOM      9  C   UNL     1     -11.255  -2.546  44.719  1.00  0.00     0.094 A 
ATOM     10  C   UNL     1     -10.157  -3.875  46.939  1.00  0.00     0.134 A 
ATOM     11  C   UNL     1     -10.140  -2.018  45.363  1.00  0.00     0.123 A 
ATOM     12  C   UNL     1      -9.597  -2.682  46.466  1.00  0.00     0.093 A 
BRANCH   3  13
ATOM     13  C   UNL     1     -14.645  -5.781  44.000  1.00  0.00     0.025 A 
ATOM     14  C   UNL     1     -14.571  -5.763  42.600  1.00  0.00     0.016 A 
ATOM     15  C   UNL     1     -15.669  -6.151  41.830  1.00  0.00     0.051 A 
ATOM     16  C   UNL     1     -16.860  -6.554  42.447  1.00  0.00     0.157 A 
ATOM     17  C   UNL     1     -15.851  -6.159  44.617  1.00  0.00     0.062 A 
ATOM     18  C   UNL     1     -16.952  -6.555  43.849  1.00  0.00     0.158 A 
BRANCH  16  19
ATOM     19  O   UNL     1     -17.954  -6.946  41.677  1.00  0.00    -0.504 OA
ATOM     20  H   UNL     1     -18.294  -7.902  41.687  1.00  0.00     0.293 HD
ENDBRANCH  16  19
BRANCH  18  21
ATOM     21  O   UNL     1     -18.125  -6.941  44.495  1.00  0.00    -0.504 OA
ATOM     22  H   UNL     1     -19.040  -6.758  44.103  1.00  0.00     0.293 HD
ENDBRANCH  18  21
ENDBRANCH   3  13
BRANCH  10  23
ATOM     23  O   UNL     1      -9.583  -4.411  48.097  1.00  0.00    -0.507 OA
ATOM     24  H   UNL     1      -8.650  -4.215  48.428  1.00  0.00     0.293 HD
ENDBRANCH  10  23
BRANCH  11  25
ATOM     25  O   UNL     1      -9.580  -0.828  44.902  1.00  0.00    -0.508 OA
ATOM     26  H   UNL     1     -10.157  -0.030  44.663  1.00  0.00     0.293 HD
ENDBRANCH  11  25
ENDBRANCH   1   2
BRANCH   1  27
ATOM     27  C   UNL     1     -13.125  -8.688  45.515  1.00  0.00     0.339 C 
ATOM     28  C   UNL     1     -12.493  -9.591  46.602  1.00  0.00     0.214 C 
ATOM     29  O   UNL     1     -14.206  -9.334  44.863  1.00  0.00    -0.332 OA
ATOM     30  C   UNL     1     -13.547 -10.204  47.556  1.00  0.00     0.180 C 
ATOM     31  C   UNL     1     -15.260  -9.634  45.762  1.00  0.00     0.179 C 
ATOM     32  C   UNL     1     -14.804 -10.687  46.796  1.00  0.00     0.177 C 
BRANCH  28  33
ATOM     33  O   UNL     1     -11.719 -10.604  46.007  1.00  0.00    -0.384 OA
ATOM     34  H   UNL     1     -11.327 -10.238  45.173  1.00  0.00     0.211 HD
ENDBRANCH  28  33
BRANCH  30  35
ATOM     35  O   UNL     1     -13.871  -9.308  48.594  1.00  0.00    -0.387 OA
ATOM     36  H   UNL     1     -13.912  -8.397  48.214  1.00  0.00     0.211 HD
ENDBRANCH  30  35
BRANCH  31  37
ATOM     37  C   UNL     1     -16.449 -10.159  44.946  1.00  0.00     0.191 C 
BRANCH  37  38
ATOM     38  O   UNL     1     -17.654  -9.823  45.582  1.00  0.00    -0.394 OA
ATOM     39  H   UNL     1     -18.054 -10.678  45.906  1.00  0.00     0.210 HD
ENDBRANCH  37  38
ENDBRANCH  31  37
BRANCH  32  40
ATOM     40  O   UNL     1     -15.842 -10.952  47.704  1.00  0.00    -0.387 OA
ATOM     41  H   UNL     1     -15.738 -10.314  48.456  1.00  0.00     0.211 HD
ENDBRANCH  32  40
ENDBRANCH   1  27
TORSDOF 12
ENDMDL
MODEL 6
REMARK VINA RESULT:    -6.793      2.326      5.414
REMARK INTER + INTRA:         -11.440
REMARK INTER:                  -9.621
REMARK INTRA:                  -1.819
REMARK UNBOUND:                -1.470
REMARK SMILES O=c1c(O[C@@H]2O[C@@H](CO)[C@H](O)[C@H](O)[C@H]2O)c(-c2ccc(O)c(O)c2)oc2cc(O)cc(O)c12
REMARK SMILES IDX 4 1 3 2 16 3 25 4 2 5 26 6 1 7 33 8 27 9 31 10 28 11 30 12
REMARK SMILES IDX 17 13 18 14 19 15 20 16 24 17 22 18 21 19 23 21 32 23 29 25
REMARK SMILES IDX 5 27 14 28 6 29 12 30 7 31 10 32 15 33 13 35 8 37 9 38 11 40
REMARK H PARENT 21 20 23 22 32 24 29 26 15 34 13 36 9 39 11 41
REMARK Flexibility Score: inf
ROOT
ATOM      1  O   UNL     1     -10.801  -7.113  42.633  1.00  0.00    -0.454 OA
ENDROOT
BRANCH   1   2
ATOM      2  C   UNL     1     -11.382  -7.206  41.355  1.00  0.00     0.214 A 
ATOM      3  C   UNL     1     -10.827  -8.105  40.428  1.00  0.00     0.180 A 
ATOM      4  O   UNL     1     -11.296  -8.156  39.188  1.00  0.00    -0.452 OA
ATOM      5  C   UNL     1     -12.492  -6.429  40.961  1.00  0.00     0.239 A 
ATOM      6  C   UNL     1     -12.318  -7.424  38.762  1.00  0.00     0.146 A 
ATOM      7  O   UNL     1     -13.013  -5.640  41.788  1.00  0.00    -0.285 OA
ATOM      8  C   UNL     1     -13.001  -6.544  39.642  1.00  0.00     0.111 A 
ATOM      9  C   UNL     1     -12.707  -7.539  37.424  1.00  0.00     0.094 A 
ATOM     10  C   UNL     1     -14.124  -5.817  39.136  1.00  0.00     0.134 A 
ATOM     11  C   UNL     1     -13.767  -6.784  36.929  1.00  0.00     0.123 A 
ATOM     12  C   UNL     1     -14.468  -5.929  37.784  1.00  0.00     0.093 A 
BRANCH   3  13
ATOM     13  C   UNL     1      -9.683  -8.979  40.780  1.00  0.00     0.025 A 
ATOM     14  C   UNL     1      -8.425  -8.734  40.211  1.00  0.00     0.016 A 
ATOM     15  C   UNL     1      -7.334  -9.544  40.535  1.00  0.00     0.051 A 
ATOM     16  C   UNL     1      -7.488 -10.617  41.422  1.00  0.00     0.157 A 
ATOM     17  C   UNL     1      -9.841 -10.073  41.649  1.00  0.00     0.062 A 
ATOM     18  C   UNL     1      -8.749 -10.883  41.980  1.00  0.00     0.158 A 
BRANCH  16  19
ATOM     19  O   UNL     1      -6.397 -11.422  41.748  1.00  0.00    -0.504 OA
ATOM     20  H   UNL     1      -6.291 -11.821  42.674  1.00  0.00     0.293 HD
ENDBRANCH  16  19
BRANCH  18  21
ATOM     21  O   UNL     1      -8.938 -11.948  42.860  1.00  0.00    -0.504 OA
ATOM     22  H   UNL     1      -8.824 -12.912  42.571  1.00  0.00     0.293 HD
ENDBRANCH  18  21
ENDBRANCH   3  13
BRANCH  10  23
ATOM     23  O   UNL     1     -14.942  -4.994  39.916  1.00  0.00    -0.507 OA
ATOM     24  H   UNL     1     -15.728  -4.461  39.573  1.00  0.00     0.293 HD
ENDBRANCH  10  23
BRANCH  11  25
ATOM     25  O   UNL     1     -14.119  -6.895  35.585  1.00  0.00    -0.508 OA
ATOM     26  H   UNL     1     -14.416  -7.778  35.187  1.00  0.00     0.293 HD
ENDBRANCH  11  25
ENDBRANCH   1   2
BRANCH   1  27
ATOM     27  C   UNL     1      -9.736  -6.234  43.014  1.00  0.00     0.339 C 
ATOM     28  C   UNL     1     -10.183  -5.252  44.124  1.00  0.00     0.214 C 
ATOM     29  O   UNL     1      -8.596  -6.981  43.406  1.00  0.00    -0.332 OA
ATOM     30  C   UNL     1     -10.304  -5.931  45.510  1.00  0.00     0.180 C 
ATOM     31  C   UNL     1      -8.861  -7.791  44.540  1.00  0.00     0.179 C 
ATOM     32  C   UNL     1      -9.136  -6.910  45.779  1.00  0.00     0.177 C 
BRANCH  28  33
ATOM     33  O   UNL     1      -9.304  -4.155  44.189  1.00  0.00    -0.384 OA
ATOM     34  H   UNL     1      -9.201  -3.902  45.142  1.00  0.00     0.211 HD
ENDBRANCH  28  33
BRANCH  30  35
ATOM     35  O   UNL     1     -11.558  -6.554  45.660  1.00  0.00    -0.387 OA
ATOM     36  H   UNL     1     -12.237  -5.993  45.212  1.00  0.00     0.211 HD
ENDBRANCH  30  35
BRANCH  31  37
ATOM     37  C   UNL     1      -7.643  -8.692  44.779  1.00  0.00     0.191 C 
BRANCH  37  38
ATOM     38  O   UNL     1      -8.060  -9.957  45.220  1.00  0.00    -0.394 OA
ATOM     39  H   UNL     1      -9.035 -10.022  45.022  1.00  0.00     0.210 HD
ENDBRANCH  37  38
ENDBRANCH  31  37
BRANCH  32  40
ATOM     40  O   UNL     1      -9.433  -7.718  46.888  1.00  0.00    -0.387 OA
ATOM     41  H   UNL     1     -10.232  -8.255  46.649  1.00  0.00     0.211 HD
ENDBRANCH  32  40
ENDBRANCH   1  27
TORSDOF 12
ENDMDL
MODEL 7
REMARK VINA RESULT:    -6.738      5.998     10.070
REMARK INTER + INTRA:         -11.358
REMARK INTER:                  -9.543
REMARK INTRA:                  -1.816
REMARK UNBOUND:                -1.470
REMARK SMILES O=c1c(O[C@@H]2O[C@@H](CO)[C@H](O)[C@H](O)[C@H]2O)c(-c2ccc(O)c(O)c2)oc2cc(O)cc(O)c12
REMARK SMILES IDX 4 1 3 2 16 3 25 4 2 5 26 6 1 7 33 8 27 9 31 10 28 11 30 12
REMARK SMILES IDX 17 13 18 14 19 15 20 16 24 17 22 18 21 19 23 21 32 23 29 25
REMARK SMILES IDX 5 27 14 28 6 29 12 30 7 31 10 32 15 33 13 35 8 37 9 38 11 40
REMARK H PARENT 21 20 23 22 32 24 29 26 15 34 13 36 9 39 11 41
REMARK Flexibility Score: inf
ROOT
ATOM      1  O   UNL     1     -11.377  -7.222  46.965  1.00  0.00    -0.454 OA
ENDROOT
BRANCH   1   2
ATOM      2  C   UNL     1     -10.591  -7.996  46.091  1.00  0.00     0.214 A 
ATOM      3  C   UNL     1     -11.107  -9.219  45.629  1.00  0.00     0.180 A 
ATOM      4  O   UNL     1     -10.359 -10.013  44.873  1.00  0.00    -0.452 OA
ATOM      5  C   UNL     1      -9.306  -7.601  45.665  1.00  0.00     0.239 A 
ATOM      6  C   UNL     1      -9.135  -9.699  44.471  1.00  0.00     0.146 A 
ATOM      7  O   UNL     1      -8.843  -6.498  46.050  1.00  0.00    -0.285 OA
ATOM      8  C   UNL     1      -8.552  -8.451  44.815  1.00  0.00     0.111 A 
ATOM      9  C   UNL     1      -8.428 -10.627  43.701  1.00  0.00     0.094 A 
ATOM     10  C   UNL     1      -7.246  -8.151  44.314  1.00  0.00     0.134 A 
ATOM     11  C   UNL     1      -7.136 -10.347  43.265  1.00  0.00     0.123 A 
ATOM     12  C   UNL     1      -6.553  -9.115  43.573  1.00  0.00     0.093 A 
BRANCH   3  13
ATOM     13  C   UNL     1     -12.463  -9.684  46.005  1.00  0.00     0.025 A 
ATOM     14  C   UNL     1     -13.575  -9.230  45.280  1.00  0.00     0.016 A 
ATOM     15  C   UNL     1     -14.860  -9.661  45.618  1.00  0.00     0.051 A 
ATOM     16  C   UNL     1     -15.053 -10.543  46.689  1.00  0.00     0.157 A 
ATOM     17  C   UNL     1     -12.662 -10.547  47.097  1.00  0.00     0.062 A 
ATOM     18  C   UNL     1     -13.947 -10.986  47.433  1.00  0.00     0.158 A 
BRANCH  16  19
ATOM     19  O   UNL     1     -16.336 -10.975  47.020  1.00  0.00    -0.504 OA
ATOM     20  H   UNL     1     -16.647 -11.021  47.985  1.00  0.00     0.293 HD
ENDBRANCH  16  19
BRANCH  18  21
ATOM     21  O   UNL     1     -14.105 -11.857  48.510  1.00  0.00    -0.504 OA
ATOM     22  H   UNL     1     -13.819 -12.827  48.464  1.00  0.00     0.293 HD
ENDBRANCH  18  21
ENDBRANCH   3  13
BRANCH  10  23
ATOM     23  O   UNL     1      -6.598  -6.925  44.494  1.00  0.00    -0.507 OA
ATOM     24  H   UNL     1      -5.684  -6.805  44.904  1.00  0.00     0.293 HD
ENDBRANCH  10  23
BRANCH  11  25
ATOM     25  O   UNL     1      -6.441 -11.299  42.522  1.00  0.00    -0.508 OA
ATOM     26  H   UNL     1      -6.923 -11.949  41.912  1.00  0.00     0.293 HD
ENDBRANCH  11  25
ENDBRANCH   1   2
BRANCH   1  27
ATOM     27  C   UNL     1     -11.212  -7.123  48.385  1.00  0.00     0.339 C 
ATOM     28  C   UNL     1     -11.037  -5.652  48.834  1.00  0.00     0.214 C 
ATOM     29  O   UNL     1     -12.297  -7.747  49.051  1.00  0.00    -0.332 OA
ATOM     30  C   UNL     1     -12.363  -4.853  48.793  1.00  0.00     0.180 C 
ATOM     31  C   UNL     1     -13.531  -7.115  48.755  1.00  0.00     0.179 C 
ATOM     32  C   UNL     1     -13.554  -5.681  49.330  1.00  0.00     0.177 C 
BRANCH  28  33
ATOM     33  O   UNL     1     -10.469  -5.598  50.120  1.00  0.00    -0.384 OA
ATOM     34  H   UNL     1     -10.765  -6.403  50.618  1.00  0.00     0.211 HD
ENDBRANCH  28  33
BRANCH  30  35
ATOM     35  O   UNL     1     -12.611  -4.352  47.500  1.00  0.00    -0.387 OA
ATOM     36  H   UNL     1     -12.333  -5.037  46.844  1.00  0.00     0.211 HD
ENDBRANCH  30  35
BRANCH  31  37
ATOM     37  C   UNL     1     -14.658  -7.959  49.364  1.00  0.00     0.191 C 
BRANCH  37  38
ATOM     38  O   UNL     1     -15.859  -7.726  48.676  1.00  0.00    -0.394 OA
ATOM     39  H   UNL     1     -16.097  -6.769  48.831  1.00  0.00     0.210 HD
ENDBRANCH  37  38
ENDBRANCH  31  37
BRANCH  32  40
ATOM     40  O   UNL     1     -14.765  -5.050  49.002  1.00  0.00    -0.387 OA
ATOM     41  H   UNL     1     -14.638  -4.080  49.164  1.00  0.00     0.211 HD
ENDBRANCH  32  40
ENDBRANCH   1  27
TORSDOF 12
ENDMDL
MODEL 8
REMARK VINA RESULT:    -6.733      6.141      9.736
REMARK INTER + INTRA:         -11.352
REMARK INTER:                 -10.038
REMARK INTRA:                  -1.314
REMARK UNBOUND:                -1.470
REMARK SMILES O=c1c(O[C@@H]2O[C@@H](CO)[C@H](O)[C@H](O)[C@H]2O)c(-c2ccc(O)c(O)c2)oc2cc(O)cc(O)c12
REMARK SMILES IDX 4 1 3 2 16 3 25 4 2 5 26 6 1 7 33 8 27 9 31 10 28 11 30 12
REMARK SMILES IDX 17 13 18 14 19 15 20 16 24 17 22 18 21 19 23 21 32 23 29 25
REMARK SMILES IDX 5 27 14 28 6 29 12 30 7 31 10 32 15 33 13 35 8 37 9 38 11 40
REMARK H PARENT 21 20 23 22 32 24 29 26 15 34 13 36 9 39 11 41
REMARK Flexibility Score: inf
ROOT
ATOM      1  O   UNL     1     -13.745  -8.653  46.256  1.00  0.00    -0.454 OA
ENDROOT
BRANCH   1   2
ATOM      2  C   UNL     1     -12.422  -8.194  46.121  1.00  0.00     0.214 A 
ATOM      3  C   UNL     1     -12.132  -6.866  46.481  1.00  0.00     0.180 A 
ATOM      4  O   UNL     1     -10.914  -6.375  46.287  1.00  0.00    -0.452 OA
ATOM      5  C   UNL     1     -11.376  -9.005  45.634  1.00  0.00     0.239 A 
ATOM      6  C   UNL     1      -9.906  -7.090  45.804  1.00  0.00     0.146 A 
ATOM      7  O   UNL     1     -11.616 -10.201  45.333  1.00  0.00    -0.285 OA
ATOM      8  C   UNL     1     -10.073  -8.463  45.485  1.00  0.00     0.111 A 
ATOM      9  C   UNL     1      -8.674  -6.459  45.613  1.00  0.00     0.094 A 
ATOM     10  C   UNL     1      -8.937  -9.192  45.012  1.00  0.00     0.134 A 
ATOM     11  C   UNL     1      -7.590  -7.165  45.099  1.00  0.00     0.123 A 
ATOM     12  C   UNL     1      -7.725  -8.523  44.801  1.00  0.00     0.093 A 
BRANCH   3  13
ATOM     13  C   UNL     1     -13.170  -5.964  47.033  1.00  0.00     0.025 A 
ATOM     14  C   UNL     1     -13.637  -4.892  46.260  1.00  0.00     0.016 A 
ATOM     15  C   UNL     1     -14.618  -4.034  46.763  1.00  0.00     0.051 A 
ATOM     16  C   UNL     1     -15.139  -4.230  48.048  1.00  0.00     0.157 A 
ATOM     17  C   UNL     1     -13.674  -6.142  48.334  1.00  0.00     0.062 A 
ATOM     18  C   UNL     1     -14.662  -5.289  48.838  1.00  0.00     0.158 A 
BRANCH  16  19
ATOM     19  O   UNL     1     -16.122  -3.376  48.546  1.00  0.00    -0.504 OA
ATOM     20  H   UNL     1     -15.943  -2.388  48.688  1.00  0.00     0.293 HD
ENDBRANCH  16  19
BRANCH  18  21
ATOM     21  O   UNL     1     -15.152  -5.507  50.125  1.00  0.00    -0.504 OA
ATOM     22  H   UNL     1     -15.890  -6.175  50.314  1.00  0.00     0.293 HD
ENDBRANCH  18  21
ENDBRANCH   3  13
BRANCH  10  23
ATOM     23  O   UNL     1      -8.937 -10.567  44.755  1.00  0.00    -0.507 OA
ATOM     24  H   UNL     1      -9.698 -11.198  44.961  1.00  0.00     0.293 HD
ENDBRANCH  10  23
BRANCH  11  25
ATOM     25  O   UNL     1      -6.378  -6.508  44.892  1.00  0.00    -0.508 OA
ATOM     26  H   UNL     1      -6.180  -6.025  44.024  1.00  0.00     0.293 HD
ENDBRANCH  11  25
ENDBRANCH   1   2
BRANCH   1  27
ATOM     27  C   UNL     1     -14.547  -9.231  45.219  1.00  0.00     0.339 C 
ATOM     28  C   UNL     1     -15.543 -10.271  45.787  1.00  0.00     0.214 C 
ATOM     29  O   UNL     1     -15.213  -8.216  44.487  1.00  0.00    -0.332 OA
ATOM     30  C   UNL     1     -16.731  -9.616  46.532  1.00  0.00     0.180 C 
ATOM     31  C   UNL     1     -16.104  -7.475  45.305  1.00  0.00     0.179 C 
ATOM     32  C   UNL     1     -17.267  -8.372  45.785  1.00  0.00     0.177 C 
BRANCH  28  33
ATOM     33  O   UNL     1     -16.009 -11.113  44.761  1.00  0.00    -0.384 OA
ATOM     34  H   UNL     1     -15.986 -10.601  43.912  1.00  0.00     0.211 HD
ENDBRANCH  28  33
BRANCH  30  35
ATOM     35  O   UNL     1     -16.391  -9.322  47.867  1.00  0.00    -0.387 OA
ATOM     36  H   UNL     1     -16.945  -8.559  48.165  1.00  0.00     0.211 HD
ENDBRANCH  30  35
BRANCH  31  37
ATOM     37  C   UNL     1     -16.637  -6.294  44.483  1.00  0.00     0.191 C 
BRANCH  37  38
ATOM     38  O   UNL     1     -17.910  -6.597  43.976  1.00  0.00    -0.394 OA
ATOM     39  H   UNL     1     -17.883  -7.551  43.685  1.00  0.00     0.210 HD
ENDBRANCH  37  38
ENDBRANCH  31  37
BRANCH  32  40
ATOM     40  O   UNL     1     -18.125  -7.641  46.623  1.00  0.00    -0.387 OA
ATOM     41  H   UNL     1     -18.902  -7.366  46.071  1.00  0.00     0.211 HD
ENDBRANCH  32  40
ENDBRANCH   1  27
TORSDOF 12
ENDMDL
MODEL 9
REMARK VINA RESULT:    -6.683      4.772      8.974
REMARK INTER + INTRA:         -11.279
REMARK INTER:                 -10.029
REMARK INTRA:                  -1.249
REMARK UNBOUND:                -1.470
REMARK SMILES O=c1c(O[C@@H]2O[C@@H](CO)[C@H](O)[C@H](O)[C@H]2O)c(-c2ccc(O)c(O)c2)oc2cc(O)cc(O)c12
REMARK SMILES IDX 4 1 3 2 16 3 25 4 2 5 26 6 1 7 33 8 27 9 31 10 28 11 30 12
REMARK SMILES IDX 17 13 18 14 19 15 20 16 24 17 22 18 21 19 23 21 32 23 29 25
REMARK SMILES IDX 5 27 14 28 6 29 12 30 7 31 10 32 15 33 13 35 8 37 9 38 11 40
REMARK H PARENT 21 20 23 22 32 24 29 26 15 34 13 36 9 39 11 41
REMARK Flexibility Score: inf
ROOT
ATOM      1  O   UNL     1     -10.595  -8.031  46.663  1.00  0.00    -0.454 OA
ENDROOT
BRANCH   1   2
ATOM      2  C   UNL     1     -10.332  -8.625  45.415  1.00  0.00     0.214 A 
ATOM      3  C   UNL     1     -11.292  -9.496  44.870  1.00  0.00     0.180 A 
ATOM      4  O   UNL     1     -11.039 -10.139  43.737  1.00  0.00    -0.452 OA
ATOM      5  C   UNL     1      -9.145  -8.390  44.691  1.00  0.00     0.239 A 
ATOM      6  C   UNL     1      -9.925  -9.974  43.036  1.00  0.00     0.146 A 
ATOM      7  O   UNL     1      -8.290  -7.594  45.154  1.00  0.00    -0.285 OA
ATOM      8  C   UNL     1      -8.928  -9.056  43.456  1.00  0.00     0.111 A 
ATOM      9  C   UNL     1      -9.754 -10.728  41.871  1.00  0.00     0.094 A 
ATOM     10  C   UNL     1      -7.770  -8.888  42.634  1.00  0.00     0.134 A 
ATOM     11  C   UNL     1      -8.598 -10.597  41.108  1.00  0.00     0.123 A 
ATOM     12  C   UNL     1      -7.614  -9.682  41.491  1.00  0.00     0.093 A 
BRANCH   3  13
ATOM     13  C   UNL     1     -12.578  -9.765  45.556  1.00  0.00     0.025 A 
ATOM     14  C   UNL     1     -13.751  -9.157  45.086  1.00  0.00     0.016 A 
ATOM     15  C   UNL     1     -14.973  -9.402  45.717  1.00  0.00     0.051 A 
ATOM     16  C   UNL     1     -15.038 -10.249  46.831  1.00  0.00     0.157 A 
ATOM     17  C   UNL     1     -12.641 -10.592  46.691  1.00  0.00     0.062 A 
ATOM     18  C   UNL     1     -13.864 -10.844  47.322  1.00  0.00     0.158 A 
BRANCH  16  19
ATOM     19  O   UNL     1     -16.260 -10.495  47.456  1.00  0.00    -0.504 OA
ATOM     20  H   UNL     1     -16.794 -11.335  47.261  1.00  0.00     0.293 HD
ENDBRANCH  16  19
BRANCH  18  21
ATOM     21  O   UNL     1     -13.892 -11.685  48.434  1.00  0.00    -0.504 OA
ATOM     22  H   UNL     1     -13.437 -12.589  48.436  1.00  0.00     0.293 HD
ENDBRANCH  18  21
ENDBRANCH   3  13
BRANCH  10  23
ATOM     23  O   UNL     1      -6.761  -7.951  42.878  1.00  0.00    -0.507 OA
ATOM     24  H   UNL     1      -6.464  -7.640  43.791  1.00  0.00     0.293 HD
ENDBRANCH  10  23
BRANCH  11  25
ATOM     25  O   UNL     1      -8.437 -11.379  39.965  1.00  0.00    -0.508 OA
ATOM     26  H   UNL     1      -7.520 -11.669  39.647  1.00  0.00     0.293 HD
ENDBRANCH  11  25
ENDBRANCH   1   2
BRANCH   1  27
ATOM     27  C   UNL     1     -11.341  -6.828  46.885  1.00  0.00     0.339 C 
ATOM     28  C   UNL     1     -11.885  -6.759  48.333  1.00  0.00     0.214 C 
ATOM     29  O   UNL     1     -10.553  -5.693  46.568  1.00  0.00    -0.332 OA
ATOM     30  C   UNL     1     -10.782  -6.431  49.370  1.00  0.00     0.180 C 
ATOM     31  C   UNL     1      -9.406  -5.601  47.396  1.00  0.00     0.179 C 
ATOM     32  C   UNL     1      -9.818  -5.334  48.861  1.00  0.00     0.177 C 
BRANCH  28  33
ATOM     33  O   UNL     1     -12.933  -5.825  48.418  1.00  0.00    -0.384 OA
ATOM     34  H   UNL     1     -13.496  -6.069  49.197  1.00  0.00     0.211 HD
ENDBRANCH  28  33
BRANCH  30  35
ATOM     35  O   UNL     1     -10.094  -7.595  49.763  1.00  0.00    -0.387 OA
ATOM     36  H   UNL     1      -9.124  -7.418  49.696  1.00  0.00     0.211 HD
ENDBRANCH  30  35
BRANCH  31  37
ATOM     37  C   UNL     1      -8.526  -4.460  46.867  1.00  0.00     0.191 C 
BRANCH  37  38
ATOM     38  O   UNL     1      -7.223  -4.583  47.374  1.00  0.00    -0.394 OA
ATOM     39  H   UNL     1      -6.900  -5.491  47.116  1.00  0.00     0.210 HD
ENDBRANCH  37  38
ENDBRANCH  31  37
BRANCH  32  40
ATOM     40  O   UNL     1      -8.678  -5.279  49.679  1.00  0.00    -0.387 OA
ATOM     41  H   UNL     1      -8.952  -5.596  50.578  1.00  0.00     0.211 HD
ENDBRANCH  32  40
ENDBRANCH   1  27
TORSDOF 12
ENDMDL
