MODEL 1
REMARK VINA RESULT:    -3.701      0.000      0.000
REMARK INTER + INTRA:         -10.250
REMARK INTER:                  -7.163
REMARK INTRA:                  -3.087
REMARK UNBOUND:                -3.087
REMARK SMILES CCCCCCCCCCCCCCCCCC(=O)[O-]
REMARK SMILES IDX 10 1 11 2 12 3 13 4 14 5 15 6 16 7 17 8 18 9 19 10 20 11
REMARK SMILES IDX 9 12 8 13 7 14 6 15 5 16 4 17 3 18 2 19 1 20
REMARK H PARENT
REMARK Flexibility Score: inf
ROOT
ATOM      1  C   UNL     1      18.517  36.341  33.275  1.00  0.00     0.000 C 
ENDROOT
BRANCH   1   2
ATOM      2  C   UNL     1      19.635  36.764  32.304  1.00  0.00     0.000 C 
BRANCH   2   3
ATOM      3  C   UNL     1      20.907  37.241  33.027  1.00  0.00     0.000 C 
BRANCH   3   4
ATOM      4  C   UNL     1      20.876  36.934  34.533  1.00  0.00     0.000 C 
BRANCH   4   5
ATOM      5  C   UNL     1      22.065  37.557  35.284  1.00  0.00     0.000 C 
BRANCH   5   6
ATOM      6  C   UNL     1      21.712  38.892  35.966  1.00  0.00     0.000 C 
BRANCH   6   7
ATOM      7  C   UNL     1      21.611  38.835  37.502  1.00  0.00     0.006 C 
BRANCH   7   8
ATOM      8  C   UNL     1      20.166  38.924  38.011  1.00  0.00     0.053 C 
BRANCH   8   9
ATOM      9  C   UNL     1      19.766  37.643  38.672  1.00  0.00     0.041 C 
ATOM     10  O   UNL     1      20.396  36.581  38.427  1.00  0.00    -0.550 OA
ATOM     11  O   UNL     1      18.722  37.628  39.588  1.00  0.00    -0.550 OA
ENDBRANCH   8   9
ENDBRANCH   7   8
ENDBRANCH   6   7
ENDBRANCH   5   6
ENDBRANCH   4   5
ENDBRANCH   3   4
ENDBRANCH   2   3
ENDBRANCH   1   2
BRANCH   1  12
ATOM     12  C   UNL     1      17.157  37.023  33.041  1.00  0.00     0.000 C 
BRANCH  12  13
ATOM     13  C   UNL     1      16.620  37.738  34.290  1.00  0.00    -0.000 C 
BRANCH  13  14
ATOM     14  C   UNL     1      17.773  38.254  35.164  1.00  0.00    -0.000 C 
BRANCH  14  15
ATOM     15  C   UNL     1      17.978  39.776  35.049  1.00  0.00    -0.000 C 
BRANCH  15  16
ATOM     16  C   UNL     1      18.975  40.218  33.961  1.00  0.00    -0.000 C 
BRANCH  16  17
ATOM     17  C   UNL     1      18.352  40.983  32.777  1.00  0.00    -0.000 C 
BRANCH  17  18
ATOM     18  C   UNL     1      18.164  40.155  31.491  1.00  0.00    -0.000 C 
BRANCH  18  19
ATOM     19  C   UNL     1      16.734  40.160  30.921  1.00  0.00    -0.003 C 
ATOM     20  C   UNL     1      15.675  40.489  31.972  1.00  0.00     0.004 C 
ENDBRANCH  18  19
ENDBRANCH  17  18
ENDBRANCH  16  17
ENDBRANCH  15  16
ENDBRANCH  14  15
ENDBRANCH  13  14
ENDBRANCH  12  13
ENDBRANCH   1  12
TORSDOF 16
ENDMDL
MODEL 2
REMARK VINA RESULT:    -3.595      1.821      4.105
REMARK INTER + INTRA:         -10.044
REMARK INTER:                  -7.211
REMARK INTRA:                  -2.834
REMARK UNBOUND:                -3.087
REMARK SMILES CCCCCCCCCCCCCCCCCC(=O)[O-]
REMARK SMILES IDX 10 1 11 2 12 3 13 4 14 5 15 6 16 7 17 8 18 9 19 10 20 11
REMARK SMILES IDX 9 12 8 13 7 14 6 15 5 16 4 17 3 18 2 19 1 20
REMARK H PARENT
REMARK Flexibility Score: inf
ROOT
ATOM      1  C   UNL     1      18.603  36.386  33.263  1.00  0.00     0.000 C 
ENDROOT
BRANCH   1   2
ATOM      2  C   UNL     1      17.276  37.165  33.173  1.00  0.00     0.000 C 
BRANCH   2   3
ATOM      3  C   UNL     1      17.104  38.186  34.311  1.00  0.00     0.000 C 
BRANCH   3   4
ATOM      4  C   UNL     1      18.204  38.068  35.378  1.00  0.00     0.000 C 
BRANCH   4   5
ATOM      5  C   UNL     1      18.718  39.440  35.849  1.00  0.00     0.000 C 
BRANCH   5   6
ATOM      6  C   UNL     1      19.478  39.369  37.186  1.00  0.00     0.000 C 
BRANCH   6   7
ATOM      7  C   UNL     1      18.802  38.520  38.279  1.00  0.00     0.006 C 
BRANCH   7   8
ATOM      8  C   UNL     1      19.769  37.545  38.963  1.00  0.00     0.053 C 
BRANCH   8   9
ATOM      9  C   UNL     1      20.715  38.286  39.855  1.00  0.00     0.041 C 
ATOM     10  O   UNL     1      20.348  38.648  41.003  1.00  0.00    -0.550 OA
ATOM     11  O   UNL     1      22.013  38.544  39.433  1.00  0.00    -0.550 OA
ENDBRANCH   8   9
ENDBRANCH   7   8
ENDBRANCH   6   7
ENDBRANCH   5   6
ENDBRANCH   4   5
ENDBRANCH   3   4
ENDBRANCH   2   3
ENDBRANCH   1   2
BRANCH   1  12
ATOM     12  C   UNL     1      19.610  36.682  32.138  1.00  0.00     0.000 C 
BRANCH  12  13
ATOM     13  C   UNL     1      19.153  37.811  31.203  1.00  0.00    -0.000 C 
BRANCH  13  14
ATOM     14  C   UNL     1      20.145  38.983  31.232  1.00  0.00    -0.000 C 
BRANCH  14  15
ATOM     15  C   UNL     1      20.258  39.638  32.621  1.00  0.00    -0.000 C 
BRANCH  15  16
ATOM     16  C   UNL     1      21.668  40.135  32.993  1.00  0.00    -0.000 C 
BRANCH  16  17
ATOM     17  C   UNL     1      22.631  39.043  33.500  1.00  0.00    -0.000 C 
BRANCH  17  18
ATOM     18  C   UNL     1      22.347  38.532  34.926  1.00  0.00    -0.000 C 
BRANCH  18  19
ATOM     19  C   UNL     1      21.784  37.103  35.001  1.00  0.00    -0.003 C 
ATOM     20  C   UNL     1      22.020  36.439  36.357  1.00  0.00     0.004 C 
ENDBRANCH  18  19
ENDBRANCH  17  18
ENDBRANCH  16  17
ENDBRANCH  15  16
ENDBRANCH  14  15
ENDBRANCH  13  14
ENDBRANCH  12  13
ENDBRANCH   1  12
TORSDOF 16
ENDMDL
MODEL 3
REMARK VINA RESULT:    -3.496      1.981      3.500
REMARK INTER + INTRA:          -9.854
REMARK INTER:                  -6.947
REMARK INTRA:                  -2.907
REMARK UNBOUND:                -3.087
REMARK SMILES CCCCCCCCCCCCCCCCCC(=O)[O-]
REMARK SMILES IDX 10 1 11 2 12 3 13 4 14 5 15 6 16 7 17 8 18 9 19 10 20 11
REMARK SMILES IDX 9 12 8 13 7 14 6 15 5 16 4 17 3 18 2 19 1 20
REMARK H PARENT
REMARK Flexibility Score: inf
ROOT
ATOM      1  C   UNL     1      21.289  40.082  34.978  1.00  0.00     0.000 C 
ENDROOT
BRANCH   1   2
ATOM      2  C   UNL     1      22.360  39.001  35.223  1.00  0.00     0.000 C 
BRANCH   2   3
ATOM      3  C   UNL     1      21.985  37.640  34.612  1.00  0.00     0.000 C 
BRANCH   3   4
ATOM      4  C   UNL     1      21.333  36.696  35.636  1.00  0.00     0.000 C 
BRANCH   4   5
ATOM      5  C   UNL     1      22.330  36.201  36.698  1.00  0.00     0.000 C 
BRANCH   5   6
ATOM      6  C   UNL     1      21.681  35.988  38.078  1.00  0.00     0.000 C 
BRANCH   6   7
ATOM      7  C   UNL     1      20.708  37.097  38.521  1.00  0.00     0.006 C 
BRANCH   7   8
ATOM      8  C   UNL     1      21.423  38.318  39.115  1.00  0.00     0.053 C 
BRANCH   8   9
ATOM      9  C   UNL     1      20.526  39.031  40.077  1.00  0.00     0.041 C 
ATOM     10  O   UNL     1      20.100  38.438  41.102  1.00  0.00    -0.550 OA
ATOM     11  O   UNL     1      20.192  40.362  39.862  1.00  0.00    -0.550 OA
ENDBRANCH   8   9
ENDBRANCH   7   8
ENDBRANCH   6   7
ENDBRANCH   5   6
ENDBRANCH   4   5
ENDBRANCH   3   4
ENDBRANCH   2   3
ENDBRANCH   1   2
BRANCH   1  12
ATOM     12  C   UNL     1      20.535  40.550  36.235  1.00  0.00     0.000 C 
BRANCH  12  13
ATOM     13  C   UNL     1      19.243  39.760  36.490  1.00  0.00    -0.000 C 
BRANCH  13  14
ATOM     14  C   UNL     1      18.492  39.499  35.175  1.00  0.00    -0.000 C 
BRANCH  14  15
ATOM     15  C   UNL     1      17.992  38.048  35.049  1.00  0.00    -0.000 C 
BRANCH  15  16
ATOM     16  C   UNL     1      18.119  37.437  33.640  1.00  0.00    -0.000 C 
BRANCH  16  17
ATOM     17  C   UNL     1      18.897  38.297  32.624  1.00  0.00    -0.000 C 
BRANCH  17  18
ATOM     18  C   UNL     1      19.309  37.565  31.331  1.00  0.00    -0.000 C 
BRANCH  18  19
ATOM     19  C   UNL     1      20.815  37.281  31.200  1.00  0.00    -0.003 C 
ATOM     20  C   UNL     1      21.648  38.549  31.022  1.00  0.00     0.004 C 
ENDBRANCH  18  19
ENDBRANCH  17  18
ENDBRANCH  16  17
ENDBRANCH  15  16
ENDBRANCH  14  15
ENDBRANCH  13  14
ENDBRANCH  12  13
ENDBRANCH   1  12
TORSDOF 16
ENDMDL
MODEL 4
REMARK VINA RESULT:    -3.481      1.477      2.668
REMARK INTER + INTRA:          -9.823
REMARK INTER:                  -7.345
REMARK INTRA:                  -2.478
REMARK UNBOUND:                -3.087
REMARK SMILES CCCCCCCCCCCCCCCCCC(=O)[O-]
REMARK SMILES IDX 10 1 11 2 12 3 13 4 14 5 15 6 16 7 17 8 18 9 19 10 20 11
REMARK SMILES IDX 9 12 8 13 7 14 6 15 5 16 4 17 3 18 2 19 1 20
REMARK H PARENT
REMARK Flexibility Score: inf
ROOT
ATOM      1  C   UNL     1      17.094  37.404  33.610  1.00  0.00     0.000 C 
ENDROOT
BRANCH   1   2
ATOM      2  C   UNL     1      18.113  36.400  33.037  1.00  0.00     0.000 C 
BRANCH   2   3
ATOM      3  C   UNL     1      18.710  36.854  31.694  1.00  0.00     0.000 C 
BRANCH   3   4
ATOM      4  C   UNL     1      20.218  37.142  31.790  1.00  0.00     0.000 C 
BRANCH   4   5
ATOM      5  C   UNL     1      20.767  36.934  33.212  1.00  0.00     0.000 C 
BRANCH   5   6
ATOM      6  C   UNL     1      21.347  38.222  33.825  1.00  0.00     0.000 C 
BRANCH   6   7
ATOM      7  C   UNL     1      22.083  38.034  35.165  1.00  0.00     0.006 C 
BRANCH   7   8
ATOM      8  C   UNL     1      21.971  36.605  35.714  1.00  0.00     0.053 C 
BRANCH   8   9
ATOM      9  C   UNL     1      21.349  36.616  37.075  1.00  0.00     0.041 C 
ATOM     10  O   UNL     1      21.784  35.850  37.974  1.00  0.00    -0.550 OA
ATOM     11  O   UNL     1      20.314  37.497  37.361  1.00  0.00    -0.550 OA
ENDBRANCH   8   9
ENDBRANCH   7   8
ENDBRANCH   6   7
ENDBRANCH   5   6
ENDBRANCH   4   5
ENDBRANCH   3   4
ENDBRANCH   2   3
ENDBRANCH   1   2
BRANCH   1  12
ATOM     12  C   UNL     1      17.512  38.078  34.929  1.00  0.00     0.000 C 
BRANCH  12  13
ATOM     13  C   UNL     1      18.034  39.509  34.733  1.00  0.00    -0.000 C 
BRANCH  13  14
ATOM     14  C   UNL     1      17.572  40.082  33.385  1.00  0.00    -0.000 C 
BRANCH  14  15
ATOM     15  C   UNL     1      18.735  40.614  32.530  1.00  0.00    -0.000 C 
BRANCH  15  16
ATOM     16  C   UNL     1      18.571  40.414  31.011  1.00  0.00    -0.000 C 
BRANCH  16  17
ATOM     17  C   UNL     1      17.124  40.170  30.538  1.00  0.00    -0.000 C 
BRANCH  17  18
ATOM     18  C   UNL     1      16.832  40.595  29.085  1.00  0.00    -0.000 C 
BRANCH  18  19
ATOM     19  C   UNL     1      15.606  39.918  28.448  1.00  0.00    -0.003 C 
ATOM     20  C   UNL     1      14.572  40.919  27.934  1.00  0.00     0.004 C 
ENDBRANCH  18  19
ENDBRANCH  17  18
ENDBRANCH  16  17
ENDBRANCH  15  16
ENDBRANCH  14  15
ENDBRANCH  13  14
ENDBRANCH  12  13
ENDBRANCH   1  12
TORSDOF 16
ENDMDL
MODEL 5
REMARK VINA RESULT:    -3.477      8.767     11.318
REMARK INTER + INTRA:          -9.815
REMARK INTER:                  -7.533
REMARK INTRA:                  -2.282
REMARK UNBOUND:                -3.087
REMARK SMILES CCCCCCCCCCCCCCCCCC(=O)[O-]
REMARK SMILES IDX 10 1 11 2 12 3 13 4 14 5 15 6 16 7 17 8 18 9 19 10 20 11
REMARK SMILES IDX 9 12 8 13 7 14 6 15 5 16 4 17 3 18 2 19 1 20
REMARK H PARENT
REMARK Flexibility Score: inf
ROOT
ATOM      1  C   UNL     1      18.005  30.976  24.896  1.00  0.00     0.000 C 
ENDROOT
BRANCH   1   2
ATOM      2  C   UNL     1      16.837  31.973  24.770  1.00  0.00     0.000 C 
BRANCH   2   3
ATOM      3  C   UNL     1      16.807  33.006  25.911  1.00  0.00     0.000 C 
BRANCH   3   4
ATOM      4  C   UNL     1      15.932  34.225  25.576  1.00  0.00     0.000 C 
BRANCH   4   5
ATOM      5  C   UNL     1      14.798  34.432  26.596  1.00  0.00     0.000 C 
BRANCH   5   6
ATOM      6  C   UNL     1      14.935  33.531  27.837  1.00  0.00     0.000 C 
BRANCH   6   7
ATOM      7  C   UNL     1      13.842  32.457  27.990  1.00  0.00     0.006 C 
BRANCH   7   8
ATOM      8  C   UNL     1      14.381  31.127  28.533  1.00  0.00     0.053 C 
BRANCH   8   9
ATOM      9  C   UNL     1      14.574  30.147  27.418  1.00  0.00     0.041 C 
ATOM     10  O   UNL     1      15.698  29.611  27.237  1.00  0.00    -0.550 OA
ATOM     11  O   UNL     1      13.504  29.798  26.604  1.00  0.00    -0.550 OA
ENDBRANCH   8   9
ENDBRANCH   7   8
ENDBRANCH   6   7
ENDBRANCH   5   6
ENDBRANCH   4   5
ENDBRANCH   3   4
ENDBRANCH   2   3
ENDBRANCH   1   2
BRANCH   1  12
ATOM     12  C   UNL     1      19.140  31.167  23.875  1.00  0.00     0.000 C 
BRANCH  12  13
ATOM     13  C   UNL     1      20.537  31.106  24.511  1.00  0.00    -0.000 C 
BRANCH  13  14
ATOM     14  C   UNL     1      21.201  32.491  24.509  1.00  0.00    -0.000 C 
BRANCH  14  15
ATOM     15  C   UNL     1      20.570  33.459  25.526  1.00  0.00    -0.000 C 
BRANCH  15  16
ATOM     16  C   UNL     1      20.120  34.813  24.941  1.00  0.00    -0.000 C 
BRANCH  16  17
ATOM     17  C   UNL     1      19.308  35.701  25.904  1.00  0.00    -0.000 C 
BRANCH  17  18
ATOM     18  C   UNL     1      19.340  35.260  27.381  1.00  0.00    -0.000 C 
BRANCH  18  19
ATOM     19  C   UNL     1      18.236  35.870  28.262  1.00  0.00    -0.003 C 
ATOM     20  C   UNL     1      18.339  37.390  28.380  1.00  0.00     0.004 C 
ENDBRANCH  18  19
ENDBRANCH  17  18
ENDBRANCH  16  17
ENDBRANCH  15  16
ENDBRANCH  14  15
ENDBRANCH  13  14
ENDBRANCH  12  13
ENDBRANCH   1  12
TORSDOF 16
ENDMDL
MODEL 6
REMARK VINA RESULT:    -3.449      2.943      6.406
REMARK INTER + INTRA:          -9.761
REMARK INTER:                  -7.138
REMARK INTRA:                  -2.623
REMARK UNBOUND:                -3.087
REMARK SMILES CCCCCCCCCCCCCCCCCC(=O)[O-]
REMARK SMILES IDX 10 1 11 2 12 3 13 4 14 5 15 6 16 7 17 8 18 9 19 10 20 11
REMARK SMILES IDX 9 12 8 13 7 14 6 15 5 16 4 17 3 18 2 19 1 20
REMARK H PARENT
REMARK Flexibility Score: inf
ROOT
ATOM      1  C   UNL     1      17.858  38.417  35.496  1.00  0.00     0.000 C 
ENDROOT
BRANCH   1   2
ATOM      2  C   UNL     1      16.656  37.994  34.629  1.00  0.00     0.000 C 
BRANCH   2   3
ATOM      3  C   UNL     1      15.985  39.182  33.917  1.00  0.00     0.000 C 
BRANCH   3   4
ATOM      4  C   UNL     1      16.843  40.457  33.966  1.00  0.00     0.000 C 
BRANCH   4   5
ATOM      5  C   UNL     1      17.562  40.733  32.634  1.00  0.00     0.000 C 
BRANCH   5   6
ATOM      6  C   UNL     1      16.916  40.005  31.441  1.00  0.00     0.000 C 
BRANCH   6   7
ATOM      7  C   UNL     1      17.883  39.162  30.589  1.00  0.00     0.006 C 
BRANCH   7   8
ATOM      8  C   UNL     1      18.644  38.111  31.409  1.00  0.00     0.053 C 
BRANCH   8   9
ATOM      9  C   UNL     1      20.113  38.205  31.144  1.00  0.00     0.041 C 
ATOM     10  O   UNL     1      20.779  37.164  30.903  1.00  0.00    -0.550 OA
ATOM     11  O   UNL     1      20.740  39.444  31.123  1.00  0.00    -0.550 OA
ENDBRANCH   8   9
ENDBRANCH   7   8
ENDBRANCH   6   7
ENDBRANCH   5   6
ENDBRANCH   4   5
ENDBRANCH   3   4
ENDBRANCH   2   3
ENDBRANCH   1   2
BRANCH   1  12
ATOM     12  C   UNL     1      19.208  37.803  35.084  1.00  0.00     0.000 C 
BRANCH  12  13
ATOM     13  C   UNL     1      20.275  38.860  34.762  1.00  0.00    -0.000 C 
BRANCH  13  14
ATOM     14  C   UNL     1      21.684  38.250  34.816  1.00  0.00    -0.000 C 
BRANCH  14  15
ATOM     15  C   UNL     1      21.674  36.744  35.131  1.00  0.00    -0.000 C 
BRANCH  15  16
ATOM     16  C   UNL     1      22.064  36.379  36.577  1.00  0.00    -0.000 C 
BRANCH  16  17
ATOM     17  C   UNL     1      22.524  37.566  37.447  1.00  0.00    -0.000 C 
BRANCH  17  18
ATOM     18  C   UNL     1      21.474  38.085  38.449  1.00  0.00    -0.000 C 
BRANCH  18  19
ATOM     19  C   UNL     1      20.177  37.261  38.512  1.00  0.00    -0.003 C 
ATOM     20  C   UNL     1      19.008  38.034  39.119  1.00  0.00     0.004 C 
ENDBRANCH  18  19
ENDBRANCH  17  18
ENDBRANCH  16  17
ENDBRANCH  15  16
ENDBRANCH  14  15
ENDBRANCH  13  14
ENDBRANCH  12  13
ENDBRANCH   1  12
TORSDOF 16
ENDMDL
MODEL 7
REMARK VINA RESULT:    -3.440      3.156      6.397
REMARK INTER + INTRA:          -9.744
REMARK INTER:                  -6.733
REMARK INTRA:                  -3.012
REMARK UNBOUND:                -3.087
REMARK SMILES CCCCCCCCCCCCCCCCCC(=O)[O-]
REMARK SMILES IDX 10 1 11 2 12 3 13 4 14 5 15 6 16 7 17 8 18 9 19 10 20 11
REMARK SMILES IDX 9 12 8 13 7 14 6 15 5 16 4 17 3 18 2 19 1 20
REMARK H PARENT
REMARK Flexibility Score: inf
ROOT
ATOM      1  C   UNL     1      20.384  40.124  34.648  1.00  0.00     0.000 C 
ENDROOT
BRANCH   1   2
ATOM      2  C   UNL     1      18.996  40.565  34.147  1.00  0.00     0.000 C 
BRANCH   2   3
ATOM      3  C   UNL     1      17.846  39.778  34.800  1.00  0.00     0.000 C 
BRANCH   3   4
ATOM      4  C   UNL     1      18.237  38.326  35.122  1.00  0.00     0.000 C 
BRANCH   4   5
ATOM      5  C   UNL     1      17.784  37.339  34.032  1.00  0.00     0.000 C 
BRANCH   5   6
ATOM      6  C   UNL     1      18.959  36.598  33.368  1.00  0.00     0.000 C 
BRANCH   6   7
ATOM      7  C   UNL     1      19.266  37.024  31.920  1.00  0.00     0.006 C 
BRANCH   7   8
ATOM      8  C   UNL     1      18.043  37.598  31.193  1.00  0.00     0.053 C 
BRANCH   8   9
ATOM      9  C   UNL     1      18.427  38.805  30.397  1.00  0.00     0.041 C 
ATOM     10  O   UNL     1      19.445  39.474  30.715  1.00  0.00    -0.550 OA
ATOM     11  O   UNL     1      17.684  39.170  29.281  1.00  0.00    -0.550 OA
ENDBRANCH   8   9
ENDBRANCH   7   8
ENDBRANCH   6   7
ENDBRANCH   5   6
ENDBRANCH   4   5
ENDBRANCH   3   4
ENDBRANCH   2   3
ENDBRANCH   1   2
BRANCH   1  12
ATOM     12  C   UNL     1      21.412  39.823  33.543  1.00  0.00     0.000 C 
BRANCH  12  13
ATOM     13  C   UNL     1      22.128  38.478  33.738  1.00  0.00    -0.000 C 
BRANCH  13  14
ATOM     14  C   UNL     1      22.253  38.135  35.231  1.00  0.00    -0.000 C 
BRANCH  14  15
ATOM     15  C   UNL     1      21.857  36.681  35.546  1.00  0.00    -0.000 C 
BRANCH  15  16
ATOM     16  C   UNL     1      21.776  36.340  37.047  1.00  0.00    -0.000 C 
BRANCH  16  17
ATOM     17  C   UNL     1      21.221  37.465  37.942  1.00  0.00    -0.000 C 
BRANCH  17  18
ATOM     18  C   UNL     1      19.855  37.169  38.590  1.00  0.00    -0.000 C 
BRANCH  18  19
ATOM     19  C   UNL     1      18.936  38.392  38.752  1.00  0.00    -0.003 C 
ATOM     20  C   UNL     1      19.605  39.700  38.330  1.00  0.00     0.004 C 
ENDBRANCH  18  19
ENDBRANCH  17  18
ENDBRANCH  16  17
ENDBRANCH  15  16
ENDBRANCH  14  15
ENDBRANCH  13  14
ENDBRANCH  12  13
ENDBRANCH   1  12
TORSDOF 16
ENDMDL
MODEL 8
REMARK VINA RESULT:    -3.439      3.639      6.042
REMARK INTER + INTRA:          -9.743
REMARK INTER:                  -7.328
REMARK INTRA:                  -2.415
REMARK UNBOUND:                -3.087
REMARK SMILES CCCCCCCCCCCCCCCCCC(=O)[O-]
REMARK SMILES IDX 10 1 11 2 12 3 13 4 14 5 15 6 16 7 17 8 18 9 19 10 20 11
REMARK SMILES IDX 9 12 8 13 7 14 6 15 5 16 4 17 3 18 2 19 1 20
REMARK H PARENT
REMARK Flexibility Score: inf
ROOT
ATOM      1  C   UNL     1      17.524  40.248  30.138  1.00  0.00     0.000 C 
ENDROOT
BRANCH   1   2
ATOM      2  C   UNL     1      17.523  39.110  31.176  1.00  0.00     0.000 C 
BRANCH   2   3
ATOM      3  C   UNL     1      17.955  37.758  30.583  1.00  0.00     0.000 C 
BRANCH   3   4
ATOM      4  C   UNL     1      19.304  37.843  29.849  1.00  0.00     0.000 C 
BRANCH   4   5
ATOM      5  C   UNL     1      20.407  37.033  30.553  1.00  0.00     0.000 C 
BRANCH   5   6
ATOM      6  C   UNL     1      21.408  37.920  31.316  1.00  0.00     0.000 C 
BRANCH   6   7
ATOM      7  C   UNL     1      20.971  38.328  32.734  1.00  0.00     0.006 C 
BRANCH   7   8
ATOM      8  C   UNL     1      20.849  37.134  33.691  1.00  0.00     0.053 C 
BRANCH   8   9
ATOM      9  C   UNL     1      19.433  36.972  34.145  1.00  0.00     0.041 C 
ATOM     10  O   UNL     1      18.659  36.189  33.534  1.00  0.00    -0.550 OA
ATOM     11  O   UNL     1      18.978  37.653  35.267  1.00  0.00    -0.550 OA
ENDBRANCH   8   9
ENDBRANCH   7   8
ENDBRANCH   6   7
ENDBRANCH   5   6
ENDBRANCH   4   5
ENDBRANCH   3   4
ENDBRANCH   2   3
ENDBRANCH   1   2
BRANCH   1  12
ATOM     12  C   UNL     1      16.302  40.279  29.202  1.00  0.00     0.000 C 
BRANCH  12  13
ATOM     13  C   UNL     1      16.623  40.852  27.814  1.00  0.00    -0.000 C 
BRANCH  13  14
ATOM     14  C   UNL     1      15.416  40.718  26.873  1.00  0.00    -0.000 C 
BRANCH  14  15
ATOM     15  C   UNL     1      14.465  39.578  27.277  1.00  0.00    -0.000 C 
BRANCH  15  16
ATOM     16  C   UNL     1      14.155  38.562  26.161  1.00  0.00    -0.000 C 
BRANCH  16  17
ATOM     17  C   UNL     1      15.237  37.486  25.940  1.00  0.00    -0.000 C 
BRANCH  17  18
ATOM     18  C   UNL     1      16.013  37.073  27.206  1.00  0.00    -0.000 C 
BRANCH  18  19
ATOM     19  C   UNL     1      17.509  36.791  26.984  1.00  0.00    -0.003 C 
ATOM     20  C   UNL     1      18.233  37.935  26.275  1.00  0.00     0.004 C 
ENDBRANCH  18  19
ENDBRANCH  17  18
ENDBRANCH  16  17
ENDBRANCH  15  16
ENDBRANCH  14  15
ENDBRANCH  13  14
ENDBRANCH  12  13
ENDBRANCH   1  12
TORSDOF 16
ENDMDL
MODEL 9
REMARK VINA RESULT:    -3.356      3.447      6.153
REMARK INTER + INTRA:          -9.582
REMARK INTER:                  -6.400
REMARK INTRA:                  -3.183
REMARK UNBOUND:                -3.087
REMARK SMILES CCCCCCCCCCCCCCCCCC(=O)[O-]
REMARK SMILES IDX 10 1 11 2 12 3 13 4 14 5 15 6 16 7 17 8 18 9 19 10 20 11
REMARK SMILES IDX 9 12 8 13 7 14 6 15 5 16 4 17 3 18 2 19 1 20
REMARK H PARENT
REMARK Flexibility Score: inf
ROOT
ATOM      1  C   UNL     1      17.853  36.547  32.897  1.00  0.00     0.000 C 
ENDROOT
BRANCH   1   2
ATOM      2  C   UNL     1      16.791  37.376  33.644  1.00  0.00     0.000 C 
BRANCH   2   3
ATOM      3  C   UNL     1      17.358  38.106  34.874  1.00  0.00     0.000 C 
BRANCH   3   4
ATOM      4  C   UNL     1      17.395  39.631  34.688  1.00  0.00     0.000 C 
BRANCH   4   5
ATOM      5  C   UNL     1      18.821  40.161  34.458  1.00  0.00     0.000 C 
BRANCH   5   6
ATOM      6  C   UNL     1      18.968  40.934  33.134  1.00  0.00     0.000 C 
BRANCH   6   7
ATOM      7  C   UNL     1      17.835  40.708  32.116  1.00  0.00     0.006 C 
BRANCH   7   8
ATOM      8  C   UNL     1      18.334  40.659  30.666  1.00  0.00     0.053 C 
BRANCH   8   9
ATOM      9  C   UNL     1      17.218  40.284  29.742  1.00  0.00     0.041 C 
ATOM     10  O   UNL     1      17.471  39.894  28.572  1.00  0.00    -0.550 OA
ATOM     11  O   UNL     1      15.902  40.327  30.185  1.00  0.00    -0.550 OA
ENDBRANCH   8   9
ENDBRANCH   7   8
ENDBRANCH   6   7
ENDBRANCH   5   6
ENDBRANCH   4   5
ENDBRANCH   3   4
ENDBRANCH   2   3
ENDBRANCH   1   2
BRANCH   1  12
ATOM     12  C   UNL     1      18.099  36.965  31.436  1.00  0.00     0.000 C 
BRANCH  12  13
ATOM     13  C   UNL     1      19.569  37.304  31.147  1.00  0.00    -0.000 C 
BRANCH  13  14
ATOM     14  C   UNL     1      20.457  36.965  32.354  1.00  0.00    -0.000 C 
BRANCH  14  15
ATOM     15  C   UNL     1      21.353  38.139  32.787  1.00  0.00    -0.000 C 
BRANCH  15  16
ATOM     16  C   UNL     1      21.930  38.026  34.212  1.00  0.00    -0.000 C 
BRANCH  16  17
ATOM     17  C   UNL     1      21.035  37.278  35.220  1.00  0.00    -0.000 C 
BRANCH  17  18
ATOM     18  C   UNL     1      21.138  37.774  36.676  1.00  0.00    -0.000 C 
BRANCH  18  19
ATOM     19  C   UNL     1      19.835  37.670  37.488  1.00  0.00    -0.003 C 
ATOM     20  C   UNL     1      19.375  39.014  38.051  1.00  0.00     0.004 C 
ENDBRANCH  18  19
ENDBRANCH  17  18
ENDBRANCH  16  17
ENDBRANCH  15  16
ENDBRANCH  14  15
ENDBRANCH  13  14
ENDBRANCH  12  13
ENDBRANCH   1  12
TORSDOF 16
ENDMDL
