MODEL 1
REMARK VINA RESULT:    -3.605      0.000      0.000
REMARK INTER + INTRA:         -10.758
REMARK INTER:                  -7.820
REMARK INTRA:                  -2.937
REMARK UNBOUND:                -2.937
REMARK SMILES CCCCCCCCCCCCCCCCCCCCCC(=O)[O-]
REMARK SMILES IDX 12 1 11 2 10 3 9 4 8 5 7 6 6 7 5 8 4 9 3 10 2 11 1 12 13 13
REMARK SMILES IDX 14 14 15 15 16 16 17 17 18 18 19 19 20 20 21 21 22 22 23 23
REMARK SMILES IDX 24 24
REMARK H PARENT
REMARK Flexibility Score: inf
ROOT
ATOM      1  C   UNL     1     -10.329   0.056 -25.635  1.00  0.00     0.000 C 
ENDROOT
BRANCH   1   2
ATOM      2  C   UNL     1     -10.443  -0.094 -27.163  1.00  0.00     0.000 C 
BRANCH   2   3
ATOM      3  C   UNL     1     -10.883  -1.504 -27.594  1.00  0.00     0.000 C 
BRANCH   3   4
ATOM      4  C   UNL     1      -9.717  -2.357 -28.125  1.00  0.00    -0.000 C 
BRANCH   4   5
ATOM      5  C   UNL     1      -8.742  -2.876 -27.047  1.00  0.00    -0.000 C 
BRANCH   5   6
ATOM      6  C   UNL     1      -7.251  -2.583 -27.310  1.00  0.00    -0.000 C 
BRANCH   6   7
ATOM      7  C   UNL     1      -6.280  -3.705 -26.894  1.00  0.00    -0.000 C 
BRANCH   7   8
ATOM      8  C   UNL     1      -6.753  -5.098 -27.341  1.00  0.00    -0.000 C 
BRANCH   8   9
ATOM      9  C   UNL     1      -6.952  -6.067 -26.163  1.00  0.00    -0.000 C 
BRANCH   9  10
ATOM     10  C   UNL     1      -8.423  -6.470 -25.929  1.00  0.00    -0.000 C 
BRANCH  10  11
ATOM     11  C   UNL     1      -8.590  -7.988 -25.764  1.00  0.00    -0.003 C 
ATOM     12  C   UNL     1     -10.003  -8.430 -26.136  1.00  0.00     0.004 C 
ENDBRANCH  10  11
ENDBRANCH   9  10
ENDBRANCH   8   9
ENDBRANCH   7   8
ENDBRANCH   6   7
ENDBRANCH   5   6
ENDBRANCH   4   5
ENDBRANCH   3   4
ENDBRANCH   2   3
ENDBRANCH   1   2
BRANCH   1  13
ATOM     13  C   UNL     1      -8.922   0.403 -25.115  1.00  0.00     0.000 C 
BRANCH  13  14
ATOM     14  C   UNL     1      -7.976   0.889 -26.222  1.00  0.00     0.000 C 
BRANCH  14  15
ATOM     15  C   UNL     1      -7.330   2.228 -25.835  1.00  0.00     0.000 C 
BRANCH  15  16
ATOM     16  C   UNL     1      -7.489   2.565 -24.342  1.00  0.00     0.000 C 
BRANCH  16  17
ATOM     17  C   UNL     1      -6.170   2.815 -23.584  1.00  0.00     0.000 C 
BRANCH  17  18
ATOM     18  C   UNL     1      -6.031   2.063 -22.248  1.00  0.00     0.000 C 
BRANCH  18  19
ATOM     19  C   UNL     1      -6.197   0.544 -22.394  1.00  0.00     0.000 C 
BRANCH  19  20
ATOM     20  C   UNL     1      -5.071  -0.053 -23.244  1.00  0.00     0.006 C 
BRANCH  20  21
ATOM     21  C   UNL     1      -5.613  -1.114 -24.208  1.00  0.00     0.053 C 
BRANCH  21  22
ATOM     22  C   UNL     1      -6.253  -2.237 -23.453  1.00  0.00     0.041 C 
ATOM     23  O   UNL     1      -5.615  -2.837 -22.548  1.00  0.00    -0.550 OA
ATOM     24  O   UNL     1      -7.548  -2.635 -23.763  1.00  0.00    -0.550 OA
ENDBRANCH  21  22
ENDBRANCH  20  21
ENDBRANCH  19  20
ENDBRANCH  18  19
ENDBRANCH  17  18
ENDBRANCH  16  17
ENDBRANCH  15  16
ENDBRANCH  14  15
ENDBRANCH  13  14
ENDBRANCH   1  13
TORSDOF 20
ENDMDL
MODEL 2
REMARK VINA RESULT:    -3.477      3.070      7.977
REMARK INTER + INTRA:         -10.479
REMARK INTER:                  -7.876
REMARK INTRA:                  -2.603
REMARK UNBOUND:                -2.937
REMARK SMILES CCCCCCCCCCCCCCCCCCCCCC(=O)[O-]
REMARK SMILES IDX 12 1 11 2 10 3 9 4 8 5 7 6 6 7 5 8 4 9 3 10 2 11 1 12 13 13
REMARK SMILES IDX 14 14 15 15 16 16 17 17 18 18 19 19 20 20 21 21 22 22 23 23
REMARK SMILES IDX 24 24
REMARK H PARENT
REMARK Flexibility Score: inf
ROOT
ATOM      1  C   UNL     1      -7.696  -2.725 -24.159  1.00  0.00     0.000 C 
ENDROOT
BRANCH   1   2
ATOM      2  C   UNL     1      -6.596  -2.094 -23.286  1.00  0.00     0.000 C 
BRANCH   2   3
ATOM      3  C   UNL     1      -7.065  -0.822 -22.560  1.00  0.00     0.000 C 
BRANCH   3   4
ATOM      4  C   UNL     1      -6.067   0.342 -22.691  1.00  0.00    -0.000 C 
BRANCH   4   5
ATOM      5  C   UNL     1      -5.171   0.298 -23.947  1.00  0.00    -0.000 C 
BRANCH   5   6
ATOM      6  C   UNL     1      -5.552   1.290 -25.065  1.00  0.00    -0.000 C 
BRANCH   6   7
ATOM      7  C   UNL     1      -6.589   2.358 -24.668  1.00  0.00    -0.000 C 
BRANCH   7   8
ATOM      8  C   UNL     1      -7.864   2.298 -25.525  1.00  0.00    -0.000 C 
BRANCH   8   9
ATOM      9  C   UNL     1      -8.240   0.865 -25.939  1.00  0.00    -0.000 C 
BRANCH   9  10
ATOM     10  C   UNL     1      -9.452   0.293 -25.174  1.00  0.00    -0.000 C 
BRANCH  10  11
ATOM     11  C   UNL     1     -10.573  -0.161 -26.120  1.00  0.00    -0.003 C 
ATOM     12  C   UNL     1     -10.574   0.659 -27.407  1.00  0.00     0.004 C 
ENDBRANCH  10  11
ENDBRANCH   9  10
ENDBRANCH   8   9
ENDBRANCH   7   8
ENDBRANCH   6   7
ENDBRANCH   5   6
ENDBRANCH   4   5
ENDBRANCH   3   4
ENDBRANCH   2   3
ENDBRANCH   1   2
BRANCH   1  13
ATOM     13  C   UNL     1      -7.358  -2.840 -25.656  1.00  0.00     0.000 C 
BRANCH  13  14
ATOM     14  C   UNL     1      -8.515  -3.408 -26.492  1.00  0.00     0.000 C 
BRANCH  14  15
ATOM     15  C   UNL     1      -8.071  -4.667 -27.251  1.00  0.00     0.000 C 
BRANCH  15  16
ATOM     16  C   UNL     1      -6.687  -5.179 -26.812  1.00  0.00     0.000 C 
BRANCH  16  17
ATOM     17  C   UNL     1      -6.684  -6.571 -26.151  1.00  0.00     0.000 C 
BRANCH  17  18
ATOM     18  C   UNL     1      -8.061  -7.078 -25.686  1.00  0.00     0.000 C 
BRANCH  18  19
ATOM     19  C   UNL     1      -8.569  -8.273 -26.503  1.00  0.00     0.000 C 
BRANCH  19  20
ATOM     20  C   UNL     1     -10.083  -8.448 -26.338  1.00  0.00     0.006 C 
BRANCH  20  21
ATOM     21  C   UNL     1     -10.696  -9.124 -27.569  1.00  0.00     0.053 C 
BRANCH  21  22
ATOM     22  C   UNL     1     -11.502 -10.321 -27.170  1.00  0.00     0.041 C 
ATOM     23  O   UNL     1     -12.483 -10.685 -27.870  1.00  0.00    -0.550 OA
ATOM     24  O   UNL     1     -11.181 -11.021 -26.014  1.00  0.00    -0.550 OA
ENDBRANCH  21  22
ENDBRANCH  20  21
ENDBRANCH  19  20
ENDBRANCH  18  19
ENDBRANCH  17  18
ENDBRANCH  16  17
ENDBRANCH  15  16
ENDBRANCH  14  15
ENDBRANCH  13  14
ENDBRANCH   1  13
TORSDOF 20
ENDMDL
MODEL 3
REMARK VINA RESULT:    -3.423      2.290      6.856
REMARK INTER + INTRA:         -10.363
REMARK INTER:                  -7.258
REMARK INTRA:                  -3.105
REMARK UNBOUND:                -2.937
REMARK SMILES CCCCCCCCCCCCCCCCCCCCCC(=O)[O-]
REMARK SMILES IDX 12 1 11 2 10 3 9 4 8 5 7 6 6 7 5 8 4 9 3 10 2 11 1 12 13 13
REMARK SMILES IDX 14 14 15 15 16 16 17 17 18 18 19 19 20 20 21 21 22 22 23 23
REMARK SMILES IDX 24 24
REMARK H PARENT
REMARK Flexibility Score: inf
ROOT
ATOM      1  C   UNL     1     -10.227  -0.133 -25.720  1.00  0.00     0.000 C 
ENDROOT
BRANCH   1   2
ATOM      2  C   UNL     1      -8.883   0.106 -25.007  1.00  0.00     0.000 C 
BRANCH   2   3
ATOM      3  C   UNL     1      -8.681  -0.812 -23.790  1.00  0.00     0.000 C 
BRANCH   3   4
ATOM      4  C   UNL     1      -7.816  -2.045 -24.110  1.00  0.00    -0.000 C 
BRANCH   4   5
ATOM      5  C   UNL     1      -6.619  -2.269 -23.163  1.00  0.00    -0.000 C 
BRANCH   5   6
ATOM      6  C   UNL     1      -5.233  -1.968 -23.768  1.00  0.00    -0.000 C 
BRANCH   6   7
ATOM      7  C   UNL     1      -5.224  -1.704 -25.286  1.00  0.00    -0.000 C 
BRANCH   7   8
ATOM      8  C   UNL     1      -5.365  -0.213 -25.632  1.00  0.00    -0.000 C 
BRANCH   8   9
ATOM      9  C   UNL     1      -5.016   0.711 -24.452  1.00  0.00    -0.000 C 
BRANCH   9  10
ATOM     10  C   UNL     1      -5.540   2.153 -24.613  1.00  0.00    -0.000 C 
BRANCH  10  11
ATOM     11  C   UNL     1      -6.495   2.554 -23.479  1.00  0.00    -0.003 C 
ATOM     12  C   UNL     1      -5.981   2.062 -22.128  1.00  0.00     0.004 C 
ENDBRANCH  10  11
ENDBRANCH   9  10
ENDBRANCH   8   9
ENDBRANCH   7   8
ENDBRANCH   6   7
ENDBRANCH   5   6
ENDBRANCH   4   5
ENDBRANCH   3   4
ENDBRANCH   2   3
ENDBRANCH   1   2
BRANCH   1  13
ATOM     13  C   UNL     1     -10.118  -0.604 -27.181  1.00  0.00     0.000 C 
BRANCH  13  14
ATOM     14  C   UNL     1      -9.635  -2.056 -27.309  1.00  0.00     0.000 C 
BRANCH  14  15
ATOM     15  C   UNL     1      -8.200  -2.106 -27.852  1.00  0.00     0.000 C 
BRANCH  15  16
ATOM     16  C   UNL     1      -7.505  -3.455 -27.599  1.00  0.00     0.000 C 
BRANCH  16  17
ATOM     17  C   UNL     1      -8.385  -4.528 -26.927  1.00  0.00     0.000 C 
BRANCH  17  18
ATOM     18  C   UNL     1      -7.754  -5.219 -25.704  1.00  0.00     0.000 C 
BRANCH  18  19
ATOM     19  C   UNL     1      -7.007  -6.511 -26.064  1.00  0.00     0.000 C 
BRANCH  19  20
ATOM     20  C   UNL     1      -7.872  -7.418 -26.946  1.00  0.00     0.006 C 
BRANCH  20  21
ATOM     21  C   UNL     1      -8.118  -8.771 -26.268  1.00  0.00     0.053 C 
BRANCH  21  22
ATOM     22  C   UNL     1      -9.494  -8.828 -25.682  1.00  0.00     0.041 C 
ATOM     23  O   UNL     1      -9.932  -9.906 -25.201  1.00  0.00    -0.550 OA
ATOM     24  O   UNL     1     -10.298  -7.695 -25.685  1.00  0.00    -0.550 OA
ENDBRANCH  21  22
ENDBRANCH  20  21
ENDBRANCH  19  20
ENDBRANCH  18  19
ENDBRANCH  17  18
ENDBRANCH  16  17
ENDBRANCH  15  16
ENDBRANCH  14  15
ENDBRANCH  13  14
ENDBRANCH   1  13
TORSDOF 20
ENDMDL
MODEL 4
REMARK VINA RESULT:    -3.403      2.677      7.123
REMARK INTER + INTRA:         -10.320
REMARK INTER:                  -7.348
REMARK INTRA:                  -2.972
REMARK UNBOUND:                -2.937
REMARK SMILES CCCCCCCCCCCCCCCCCCCCCC(=O)[O-]
REMARK SMILES IDX 12 1 11 2 10 3 9 4 8 5 7 6 6 7 5 8 4 9 3 10 2 11 1 12 13 13
REMARK SMILES IDX 14 14 15 15 16 16 17 17 18 18 19 19 20 20 21 21 22 22 23 23
REMARK SMILES IDX 24 24
REMARK H PARENT
REMARK Flexibility Score: inf
ROOT
ATOM      1  C   UNL     1      -6.918  -0.625 -22.496  1.00  0.00     0.000 C 
ENDROOT
BRANCH   1   2
ATOM      2  C   UNL     1      -5.807   0.347 -22.933  1.00  0.00     0.000 C 
BRANCH   2   3
ATOM      3  C   UNL     1      -5.805   1.655 -22.122  1.00  0.00     0.000 C 
BRANCH   3   4
ATOM      4  C   UNL     1      -6.289   2.865 -22.941  1.00  0.00    -0.000 C 
BRANCH   4   5
ATOM      5  C   UNL     1      -7.094   2.517 -24.210  1.00  0.00    -0.000 C 
BRANCH   5   6
ATOM      6  C   UNL     1      -6.427   2.910 -25.544  1.00  0.00    -0.000 C 
BRANCH   6   7
ATOM      7  C   UNL     1      -5.714   1.762 -26.282  1.00  0.00    -0.000 C 
BRANCH   7   8
ATOM      8  C   UNL     1      -6.639   0.566 -26.559  1.00  0.00    -0.000 C 
BRANCH   8   9
ATOM      9  C   UNL     1      -7.823   0.924 -27.473  1.00  0.00    -0.000 C 
BRANCH   9  10
ATOM     10  C   UNL     1      -9.153   0.259 -27.061  1.00  0.00    -0.000 C 
BRANCH  10  11
ATOM     11  C   UNL     1      -9.030  -0.512 -25.738  1.00  0.00    -0.003 C 
ATOM     12  C   UNL     1     -10.039  -0.007 -24.710  1.00  0.00     0.004 C 
ENDBRANCH  10  11
ENDBRANCH   9  10
ENDBRANCH   8   9
ENDBRANCH   7   8
ENDBRANCH   6   7
ENDBRANCH   5   6
ENDBRANCH   4   5
ENDBRANCH   3   4
ENDBRANCH   2   3
ENDBRANCH   1   2
BRANCH   1  13
ATOM     13  C   UNL     1      -6.950  -1.964 -23.255  1.00  0.00     0.000 C 
BRANCH  13  14
ATOM     14  C   UNL     1      -5.740  -2.160 -24.180  1.00  0.00     0.000 C 
BRANCH  14  15
ATOM     15  C   UNL     1      -6.108  -3.055 -25.373  1.00  0.00     0.000 C 
BRANCH  15  16
ATOM     16  C   UNL     1      -7.415  -3.839 -25.159  1.00  0.00     0.000 C 
BRANCH  16  17
ATOM     17  C   UNL     1      -8.244  -4.090 -26.434  1.00  0.00     0.000 C 
BRANCH  17  18
ATOM     18  C   UNL     1      -8.165  -5.522 -26.994  1.00  0.00     0.000 C 
BRANCH  18  19
ATOM     19  C   UNL     1      -7.213  -6.426 -26.199  1.00  0.00     0.000 C 
BRANCH  19  20
ATOM     20  C   UNL     1      -7.851  -7.793 -25.928  1.00  0.00     0.006 C 
BRANCH  20  21
ATOM     21  C   UNL     1      -9.380  -7.690 -25.899  1.00  0.00     0.053 C 
BRANCH  21  22
ATOM     22  C   UNL     1     -10.004  -9.050 -25.945  1.00  0.00     0.041 C 
ATOM     23  O   UNL     1     -10.379  -9.537 -27.043  1.00  0.00    -0.550 OA
ATOM     24  O   UNL     1     -10.187  -9.770 -24.771  1.00  0.00    -0.550 OA
ENDBRANCH  21  22
ENDBRANCH  20  21
ENDBRANCH  19  20
ENDBRANCH  18  19
ENDBRANCH  17  18
ENDBRANCH  16  17
ENDBRANCH  15  16
ENDBRANCH  14  15
ENDBRANCH  13  14
ENDBRANCH   1  13
TORSDOF 20
ENDMDL
MODEL 5
REMARK VINA RESULT:    -3.295      1.926      3.055
REMARK INTER + INTRA:         -10.086
REMARK INTER:                  -6.954
REMARK INTRA:                  -3.132
REMARK UNBOUND:                -2.937
REMARK SMILES CCCCCCCCCCCCCCCCCCCCCC(=O)[O-]
REMARK SMILES IDX 12 1 11 2 10 3 9 4 8 5 7 6 6 7 5 8 4 9 3 10 2 11 1 12 13 13
REMARK SMILES IDX 14 14 15 15 16 16 17 17 18 18 19 19 20 20 21 21 22 22 23 23
REMARK SMILES IDX 24 24
REMARK H PARENT
REMARK Flexibility Score: inf
ROOT
ATOM      1  C   UNL     1     -10.239  -0.109 -25.260  1.00  0.00     0.000 C 
ENDROOT
BRANCH   1   2
ATOM      2  C   UNL     1      -8.863  -0.360 -24.617  1.00  0.00     0.000 C 
BRANCH   2   3
ATOM      3  C   UNL     1      -8.209  -1.667 -25.095  1.00  0.00     0.000 C 
BRANCH   3   4
ATOM      4  C   UNL     1      -7.454  -2.402 -23.973  1.00  0.00    -0.000 C 
BRANCH   4   5
ATOM      5  C   UNL     1      -6.002  -2.800 -24.312  1.00  0.00    -0.000 C 
BRANCH   5   6
ATOM      6  C   UNL     1      -5.608  -2.658 -25.796  1.00  0.00    -0.000 C 
BRANCH   6   7
ATOM      7  C   UNL     1      -5.101  -3.950 -26.465  1.00  0.00    -0.000 C 
BRANCH   7   8
ATOM      8  C   UNL     1      -5.859  -5.202 -25.995  1.00  0.00    -0.000 C 
BRANCH   8   9
ATOM      9  C   UNL     1      -7.219  -5.374 -26.693  1.00  0.00    -0.000 C 
BRANCH   9  10
ATOM     10  C   UNL     1      -8.313  -5.975 -25.786  1.00  0.00    -0.000 C 
BRANCH  10  11
ATOM     11  C   UNL     1      -8.301  -7.511 -25.801  1.00  0.00    -0.003 C 
ATOM     12  C   UNL     1      -9.706  -8.071 -26.008  1.00  0.00     0.004 C 
ENDBRANCH  10  11
ENDBRANCH   9  10
ENDBRANCH   8   9
ENDBRANCH   7   8
ENDBRANCH   6   7
ENDBRANCH   5   6
ENDBRANCH   4   5
ENDBRANCH   3   4
ENDBRANCH   2   3
ENDBRANCH   1   2
BRANCH   1  13
ATOM     13  C   UNL     1     -10.275  -0.223 -26.795  1.00  0.00     0.000 C 
BRANCH  13  14
ATOM     14  C   UNL     1     -10.607   1.106 -27.488  1.00  0.00     0.000 C 
BRANCH  14  15
ATOM     15  C   UNL     1      -9.324   1.813 -27.952  1.00  0.00     0.000 C 
BRANCH  15  16
ATOM     16  C   UNL     1      -8.768   2.798 -26.909  1.00  0.00     0.000 C 
BRANCH  16  17
ATOM     17  C   UNL     1      -7.285   2.594 -26.541  1.00  0.00     0.000 C 
BRANCH  17  18
ATOM     18  C   UNL     1      -6.669   1.267 -27.022  1.00  0.00     0.000 C 
BRANCH  18  19
ATOM     19  C   UNL     1      -5.325   0.951 -26.351  1.00  0.00     0.000 C 
BRANCH  19  20
ATOM     20  C   UNL     1      -5.175   1.719 -25.033  1.00  0.00     0.006 C 
BRANCH  20  21
ATOM     21  C   UNL     1      -5.358   0.787 -23.830  1.00  0.00     0.053 C 
BRANCH  21  22
ATOM     22  C   UNL     1      -5.850   1.549 -22.639  1.00  0.00     0.041 C 
ATOM     23  O   UNL     1      -5.490   1.214 -21.480  1.00  0.00    -0.550 OA
ATOM     24  O   UNL     1      -6.720   2.619 -22.809  1.00  0.00    -0.550 OA
ENDBRANCH  21  22
ENDBRANCH  20  21
ENDBRANCH  19  20
ENDBRANCH  18  19
ENDBRANCH  17  18
ENDBRANCH  16  17
ENDBRANCH  15  16
ENDBRANCH  14  15
ENDBRANCH  13  14
ENDBRANCH   1  13
TORSDOF 20
ENDMDL
MODEL 6
REMARK VINA RESULT:    -3.273      3.159      7.839
REMARK INTER + INTRA:         -10.037
REMARK INTER:                  -7.344
REMARK INTRA:                  -2.693
REMARK UNBOUND:                -2.937
REMARK SMILES CCCCCCCCCCCCCCCCCCCCCC(=O)[O-]
REMARK SMILES IDX 12 1 11 2 10 3 9 4 8 5 7 6 6 7 5 8 4 9 3 10 2 11 1 12 13 13
REMARK SMILES IDX 14 14 15 15 16 16 17 17 18 18 19 19 20 20 21 21 22 22 23 23
REMARK SMILES IDX 24 24
REMARK H PARENT
REMARK Flexibility Score: inf
ROOT
ATOM      1  C   UNL     1      -7.749  -2.666 -24.396  1.00  0.00     0.000 C 
ENDROOT
BRANCH   1   2
ATOM      2  C   UNL     1      -8.059  -1.358 -23.646  1.00  0.00     0.000 C 
BRANCH   2   3
ATOM      3  C   UNL     1      -6.855  -0.827 -22.848  1.00  0.00     0.000 C 
BRANCH   3   4
ATOM      4  C   UNL     1      -6.382   0.556 -23.333  1.00  0.00    -0.000 C 
BRANCH   4   5
ATOM      5  C   UNL     1      -7.296   1.232 -24.377  1.00  0.00    -0.000 C 
BRANCH   5   6
ATOM      6  C   UNL     1      -6.697   1.361 -25.792  1.00  0.00    -0.000 C 
BRANCH   6   7
ATOM      7  C   UNL     1      -5.973   0.106 -26.314  1.00  0.00    -0.000 C 
BRANCH   7   8
ATOM      8  C   UNL     1      -6.782  -0.648 -27.382  1.00  0.00    -0.000 C 
BRANCH   8   9
ATOM      9  C   UNL     1      -8.072   0.086 -27.784  1.00  0.00    -0.000 C 
BRANCH   9  10
ATOM     10  C   UNL     1      -9.361  -0.703 -27.472  1.00  0.00    -0.000 C 
BRANCH  10  11
ATOM     11  C   UNL     1     -10.498   0.210 -26.989  1.00  0.00    -0.003 C 
ATOM     12  C   UNL     1     -10.795  -0.015 -25.509  1.00  0.00     0.004 C 
ENDBRANCH  10  11
ENDBRANCH   9  10
ENDBRANCH   8   9
ENDBRANCH   7   8
ENDBRANCH   6   7
ENDBRANCH   5   6
ENDBRANCH   4   5
ENDBRANCH   3   4
ENDBRANCH   2   3
ENDBRANCH   1   2
BRANCH   1  13
ATOM     13  C   UNL     1      -6.272  -3.100 -24.374  1.00  0.00     0.000 C 
BRANCH  13  14
ATOM     14  C   UNL     1      -5.821  -3.764 -25.683  1.00  0.00     0.000 C 
BRANCH  14  15
ATOM     15  C   UNL     1      -5.897  -5.294 -25.570  1.00  0.00     0.000 C 
BRANCH  15  16
ATOM     16  C   UNL     1      -6.925  -5.919 -26.528  1.00  0.00     0.000 C 
BRANCH  16  17
ATOM     17  C   UNL     1      -8.276  -6.292 -25.886  1.00  0.00     0.000 C 
BRANCH  17  18
ATOM     18  C   UNL     1      -8.816  -7.685 -26.258  1.00  0.00     0.000 C 
BRANCH  18  19
ATOM     19  C   UNL     1      -9.712  -7.669 -27.503  1.00  0.00     0.000 C 
BRANCH  19  20
ATOM     20  C   UNL     1     -10.762  -8.784 -27.439  1.00  0.00     0.006 C 
BRANCH  20  21
ATOM     21  C   UNL     1     -10.119 -10.158 -27.657  1.00  0.00     0.053 C 
BRANCH  21  22
ATOM     22  C   UNL     1     -10.446 -11.082 -26.526  1.00  0.00     0.041 C 
ATOM     23  O   UNL     1     -11.646 -11.299 -26.212  1.00  0.00    -0.550 OA
ATOM     24  O   UNL     1      -9.424 -11.688 -25.806  1.00  0.00    -0.550 OA
ENDBRANCH  21  22
ENDBRANCH  20  21
ENDBRANCH  19  20
ENDBRANCH  18  19
ENDBRANCH  17  18
ENDBRANCH  16  17
ENDBRANCH  15  16
ENDBRANCH  14  15
ENDBRANCH  13  14
ENDBRANCH   1  13
TORSDOF 20
ENDMDL
MODEL 7
REMARK VINA RESULT:    -3.182      1.817      3.998
REMARK INTER + INTRA:          -9.840
REMARK INTER:                  -7.378
REMARK INTRA:                  -2.462
REMARK UNBOUND:                -2.937
REMARK SMILES CCCCCCCCCCCCCCCCCCCCCC(=O)[O-]
REMARK SMILES IDX 12 1 11 2 10 3 9 4 8 5 7 6 6 7 5 8 4 9 3 10 2 11 1 12 13 13
REMARK SMILES IDX 14 14 15 15 16 16 17 17 18 18 19 19 20 20 21 21 22 22 23 23
REMARK SMILES IDX 24 24
REMARK H PARENT
REMARK Flexibility Score: inf
ROOT
ATOM      1  C   UNL     1      -6.139   0.274 -23.028  1.00  0.00     0.000 C 
ENDROOT
BRANCH   1   2
ATOM      2  C   UNL     1      -7.092  -0.832 -22.539  1.00  0.00     0.000 C 
BRANCH   2   3
ATOM      3  C   UNL     1      -6.962  -2.134 -23.347  1.00  0.00     0.000 C 
BRANCH   3   4
ATOM      4  C   UNL     1      -5.497  -2.556 -23.566  1.00  0.00    -0.000 C 
BRANCH   4   5
ATOM      5  C   UNL     1      -5.269  -3.556 -24.719  1.00  0.00    -0.000 C 
BRANCH   5   6
ATOM      6  C   UNL     1      -5.780  -3.098 -26.100  1.00  0.00    -0.000 C 
BRANCH   6   7
ATOM      7  C   UNL     1      -6.724  -4.088 -26.810  1.00  0.00    -0.000 C 
BRANCH   7   8
ATOM      8  C   UNL     1      -7.486  -4.993 -25.828  1.00  0.00    -0.000 C 
BRANCH   8   9
ATOM      9  C   UNL     1      -8.268  -6.114 -26.533  1.00  0.00    -0.000 C 
BRANCH   9  10
ATOM     10  C   UNL     1      -8.152  -7.487 -25.838  1.00  0.00    -0.000 C 
BRANCH  10  11
ATOM     11  C   UNL     1      -9.180  -8.496 -26.371  1.00  0.00    -0.003 C 
ATOM     12  C   UNL     1      -9.849  -9.256 -25.230  1.00  0.00     0.004 C 
ENDBRANCH  10  11
ENDBRANCH   9  10
ENDBRANCH   8   9
ENDBRANCH   7   8
ENDBRANCH   6   7
ENDBRANCH   5   6
ENDBRANCH   4   5
ENDBRANCH   3   4
ENDBRANCH   2   3
ENDBRANCH   1   2
BRANCH   1  13
ATOM     13  C   UNL     1      -5.613   1.218 -21.932  1.00  0.00     0.000 C 
BRANCH  13  14
ATOM     14  C   UNL     1      -5.914   2.696 -22.216  1.00  0.00     0.000 C 
BRANCH  14  15
ATOM     15  C   UNL     1      -6.621   2.856 -23.571  1.00  0.00     0.000 C 
BRANCH  15  16
ATOM     16  C   UNL     1      -5.699   3.410 -24.671  1.00  0.00     0.000 C 
BRANCH  16  17
ATOM     17  C   UNL     1      -6.183   3.166 -26.114  1.00  0.00     0.000 C 
BRANCH  17  18
ATOM     18  C   UNL     1      -7.643   2.696 -26.244  1.00  0.00     0.000 C 
BRANCH  18  19
ATOM     19  C   UNL     1      -7.791   1.423 -27.089  1.00  0.00     0.000 C 
BRANCH  19  20
ATOM     20  C   UNL     1      -7.581   0.168 -26.235  1.00  0.00     0.006 C 
BRANCH  20  21
ATOM     21  C   UNL     1      -8.774  -0.785 -26.355  1.00  0.00     0.053 C 
BRANCH  21  22
ATOM     22  C   UNL     1      -9.971  -0.227 -25.649  1.00  0.00     0.041 C 
ATOM     23  O   UNL     1     -10.936   0.238 -26.311  1.00  0.00    -0.550 OA
ATOM     24  O   UNL     1     -10.011  -0.204 -24.261  1.00  0.00    -0.550 OA
ENDBRANCH  21  22
ENDBRANCH  20  21
ENDBRANCH  19  20
ENDBRANCH  18  19
ENDBRANCH  17  18
ENDBRANCH  16  17
ENDBRANCH  15  16
ENDBRANCH  14  15
ENDBRANCH  13  14
ENDBRANCH   1  13
TORSDOF 20
ENDMDL
MODEL 8
REMARK VINA RESULT:    -3.156      4.184     10.489
REMARK INTER + INTRA:          -9.784
REMARK INTER:                  -7.880
REMARK INTRA:                  -1.904
REMARK UNBOUND:                -2.937
REMARK SMILES CCCCCCCCCCCCCCCCCCCCCC(=O)[O-]
REMARK SMILES IDX 12 1 11 2 10 3 9 4 8 5 7 6 6 7 5 8 4 9 3 10 2 11 1 12 13 13
REMARK SMILES IDX 14 14 15 15 16 16 17 17 18 18 19 19 20 20 21 21 22 22 23 23
REMARK SMILES IDX 24 24
REMARK H PARENT
REMARK Flexibility Score: inf
ROOT
ATOM      1  C   UNL     1      -9.758  -8.054 -26.131  1.00  0.00     0.000 C 
ENDROOT
BRANCH   1   2
ATOM      2  C   UNL     1      -8.234  -7.874 -26.261  1.00  0.00     0.000 C 
BRANCH   2   3
ATOM      3  C   UNL     1      -7.837  -6.992 -27.458  1.00  0.00     0.000 C 
BRANCH   3   4
ATOM      4  C   UNL     1      -6.778  -5.936 -27.094  1.00  0.00    -0.000 C 
BRANCH   4   5
ATOM      5  C   UNL     1      -7.017  -5.201 -25.758  1.00  0.00    -0.000 C 
BRANCH   5   6
ATOM      6  C   UNL     1      -8.310  -4.364 -25.687  1.00  0.00    -0.000 C 
BRANCH   6   7
ATOM      7  C   UNL     1      -8.419  -3.237 -26.731  1.00  0.00    -0.000 C 
BRANCH   7   8
ATOM      8  C   UNL     1      -8.682  -1.861 -26.097  1.00  0.00    -0.000 C 
BRANCH   8   9
ATOM      9  C   UNL     1      -7.494  -1.350 -25.265  1.00  0.00    -0.000 C 
BRANCH   9  10
ATOM     10  C   UNL     1      -7.905  -0.680 -23.937  1.00  0.00    -0.000 C 
BRANCH  10  11
ATOM     11  C   UNL     1      -7.025  -1.131 -22.762  1.00  0.00    -0.003 C 
ATOM     12  C   UNL     1      -6.278  -2.419 -23.096  1.00  0.00     0.004 C 
ENDBRANCH  10  11
ENDBRANCH   9  10
ENDBRANCH   8   9
ENDBRANCH   7   8
ENDBRANCH   6   7
ENDBRANCH   5   6
ENDBRANCH   4   5
ENDBRANCH   3   4
ENDBRANCH   2   3
ENDBRANCH   1   2
BRANCH   1  13
ATOM     13  C   UNL     1     -10.287  -9.447 -26.514  1.00  0.00     0.000 C 
BRANCH  13  14
ATOM     14  C   UNL     1     -11.193  -9.425 -27.754  1.00  0.00     0.000 C 
BRANCH  14  15
ATOM     15  C   UNL     1     -12.133 -10.640 -27.761  1.00  0.00     0.000 C 
BRANCH  15  16
ATOM     16  C   UNL     1     -11.840 -11.636 -26.625  1.00  0.00     0.000 C 
BRANCH  16  17
ATOM     17  C   UNL     1     -12.743 -12.886 -26.602  1.00  0.00     0.000 C 
BRANCH  17  18
ATOM     18  C   UNL     1     -12.027 -14.216 -26.904  1.00  0.00     0.000 C 
BRANCH  18  19
ATOM     19  C   UNL     1     -10.894 -14.069 -27.930  1.00  0.00     0.000 C 
BRANCH  19  20
ATOM     20  C   UNL     1      -9.523 -14.148 -27.250  1.00  0.00     0.006 C 
BRANCH  20  21
ATOM     21  C   UNL     1      -8.598 -13.032 -27.747  1.00  0.00     0.053 C 
BRANCH  21  22
ATOM     22  C   UNL     1      -8.062 -12.236 -26.599  1.00  0.00     0.041 C 
ATOM     23  O   UNL     1      -7.075 -11.472 -26.763  1.00  0.00    -0.550 OA
ATOM     24  O   UNL     1      -8.642 -12.353 -25.341  1.00  0.00    -0.550 OA
ENDBRANCH  21  22
ENDBRANCH  20  21
ENDBRANCH  19  20
ENDBRANCH  18  19
ENDBRANCH  17  18
ENDBRANCH  16  17
ENDBRANCH  15  16
ENDBRANCH  14  15
ENDBRANCH  13  14
ENDBRANCH   1  13
TORSDOF 20
ENDMDL
MODEL 9
REMARK VINA RESULT:    -3.056      4.324     10.598
REMARK INTER + INTRA:          -9.566
REMARK INTER:                  -8.061
REMARK INTRA:                  -1.504
REMARK UNBOUND:                -2.937
REMARK SMILES CCCCCCCCCCCCCCCCCCCCCC(=O)[O-]
REMARK SMILES IDX 12 1 11 2 10 3 9 4 8 5 7 6 6 7 5 8 4 9 3 10 2 11 1 12 13 13
REMARK SMILES IDX 14 14 15 15 16 16 17 17 18 18 19 19 20 20 21 21 22 22 23 23
REMARK SMILES IDX 24 24
REMARK H PARENT
REMARK Flexibility Score: inf
ROOT
ATOM      1  C   UNL     1      -9.329  -7.766 -25.953  1.00  0.00     0.000 C 
ENDROOT
BRANCH   1   2
ATOM      2  C   UNL     1      -7.792  -7.731 -25.871  1.00  0.00     0.000 C 
BRANCH   2   3
ATOM      3  C   UNL     1      -7.225  -6.301 -25.887  1.00  0.00     0.000 C 
BRANCH   3   4
ATOM      4  C   UNL     1      -8.325  -5.224 -25.866  1.00  0.00    -0.000 C 
BRANCH   4   5
ATOM      5  C   UNL     1      -7.816  -3.772 -25.740  1.00  0.00    -0.000 C 
BRANCH   5   6
ATOM      6  C   UNL     1      -7.828  -3.190 -24.312  1.00  0.00    -0.000 C 
BRANCH   6   7
ATOM      7  C   UNL     1      -7.488  -1.691 -24.213  1.00  0.00    -0.000 C 
BRANCH   7   8
ATOM      8  C   UNL     1      -6.755  -1.163 -25.457  1.00  0.00    -0.000 C 
BRANCH   8   9
ATOM      9  C   UNL     1      -7.118   0.294 -25.792  1.00  0.00    -0.000 C 
BRANCH   9  10
ATOM     10  C   UNL     1      -8.496   0.733 -25.253  1.00  0.00    -0.000 C 
BRANCH  10  11
ATOM     11  C   UNL     1      -9.590   0.660 -26.328  1.00  0.00    -0.003 C 
ATOM     12  C   UNL     1     -10.830  -0.060 -25.805  1.00  0.00     0.004 C 
ENDBRANCH  10  11
ENDBRANCH   9  10
ENDBRANCH   8   9
ENDBRANCH   7   8
ENDBRANCH   6   7
ENDBRANCH   5   6
ENDBRANCH   4   5
ENDBRANCH   3   4
ENDBRANCH   2   3
ENDBRANCH   1   2
BRANCH   1  13
ATOM     13  C   UNL     1      -9.930  -9.107 -26.410  1.00  0.00     0.000 C 
BRANCH  13  14
ATOM     14  C   UNL     1     -10.896  -8.961 -27.594  1.00  0.00     0.000 C 
BRANCH  14  15
ATOM     15  C   UNL     1     -11.706 -10.250 -27.797  1.00  0.00     0.000 C 
BRANCH  15  16
ATOM     16  C   UNL     1     -11.362 -11.346 -26.774  1.00  0.00     0.000 C 
BRANCH  16  17
ATOM     17  C   UNL     1     -12.489 -12.362 -26.500  1.00  0.00     0.000 C 
BRANCH  17  18
ATOM     18  C   UNL     1     -12.137 -13.828 -26.813  1.00  0.00     0.000 C 
BRANCH  18  19
ATOM     19  C   UNL     1     -10.852 -13.975 -27.638  1.00  0.00     0.000 C 
BRANCH  19  20
ATOM     20  C   UNL     1      -9.773 -14.722 -26.846  1.00  0.00     0.006 C 
BRANCH  20  21
ATOM     21  C   UNL     1      -8.382 -14.144 -27.132  1.00  0.00     0.053 C 
BRANCH  21  22
ATOM     22  C   UNL     1      -7.972 -13.191 -26.053  1.00  0.00     0.041 C 
ATOM     23  O   UNL     1      -7.826 -13.599 -24.871  1.00  0.00    -0.550 OA
ATOM     24  O   UNL     1      -7.770 -11.849 -26.350  1.00  0.00    -0.550 OA
ENDBRANCH  21  22
ENDBRANCH  20  21
ENDBRANCH  19  20
ENDBRANCH  18  19
ENDBRANCH  17  18
ENDBRANCH  16  17
ENDBRANCH  15  16
ENDBRANCH  14  15
ENDBRANCH  13  14
ENDBRANCH   1  13
TORSDOF 20
ENDMDL
