MODEL 1
REMARK VINA RESULT:    -4.021      0.000      0.000
REMARK INTER + INTRA:          -4.021
REMARK INTER:                  -4.021
REMARK INTRA:                   0.000
REMARK UNBOUND:                 0.000
REMARK SMILES CC1=CC(=O)[C@@H]2C[C@H]1C2(C)C
REMARK SMILES IDX 1 1 2 2 3 3 4 4 5 5 6 6 7 7 8 8 9 9 10 10 11 11
REMARK H PARENT
REMARK Flexibility Score: inf
ROOT
ATOM      1  C   UNL     1      -0.230 -15.967   8.701  1.00  0.00     0.040 C 
ATOM      2  C   UNL     1       1.033 -15.438   9.301  1.00  0.00    -0.066 C 
ATOM      3  C   UNL     1       1.413 -14.142   9.125  1.00  0.00     0.047 C 
ATOM      4  C   UNL     1       2.682 -13.725   9.804  1.00  0.00     0.159 C 
ATOM      5  O   UNL     1       3.118 -12.546   9.749  1.00  0.00    -0.295 OA
ATOM      6  C   UNL     1       3.409 -14.831  10.569  1.00  0.00     0.067 C 
ATOM      7  C   UNL     1       3.393 -16.034   9.600  1.00  0.00     0.021 C 
ATOM      8  C   UNL     1       1.974 -16.334  10.134  1.00  0.00     0.022 C 
ATOM      9  C   UNL     1       2.372 -15.593  11.444  1.00  0.00    -0.019 C 
ATOM     10  C   UNL     1       3.046 -16.534  12.473  1.00  0.00     0.012 C 
ATOM     11  C   UNL     1       1.280 -14.767  12.181  1.00  0.00     0.012 C 
ENDROOT
TORSDOF 0
ENDMDL
MODEL 2
REMARK VINA RESULT:    -4.001      2.151      3.771
REMARK INTER + INTRA:          -4.001
REMARK INTER:                  -4.001
REMARK INTRA:                   0.000
REMARK UNBOUND:                 0.000
REMARK SMILES CC1=CC(=O)[C@@H]2C[C@H]1C2(C)C
REMARK SMILES IDX 1 1 2 2 3 3 4 4 5 5 6 6 7 7 8 8 9 9 10 10 11 11
REMARK H PARENT
REMARK Flexibility Score: inf
ROOT
ATOM      1  C   UNL     1       0.037 -15.768   8.815  1.00  0.00     0.040 C 
ATOM      2  C   UNL     1       0.619 -14.428   9.136  1.00  0.00    -0.066 C 
ATOM      3  C   UNL     1       0.995 -14.103  10.404  1.00  0.00     0.047 C 
ATOM      4  C   UNL     1       1.593 -12.743  10.591  1.00  0.00     0.159 C 
ATOM      5  O   UNL     1       2.015 -12.341  11.706  1.00  0.00    -0.295 OA
ATOM      6  C   UNL     1       1.657 -11.877   9.332  1.00  0.00     0.067 C 
ATOM      7  C   UNL     1       0.263 -12.043   8.688  1.00  0.00     0.021 C 
ATOM      8  C   UNL     1       0.805 -13.344   8.054  1.00  0.00     0.022 C 
ATOM      9  C   UNL     1       2.234 -12.736   8.169  1.00  0.00    -0.019 C 
ATOM     10  C   UNL     1       2.613 -11.879   6.935  1.00  0.00     0.012 C 
ATOM     11  C   UNL     1       3.418 -13.697   8.478  1.00  0.00     0.012 C 
ENDROOT
TORSDOF 0
ENDMDL
MODEL 3
REMARK VINA RESULT:    -3.891      1.653      3.074
REMARK INTER + INTRA:          -3.891
REMARK INTER:                  -3.891
REMARK INTRA:                   0.000
REMARK UNBOUND:                 0.000
REMARK SMILES CC1=CC(=O)[C@@H]2C[C@H]1C2(C)C
REMARK SMILES IDX 1 1 2 2 3 3 4 4 5 5 6 6 7 7 8 8 9 9 10 10 11 11
REMARK H PARENT
REMARK Flexibility Score: inf
ROOT
ATOM      1  C   UNL     1      -0.103 -15.950   8.534  1.00  0.00     0.040 C 
ATOM      2  C   UNL     1       0.869 -15.443   9.552  1.00  0.00    -0.066 C 
ATOM      3  C   UNL     1       1.604 -16.297  10.316  1.00  0.00     0.047 C 
ATOM      4  C   UNL     1       2.565 -15.667  11.278  1.00  0.00     0.159 C 
ATOM      5  O   UNL     1       3.328 -16.348  12.011  1.00  0.00    -0.295 OA
ATOM      6  C   UNL     1       2.556 -14.138  11.305  1.00  0.00     0.067 C 
ATOM      7  C   UNL     1       1.056 -13.770  11.336  1.00  0.00     0.021 C 
ATOM      8  C   UNL     1       1.073 -13.934   9.799  1.00  0.00     0.022 C 
ATOM      9  C   UNL     1       2.597 -13.616   9.839  1.00  0.00    -0.019 C 
ATOM     10  C   UNL     1       2.886 -12.096   9.762  1.00  0.00     0.012 C 
ATOM     11  C   UNL     1       3.525 -14.341   8.823  1.00  0.00     0.012 C 
ENDROOT
TORSDOF 0
ENDMDL
MODEL 4
REMARK VINA RESULT:    -3.835      2.004      3.184
REMARK INTER + INTRA:          -3.835
REMARK INTER:                  -3.835
REMARK INTRA:                   0.000
REMARK UNBOUND:                 0.000
REMARK SMILES CC1=CC(=O)[C@@H]2C[C@H]1C2(C)C
REMARK SMILES IDX 1 1 2 2 3 3 4 4 5 5 6 6 7 7 8 8 9 9 10 10 11 11
REMARK H PARENT
REMARK Flexibility Score: inf
ROOT
ATOM      1  C   UNL     1       2.152 -12.279   6.774  1.00  0.00     0.040 C 
ATOM      2  C   UNL     1       1.693 -12.665   8.144  1.00  0.00    -0.066 C 
ATOM      3  C   UNL     1       0.681 -11.999   8.766  1.00  0.00     0.047 C 
ATOM      4  C   UNL     1       0.292 -12.501  10.123  1.00  0.00     0.159 C 
ATOM      5  O   UNL     1      -0.654 -11.995  10.782  1.00  0.00    -0.295 OA
ATOM      6  C   UNL     1       1.121 -13.671  10.650  1.00  0.00     0.067 C 
ATOM      7  C   UNL     1       2.581 -13.266  10.350  1.00  0.00     0.021 C 
ATOM      8  C   UNL     1       2.351 -13.821   8.926  1.00  0.00     0.022 C 
ATOM      9  C   UNL     1       1.245 -14.738   9.525  1.00  0.00    -0.019 C 
ATOM     10  C   UNL     1       1.811 -16.083  10.046  1.00  0.00     0.012 C 
ATOM     11  C   UNL     1      -0.008 -15.041   8.654  1.00  0.00     0.012 C 
ENDROOT
TORSDOF 0
ENDMDL
MODEL 5
REMARK VINA RESULT:    -3.828      1.226      3.198
REMARK INTER + INTRA:          -3.828
REMARK INTER:                  -3.828
REMARK INTRA:                   0.000
REMARK UNBOUND:                 0.000
REMARK SMILES CC1=CC(=O)[C@@H]2C[C@H]1C2(C)C
REMARK SMILES IDX 1 1 2 2 3 3 4 4 5 5 6 6 7 7 8 8 9 9 10 10 11 11
REMARK H PARENT
REMARK Flexibility Score: inf
ROOT
ATOM      1  C   UNL     1       1.808 -14.696  12.883  1.00  0.00     0.040 C 
ATOM      2  C   UNL     1       1.891 -14.490  11.404  1.00  0.00    -0.066 C 
ATOM      3  C   UNL     1       3.080 -14.235  10.790  1.00  0.00     0.047 C 
ATOM      4  C   UNL     1       3.037 -14.079   9.300  1.00  0.00     0.159 C 
ATOM      5  O   UNL     1       4.073 -13.880   8.615  1.00  0.00    -0.295 OA
ATOM      6  C   UNL     1       1.647 -14.180   8.672  1.00  0.00     0.067 C 
ATOM      7  C   UNL     1       0.756 -13.305   9.581  1.00  0.00     0.021 C 
ATOM      8  C   UNL     1       0.638 -14.539  10.505  1.00  0.00     0.022 C 
ATOM      9  C   UNL     1       0.927 -15.428   9.260  1.00  0.00    -0.019 C 
ATOM     10  C   UNL     1      -0.362 -15.788   8.480  1.00  0.00     0.012 C 
ATOM     11  C   UNL     1       1.753 -16.730   9.463  1.00  0.00     0.012 C 
ENDROOT
TORSDOF 0
ENDMDL
MODEL 6
REMARK VINA RESULT:    -3.827      1.516      3.349
REMARK INTER + INTRA:          -3.827
REMARK INTER:                  -3.827
REMARK INTRA:                   0.000
REMARK UNBOUND:                 0.000
REMARK SMILES CC1=CC(=O)[C@@H]2C[C@H]1C2(C)C
REMARK SMILES IDX 1 1 2 2 3 3 4 4 5 5 6 6 7 7 8 8 9 9 10 10 11 11
REMARK H PARENT
REMARK Flexibility Score: inf
ROOT
ATOM      1  C   UNL     1       1.380 -15.580  13.119  1.00  0.00     0.040 C 
ATOM      2  C   UNL     1       1.969 -15.298  11.774  1.00  0.00    -0.066 C 
ATOM      3  C   UNL     1       3.017 -16.023  11.293  1.00  0.00     0.047 C 
ATOM      4  C   UNL     1       3.497 -15.664   9.920  1.00  0.00     0.159 C 
ATOM      5  O   UNL     1       4.431 -16.285   9.350  1.00  0.00    -0.295 OA
ATOM      6  C   UNL     1       2.771 -14.492   9.258  1.00  0.00     0.067 C 
ATOM      7  C   UNL     1       2.691 -13.422  10.368  1.00  0.00     0.021 C 
ATOM      8  C   UNL     1       1.433 -14.164  10.874  1.00  0.00     0.022 C 
ATOM      9  C   UNL     1       1.238 -14.701   9.426  1.00  0.00    -0.019 C 
ATOM     10  C   UNL     1       0.411 -13.732   8.544  1.00  0.00     0.012 C 
ATOM     11  C   UNL     1       0.664 -16.135   9.245  1.00  0.00     0.012 C 
ENDROOT
TORSDOF 0
ENDMDL
MODEL 7
REMARK VINA RESULT:    -3.816      1.486      3.193
REMARK INTER + INTRA:          -3.816
REMARK INTER:                  -3.816
REMARK INTRA:                   0.000
REMARK UNBOUND:                 0.000
REMARK SMILES CC1=CC(=O)[C@@H]2C[C@H]1C2(C)C
REMARK SMILES IDX 1 1 2 2 3 3 4 4 5 5 6 6 7 7 8 8 9 9 10 10 11 11
REMARK H PARENT
REMARK Flexibility Score: inf
ROOT
ATOM      1  C   UNL     1       4.528 -13.970   8.655  1.00  0.00     0.040 C 
ATOM      2  C   UNL     1       3.265 -14.035   9.451  1.00  0.00    -0.066 C 
ATOM      3  C   UNL     1       2.922 -13.044  10.320  1.00  0.00     0.047 C 
ATOM      4  C   UNL     1       1.616 -13.210  11.036  1.00  0.00     0.159 C 
ATOM      5  O   UNL     1       1.172 -12.345  11.834  1.00  0.00    -0.295 OA
ATOM      6  C   UNL     1       0.861 -14.503  10.726  1.00  0.00     0.067 C 
ATOM      7  C   UNL     1       1.944 -15.601  10.801  1.00  0.00     0.021 C 
ATOM      8  C   UNL     1       2.296 -15.232   9.342  1.00  0.00     0.022 C 
ATOM      9  C   UNL     1       0.839 -14.707   9.184  1.00  0.00    -0.019 C 
ATOM     10  C   UNL     1      -0.147 -15.821   8.750  1.00  0.00     0.012 C 
ATOM     11  C   UNL     1       0.600 -13.465   8.278  1.00  0.00     0.012 C 
ENDROOT
TORSDOF 0
ENDMDL
MODEL 8
REMARK VINA RESULT:    -3.725      2.297      3.570
REMARK INTER + INTRA:          -3.725
REMARK INTER:                  -3.725
REMARK INTRA:                   0.000
REMARK UNBOUND:                 0.000
REMARK SMILES CC1=CC(=O)[C@@H]2C[C@H]1C2(C)C
REMARK SMILES IDX 1 1 2 2 3 3 4 4 5 5 6 6 7 7 8 8 9 9 10 10 11 11
REMARK H PARENT
REMARK Flexibility Score: inf
ROOT
ATOM      1  C   UNL     1       0.250 -11.940   7.028  1.00  0.00     0.040 C 
ATOM      2  C   UNL     1       0.589 -12.834   8.176  1.00  0.00    -0.066 C 
ATOM      3  C   UNL     1       0.313 -14.168   8.142  1.00  0.00     0.047 C 
ATOM      4  C   UNL     1       0.729 -14.963   9.341  1.00  0.00     0.159 C 
ATOM      5  O   UNL     1       0.565 -16.209   9.413  1.00  0.00    -0.295 OA
ATOM      6  C   UNL     1       1.370 -14.156  10.471  1.00  0.00     0.067 C 
ATOM      7  C   UNL     1       0.451 -12.924  10.624  1.00  0.00     0.021 C 
ATOM      8  C   UNL     1       1.250 -12.292   9.461  1.00  0.00     0.022 C 
ATOM      9  C   UNL     1       2.443 -13.210   9.858  1.00  0.00    -0.019 C 
ATOM     10  C   UNL     1       3.349 -12.567  10.938  1.00  0.00     0.012 C 
ATOM     11  C   UNL     1       3.353 -13.763   8.724  1.00  0.00     0.012 C 
ENDROOT
TORSDOF 0
ENDMDL
MODEL 9
REMARK VINA RESULT:    -3.653      1.958      2.932
REMARK INTER + INTRA:          -3.653
REMARK INTER:                  -3.653
REMARK INTRA:                   0.000
REMARK UNBOUND:                 0.000
REMARK SMILES CC1=CC(=O)[C@@H]2C[C@H]1C2(C)C
REMARK SMILES IDX 1 1 2 2 3 3 4 4 5 5 6 6 7 7 8 8 9 9 10 10 11 11
REMARK H PARENT
REMARK Flexibility Score: inf
ROOT
ATOM      1  C   UNL     1       0.419 -12.483  10.370  1.00  0.00     0.040 C 
ATOM      2  C   UNL     1       0.960 -13.877  10.352  1.00  0.00    -0.066 C 
ATOM      3  C   UNL     1       0.480 -14.812   9.486  1.00  0.00     0.047 C 
ATOM      4  C   UNL     1       1.125 -16.163   9.544  1.00  0.00     0.159 C 
ATOM      5  O   UNL     1       0.797 -17.099   8.769  1.00  0.00    -0.295 OA
ATOM      6  C   UNL     1       2.210 -16.325  10.609  1.00  0.00     0.067 C 
ATOM      7  C   UNL     1       1.594 -15.692  11.876  1.00  0.00     0.021 C 
ATOM      8  C   UNL     1       2.071 -14.330  11.322  1.00  0.00     0.022 C 
ATOM      9  C   UNL     1       3.168 -15.101  10.531  1.00  0.00    -0.019 C 
ATOM     10  C   UNL     1       4.460 -15.309  11.361  1.00  0.00     0.012 C 
ATOM     11  C   UNL     1       3.571 -14.568   9.126  1.00  0.00     0.012 C 
ENDROOT
TORSDOF 0
ENDMDL
