MODEL 1
REMARK VINA RESULT:    -2.490      0.000      0.000
REMARK INTER + INTRA:          -2.490
REMARK INTER:                  -2.490
REMARK INTRA:                   0.000
REMARK UNBOUND:                 0.000
REMARK SMILES CC(=O)[O-]
REMARK SMILES IDX 1 1 2 2 3 3 4 4
REMARK H PARENT
REMARK Flexibility Score: inf
ROOT
ATOM      1  C   UNL     1      71.405  -2.816  -3.835  1.00  0.00     0.063 C 
ATOM      2  C   UNL     1      70.653  -1.537  -3.699  1.00  0.00     0.038 C 
ATOM      3  O   UNL     1      71.010  -0.681  -2.849  1.00  0.00    -0.550 OA
ATOM      4  O   UNL     1      69.521  -1.308  -4.473  1.00  0.00    -0.550 OA
ENDROOT
TORSDOF 0
ENDMDL
MODEL 2
REMARK VINA RESULT:    -2.459      1.425      2.206
REMARK INTER + INTRA:          -2.459
REMARK INTER:                  -2.459
REMARK INTRA:                   0.000
REMARK UNBOUND:                 0.000
REMARK SMILES CC(=O)[O-]
REMARK SMILES IDX 1 1 2 2 3 3 4 4
REMARK H PARENT
REMARK Flexibility Score: inf
ROOT
ATOM      1  C   UNL     1      70.989  -0.606  -2.988  1.00  0.00     0.063 C 
ATOM      2  C   UNL     1      70.748  -1.838  -3.790  1.00  0.00     0.038 C 
ATOM      3  O   UNL     1      69.704  -1.947  -4.484  1.00  0.00    -0.550 OA
ATOM      4  O   UNL     1      71.650  -2.895  -3.731  1.00  0.00    -0.550 OA
ENDROOT
TORSDOF 0
ENDMDL
MODEL 3
REMARK VINA RESULT:    -2.449     10.721     11.124
REMARK INTER + INTRA:          -2.449
REMARK INTER:                  -2.449
REMARK INTRA:                   0.000
REMARK UNBOUND:                 0.000
REMARK SMILES CC(=O)[O-]
REMARK SMILES IDX 1 1 2 2 3 3 4 4
REMARK H PARENT
REMARK Flexibility Score: inf
ROOT
ATOM      1  C   UNL     1      80.738   3.929  -0.300  1.00  0.00     0.063 C 
ATOM      2  C   UNL     1      79.938   2.735   0.094  1.00  0.00     0.038 C 
ATOM      3  O   UNL     1      78.909   2.871   0.806  1.00  0.00    -0.550 OA
ATOM      4  O   UNL     1      80.355   1.463  -0.278  1.00  0.00    -0.550 OA
ENDROOT
TORSDOF 0
ENDMDL
MODEL 4
REMARK VINA RESULT:    -2.406      9.370      9.885
REMARK INTER + INTRA:          -2.406
REMARK INTER:                  -2.406
REMARK INTRA:                   0.000
REMARK UNBOUND:                 0.000
REMARK SMILES CC(=O)[O-]
REMARK SMILES IDX 1 1 2 2 3 3 4 4
REMARK H PARENT
REMARK Flexibility Score: inf
ROOT
ATOM      1  C   UNL     1      80.731  -0.200   0.125  1.00  0.00     0.063 C 
ATOM      2  C   UNL     1      79.602   0.686  -0.276  1.00  0.00     0.038 C 
ATOM      3  O   UNL     1      79.677   1.929  -0.093  1.00  0.00    -0.550 OA
ATOM      4  O   UNL     1      78.441   0.137  -0.807  1.00  0.00    -0.550 OA
ENDROOT
TORSDOF 0
ENDMDL
MODEL 5
REMARK VINA RESULT:    -2.377      1.839      2.815
REMARK INTER + INTRA:          -2.377
REMARK INTER:                  -2.377
REMARK INTRA:                   0.000
REMARK UNBOUND:                 0.000
REMARK SMILES CC(=O)[O-]
REMARK SMILES IDX 1 1 2 2 3 3 4 4
REMARK H PARENT
REMARK Flexibility Score: inf
ROOT
ATOM      1  C   UNL     1      69.097   0.766  -4.851  1.00  0.00     0.063 C 
ATOM      2  C   UNL     1      70.090  -0.204  -4.309  1.00  0.00     0.038 C 
ATOM      3  O   UNL     1      69.814  -1.431  -4.262  1.00  0.00    -0.550 OA
ATOM      4  O   UNL     1      71.303   0.250  -3.804  1.00  0.00    -0.550 OA
ENDROOT
TORSDOF 0
ENDMDL
MODEL 6
REMARK VINA RESULT:    -2.362      2.667      3.217
REMARK INTER + INTRA:          -2.362
REMARK INTER:                  -2.362
REMARK INTRA:                   0.000
REMARK UNBOUND:                 0.000
REMARK SMILES CC(=O)[O-]
REMARK SMILES IDX 1 1 2 2 3 3 4 4
REMARK H PARENT
REMARK Flexibility Score: inf
ROOT
ATOM      1  C   UNL     1      69.884   1.595  -3.425  1.00  0.00     0.063 C 
ATOM      2  C   UNL     1      69.436   0.674  -4.507  1.00  0.00     0.038 C 
ATOM      3  O   UNL     1      69.623  -0.566  -4.400  1.00  0.00    -0.550 OA
ATOM      4  O   UNL     1      68.857   1.186  -5.663  1.00  0.00    -0.550 OA
ENDROOT
TORSDOF 0
ENDMDL
MODEL 7
REMARK VINA RESULT:    -2.298     11.561     11.874
REMARK INTER + INTRA:          -2.298
REMARK INTER:                  -2.298
REMARK INTRA:                   0.000
REMARK UNBOUND:                 0.000
REMARK SMILES CC(=O)[O-]
REMARK SMILES IDX 1 1 2 2 3 3 4 4
REMARK H PARENT
REMARK Flexibility Score: inf
ROOT
ATOM      1  C   UNL     1      79.411   2.852   0.374  1.00  0.00     0.063 C 
ATOM      2  C   UNL     1      80.741   3.273  -0.150  1.00  0.00     0.038 C 
ATOM      3  O   UNL     1      81.658   2.425  -0.304  1.00  0.00    -0.550 OA
ATOM      4  O   UNL     1      80.990   4.614  -0.421  1.00  0.00    -0.550 OA
ENDROOT
TORSDOF 0
ENDMDL
MODEL 8
REMARK VINA RESULT:    -2.272     11.410     11.767
REMARK INTER + INTRA:          -2.272
REMARK INTER:                  -2.272
REMARK INTRA:                   0.000
REMARK UNBOUND:                 0.000
REMARK SMILES CC(=O)[O-]
REMARK SMILES IDX 1 1 2 2 3 3 4 4
REMARK H PARENT
REMARK Flexibility Score: inf
ROOT
ATOM      1  C   UNL     1      80.032   0.045  -0.132  1.00  0.00     0.063 C 
ATOM      2  C   UNL     1      81.450   0.069   0.325  1.00  0.00     0.038 C 
ATOM      3  O   UNL     1      82.232   0.965  -0.087  1.00  0.00    -0.550 OA
ATOM      4  O   UNL     1      81.929  -0.930   1.165  1.00  0.00    -0.550 OA
ENDROOT
TORSDOF 0
ENDMDL
