MODEL 1
REMARK VINA RESULT:    -2.598      0.000      0.000
REMARK INTER + INTRA:          -6.975
REMARK INTER:                  -5.940
REMARK INTRA:                  -1.035
REMARK UNBOUND:                -1.035
REMARK SMILES CCCCCCCCCCCCCCCCCCCCCCCC(=O)[O-]
REMARK SMILES IDX 13 1 14 2 15 3 16 4 17 5 18 6 19 7 20 8 21 9 22 10 23 11
REMARK SMILES IDX 24 12 25 13 26 14 12 15 11 16 10 17 9 18 8 19 7 20 6 21 5 22
REMARK SMILES IDX 4 23 3 24 2 25 1 26
REMARK H PARENT
REMARK Flexibility Score: inf
ROOT
ATOM      1  C   UNL     1      -0.637 -22.264  15.972  1.00  0.00     0.000 C 
ENDROOT
BRANCH   1   2
ATOM      2  C   UNL     1       0.551 -23.031  15.351  1.00  0.00     0.000 C 
BRANCH   2   3
ATOM      3  C   UNL     1       1.944 -22.484  15.713  1.00  0.00     0.000 C 
BRANCH   3   4
ATOM      4  C   UNL     1       3.005 -22.793  14.646  1.00  0.00     0.000 C 
BRANCH   4   5
ATOM      5  C   UNL     1       4.413 -22.802  15.259  1.00  0.00     0.000 C 
BRANCH   5   6
ATOM      6  C   UNL     1       4.551 -21.845  16.454  1.00  0.00     0.000 C 
BRANCH   6   7
ATOM      7  C   UNL     1       5.879 -22.023  17.211  1.00  0.00     0.000 C 
BRANCH   7   8
ATOM      8  C   UNL     1       7.058 -22.289  16.258  1.00  0.00     0.000 C 
BRANCH   8   9
ATOM      9  C   UNL     1       7.729 -20.987  15.792  1.00  0.00     0.000 C 
BRANCH   9  10
ATOM     10  C   UNL     1       8.460 -21.141  14.449  1.00  0.00     0.006 C 
BRANCH  10  11
ATOM     11  C   UNL     1       7.935 -22.317  13.614  1.00  0.00     0.053 C 
BRANCH  11  12
ATOM     12  C   UNL     1       7.211 -21.818  12.403  1.00  0.00     0.041 C 
ATOM     13  O   UNL     1       7.357 -20.626  12.025  1.00  0.00    -0.550 OA
ATOM     14  O   UNL     1       6.419 -22.685  11.660  1.00  0.00    -0.550 OA
ENDBRANCH  11  12
ENDBRANCH  10  11
ENDBRANCH   9  10
ENDBRANCH   8   9
ENDBRANCH   7   8
ENDBRANCH   6   7
ENDBRANCH   5   6
ENDBRANCH   4   5
ENDBRANCH   3   4
ENDBRANCH   2   3
ENDBRANCH   1   2
BRANCH   1  15
ATOM     15  C   UNL     1      -1.872 -23.125  16.293  1.00  0.00     0.000 C 
BRANCH  15  16
ATOM     16  C   UNL     1      -3.196 -22.396  16.007  1.00  0.00     0.000 C 
BRANCH  16  17
ATOM     17  C   UNL     1      -4.417 -23.116  16.606  1.00  0.00     0.000 C 
BRANCH  17  18
ATOM     18  C   UNL     1      -5.577 -22.190  17.022  1.00  0.00    -0.000 C 
BRANCH  18  19
ATOM     19  C   UNL     1      -6.867 -22.451  16.230  1.00  0.00    -0.000 C 
BRANCH  19  20
ATOM     20  C   UNL     1      -8.021 -22.839  17.167  1.00  0.00    -0.000 C 
BRANCH  20  21
ATOM     21  C   UNL     1      -8.606 -21.635  17.925  1.00  0.00    -0.000 C 
BRANCH  21  22
ATOM     22  C   UNL     1     -10.115 -21.728  18.227  1.00  0.00    -0.000 C 
BRANCH  22  23
ATOM     23  C   UNL     1     -10.759 -20.424  18.737  1.00  0.00    -0.000 C 
BRANCH  23  24
ATOM     24  C   UNL     1     -10.083 -19.806  19.978  1.00  0.00    -0.000 C 
BRANCH  24  25
ATOM     25  C   UNL     1     -10.671 -18.456  20.428  1.00  0.00    -0.003 C 
ATOM     26  C   UNL     1      -9.878 -17.808  21.564  1.00  0.00     0.004 C 
ENDBRANCH  24  25
ENDBRANCH  23  24
ENDBRANCH  22  23
ENDBRANCH  21  22
ENDBRANCH  20  21
ENDBRANCH  19  20
ENDBRANCH  18  19
ENDBRANCH  17  18
ENDBRANCH  16  17
ENDBRANCH  15  16
ENDBRANCH   1  15
TORSDOF 22
ENDMDL
MODEL 2
REMARK VINA RESULT:    -2.125      1.782      2.514
REMARK INTER + INTRA:          -5.893
REMARK INTER:                  -4.851
REMARK INTRA:                  -1.042
REMARK UNBOUND:                -1.035
REMARK SMILES CCCCCCCCCCCCCCCCCCCCCCCC(=O)[O-]
REMARK SMILES IDX 13 1 14 2 15 3 16 4 17 5 18 6 19 7 20 8 21 9 22 10 23 11
REMARK SMILES IDX 24 12 25 13 26 14 12 15 11 16 10 17 9 18 8 19 7 20 6 21 5 22
REMARK SMILES IDX 4 23 3 24 2 25 1 26
REMARK H PARENT
REMARK Flexibility Score: inf
ROOT
ATOM      1  C   UNL     1      -1.194 -22.286  16.214  1.00  0.00     0.000 C 
ENDROOT
BRANCH   1   2
ATOM      2  C   UNL     1       0.220 -22.707  15.759  1.00  0.00     0.000 C 
BRANCH   2   3
ATOM      3  C   UNL     1       1.355 -21.760  16.189  1.00  0.00     0.000 C 
BRANCH   3   4
ATOM      4  C   UNL     1       2.746 -22.403  16.082  1.00  0.00     0.000 C 
BRANCH   4   5
ATOM      5  C   UNL     1       2.951 -23.039  14.699  1.00  0.00     0.000 C 
BRANCH   5   6
ATOM      6  C   UNL     1       4.431 -23.109  14.288  1.00  0.00     0.000 C 
BRANCH   6   7
ATOM      7  C   UNL     1       5.350 -22.316  15.233  1.00  0.00     0.000 C 
BRANCH   7   8
ATOM      8  C   UNL     1       6.616 -23.106  15.610  1.00  0.00     0.000 C 
BRANCH   8   9
ATOM      9  C   UNL     1       7.665 -23.087  14.486  1.00  0.00     0.000 C 
BRANCH   9  10
ATOM     10  C   UNL     1       7.608 -21.807  13.638  1.00  0.00     0.006 C 
BRANCH  10  11
ATOM     11  C   UNL     1       7.685 -22.086  12.131  1.00  0.00     0.053 C 
BRANCH  11  12
ATOM     12  C   UNL     1       8.316 -20.933  11.416  1.00  0.00     0.041 C 
ATOM     13  O   UNL     1       8.588 -21.020  10.189  1.00  0.00    -0.550 OA
ATOM     14  O   UNL     1       8.554 -19.742  12.091  1.00  0.00    -0.550 OA
ENDBRANCH  11  12
ENDBRANCH  10  11
ENDBRANCH   9  10
ENDBRANCH   8   9
ENDBRANCH   7   8
ENDBRANCH   6   7
ENDBRANCH   5   6
ENDBRANCH   4   5
ENDBRANCH   3   4
ENDBRANCH   2   3
ENDBRANCH   1   2
BRANCH   1  15
ATOM     15  C   UNL     1      -2.344 -23.125  15.628  1.00  0.00     0.000 C 
BRANCH  15  16
ATOM     16  C   UNL     1      -3.719 -22.462  15.815  1.00  0.00     0.000 C 
BRANCH  16  17
ATOM     17  C   UNL     1      -4.472 -22.984  17.051  1.00  0.00     0.000 C 
BRANCH  17  18
ATOM     18  C   UNL     1      -5.605 -22.071  17.556  1.00  0.00    -0.000 C 
BRANCH  18  19
ATOM     19  C   UNL     1      -6.853 -22.850  18.000  1.00  0.00    -0.000 C 
BRANCH  19  20
ATOM     20  C   UNL     1      -8.081 -21.930  18.076  1.00  0.00    -0.000 C 
BRANCH  20  21
ATOM     21  C   UNL     1      -9.408 -22.707  18.110  1.00  0.00    -0.000 C 
BRANCH  21  22
ATOM     22  C   UNL     1     -10.554 -22.070  17.298  1.00  0.00    -0.000 C 
BRANCH  22  23
ATOM     23  C   UNL     1     -10.873 -20.606  17.659  1.00  0.00    -0.000 C 
BRANCH  23  24
ATOM     24  C   UNL     1     -11.110 -19.675  16.452  1.00  0.00    -0.000 C 
BRANCH  24  25
ATOM     25  C   UNL     1     -11.042 -20.368  15.079  1.00  0.00    -0.003 C 
ATOM     26  C   UNL     1      -9.738 -20.087  14.331  1.00  0.00     0.004 C 
ENDBRANCH  24  25
ENDBRANCH  23  24
ENDBRANCH  22  23
ENDBRANCH  21  22
ENDBRANCH  20  21
ENDBRANCH  19  20
ENDBRANCH  18  19
ENDBRANCH  17  18
ENDBRANCH  16  17
ENDBRANCH  15  16
ENDBRANCH   1  15
TORSDOF 22
ENDMDL
MODEL 3
REMARK VINA RESULT:    -2.090      1.560      1.998
REMARK INTER + INTRA:          -5.812
REMARK INTER:                  -4.854
REMARK INTRA:                  -0.957
REMARK UNBOUND:                -1.035
REMARK SMILES CCCCCCCCCCCCCCCCCCCCCCCC(=O)[O-]
REMARK SMILES IDX 13 1 14 2 15 3 16 4 17 5 18 6 19 7 20 8 21 9 22 10 23 11
REMARK SMILES IDX 24 12 25 13 26 14 12 15 11 16 10 17 9 18 8 19 7 20 6 21 5 22
REMARK SMILES IDX 4 23 3 24 2 25 1 26
REMARK H PARENT
REMARK Flexibility Score: inf
ROOT
ATOM      1  C   UNL     1       0.824 -22.204  15.669  1.00  0.00     0.000 C 
ENDROOT
BRANCH   1   2
ATOM      2  C   UNL     1       1.612 -22.591  14.399  1.00  0.00     0.000 C 
BRANCH   2   3
ATOM      3  C   UNL     1       3.034 -23.124  14.648  1.00  0.00     0.000 C 
BRANCH   3   4
ATOM      4  C   UNL     1       3.731 -22.443  15.835  1.00  0.00     0.000 C 
BRANCH   4   5
ATOM      5  C   UNL     1       5.254 -22.626  15.756  1.00  0.00     0.000 C 
BRANCH   5   6
ATOM      6  C   UNL     1       6.022 -21.633  16.643  1.00  0.00     0.000 C 
BRANCH   6   7
ATOM      7  C   UNL     1       7.188 -22.291  17.403  1.00  0.00     0.000 C 
BRANCH   7   8
ATOM      8  C   UNL     1       8.173 -22.996  16.455  1.00  0.00     0.000 C 
BRANCH   8   9
ATOM      9  C   UNL     1       9.124 -22.003  15.766  1.00  0.00     0.000 C 
BRANCH   9  10
ATOM     10  C   UNL     1       8.670 -21.629  14.346  1.00  0.00     0.006 C 
BRANCH  10  11
ATOM     11  C   UNL     1       8.797 -20.128  14.054  1.00  0.00     0.053 C 
BRANCH  11  12
ATOM     12  C   UNL     1       8.418 -19.836  12.637  1.00  0.00     0.041 C 
ATOM     13  O   UNL     1       8.311 -18.645  12.242  1.00  0.00    -0.550 OA
ATOM     14  O   UNL     1       8.237 -20.878  11.736  1.00  0.00    -0.550 OA
ENDBRANCH  11  12
ENDBRANCH  10  11
ENDBRANCH   9  10
ENDBRANCH   8   9
ENDBRANCH   7   8
ENDBRANCH   6   7
ENDBRANCH   5   6
ENDBRANCH   4   5
ENDBRANCH   3   4
ENDBRANCH   2   3
ENDBRANCH   1   2
BRANCH   1  15
ATOM     15  C   UNL     1      -0.451 -23.029  15.922  1.00  0.00     0.000 C 
BRANCH  15  16
ATOM     16  C   UNL     1      -1.650 -22.159  16.335  1.00  0.00     0.000 C 
BRANCH  16  17
ATOM     17  C   UNL     1      -2.976 -22.632  15.712  1.00  0.00     0.000 C 
BRANCH  17  18
ATOM     18  C   UNL     1      -4.150 -22.759  16.701  1.00  0.00    -0.000 C 
BRANCH  18  19
ATOM     19  C   UNL     1      -5.390 -21.963  16.267  1.00  0.00    -0.000 C 
BRANCH  19  20
ATOM     20  C   UNL     1      -6.664 -22.812  16.396  1.00  0.00    -0.000 C 
BRANCH  20  21
ATOM     21  C   UNL     1      -7.313 -22.708  17.787  1.00  0.00    -0.000 C 
BRANCH  21  22
ATOM     22  C   UNL     1      -8.821 -22.387  17.779  1.00  0.00    -0.000 C 
BRANCH  22  23
ATOM     23  C   UNL     1      -9.260 -21.292  18.771  1.00  0.00    -0.000 C 
BRANCH  23  24
ATOM     24  C   UNL     1     -10.641 -21.517  19.419  1.00  0.00    -0.000 C 
BRANCH  24  25
ATOM     25  C   UNL     1     -10.599 -21.915  20.906  1.00  0.00    -0.003 C 
ATOM     26  C   UNL     1      -9.265 -22.536  21.321  1.00  0.00     0.004 C 
ENDBRANCH  24  25
ENDBRANCH  23  24
ENDBRANCH  22  23
ENDBRANCH  21  22
ENDBRANCH  20  21
ENDBRANCH  19  20
ENDBRANCH  18  19
ENDBRANCH  17  18
ENDBRANCH  16  17
ENDBRANCH  15  16
ENDBRANCH   1  15
TORSDOF 22
ENDMDL
MODEL 4
REMARK VINA RESULT:    -1.764      5.607     14.778
REMARK INTER + INTRA:          -5.069
REMARK INTER:                  -5.121
REMARK INTRA:                   0.052
REMARK UNBOUND:                -1.035
REMARK SMILES CCCCCCCCCCCCCCCCCCCCCCCC(=O)[O-]
REMARK SMILES IDX 13 1 14 2 15 3 16 4 17 5 18 6 19 7 20 8 21 9 22 10 23 11
REMARK SMILES IDX 24 12 25 13 26 14 12 15 11 16 10 17 9 18 8 19 7 20 6 21 5 22
REMARK SMILES IDX 4 23 3 24 2 25 1 26
REMARK H PARENT
REMARK Flexibility Score: inf
ROOT
ATOM      1  C   UNL     1      -5.677 -22.758  17.838  1.00  0.00     0.000 C 
ENDROOT
BRANCH   1   2
ATOM      2  C   UNL     1      -7.030 -22.119  17.455  1.00  0.00     0.000 C 
BRANCH   2   3
ATOM      3  C   UNL     1      -8.275 -22.930  17.858  1.00  0.00     0.000 C 
BRANCH   3   4
ATOM      4  C   UNL     1      -9.220 -22.156  18.787  1.00  0.00     0.000 C 
BRANCH   4   5
ATOM      5  C   UNL     1      -9.029 -22.588  20.249  1.00  0.00     0.000 C 
BRANCH   5   6
ATOM      6  C   UNL     1     -10.360 -22.781  20.993  1.00  0.00     0.000 C 
BRANCH   6   7
ATOM      7  C   UNL     1     -10.175 -22.940  22.513  1.00  0.00     0.000 C 
BRANCH   7   8
ATOM      8  C   UNL     1     -10.578 -21.671  23.283  1.00  0.00     0.000 C 
BRANCH   8   9
ATOM      9  C   UNL     1     -10.011 -20.397  22.635  1.00  0.00     0.000 C 
BRANCH   9  10
ATOM     10  C   UNL     1     -10.830 -19.141  22.972  1.00  0.00     0.006 C 
BRANCH  10  11
ATOM     11  C   UNL     1     -10.411 -17.916  22.148  1.00  0.00     0.053 C 
BRANCH  11  12
ATOM     12  C   UNL     1     -10.442 -18.233  20.686  1.00  0.00     0.041 C 
ATOM     13  O   UNL     1     -11.081 -17.493  19.891  1.00  0.00    -0.550 OA
ATOM     14  O   UNL     1      -9.720 -19.312  20.192  1.00  0.00    -0.550 OA
ENDBRANCH  11  12
ENDBRANCH  10  11
ENDBRANCH   9  10
ENDBRANCH   8   9
ENDBRANCH   7   8
ENDBRANCH   6   7
ENDBRANCH   5   6
ENDBRANCH   4   5
ENDBRANCH   3   4
ENDBRANCH   2   3
ENDBRANCH   1   2
BRANCH   1  15
ATOM     15  C   UNL     1      -4.735 -23.048  16.656  1.00  0.00     0.000 C 
BRANCH  15  16
ATOM     16  C   UNL     1      -3.438 -22.225  16.713  1.00  0.00     0.000 C 
BRANCH  16  17
ATOM     17  C   UNL     1      -2.244 -22.941  16.057  1.00  0.00     0.000 C 
BRANCH  17  18
ATOM     18  C   UNL     1      -0.935 -22.130  16.028  1.00  0.00    -0.000 C 
BRANCH  18  19
ATOM     19  C   UNL     1       0.238 -22.902  15.403  1.00  0.00    -0.000 C 
BRANCH  19  20
ATOM     20  C   UNL     1       1.571 -22.183  15.658  1.00  0.00    -0.000 C 
BRANCH  20  21
ATOM     21  C   UNL     1       2.791 -23.096  15.451  1.00  0.00    -0.000 C 
BRANCH  21  22
ATOM     22  C   UNL     1       3.357 -23.109  14.016  1.00  0.00    -0.000 C 
BRANCH  22  23
ATOM     23  C   UNL     1       4.875 -22.864  13.912  1.00  0.00    -0.000 C 
BRANCH  23  24
ATOM     24  C   UNL     1       5.609 -22.740  15.263  1.00  0.00    -0.000 C 
BRANCH  24  25
ATOM     25  C   UNL     1       7.099 -23.125  15.226  1.00  0.00    -0.003 C 
ATOM     26  C   UNL     1       7.963 -22.101  14.488  1.00  0.00     0.004 C 
ENDBRANCH  24  25
ENDBRANCH  23  24
ENDBRANCH  22  23
ENDBRANCH  21  22
ENDBRANCH  20  21
ENDBRANCH  19  20
ENDBRANCH  18  19
ENDBRANCH  17  18
ENDBRANCH  16  17
ENDBRANCH  15  16
ENDBRANCH   1  15
TORSDOF 22
ENDMDL
MODEL 5
REMARK VINA RESULT:    -1.564      5.393     14.485
REMARK INTER + INTRA:          -4.611
REMARK INTER:                  -3.423
REMARK INTRA:                  -1.187
REMARK UNBOUND:                -1.035
REMARK SMILES CCCCCCCCCCCCCCCCCCCCCCCC(=O)[O-]
REMARK SMILES IDX 13 1 14 2 15 3 16 4 17 5 18 6 19 7 20 8 21 9 22 10 23 11
REMARK SMILES IDX 24 12 25 13 26 14 12 15 11 16 10 17 9 18 8 19 7 20 6 21 5 22
REMARK SMILES IDX 4 23 3 24 2 25 1 26
REMARK H PARENT
REMARK Flexibility Score: inf
ROOT
ATOM      1  C   UNL     1       1.558 -22.343  15.516  1.00  0.00     0.000 C 
ENDROOT
BRANCH   1   2
ATOM      2  C   UNL     1       0.206 -23.056  15.295  1.00  0.00     0.000 C 
BRANCH   2   3
ATOM      3  C   UNL     1      -0.791 -22.944  16.462  1.00  0.00     0.000 C 
BRANCH   3   4
ATOM      4  C   UNL     1      -2.063 -22.167  16.092  1.00  0.00     0.000 C 
BRANCH   4   5
ATOM      5  C   UNL     1      -3.199 -23.125  15.705  1.00  0.00     0.000 C 
BRANCH   5   6
ATOM      6  C   UNL     1      -4.364 -23.105  16.708  1.00  0.00     0.000 C 
BRANCH   6   7
ATOM      7  C   UNL     1      -5.291 -21.890  16.521  1.00  0.00     0.000 C 
BRANCH   7   8
ATOM      8  C   UNL     1      -6.709 -22.303  16.091  1.00  0.00     0.000 C 
BRANCH   8   9
ATOM      9  C   UNL     1      -7.452 -23.063  17.201  1.00  0.00     0.000 C 
BRANCH   9  10
ATOM     10  C   UNL     1      -8.065 -22.129  18.256  1.00  0.00     0.006 C 
BRANCH  10  11
ATOM     11  C   UNL     1      -9.586 -22.288  18.384  1.00  0.00     0.053 C 
BRANCH  11  12
ATOM     12  C   UNL     1     -10.062 -21.737  19.691  1.00  0.00     0.041 C 
ATOM     13  O   UNL     1     -10.980 -20.876  19.719  1.00  0.00    -0.550 OA
ATOM     14  O   UNL     1      -9.532 -22.217  20.883  1.00  0.00    -0.550 OA
ENDBRANCH  11  12
ENDBRANCH  10  11
ENDBRANCH   9  10
ENDBRANCH   8   9
ENDBRANCH   7   8
ENDBRANCH   6   7
ENDBRANCH   5   6
ENDBRANCH   4   5
ENDBRANCH   3   4
ENDBRANCH   2   3
ENDBRANCH   1   2
BRANCH   1  15
ATOM     15  C   UNL     1       2.709 -22.836  14.620  1.00  0.00     0.000 C 
BRANCH  15  16
ATOM     16  C   UNL     1       4.058 -22.880  15.357  1.00  0.00     0.000 C 
BRANCH  16  17
ATOM     17  C   UNL     1       3.990 -22.269  16.768  1.00  0.00     0.000 C 
BRANCH  17  18
ATOM     18  C   UNL     1       5.326 -21.715  17.302  1.00  0.00    -0.000 C 
BRANCH  18  19
ATOM     19  C   UNL     1       6.477 -21.850  16.294  1.00  0.00    -0.000 C 
BRANCH  19  20
ATOM     20  C   UNL     1       7.692 -22.540  16.932  1.00  0.00    -0.000 C 
BRANCH  20  21
ATOM     21  C   UNL     1       8.993 -22.307  16.146  1.00  0.00    -0.000 C 
BRANCH  21  22
ATOM     22  C   UNL     1       9.078 -23.046  14.795  1.00  0.00    -0.000 C 
BRANCH  22  23
ATOM     23  C   UNL     1       9.124 -22.132  13.554  1.00  0.00    -0.000 C 
BRANCH  23  24
ATOM     24  C   UNL     1       7.777 -21.955  12.825  1.00  0.00    -0.000 C 
BRANCH  24  25
ATOM     25  C   UNL     1       7.744 -20.809  11.798  1.00  0.00    -0.003 C 
ATOM     26  C   UNL     1       8.113 -19.454  12.403  1.00  0.00     0.004 C 
ENDBRANCH  24  25
ENDBRANCH  23  24
ENDBRANCH  22  23
ENDBRANCH  21  22
ENDBRANCH  20  21
ENDBRANCH  19  20
ENDBRANCH  18  19
ENDBRANCH  17  18
ENDBRANCH  16  17
ENDBRANCH  15  16
ENDBRANCH   1  15
TORSDOF 22
ENDMDL
MODEL 6
REMARK VINA RESULT:    -1.481      1.786      2.640
REMARK INTER + INTRA:          -4.421
REMARK INTER:                  -3.439
REMARK INTRA:                  -0.981
REMARK UNBOUND:                -1.035
REMARK SMILES CCCCCCCCCCCCCCCCCCCCCCCC(=O)[O-]
REMARK SMILES IDX 13 1 14 2 15 3 16 4 17 5 18 6 19 7 20 8 21 9 22 10 23 11
REMARK SMILES IDX 24 12 25 13 26 14 12 15 11 16 10 17 9 18 8 19 7 20 6 21 5 22
REMARK SMILES IDX 4 23 3 24 2 25 1 26
REMARK H PARENT
REMARK Flexibility Score: inf
ROOT
ATOM      1  C   UNL     1       1.059 -22.512  16.296  1.00  0.00     0.000 C 
ENDROOT
BRANCH   1   2
ATOM      2  C   UNL     1       2.422 -22.902  15.686  1.00  0.00     0.000 C 
BRANCH   2   3
ATOM      3  C   UNL     1       3.542 -21.861  15.866  1.00  0.00     0.000 C 
BRANCH   3   4
ATOM      4  C   UNL     1       4.859 -22.477  16.362  1.00  0.00     0.000 C 
BRANCH   4   5
ATOM      5  C   UNL     1       5.563 -21.540  17.355  1.00  0.00     0.000 C 
BRANCH   5   6
ATOM      6  C   UNL     1       7.079 -21.780  17.430  1.00  0.00     0.000 C 
BRANCH   6   7
ATOM      7  C   UNL     1       7.518 -23.055  16.688  1.00  0.00     0.000 C 
BRANCH   7   8
ATOM      8  C   UNL     1       8.971 -22.965  16.190  1.00  0.00     0.000 C 
BRANCH   8   9
ATOM      9  C   UNL     1       9.048 -22.715  14.674  1.00  0.00     0.000 C 
BRANCH   9  10
ATOM     10  C   UNL     1       8.522 -21.329  14.271  1.00  0.00     0.006 C 
BRANCH  10  11
ATOM     11  C   UNL     1       7.794 -21.336  12.920  1.00  0.00     0.053 C 
BRANCH  11  12
ATOM     12  C   UNL     1       8.274 -20.209  12.060  1.00  0.00     0.041 C 
ATOM     13  O   UNL     1       8.255 -19.028  12.496  1.00  0.00    -0.550 OA
ATOM     14  O   UNL     1       8.793 -20.469  10.798  1.00  0.00    -0.550 OA
ENDBRANCH  11  12
ENDBRANCH  10  11
ENDBRANCH   9  10
ENDBRANCH   8   9
ENDBRANCH   7   8
ENDBRANCH   6   7
ENDBRANCH   5   6
ENDBRANCH   4   5
ENDBRANCH   3   4
ENDBRANCH   2   3
ENDBRANCH   1   2
BRANCH   1  15
ATOM     15  C   UNL     1      -0.075 -22.300  15.276  1.00  0.00     0.000 C 
BRANCH  15  16
ATOM     16  C   UNL     1      -1.331 -23.125  15.604  1.00  0.00     0.000 C 
BRANCH  16  17
ATOM     17  C   UNL     1      -2.581 -22.253  15.819  1.00  0.00     0.000 C 
BRANCH  17  18
ATOM     18  C   UNL     1      -3.781 -22.982  16.452  1.00  0.00    -0.000 C 
BRANCH  18  19
ATOM     19  C   UNL     1      -4.915 -22.030  16.862  1.00  0.00    -0.000 C 
BRANCH  19  20
ATOM     20  C   UNL     1      -6.048 -22.792  17.566  1.00  0.00    -0.000 C 
BRANCH  20  21
ATOM     21  C   UNL     1      -7.391 -22.687  16.823  1.00  0.00    -0.000 C 
BRANCH  21  22
ATOM     22  C   UNL     1      -8.636 -22.652  17.732  1.00  0.00    -0.000 C 
BRANCH  22  23
ATOM     23  C   UNL     1      -9.935 -22.192  17.041  1.00  0.00    -0.000 C 
BRANCH  23  24
ATOM     24  C   UNL     1     -10.435 -20.795  17.461  1.00  0.00    -0.000 C 
BRANCH  24  25
ATOM     25  C   UNL     1     -10.969 -19.926  16.308  1.00  0.00    -0.003 C 
ATOM     26  C   UNL     1     -10.263 -20.198  14.979  1.00  0.00     0.004 C 
ENDBRANCH  24  25
ENDBRANCH  23  24
ENDBRANCH  22  23
ENDBRANCH  21  22
ENDBRANCH  20  21
ENDBRANCH  19  20
ENDBRANCH  18  19
ENDBRANCH  17  18
ENDBRANCH  16  17
ENDBRANCH  15  16
ENDBRANCH   1  15
TORSDOF 22
ENDMDL
MODEL 7
REMARK VINA RESULT:    -1.327      1.180      2.132
REMARK INTER + INTRA:          -4.070
REMARK INTER:                  -3.198
REMARK INTRA:                  -0.872
REMARK UNBOUND:                -1.035
REMARK SMILES CCCCCCCCCCCCCCCCCCCCCCCC(=O)[O-]
REMARK SMILES IDX 13 1 14 2 15 3 16 4 17 5 18 6 19 7 20 8 21 9 22 10 23 11
REMARK SMILES IDX 24 12 25 13 26 14 12 15 11 16 10 17 9 18 8 19 7 20 6 21 5 22
REMARK SMILES IDX 4 23 3 24 2 25 1 26
REMARK H PARENT
REMARK Flexibility Score: inf
ROOT
ATOM      1  C   UNL     1       0.733 -22.055  15.989  1.00  0.00     0.000 C 
ENDROOT
BRANCH   1   2
ATOM      2  C   UNL     1       2.160 -22.632  16.117  1.00  0.00     0.000 C 
BRANCH   2   3
ATOM      3  C   UNL     1       3.203 -21.671  16.717  1.00  0.00     0.000 C 
BRANCH   3   4
ATOM      4  C   UNL     1       4.647 -22.158  16.524  1.00  0.00     0.000 C 
BRANCH   4   5
ATOM      5  C   UNL     1       5.616 -21.368  17.416  1.00  0.00     0.000 C 
BRANCH   5   6
ATOM      6  C   UNL     1       7.051 -21.917  17.372  1.00  0.00     0.000 C 
BRANCH   6   7
ATOM      7  C   UNL     1       7.251 -22.972  16.269  1.00  0.00     0.000 C 
BRANCH   7   8
ATOM      8  C   UNL     1       8.582 -22.781  15.520  1.00  0.00     0.000 C 
BRANCH   8   9
ATOM      9  C   UNL     1       8.366 -22.418  14.041  1.00  0.00     0.000 C 
BRANCH   9  10
ATOM     10  C   UNL     1       6.892 -22.150  13.702  1.00  0.00     0.006 C 
BRANCH  10  11
ATOM     11  C   UNL     1       6.706 -21.479  12.334  1.00  0.00     0.053 C 
BRANCH  11  12
ATOM     12  C   UNL     1       7.884 -21.751  11.453  1.00  0.00     0.041 C 
ATOM     13  O   UNL     1       7.978 -22.847  10.841  1.00  0.00    -0.550 OA
ATOM     14  O   UNL     1       8.851 -20.771  11.263  1.00  0.00    -0.550 OA
ENDBRANCH  11  12
ENDBRANCH  10  11
ENDBRANCH   9  10
ENDBRANCH   8   9
ENDBRANCH   7   8
ENDBRANCH   6   7
ENDBRANCH   5   6
ENDBRANCH   4   5
ENDBRANCH   3   4
ENDBRANCH   2   3
ENDBRANCH   1   2
BRANCH   1  15
ATOM     15  C   UNL     1      -0.313 -23.026  15.411  1.00  0.00     0.000 C 
BRANCH  15  16
ATOM     16  C   UNL     1      -1.577 -23.125  16.281  1.00  0.00     0.000 C 
BRANCH  16  17
ATOM     17  C   UNL     1      -2.776 -22.365  15.684  1.00  0.00     0.000 C 
BRANCH  17  18
ATOM     18  C   UNL     1      -4.145 -22.736  16.286  1.00  0.00    -0.000 C 
BRANCH  18  19
ATOM     19  C   UNL     1      -5.184 -21.613  16.152  1.00  0.00    -0.000 C 
BRANCH  19  20
ATOM     20  C   UNL     1      -6.606 -22.145  16.387  1.00  0.00    -0.000 C 
BRANCH  20  21
ATOM     21  C   UNL     1      -7.086 -21.947  17.835  1.00  0.00    -0.000 C 
BRANCH  21  22
ATOM     22  C   UNL     1      -8.084 -23.008  18.340  1.00  0.00    -0.000 C 
BRANCH  22  23
ATOM     23  C   UNL     1      -9.566 -22.584  18.292  1.00  0.00    -0.000 C 
BRANCH  23  24
ATOM     24  C   UNL     1     -10.023 -21.684  19.458  1.00  0.00    -0.000 C 
BRANCH  24  25
ATOM     25  C   UNL     1     -10.034 -20.177  19.145  1.00  0.00    -0.003 C 
ATOM     26  C   UNL     1     -11.047 -19.399  19.986  1.00  0.00     0.004 C 
ENDBRANCH  24  25
ENDBRANCH  23  24
ENDBRANCH  22  23
ENDBRANCH  21  22
ENDBRANCH  20  21
ENDBRANCH  19  20
ENDBRANCH  18  19
ENDBRANCH  17  18
ENDBRANCH  16  17
ENDBRANCH  15  16
ENDBRANCH   1  15
TORSDOF 22
ENDMDL
MODEL 8
REMARK VINA RESULT:    -0.354      5.686     14.813
REMARK INTER + INTRA:          -1.845
REMARK INTER:                  -0.836
REMARK INTRA:                  -1.009
REMARK UNBOUND:                -1.035
REMARK SMILES CCCCCCCCCCCCCCCCCCCCCCCC(=O)[O-]
REMARK SMILES IDX 13 1 14 2 15 3 16 4 17 5 18 6 19 7 20 8 21 9 22 10 23 11
REMARK SMILES IDX 24 12 25 13 26 14 12 15 11 16 10 17 9 18 8 19 7 20 6 21 5 22
REMARK SMILES IDX 4 23 3 24 2 25 1 26
REMARK H PARENT
REMARK Flexibility Score: inf
ROOT
ATOM      1  C   UNL     1      -4.426 -21.541  15.930  1.00  0.00     0.000 C 
ENDROOT
BRANCH   1   2
ATOM      2  C   UNL     1      -5.160 -22.816  16.397  1.00  0.00     0.000 C 
BRANCH   2   3
ATOM      3  C   UNL     1      -6.365 -22.576  17.325  1.00  0.00     0.000 C 
BRANCH   3   4
ATOM      4  C   UNL     1      -7.711 -22.873  16.649  1.00  0.00     0.000 C 
BRANCH   4   5
ATOM      5  C   UNL     1      -8.873 -22.699  17.639  1.00  0.00     0.000 C 
BRANCH   5   6
ATOM      6  C   UNL     1      -9.490 -21.292  17.593  1.00  0.00     0.000 C 
BRANCH   6   7
ATOM      7  C   UNL     1     -10.821 -21.200  18.361  1.00  0.00     0.000 C 
BRANCH   7   8
ATOM      8  C   UNL     1     -11.033 -22.400  19.301  1.00  0.00     0.000 C 
BRANCH   8   9
ATOM      9  C   UNL     1     -11.043 -21.981  20.780  1.00  0.00     0.000 C 
BRANCH   9  10
ATOM     10  C   UNL     1     -10.295 -20.663  21.032  1.00  0.00     0.006 C 
BRANCH  10  11
ATOM     11  C   UNL     1     -11.125 -19.649  21.831  1.00  0.00     0.053 C 
BRANCH  11  12
ATOM     12  C   UNL     1     -10.441 -18.319  21.861  1.00  0.00     0.041 C 
ATOM     13  O   UNL     1      -9.700 -18.009  22.831  1.00  0.00    -0.550 OA
ATOM     14  O   UNL     1     -10.576 -17.443  20.791  1.00  0.00    -0.550 OA
ENDBRANCH  11  12
ENDBRANCH  10  11
ENDBRANCH   9  10
ENDBRANCH   8   9
ENDBRANCH   7   8
ENDBRANCH   6   7
ENDBRANCH   5   6
ENDBRANCH   4   5
ENDBRANCH   3   4
ENDBRANCH   2   3
ENDBRANCH   1   2
BRANCH   1  15
ATOM     15  C   UNL     1      -3.006 -21.770  15.380  1.00  0.00     0.000 C 
BRANCH  15  16
ATOM     16  C   UNL     1      -2.122 -22.584  16.339  1.00  0.00     0.000 C 
BRANCH  16  17
ATOM     17  C   UNL     1      -0.642 -22.164  16.291  1.00  0.00     0.000 C 
BRANCH  17  18
ATOM     18  C   UNL     1       0.210 -22.905  15.242  1.00  0.00    -0.000 C 
BRANCH  18  19
ATOM     19  C   UNL     1       1.693 -23.001  15.631  1.00  0.00    -0.000 C 
BRANCH  19  20
ATOM     20  C   UNL     1       2.584 -23.125  14.386  1.00  0.00    -0.000 C 
BRANCH  20  21
ATOM     21  C   UNL     1       4.064 -22.822  14.677  1.00  0.00    -0.000 C 
BRANCH  21  22
ATOM     22  C   UNL     1       4.975 -22.779  13.434  1.00  0.00    -0.000 C 
BRANCH  22  23
ATOM     23  C   UNL     1       6.424 -22.326  13.703  1.00  0.00    -0.000 C 
BRANCH  23  24
ATOM     24  C   UNL     1       7.131 -23.060  14.860  1.00  0.00    -0.000 C 
BRANCH  24  25
ATOM     25  C   UNL     1       7.820 -22.139  15.884  1.00  0.00    -0.003 C 
ATOM     26  C   UNL     1       6.938 -21.827  17.094  1.00  0.00     0.004 C 
ENDBRANCH  24  25
ENDBRANCH  23  24
ENDBRANCH  22  23
ENDBRANCH  21  22
ENDBRANCH  20  21
ENDBRANCH  19  20
ENDBRANCH  18  19
ENDBRANCH  17  18
ENDBRANCH  16  17
ENDBRANCH  15  16
ENDBRANCH   1  15
TORSDOF 22
ENDMDL
