MODEL 1
REMARK VINA RESULT:    -5.046      0.000      0.000
REMARK INTER + INTRA:          -8.000
REMARK INTER:                  -7.258
REMARK INTRA:                  -0.741
REMARK UNBOUND:                -0.741
REMARK SMILES O=C(CO)[C@H](O)[C@H](O)[C@@H](O)CO
REMARK SMILES IDX 7 1 9 2 11 3 12 4 10 6 5 8 2 9 1 10 3 11 4 12 6 14 8 16
REMARK H PARENT 12 5 10 7 4 13 6 15 8 17
REMARK Flexibility Score: inf
ROOT
ATOM      1  C   UNL     1      14.179  29.054  38.461  1.00  0.00     0.181 C 
ENDROOT
BRANCH   1   2
ATOM      2  C   UNL     1      12.726  29.612  38.445  1.00  0.00     0.171 C 
BRANCH   2   3
ATOM      3  C   UNL     1      11.712  28.760  37.646  1.00  0.00     0.190 C 
BRANCH   3   4
ATOM      4  O   UNL     1      10.901  27.996  38.495  1.00  0.00    -0.394 OA
ATOM      5  H   UNL     1      10.810  27.107  38.063  1.00  0.00     0.210 HD
ENDBRANCH   3   4
ENDBRANCH   2   3
BRANCH   2   6
ATOM      6  O   UNL     1      12.693  30.973  38.084  1.00  0.00    -0.388 OA
ATOM      7  H   UNL     1      12.057  31.092  37.335  1.00  0.00     0.211 HD
ENDBRANCH   2   6
ENDBRANCH   1   2
BRANCH   1   8
ATOM      8  C   UNL     1      14.792  28.765  37.062  1.00  0.00     0.214 C 
BRANCH   8   9
ATOM      9  C   UNL     1      16.282  28.484  37.166  1.00  0.00     0.189 C 
ATOM     10  O   UNL     1      16.771  28.279  38.267  1.00  0.00    -0.294 OA
BRANCH   9  11
ATOM     11  C   UNL     1      17.174  28.407  35.954  1.00  0.00     0.234 C 
BRANCH  11  12
ATOM     12  O   UNL     1      16.406  28.248  34.793  1.00  0.00    -0.388 OA
ATOM     13  H   UNL     1      16.200  29.162  34.461  1.00  0.00     0.211 HD
ENDBRANCH  11  12
ENDBRANCH   9  11
ENDBRANCH   8   9
BRANCH   8  14
ATOM     14  O   UNL     1      14.539  29.807  36.152  1.00  0.00    -0.382 OA
ATOM     15  H   UNL     1      14.833  30.657  36.573  1.00  0.00     0.211 HD
ENDBRANCH   8  14
ENDBRANCH   1   8
BRANCH   1  16
ATOM     16  O   UNL     1      14.210  27.876  39.228  1.00  0.00    -0.387 OA
ATOM     17  H   UNL     1      14.779  27.224  38.741  1.00  0.00     0.211 HD
ENDBRANCH   1  16
TORSDOF 10
ENDMDL
MODEL 2
REMARK VINA RESULT:    -4.820      0.865      4.801
REMARK INTER + INTRA:          -7.675
REMARK INTER:                  -7.294
REMARK INTRA:                  -0.381
REMARK UNBOUND:                -0.741
REMARK SMILES O=C(CO)[C@H](O)[C@H](O)[C@@H](O)CO
REMARK SMILES IDX 7 1 9 2 11 3 12 4 10 6 5 8 2 9 1 10 3 11 4 12 6 14 8 16
REMARK H PARENT 12 5 10 7 4 13 6 15 8 17
REMARK Flexibility Score: inf
ROOT
ATOM      1  C   UNL     1      15.223  29.159  37.019  1.00  0.00     0.181 C 
ENDROOT
BRANCH   1   2
ATOM      2  C   UNL     1      16.095  28.149  36.218  1.00  0.00     0.171 C 
BRANCH   2   3
ATOM      3  C   UNL     1      17.619  28.281  36.448  1.00  0.00     0.190 C 
BRANCH   3   4
ATOM      4  O   UNL     1      17.936  29.459  37.136  1.00  0.00    -0.394 OA
ATOM      5  H   UNL     1      17.193  30.092  36.956  1.00  0.00     0.210 HD
ENDBRANCH   3   4
ENDBRANCH   2   3
BRANCH   2   6
ATOM      6  O   UNL     1      15.753  28.131  34.852  1.00  0.00    -0.388 OA
ATOM      7  H   UNL     1      16.278  27.426  34.397  1.00  0.00     0.211 HD
ENDBRANCH   2   6
ENDBRANCH   1   2
BRANCH   1   8
ATOM      8  C   UNL     1      14.271  28.523  38.069  1.00  0.00     0.214 C 
BRANCH   8   9
ATOM      9  C   UNL     1      12.876  29.118  37.973  1.00  0.00     0.189 C 
ATOM     10  O   UNL     1      12.701  30.276  38.323  1.00  0.00    -0.294 OA
BRANCH   9  11
ATOM     11  C   UNL     1      11.706  28.345  37.422  1.00  0.00     0.234 C 
BRANCH  11  12
ATOM     12  O   UNL     1      10.815  28.009  38.449  1.00  0.00    -0.388 OA
ATOM     13  H   UNL     1      10.872  27.024  38.563  1.00  0.00     0.211 HD
ENDBRANCH  11  12
ENDBRANCH   9  11
ENDBRANCH   8   9
BRANCH   8  14
ATOM     14  O   UNL     1      14.778  28.639  39.376  1.00  0.00    -0.382 OA
ATOM     15  H   UNL     1      15.656  28.178  39.404  1.00  0.00     0.211 HD
ENDBRANCH   8  14
ENDBRANCH   1   8
BRANCH   1  16
ATOM     16  O   UNL     1      14.464  29.925  36.116  1.00  0.00    -0.387 OA
ATOM     17  H   UNL     1      15.102  30.470  35.585  1.00  0.00     0.211 HD
ENDBRANCH   1  16
TORSDOF 10
ENDMDL
MODEL 3
REMARK VINA RESULT:    -4.762     23.289     24.161
REMARK INTER + INTRA:          -7.592
REMARK INTER:                  -6.795
REMARK INTRA:                  -0.797
REMARK UNBOUND:                -0.741
REMARK SMILES O=C(CO)[C@H](O)[C@H](O)[C@@H](O)CO
REMARK SMILES IDX 7 1 9 2 11 3 12 4 10 6 5 8 2 9 1 10 3 11 4 12 6 14 8 16
REMARK H PARENT 12 5 10 7 4 13 6 15 8 17
REMARK Flexibility Score: inf
ROOT
ATOM      1  C   UNL     1       2.056  45.074  49.328  1.00  0.00     0.181 C 
ENDROOT
BRANCH   1   2
ATOM      2  C   UNL     1       1.021  44.342  50.233  1.00  0.00     0.171 C 
BRANCH   2   3
ATOM      3  C   UNL     1      -0.428  44.344  49.694  1.00  0.00     0.190 C 
BRANCH   3   4
ATOM      4  O   UNL     1      -0.607  43.381  48.692  1.00  0.00    -0.394 OA
ATOM      5  H   UNL     1      -1.172  43.809  47.997  1.00  0.00     0.210 HD
ENDBRANCH   3   4
ENDBRANCH   2   3
BRANCH   2   6
ATOM      6  O   UNL     1       1.103  44.771  51.572  1.00  0.00    -0.388 OA
ATOM      7  H   UNL     1       0.240  44.588  52.021  1.00  0.00     0.211 HD
ENDBRANCH   2   6
ENDBRANCH   1   2
BRANCH   1   8
ATOM      8  C   UNL     1       2.093  46.619  49.484  1.00  0.00     0.214 C 
BRANCH   8   9
ATOM      9  C   UNL     1       2.475  47.291  48.175  1.00  0.00     0.189 C 
ATOM     10  O   UNL     1       1.599  47.556  47.366  1.00  0.00    -0.294 OA
BRANCH   9  11
ATOM     11  C   UNL     1       3.895  47.682  47.855  1.00  0.00     0.234 C 
BRANCH  11  12
ATOM     12  O   UNL     1       4.235  47.266  46.561  1.00  0.00    -0.388 OA
ATOM     13  H   UNL     1       4.327  48.090  46.013  1.00  0.00     0.211 HD
ENDBRANCH  11  12
ENDBRANCH   9  11
ENDBRANCH   8   9
BRANCH   8  14
ATOM     14  O   UNL     1       2.950  47.023  50.524  1.00  0.00    -0.382 OA
ATOM     15  H   UNL     1       3.796  47.340  50.115  1.00  0.00     0.211 HD
ENDBRANCH   8  14
ENDBRANCH   1   8
BRANCH   1  16
ATOM     16  O   UNL     1       1.796  44.755  47.984  1.00  0.00    -0.387 OA
ATOM     17  H   UNL     1       0.886  44.359  47.947  1.00  0.00     0.211 HD
ENDBRANCH   1  16
TORSDOF 10
ENDMDL
MODEL 4
REMARK VINA RESULT:    -4.741     23.082     24.120
REMARK INTER + INTRA:          -7.561
REMARK INTER:                  -6.652
REMARK INTRA:                  -0.908
REMARK UNBOUND:                -0.741
REMARK SMILES O=C(CO)[C@H](O)[C@H](O)[C@@H](O)CO
REMARK SMILES IDX 7 1 9 2 11 3 12 4 10 6 5 8 2 9 1 10 3 11 4 12 6 14 8 16
REMARK H PARENT 12 5 10 7 4 13 6 15 8 17
REMARK Flexibility Score: inf
ROOT
ATOM      1  C   UNL     1       0.671  45.858  48.815  1.00  0.00     0.181 C 
ENDROOT
BRANCH   1   2
ATOM      2  C   UNL     1       0.234  44.517  49.474  1.00  0.00     0.171 C 
BRANCH   2   3
ATOM      3  C   UNL     1       1.154  44.024  50.615  1.00  0.00     0.190 C 
BRANCH   3   4
ATOM      4  O   UNL     1       1.057  44.845  51.746  1.00  0.00    -0.394 OA
ATOM      5  H   UNL     1       1.181  44.249  52.531  1.00  0.00     0.210 HD
ENDBRANCH   3   4
ENDBRANCH   2   3
BRANCH   2   6
ATOM      6  O   UNL     1      -0.019  43.520  48.512  1.00  0.00    -0.388 OA
ATOM      7  H   UNL     1      -0.557  42.801  48.928  1.00  0.00     0.211 HD
ENDBRANCH   2   6
ENDBRANCH   1   2
BRANCH   1   8
ATOM      8  C   UNL     1       2.122  45.879  48.258  1.00  0.00     0.214 C 
BRANCH   8   9
ATOM      9  C   UNL     1       2.457  47.234  47.658  1.00  0.00     0.189 C 
ATOM     10  O   UNL     1       1.546  47.971  47.312  1.00  0.00    -0.294 OA
BRANCH   9  11
ATOM     11  C   UNL     1       3.875  47.723  47.513  1.00  0.00     0.234 C 
BRANCH  11  12
ATOM     12  O   UNL     1       4.441  47.233  46.328  1.00  0.00    -0.388 OA
ATOM     13  H   UNL     1       5.277  46.763  46.586  1.00  0.00     0.211 HD
ENDBRANCH  11  12
ENDBRANCH   9  11
ENDBRANCH   8   9
BRANCH   8  14
ATOM     14  O   UNL     1       2.342  44.849  47.325  1.00  0.00    -0.382 OA
ATOM     15  H   UNL     1       1.463  44.441  47.110  1.00  0.00     0.211 HD
ENDBRANCH   8  14
ENDBRANCH   1   8
BRANCH   1  16
ATOM     16  O   UNL     1       0.524  46.898  49.750  1.00  0.00    -0.387 OA
ATOM     17  H   UNL     1       0.092  46.510  50.555  1.00  0.00     0.211 HD
ENDBRANCH   1  16
TORSDOF 10
ENDMDL
MODEL 5
REMARK VINA RESULT:    -4.696     22.557     23.860
REMARK INTER + INTRA:          -7.496
REMARK INTER:                  -7.025
REMARK INTRA:                  -0.472
REMARK UNBOUND:                -0.741
REMARK SMILES O=C(CO)[C@H](O)[C@H](O)[C@@H](O)CO
REMARK SMILES IDX 7 1 9 2 11 3 12 4 10 6 5 8 2 9 1 10 3 11 4 12 6 14 8 16
REMARK H PARENT 12 5 10 7 4 13 6 15 8 17
REMARK Flexibility Score: inf
ROOT
ATOM      1  C   UNL     1       1.749  44.631  48.538  1.00  0.00     0.181 C 
ENDROOT
BRANCH   1   2
ATOM      2  C   UNL     1       0.423  44.404  49.321  1.00  0.00     0.171 C 
BRANCH   2   3
ATOM      3  C   UNL     1       0.604  43.978  50.796  1.00  0.00     0.190 C 
BRANCH   3   4
ATOM      4  O   UNL     1       1.194  44.995  51.558  1.00  0.00    -0.394 OA
ATOM      5  H   UNL     1       0.493  45.686  51.684  1.00  0.00     0.210 HD
ENDBRANCH   3   4
ENDBRANCH   2   3
BRANCH   2   6
ATOM      6  O   UNL     1      -0.461  43.562  48.618  1.00  0.00    -0.388 OA
ATOM      7  H   UNL     1      -0.187  43.530  47.667  1.00  0.00     0.211 HD
ENDBRANCH   2   6
ENDBRANCH   1   2
BRANCH   1   8
ATOM      8  C   UNL     1       1.863  46.002  47.815  1.00  0.00     0.214 C 
BRANCH   8   9
ATOM      9  C   UNL     1       2.847  46.915  48.527  1.00  0.00     0.189 C 
ATOM     10  O   UNL     1       2.868  46.926  49.749  1.00  0.00    -0.294 OA
BRANCH   9  11
ATOM     11  C   UNL     1       3.832  47.778  47.781  1.00  0.00     0.234 C 
BRANCH  11  12
ATOM     12  O   UNL     1       4.172  47.184  46.558  1.00  0.00    -0.388 OA
ATOM     13  H   UNL     1       4.985  47.652  46.233  1.00  0.00     0.211 HD
ENDBRANCH  11  12
ENDBRANCH   9  11
ENDBRANCH   8   9
BRANCH   8  14
ATOM     14  O   UNL     1       0.611  46.627  47.672  1.00  0.00    -0.382 OA
ATOM     15  H   UNL     1       0.088  46.451  48.497  1.00  0.00     0.211 HD
ENDBRANCH   8  14
ENDBRANCH   1   8
BRANCH   1  16
ATOM     16  O   UNL     1       1.907  43.600  47.595  1.00  0.00    -0.387 OA
ATOM     17  H   UNL     1       1.914  44.024  46.696  1.00  0.00     0.211 HD
ENDBRANCH   1  16
TORSDOF 10
ENDMDL
MODEL 6
REMARK VINA RESULT:    -4.522     22.635     24.265
REMARK INTER + INTRA:          -7.246
REMARK INTER:                  -6.466
REMARK INTRA:                  -0.780
REMARK UNBOUND:                -0.741
REMARK SMILES O=C(CO)[C@H](O)[C@H](O)[C@@H](O)CO
REMARK SMILES IDX 7 1 9 2 11 3 12 4 10 6 5 8 2 9 1 10 3 11 4 12 6 14 8 16
REMARK H PARENT 12 5 10 7 4 13 6 15 8 17
REMARK Flexibility Score: inf
ROOT
ATOM      1  C   UNL     1       1.580  44.506  48.695  1.00  0.00     0.181 C 
ENDROOT
BRANCH   1   2
ATOM      2  C   UNL     1       0.252  44.291  49.479  1.00  0.00     0.171 C 
BRANCH   2   3
ATOM      3  C   UNL     1       0.427  43.751  50.918  1.00  0.00     0.190 C 
BRANCH   3   4
ATOM      4  O   UNL     1       0.720  44.780  51.822  1.00  0.00    -0.394 OA
ATOM      5  H   UNL     1       0.047  45.491  51.659  1.00  0.00     0.210 HD
ENDBRANCH   3   4
ENDBRANCH   2   3
BRANCH   2   6
ATOM      6  O   UNL     1      -0.682  43.548  48.731  1.00  0.00    -0.388 OA
ATOM      7  H   UNL     1      -0.366  42.613  48.660  1.00  0.00     0.211 HD
ENDBRANCH   2   6
ENDBRANCH   1   2
BRANCH   1   8
ATOM      8  C   UNL     1       1.678  45.847  47.916  1.00  0.00     0.214 C 
BRANCH   8   9
ATOM      9  C   UNL     1       2.720  46.764  48.536  1.00  0.00     0.189 C 
ATOM     10  O   UNL     1       3.503  47.351  47.805  1.00  0.00    -0.294 OA
BRANCH   9  11
ATOM     11  C   UNL     1       2.796  47.009  50.021  1.00  0.00     0.234 C 
BRANCH  11  12
ATOM     12  O   UNL     1       1.541  47.384  50.518  1.00  0.00    -0.388 OA
ATOM     13  H   UNL     1       0.869  46.836  50.035  1.00  0.00     0.211 HD
ENDBRANCH  11  12
ENDBRANCH   9  11
ENDBRANCH   8   9
BRANCH   8  14
ATOM     14  O   UNL     1       0.432  46.494  47.823  1.00  0.00    -0.382 OA
ATOM     15  H   UNL     1       0.599  47.442  47.581  1.00  0.00     0.211 HD
ENDBRANCH   8  14
ENDBRANCH   1   8
BRANCH   1  16
ATOM     16  O   UNL     1       1.760  43.439  47.797  1.00  0.00    -0.387 OA
ATOM     17  H   UNL     1       2.347  42.775  48.244  1.00  0.00     0.211 HD
ENDBRANCH   1  16
TORSDOF 10
ENDMDL
MODEL 7
REMARK VINA RESULT:    -4.440     23.289     24.738
REMARK INTER + INTRA:          -7.129
REMARK INTER:                  -5.862
REMARK INTRA:                  -1.266
REMARK UNBOUND:                -0.741
REMARK SMILES O=C(CO)[C@H](O)[C@H](O)[C@@H](O)CO
REMARK SMILES IDX 7 1 9 2 11 3 12 4 10 6 5 8 2 9 1 10 3 11 4 12 6 14 8 16
REMARK H PARENT 12 5 10 7 4 13 6 15 8 17
REMARK Flexibility Score: inf
ROOT
ATOM      1  C   UNL     1       1.812  44.669  49.326  1.00  0.00     0.181 C 
ENDROOT
BRANCH   1   2
ATOM      2  C   UNL     1       2.492  45.920  48.696  1.00  0.00     0.171 C 
BRANCH   2   3
ATOM      3  C   UNL     1       1.938  47.278  49.188  1.00  0.00     0.190 C 
BRANCH   3   4
ATOM      4  O   UNL     1       2.074  47.417  50.575  1.00  0.00    -0.394 OA
ATOM      5  H   UNL     1       2.653  46.667  50.873  1.00  0.00     0.210 HD
ENDBRANCH   3   4
ENDBRANCH   2   3
BRANCH   2   6
ATOM      6  O   UNL     1       2.545  45.833  47.291  1.00  0.00    -0.388 OA
ATOM      7  H   UNL     1       2.222  44.941  47.011  1.00  0.00     0.211 HD
ENDBRANCH   2   6
ENDBRANCH   1   2
BRANCH   1   8
ATOM      8  C   UNL     1       0.259  44.662  49.268  1.00  0.00     0.214 C 
BRANCH   8   9
ATOM      9  C   UNL     1      -0.339  44.760  50.662  1.00  0.00     0.189 C 
ATOM     10  O   UNL     1      -0.346  45.843  51.229  1.00  0.00    -0.294 OA
BRANCH   9  11
ATOM     11  C   UNL     1      -0.966  43.578  51.355  1.00  0.00     0.234 C 
BRANCH  11  12
ATOM     12  O   UNL     1      -0.013  42.571  51.559  1.00  0.00    -0.388 OA
ATOM     13  H   UNL     1       0.145  42.524  52.539  1.00  0.00     0.211 HD
ENDBRANCH  11  12
ENDBRANCH   9  11
ENDBRANCH   8   9
BRANCH   8  14
ATOM     14  O   UNL     1      -0.237  43.535  48.588  1.00  0.00    -0.382 OA
ATOM     15  H   UNL     1      -0.537  43.830  47.689  1.00  0.00     0.211 HD
ENDBRANCH   8  14
ENDBRANCH   1   8
BRANCH   1  16
ATOM     16  O   UNL     1       2.222  44.550  50.666  1.00  0.00    -0.387 OA
ATOM     17  H   UNL     1       1.996  43.630  50.961  1.00  0.00     0.211 HD
ENDBRANCH   1  16
TORSDOF 10
ENDMDL
MODEL 8
REMARK VINA RESULT:    -4.378     22.915     24.295
REMARK INTER + INTRA:          -7.038
REMARK INTER:                  -6.076
REMARK INTRA:                  -0.962
REMARK UNBOUND:                -0.741
REMARK SMILES O=C(CO)[C@H](O)[C@H](O)[C@@H](O)CO
REMARK SMILES IDX 7 1 9 2 11 3 12 4 10 6 5 8 2 9 1 10 3 11 4 12 6 14 8 16
REMARK H PARENT 12 5 10 7 4 13 6 15 8 17
REMARK Flexibility Score: inf
ROOT
ATOM      1  C   UNL     1       2.282  45.767  48.413  1.00  0.00     0.181 C 
ENDROOT
BRANCH   1   2
ATOM      2  C   UNL     1       2.381  47.062  47.555  1.00  0.00     0.171 C 
BRANCH   2   3
ATOM      3  C   UNL     1       3.786  47.706  47.511  1.00  0.00     0.190 C 
BRANCH   3   4
ATOM      4  O   UNL     1       4.528  47.251  46.413  1.00  0.00    -0.394 OA
ATOM      5  H   UNL     1       5.268  47.901  46.292  1.00  0.00     0.210 HD
ENDBRANCH   3   4
ENDBRANCH   2   3
BRANCH   2   6
ATOM      6  O   UNL     1       1.371  47.986  47.885  1.00  0.00    -0.388 OA
ATOM      7  H   UNL     1       1.565  48.848  47.438  1.00  0.00     0.211 HD
ENDBRANCH   2   6
ENDBRANCH   1   2
BRANCH   1   8
ATOM      8  C   UNL     1       1.067  44.852  48.092  1.00  0.00     0.214 C 
BRANCH   8   9
ATOM      9  C   UNL     1      -0.048  45.051  49.105  1.00  0.00     0.189 C 
ATOM     10  O   UNL     1      -0.690  46.091  49.085  1.00  0.00    -0.294 OA
BRANCH   9  11
ATOM     11  C   UNL     1      -0.423  43.991  50.109  1.00  0.00     0.234 C 
BRANCH  11  12
ATOM     12  O   UNL     1       0.727  43.454  50.703  1.00  0.00    -0.388 OA
ATOM     13  H   UNL     1       0.717  42.480  50.511  1.00  0.00     0.211 HD
ENDBRANCH  11  12
ENDBRANCH   9  11
ENDBRANCH   8   9
BRANCH   8  14
ATOM     14  O   UNL     1       1.436  43.498  48.010  1.00  0.00    -0.382 OA
ATOM     15  H   UNL     1       0.892  42.994  48.669  1.00  0.00     0.211 HD
ENDBRANCH   8  14
ENDBRANCH   1   8
BRANCH   1  16
ATOM     16  O   UNL     1       2.242  46.120  49.773  1.00  0.00    -0.387 OA
ATOM     17  H   UNL     1       2.882  45.528  50.249  1.00  0.00     0.211 HD
ENDBRANCH   1  16
TORSDOF 10
ENDMDL
MODEL 9
REMARK VINA RESULT:    -4.249     23.698     24.794
REMARK INTER + INTRA:          -6.853
REMARK INTER:                  -5.650
REMARK INTRA:                  -1.203
REMARK UNBOUND:                -0.741
REMARK SMILES O=C(CO)[C@H](O)[C@H](O)[C@@H](O)CO
REMARK SMILES IDX 7 1 9 2 11 3 12 4 10 6 5 8 2 9 1 10 3 11 4 12 6 14 8 16
REMARK H PARENT 12 5 10 7 4 13 6 15 8 17
REMARK Flexibility Score: inf
ROOT
ATOM      1  C   UNL     1       1.361  46.249  48.755  1.00  0.00     0.181 C 
ENDROOT
BRANCH   1   2
ATOM      2  C   UNL     1       2.472  47.210  49.269  1.00  0.00     0.171 C 
BRANCH   2   3
ATOM      3  C   UNL     1       3.582  47.528  48.241  1.00  0.00     0.190 C 
BRANCH   3   4
ATOM      4  O   UNL     1       3.430  46.776  47.069  1.00  0.00    -0.394 OA
ATOM      5  H   UNL     1       3.627  45.836  47.317  1.00  0.00     0.210 HD
ENDBRANCH   3   4
ENDBRANCH   2   3
BRANCH   2   6
ATOM      6  O   UNL     1       2.988  46.794  50.512  1.00  0.00    -0.388 OA
ATOM      7  H   UNL     1       3.386  47.575  50.972  1.00  0.00     0.211 HD
ENDBRANCH   2   6
ENDBRANCH   1   2
BRANCH   1   8
ATOM      8  C   UNL     1       0.101  46.151  49.660  1.00  0.00     0.214 C 
BRANCH   8   9
ATOM      9  C   UNL     1       0.076  44.836  50.421  1.00  0.00     0.189 C 
ATOM     10  O   UNL     1       0.858  44.670  51.346  1.00  0.00    -0.294 OA
BRANCH   9  11
ATOM     11  C   UNL     1      -0.909  43.740  50.105  1.00  0.00     0.234 C 
BRANCH  11  12
ATOM     12  O   UNL     1      -0.772  43.331  48.772  1.00  0.00    -0.388 OA
ATOM     13  H   UNL     1      -1.320  42.509  48.670  1.00  0.00     0.211 HD
ENDBRANCH  11  12
ENDBRANCH   9  11
ENDBRANCH   8   9
BRANCH   8  14
ATOM     14  O   UNL     1      -1.087  46.330  48.929  1.00  0.00    -0.382 OA
ATOM     15  H   UNL     1      -0.993  45.841  48.071  1.00  0.00     0.211 HD
ENDBRANCH   8  14
ENDBRANCH   1   8
BRANCH   1  16
ATOM     16  O   UNL     1       1.906  44.964  48.589  1.00  0.00    -0.387 OA
ATOM     17  H   UNL     1       1.949  44.787  47.613  1.00  0.00     0.211 HD
ENDBRANCH   1  16
TORSDOF 10
ENDMDL
