MODEL 1
REMARK VINA RESULT:    -5.163      0.000      0.000
REMARK INTER + INTRA:          -6.840
REMARK INTER:                  -6.673
REMARK INTRA:                  -0.167
REMARK UNBOUND:                -0.167
REMARK SMILES CCO[C@@H]1O[C@H](CO)[C@H](O)[C@H](O)[C@H]1O
REMARK SMILES IDX 4 1 13 2 11 3 9 4 6 5 5 6 3 7 2 8 1 9 14 10 12 12 7 14 8 15
REMARK SMILES IDX 10 17
REMARK H PARENT 14 11 12 13 8 16 10 18
REMARK Flexibility Score: inf
ROOT
ATOM      1  C   UNL     1      36.867   9.571  44.326  1.00  0.00     0.281 C 
ATOM      2  C   UNL     1      36.515  10.747  45.262  1.00  0.00     0.202 C 
ATOM      3  C   UNL     1      36.341  12.045  44.450  1.00  0.00     0.179 C 
ATOM      4  C   UNL     1      37.562  12.261  43.531  1.00  0.00     0.177 C 
ATOM      5  C   UNL     1      37.812  10.972  42.716  1.00  0.00     0.178 C 
ATOM      6  O   UNL     1      38.042   9.877  43.588  1.00  0.00    -0.341 OA
ENDROOT
BRANCH   1   7
ATOM      7  O   UNL     1      37.105   8.427  45.123  1.00  0.00    -0.350 OA
BRANCH   7   8
ATOM      8  C   UNL     1      37.048   7.259  44.331  1.00  0.00     0.160 C 
ATOM      9  C   UNL     1      35.661   6.646  44.445  1.00  0.00     0.035 C 
ENDBRANCH   7   8
ENDBRANCH   1   7
BRANCH   2  10
ATOM     10  O   UNL     1      35.358  10.467  46.010  1.00  0.00    -0.385 OA
ATOM     11  H   UNL     1      35.642  10.230  46.931  1.00  0.00     0.211 HD
ENDBRANCH   2  10
BRANCH   3  12
ATOM     12  O   UNL     1      36.183  13.131  45.326  1.00  0.00    -0.387 OA
ATOM     13  H   UNL     1      35.383  13.631  45.019  1.00  0.00     0.211 HD
ENDBRANCH   3  12
BRANCH   5  14
ATOM     14  C   UNL     1      39.022  11.134  41.786  1.00  0.00     0.191 C 
BRANCH  14  15
ATOM     15  O   UNL     1      38.914  10.267  40.689  1.00  0.00    -0.394 OA
ATOM     16  H   UNL     1      39.301   9.398  40.974  1.00  0.00     0.210 HD
ENDBRANCH  14  15
ENDBRANCH   5  14
BRANCH   4  17
ATOM     17  O   UNL     1      38.699  12.568  44.299  1.00  0.00    -0.387 OA
ATOM     18  H   UNL     1      39.490  12.419  43.716  1.00  0.00     0.211 HD
ENDBRANCH   4  17
TORSDOF 7
ENDMDL
MODEL 2
REMARK VINA RESULT:    -5.030      2.255      4.639
REMARK INTER + INTRA:          -6.667
REMARK INTER:                  -6.275
REMARK INTRA:                  -0.392
REMARK UNBOUND:                -0.167
REMARK SMILES CCO[C@@H]1O[C@H](CO)[C@H](O)[C@H](O)[C@H]1O
REMARK SMILES IDX 4 1 13 2 11 3 9 4 6 5 5 6 3 7 2 8 1 9 14 10 12 12 7 14 8 15
REMARK SMILES IDX 10 17
REMARK H PARENT 14 11 12 13 8 16 10 18
REMARK Flexibility Score: inf
ROOT
ATOM      1  C   UNL     1      36.866   8.078  44.850  1.00  0.00     0.281 C 
ATOM      2  C   UNL     1      35.970   6.844  44.614  1.00  0.00     0.202 C 
ATOM      3  C   UNL     1      36.815   5.656  44.114  1.00  0.00     0.179 C 
ATOM      4  C   UNL     1      37.686   6.093  42.917  1.00  0.00     0.177 C 
ATOM      5  C   UNL     1      38.462   7.374  43.301  1.00  0.00     0.178 C 
ATOM      6  O   UNL     1      37.559   8.408  43.655  1.00  0.00    -0.341 OA
ENDROOT
BRANCH   1   7
ATOM      7  O   UNL     1      36.035   9.163  45.220  1.00  0.00    -0.350 OA
BRANCH   7   8
ATOM      8  C   UNL     1      36.433  10.336  44.541  1.00  0.00     0.160 C 
ATOM      9  C   UNL     1      35.310  11.359  44.613  1.00  0.00     0.035 C 
ENDBRANCH   7   8
ENDBRANCH   1   7
BRANCH   2  10
ATOM     10  O   UNL     1      35.267   6.500  45.782  1.00  0.00    -0.385 OA
ATOM     11  H   UNL     1      34.478   5.959  45.513  1.00  0.00     0.211 HD
ENDBRANCH   2  10
BRANCH   3  12
ATOM     12  O   UNL     1      35.969   4.596  43.750  1.00  0.00    -0.387 OA
ATOM     13  H   UNL     1      35.719   4.744  42.801  1.00  0.00     0.211 HD
ENDBRANCH   3  12
BRANCH   5  14
ATOM     14  C   UNL     1      39.342   7.853  42.139  1.00  0.00     0.191 C 
BRANCH  14  15
ATOM     15  O   UNL     1      38.651   8.788  41.356  1.00  0.00    -0.394 OA
ATOM     16  H   UNL     1      38.624   9.632  41.878  1.00  0.00     0.210 HD
ENDBRANCH  14  15
ENDBRANCH   5  14
BRANCH   4  17
ATOM     17  O   UNL     1      36.876   6.346  41.796  1.00  0.00    -0.387 OA
ATOM     18  H   UNL     1      37.481   6.630  41.060  1.00  0.00     0.211 HD
ENDBRANCH   4  17
TORSDOF 7
ENDMDL
MODEL 3
REMARK VINA RESULT:    -4.978      2.505      4.780
REMARK INTER + INTRA:          -6.599
REMARK INTER:                  -6.170
REMARK INTRA:                  -0.430
REMARK UNBOUND:                -0.167
REMARK SMILES CCO[C@@H]1O[C@H](CO)[C@H](O)[C@H](O)[C@H]1O
REMARK SMILES IDX 4 1 13 2 11 3 9 4 6 5 5 6 3 7 2 8 1 9 14 10 12 12 7 14 8 15
REMARK SMILES IDX 10 17
REMARK H PARENT 14 11 12 13 8 16 10 18
REMARK Flexibility Score: inf
ROOT
ATOM      1  C   UNL     1      37.956   8.351  44.551  1.00  0.00     0.281 C 
ATOM      2  C   UNL     1      36.506   7.823  44.544  1.00  0.00     0.202 C 
ATOM      3  C   UNL     1      36.495   6.288  44.414  1.00  0.00     0.179 C 
ATOM      4  C   UNL     1      37.374   5.852  43.223  1.00  0.00     0.177 C 
ATOM      5  C   UNL     1      38.762   6.519  43.351  1.00  0.00     0.178 C 
ATOM      6  O   UNL     1      38.629   7.931  43.373  1.00  0.00    -0.341 OA
ENDROOT
BRANCH   1   7
ATOM      7  O   UNL     1      37.912   9.765  44.580  1.00  0.00    -0.350 OA
BRANCH   7   8
ATOM      8  C   UNL     1      37.965  10.284  43.267  1.00  0.00     0.160 C 
ATOM      9  C   UNL     1      37.267  11.634  43.236  1.00  0.00     0.035 C 
ENDBRANCH   7   8
ENDBRANCH   1   7
BRANCH   2  10
ATOM     10  O   UNL     1      35.816   8.232  45.699  1.00  0.00    -0.385 OA
ATOM     11  H   UNL     1      35.520   9.170  45.560  1.00  0.00     0.211 HD
ENDBRANCH   2  10
BRANCH   3  12
ATOM     12  O   UNL     1      35.176   5.839  44.246  1.00  0.00    -0.387 OA
ATOM     13  H   UNL     1      35.078   5.592  43.289  1.00  0.00     0.211 HD
ENDBRANCH   3  12
BRANCH   5  14
ATOM     14  C   UNL     1      39.676   6.120  42.185  1.00  0.00     0.191 C 
BRANCH  14  15
ATOM     15  O   UNL     1      39.297   4.870  41.674  1.00  0.00    -0.394 OA
ATOM     16  H   UNL     1      40.120   4.447  41.317  1.00  0.00     0.210 HD
ENDBRANCH  14  15
ENDBRANCH   5  14
BRANCH   4  17
ATOM     17  O   UNL     1      36.772   6.235  42.011  1.00  0.00    -0.387 OA
ATOM     18  H   UNL     1      36.098   6.931  42.229  1.00  0.00     0.211 HD
ENDBRANCH   4  17
TORSDOF 7
ENDMDL
MODEL 4
REMARK VINA RESULT:    -4.974      2.487      4.707
REMARK INTER + INTRA:          -6.595
REMARK INTER:                  -6.184
REMARK INTRA:                  -0.411
REMARK UNBOUND:                -0.167
REMARK SMILES CCO[C@@H]1O[C@H](CO)[C@H](O)[C@H](O)[C@H]1O
REMARK SMILES IDX 4 1 13 2 11 3 9 4 6 5 5 6 3 7 2 8 1 9 14 10 12 12 7 14 8 15
REMARK SMILES IDX 10 17
REMARK H PARENT 14 11 12 13 8 16 10 18
REMARK Flexibility Score: inf
ROOT
ATOM      1  C   UNL     1      38.104   9.198  44.422  1.00  0.00     0.281 C 
ATOM      2  C   UNL     1      38.592   8.635  45.774  1.00  0.00     0.202 C 
ATOM      3  C   UNL     1      39.768   7.663  45.555  1.00  0.00     0.179 C 
ATOM      4  C   UNL     1      39.397   6.615  44.485  1.00  0.00     0.177 C 
ATOM      5  C   UNL     1      38.868   7.344  43.229  1.00  0.00     0.178 C 
ATOM      6  O   UNL     1      37.736   8.133  43.558  1.00  0.00    -0.341 OA
ENDROOT
BRANCH   1   7
ATOM      7  O   UNL     1      36.971  10.011  44.665  1.00  0.00    -0.350 OA
BRANCH   7   8
ATOM      8  C   UNL     1      36.936  11.087  43.751  1.00  0.00     0.160 C 
ATOM      9  C   UNL     1      38.205  11.910  43.901  1.00  0.00     0.035 C 
ENDBRANCH   7   8
ENDBRANCH   1   7
BRANCH   2  10
ATOM     10  O   UNL     1      38.957   9.671  46.650  1.00  0.00    -0.385 OA
ATOM     11  H   UNL     1      38.895   9.321  47.577  1.00  0.00     0.211 HD
ENDBRANCH   2  10
BRANCH   3  12
ATOM     12  O   UNL     1      40.093   7.037  46.769  1.00  0.00    -0.387 OA
ATOM     13  H   UNL     1      40.532   7.724  47.336  1.00  0.00     0.211 HD
ENDBRANCH   3  12
BRANCH   5  14
ATOM     14  C   UNL     1      38.480   6.343  42.133  1.00  0.00     0.191 C 
BRANCH  14  15
ATOM     15  O   UNL     1      37.091   6.153  42.115  1.00  0.00    -0.394 OA
ATOM     16  H   UNL     1      36.866   5.620  42.921  1.00  0.00     0.210 HD
ENDBRANCH  14  15
ENDBRANCH   5  14
BRANCH   4  17
ATOM     17  O   UNL     1      38.410   5.745  44.981  1.00  0.00    -0.387 OA
ATOM     18  H   UNL     1      38.873   5.081  45.557  1.00  0.00     0.211 HD
ENDBRANCH   4  17
TORSDOF 7
ENDMDL
MODEL 5
REMARK VINA RESULT:    -4.946      1.437      4.112
REMARK INTER + INTRA:          -6.559
REMARK INTER:                  -6.176
REMARK INTRA:                  -0.383
REMARK UNBOUND:                -0.167
REMARK SMILES CCO[C@@H]1O[C@H](CO)[C@H](O)[C@H](O)[C@H]1O
REMARK SMILES IDX 4 1 13 2 11 3 9 4 6 5 5 6 3 7 2 8 1 9 14 10 12 12 7 14 8 15
REMARK SMILES IDX 10 17
REMARK H PARENT 14 11 12 13 8 16 10 18
REMARK Flexibility Score: inf
ROOT
ATOM      1  C   UNL     1      38.226  10.665  43.638  1.00  0.00     0.281 C 
ATOM      2  C   UNL     1      36.839  10.984  44.236  1.00  0.00     0.202 C 
ATOM      3  C   UNL     1      36.581  10.113  45.482  1.00  0.00     0.179 C 
ATOM      4  C   UNL     1      36.847   8.629  45.154  1.00  0.00     0.177 C 
ATOM      5  C   UNL     1      38.244   8.499  44.506  1.00  0.00     0.178 C 
ATOM      6  O   UNL     1      38.313   9.283  43.325  1.00  0.00    -0.341 OA
ENDROOT
BRANCH   1   7
ATOM      7  O   UNL     1      38.380  11.420  42.451  1.00  0.00    -0.350 OA
BRANCH   7   8
ATOM      8  C   UNL     1      38.986  10.634  41.446  1.00  0.00     0.160 C 
ATOM      9  C   UNL     1      40.003  11.480  40.697  1.00  0.00     0.035 C 
ENDBRANCH   7   8
ENDBRANCH   1   7
BRANCH   2  10
ATOM     10  O   UNL     1      36.726  12.349  44.549  1.00  0.00    -0.385 OA
ATOM     11  H   UNL     1      37.628  12.676  44.809  1.00  0.00     0.211 HD
ENDBRANCH   2  10
BRANCH   3  12
ATOM     12  O   UNL     1      35.258  10.295  45.916  1.00  0.00    -0.387 OA
ATOM     13  H   UNL     1      35.255  10.134  46.895  1.00  0.00     0.211 HD
ENDBRANCH   3  12
BRANCH   5  14
ATOM     14  C   UNL     1      38.556   7.038  44.156  1.00  0.00     0.191 C 
BRANCH  14  15
ATOM     15  O   UNL     1      37.810   6.172  44.968  1.00  0.00    -0.394 OA
ATOM     16  H   UNL     1      38.452   5.522  45.357  1.00  0.00     0.210 HD
ENDBRANCH  14  15
ENDBRANCH   5  14
BRANCH   4  17
ATOM     17  O   UNL     1      35.866   8.144  44.271  1.00  0.00    -0.387 OA
ATOM     18  H   UNL     1      35.003   8.554  44.544  1.00  0.00     0.211 HD
ENDBRANCH   4  17
TORSDOF 7
ENDMDL
MODEL 6
REMARK VINA RESULT:    -4.884      1.773      3.996
REMARK INTER + INTRA:          -6.479
REMARK INTER:                  -6.239
REMARK INTRA:                  -0.240
REMARK UNBOUND:                -0.167
REMARK SMILES CCO[C@@H]1O[C@H](CO)[C@H](O)[C@H](O)[C@H]1O
REMARK SMILES IDX 4 1 13 2 11 3 9 4 6 5 5 6 3 7 2 8 1 9 14 10 12 12 7 14 8 15
REMARK SMILES IDX 10 17
REMARK H PARENT 14 11 12 13 8 16 10 18
REMARK Flexibility Score: inf
ROOT
ATOM      1  C   UNL     1      37.136  10.547  44.377  1.00  0.00     0.281 C 
ATOM      2  C   UNL     1      35.944   9.833  45.049  1.00  0.00     0.202 C 
ATOM      3  C   UNL     1      36.387   8.470  45.615  1.00  0.00     0.179 C 
ATOM      4  C   UNL     1      37.129   7.662  44.530  1.00  0.00     0.177 C 
ATOM      5  C   UNL     1      38.242   8.544  43.920  1.00  0.00     0.178 C 
ATOM      6  O   UNL     1      37.684   9.722  43.360  1.00  0.00    -0.341 OA
ENDROOT
BRANCH   1   7
ATOM      7  O   UNL     1      36.662  11.747  43.796  1.00  0.00    -0.350 OA
BRANCH   7   8
ATOM      8  C   UNL     1      37.063  12.858  44.572  1.00  0.00     0.160 C 
ATOM      9  C   UNL     1      38.579  12.963  44.547  1.00  0.00     0.035 C 
ENDBRANCH   7   8
ENDBRANCH   1   7
BRANCH   2  10
ATOM     10  O   UNL     1      35.379  10.633  46.057  1.00  0.00    -0.385 OA
ATOM     11  H   UNL     1      35.666  11.570  45.896  1.00  0.00     0.211 HD
ENDBRANCH   2  10
BRANCH   3  12
ATOM     12  O   UNL     1      35.263   7.764  46.075  1.00  0.00    -0.387 OA
ATOM     13  H   UNL     1      34.542   8.433  46.211  1.00  0.00     0.211 HD
ENDBRANCH   3  12
BRANCH   5  14
ATOM     14  C   UNL     1      39.011   7.786  42.829  1.00  0.00     0.191 C 
BRANCH  14  15
ATOM     15  O   UNL     1      38.325   7.859  41.608  1.00  0.00    -0.394 OA
ATOM     16  H   UNL     1      38.586   8.718  41.186  1.00  0.00     0.210 HD
ENDBRANCH  14  15
ENDBRANCH   5  14
BRANCH   4  17
ATOM     17  O   UNL     1      36.232   7.263  43.523  1.00  0.00    -0.387 OA
ATOM     18  H   UNL     1      36.118   6.280  43.610  1.00  0.00     0.211 HD
ENDBRANCH   4  17
TORSDOF 7
ENDMDL
MODEL 7
REMARK VINA RESULT:    -4.858     15.212     16.594
REMARK INTER + INTRA:          -6.445
REMARK INTER:                  -6.064
REMARK INTRA:                  -0.382
REMARK UNBOUND:                -0.167
REMARK SMILES CCO[C@@H]1O[C@H](CO)[C@H](O)[C@H](O)[C@H]1O
REMARK SMILES IDX 4 1 13 2 11 3 9 4 6 5 5 6 3 7 2 8 1 9 14 10 12 12 7 14 8 15
REMARK SMILES IDX 10 17
REMARK H PARENT 14 11 12 13 8 16 10 18
REMARK Flexibility Score: inf
ROOT
ATOM      1  C   UNL     1      23.703   5.393  37.995  1.00  0.00     0.281 C 
ATOM      2  C   UNL     1      22.635   5.944  38.964  1.00  0.00     0.202 C 
ATOM      3  C   UNL     1      21.222   5.597  38.457  1.00  0.00     0.179 C 
ATOM      4  C   UNL     1      21.071   6.019  36.980  1.00  0.00     0.177 C 
ATOM      5  C   UNL     1      22.252   5.440  36.168  1.00  0.00     0.178 C 
ATOM      6  O   UNL     1      23.484   5.909  36.690  1.00  0.00    -0.341 OA
ENDROOT
BRANCH   1   7
ATOM      7  O   UNL     1      24.974   5.813  38.453  1.00  0.00    -0.350 OA
BRANCH   7   8
ATOM      8  C   UNL     1      25.879   4.728  38.444  1.00  0.00     0.160 C 
ATOM      9  C   UNL     1      26.919   4.956  37.359  1.00  0.00     0.035 C 
ENDBRANCH   7   8
ENDBRANCH   1   7
BRANCH   2  10
ATOM     10  O   UNL     1      22.834   5.451  40.266  1.00  0.00    -0.385 OA
ATOM     11  H   UNL     1      22.033   4.919  40.514  1.00  0.00     0.211 HD
ENDBRANCH   2  10
BRANCH   3  12
ATOM     12  O   UNL     1      20.264   6.241  39.256  1.00  0.00    -0.387 OA
ATOM     13  H   UNL     1      19.929   7.015  38.733  1.00  0.00     0.211 HD
ENDBRANCH   3  12
BRANCH   5  14
ATOM     14  C   UNL     1      22.150   5.836  34.689  1.00  0.00     0.191 C 
BRANCH  14  15
ATOM     15  O   UNL     1      22.536   7.173  34.515  1.00  0.00    -0.394 OA
ATOM     16  H   UNL     1      21.722   7.670  34.239  1.00  0.00     0.210 HD
ENDBRANCH  14  15
ENDBRANCH   5  14
BRANCH   4  17
ATOM     17  O   UNL     1      21.064   7.422  36.876  1.00  0.00    -0.387 OA
ATOM     18  H   UNL     1      20.112   7.708  36.890  1.00  0.00     0.211 HD
ENDBRANCH   4  17
TORSDOF 7
ENDMDL
MODEL 8
REMARK VINA RESULT:    -4.857      1.728      4.953
REMARK INTER + INTRA:          -6.444
REMARK INTER:                  -6.196
REMARK INTRA:                  -0.248
REMARK UNBOUND:                -0.167
REMARK SMILES CCO[C@@H]1O[C@H](CO)[C@H](O)[C@H](O)[C@H]1O
REMARK SMILES IDX 4 1 13 2 11 3 9 4 6 5 5 6 3 7 2 8 1 9 14 10 12 12 7 14 8 15
REMARK SMILES IDX 10 17
REMARK H PARENT 14 11 12 13 8 16 10 18
REMARK Flexibility Score: inf
ROOT
ATOM      1  C   UNL     1      36.576  10.981  43.751  1.00  0.00     0.281 C 
ATOM      2  C   UNL     1      37.878  10.252  43.353  1.00  0.00     0.202 C 
ATOM      3  C   UNL     1      37.738   8.736  43.595  1.00  0.00     0.179 C 
ATOM      4  C   UNL     1      37.232   8.474  45.029  1.00  0.00     0.177 C 
ATOM      5  C   UNL     1      35.968   9.327  45.280  1.00  0.00     0.178 C 
ATOM      6  O   UNL     1      36.261  10.704  45.108  1.00  0.00    -0.341 OA
ENDROOT
BRANCH   1   7
ATOM      7  O   UNL     1      36.784  12.372  43.597  1.00  0.00    -0.350 OA
BRANCH   7   8
ATOM      8  C   UNL     1      36.946  12.984  44.860  1.00  0.00     0.160 C 
ATOM      9  C   UNL     1      38.307  13.661  44.915  1.00  0.00     0.035 C 
ENDBRANCH   7   8
ENDBRANCH   1   7
BRANCH   2  10
ATOM     10  O   UNL     1      38.214  10.516  42.014  1.00  0.00    -0.385 OA
ATOM     11  H   UNL     1      39.193  10.680  41.974  1.00  0.00     0.211 HD
ENDBRANCH   2  10
BRANCH   3  12
ATOM     12  O   UNL     1      38.977   8.111  43.385  1.00  0.00    -0.387 OA
ATOM     13  H   UNL     1      38.855   7.152  43.611  1.00  0.00     0.211 HD
ENDBRANCH   3  12
BRANCH   5  14
ATOM     14  C   UNL     1      35.426   9.104  46.698  1.00  0.00     0.191 C 
BRANCH  14  15
ATOM     15  O   UNL     1      35.044   7.766  46.870  1.00  0.00    -0.394 OA
ATOM     16  H   UNL     1      35.024   7.599  47.849  1.00  0.00     0.210 HD
ENDBRANCH  14  15
ENDBRANCH   5  14
BRANCH   4  17
ATOM     17  O   UNL     1      38.227   8.810  45.964  1.00  0.00    -0.387 OA
ATOM     18  H   UNL     1      37.947   9.663  46.390  1.00  0.00     0.211 HD
ENDBRANCH   4  17
TORSDOF 7
ENDMDL
MODEL 9
REMARK VINA RESULT:    -4.768     14.671     16.659
REMARK INTER + INTRA:          -6.328
REMARK INTER:                  -5.888
REMARK INTRA:                  -0.440
REMARK UNBOUND:                -0.167
REMARK SMILES CCO[C@@H]1O[C@H](CO)[C@H](O)[C@H](O)[C@H]1O
REMARK SMILES IDX 4 1 13 2 11 3 9 4 6 5 5 6 3 7 2 8 1 9 14 10 12 12 7 14 8 15
REMARK SMILES IDX 10 17
REMARK H PARENT 14 11 12 13 8 16 10 18
REMARK Flexibility Score: inf
ROOT
ATOM      1  C   UNL     1      22.642   4.702  38.953  1.00  0.00     0.281 C 
ATOM      2  C   UNL     1      23.190   6.044  39.484  1.00  0.00     0.202 C 
ATOM      3  C   UNL     1      23.988   5.820  40.783  1.00  0.00     0.179 C 
ATOM      4  C   UNL     1      23.150   4.993  41.782  1.00  0.00     0.177 C 
ATOM      5  C   UNL     1      22.628   3.724  41.071  1.00  0.00     0.178 C 
ATOM      6  O   UNL     1      21.841   4.079  39.946  1.00  0.00    -0.341 OA
ENDROOT
BRANCH   1   7
ATOM      7  O   UNL     1      21.845   4.970  37.814  1.00  0.00    -0.350 OA
BRANCH   7   8
ATOM      8  C   UNL     1      20.618   5.552  38.202  1.00  0.00     0.160 C 
ATOM      9  C   UNL     1      20.014   6.282  37.013  1.00  0.00     0.035 C 
ENDBRANCH   7   8
ENDBRANCH   1   7
BRANCH   2  10
ATOM     10  O   UNL     1      23.983   6.684  38.515  1.00  0.00    -0.385 OA
ATOM     11  H   UNL     1      24.934   6.560  38.772  1.00  0.00     0.211 HD
ENDBRANCH   2  10
BRANCH   3  12
ATOM     12  O   UNL     1      24.339   7.060  41.340  1.00  0.00    -0.387 OA
ATOM     13  H   UNL     1      23.750   7.197  42.127  1.00  0.00     0.211 HD
ENDBRANCH   3  12
BRANCH   5  14
ATOM     14  C   UNL     1      21.783   2.867  42.023  1.00  0.00     0.191 C 
BRANCH  14  15
ATOM     15  O   UNL     1      22.157   3.103  43.354  1.00  0.00    -0.394 OA
ATOM     16  H   UNL     1      21.435   2.730  43.923  1.00  0.00     0.210 HD
ENDBRANCH  14  15
ENDBRANCH   5  14
BRANCH   4  17
ATOM     17  O   UNL     1      22.066   5.755  42.253  1.00  0.00    -0.387 OA
ATOM     18  H   UNL     1      21.719   5.295  43.062  1.00  0.00     0.211 HD
ENDBRANCH   4  17
TORSDOF 7
ENDMDL
