MODEL 1
REMARK VINA RESULT:    -6.822      0.000      0.000
REMARK INTER + INTRA:          -8.541
REMARK INTER:                  -8.218
REMARK INTRA:                  -0.323
REMARK UNBOUND:                -0.323
REMARK SMILES O=c1c(O)c(-c2ccc(O)c(O)c2)oc2cc(O)cc(O)c12
REMARK SMILES IDX 5 1 3 2 2 3 1 4 22 5 20 6 19 7 17 8 16 9 15 10 14 11 6 12
REMARK SMILES IDX 7 13 8 14 9 15 13 16 11 17 10 18 12 20 4 22 21 24 18 26
REMARK H PARENT 10 19 12 21 4 23 21 25 18 27
REMARK Flexibility Score: inf
ROOT
ATOM      1  C   UNL     1     129.613 131.749 113.830  1.00  0.00     0.180 A 
ATOM      2  C   UNL     1     130.401 130.661 113.417  1.00  0.00     0.208 A 
ATOM      3  C   UNL     1     130.253 130.170 112.111  1.00  0.00     0.238 A 
ATOM      4  O   UNL     1     130.999 129.231 111.729  1.00  0.00    -0.285 OA
ATOM      5  C   UNL     1     129.308 130.761 111.239  1.00  0.00     0.111 A 
ATOM      6  C   UNL     1     129.046 130.319 109.906  1.00  0.00     0.134 A 
ATOM      7  C   UNL     1     128.183 131.060 109.089  1.00  0.00     0.093 A 
ATOM      8  C   UNL     1     127.524 132.189 109.575  1.00  0.00     0.123 A 
ATOM      9  C   UNL     1     127.727 132.596 110.895  1.00  0.00     0.094 A 
ATOM     10  C   UNL     1     128.610 131.898 111.723  1.00  0.00     0.146 A 
ATOM     11  O   UNL     1     128.782 132.324 112.968  1.00  0.00    -0.452 OA
ENDROOT
BRANCH   1  12
ATOM     12  C   UNL     1     129.694 132.307 115.200  1.00  0.00     0.025 A 
ATOM     13  C   UNL     1     130.622 133.309 115.528  1.00  0.00     0.016 A 
ATOM     14  C   UNL     1     130.696 133.804 116.833  1.00  0.00     0.051 A 
ATOM     15  C   UNL     1     129.855 133.295 117.831  1.00  0.00     0.157 A 
ATOM     16  C   UNL     1     128.867 131.785 116.208  1.00  0.00     0.062 A 
ATOM     17  C   UNL     1     128.938 132.279 117.516  1.00  0.00     0.158 A 
BRANCH  15  18
ATOM     18  O   UNL     1     129.931 133.792 119.131  1.00  0.00    -0.504 OA
ATOM     19  H   UNL     1     129.733 133.209 119.935  1.00  0.00     0.293 HD
ENDBRANCH  15  18
BRANCH  17  20
ATOM     20  O   UNL     1     128.092 131.746 118.488  1.00  0.00    -0.504 OA
ATOM     21  H   UNL     1     127.920 130.750 118.565  1.00  0.00     0.293 HD
ENDBRANCH  17  20
ENDBRANCH   1  12
BRANCH   2  22
ATOM     22  O   UNL     1     131.343 130.106 114.288  1.00  0.00    -0.502 OA
ATOM     23  H   UNL     1     132.022 130.671 114.785  1.00  0.00     0.293 HD
ENDBRANCH   2  22
BRANCH   6  24
ATOM     24  O   UNL     1     129.581 129.153 109.352  1.00  0.00    -0.507 OA
ATOM     25  H   UNL     1     129.129 128.594 108.643  1.00  0.00     0.293 HD
ENDBRANCH   6  24
BRANCH   8  26
ATOM     26  O   UNL     1     126.661 132.893 108.739  1.00  0.00    -0.508 OA
ATOM     27  H   UNL     1     126.839 132.981 107.746  1.00  0.00     0.293 HD
ENDBRANCH   8  26
TORSDOF 6
ENDMDL
MODEL 2
REMARK VINA RESULT:    -6.467      2.697      4.250
REMARK INTER + INTRA:          -8.113
REMARK INTER:                  -7.897
REMARK INTRA:                  -0.216
REMARK UNBOUND:                -0.323
REMARK SMILES O=c1c(O)c(-c2ccc(O)c(O)c2)oc2cc(O)cc(O)c12
REMARK SMILES IDX 5 1 3 2 2 3 1 4 22 5 20 6 19 7 17 8 16 9 15 10 14 11 6 12
REMARK SMILES IDX 7 13 8 14 9 15 13 16 11 17 10 18 12 20 4 22 21 24 18 26
REMARK H PARENT 10 19 12 21 4 23 21 25 18 27
REMARK Flexibility Score: inf
ROOT
ATOM      1  C   UNL     1     129.749 131.730 116.227  1.00  0.00     0.180 A 
ATOM      2  C   UNL     1     129.774 132.421 115.004  1.00  0.00     0.208 A 
ATOM      3  C   UNL     1     130.213 131.750 113.852  1.00  0.00     0.238 A 
ATOM      4  O   UNL     1     130.182 132.358 112.750  1.00  0.00    -0.285 OA
ATOM      5  C   UNL     1     130.636 130.403 113.939  1.00  0.00     0.111 A 
ATOM      6  C   UNL     1     131.137 129.637 112.843  1.00  0.00     0.134 A 
ATOM      7  C   UNL     1     131.403 128.274 113.017  1.00  0.00     0.093 A 
ATOM      8  C   UNL     1     131.249 127.663 114.261  1.00  0.00     0.123 A 
ATOM      9  C   UNL     1     130.816 128.415 115.354  1.00  0.00     0.094 A 
ATOM     10  C   UNL     1     130.508 129.770 115.203  1.00  0.00     0.146 A 
ATOM     11  O   UNL     1     130.090 130.447 116.265  1.00  0.00    -0.452 OA
ENDROOT
BRANCH   1  12
ATOM     12  C   UNL     1     129.323 132.377 117.490  1.00  0.00     0.025 A 
ATOM     13  C   UNL     1     130.080 133.406 118.076  1.00  0.00     0.016 A 
ATOM     14  C   UNL     1     129.671 133.986 119.280  1.00  0.00     0.051 A 
ATOM     15  C   UNL     1     128.510 133.537 119.923  1.00  0.00     0.157 A 
ATOM     16  C   UNL     1     128.172 131.915 118.149  1.00  0.00     0.062 A 
ATOM     17  C   UNL     1     127.759 132.495 119.355  1.00  0.00     0.158 A 
BRANCH  15  18
ATOM     18  O   UNL     1     128.105 134.118 121.123  1.00  0.00    -0.504 OA
ATOM     19  H   UNL     1     128.079 135.124 121.244  1.00  0.00     0.293 HD
ENDBRANCH  15  18
BRANCH  17  20
ATOM     20  O   UNL     1     126.602 132.020 119.973  1.00  0.00    -0.504 OA
ATOM     21  H   UNL     1     125.921 131.455 119.478  1.00  0.00     0.293 HD
ENDBRANCH  17  20
ENDBRANCH   1  12
BRANCH   2  22
ATOM     22  O   UNL     1     129.332 133.745 114.936  1.00  0.00    -0.502 OA
ATOM     23  H   UNL     1     128.934 134.227 115.734  1.00  0.00     0.293 HD
ENDBRANCH   2  22
BRANCH   6  24
ATOM     24  O   UNL     1     131.415 130.170 111.581  1.00  0.00    -0.507 OA
ATOM     25  H   UNL     1     132.342 130.296 111.202  1.00  0.00     0.293 HD
ENDBRANCH   6  24
BRANCH   8  26
ATOM     26  O   UNL     1     131.538 126.307 114.402  1.00  0.00    -0.508 OA
ATOM     27  H   UNL     1     131.165 125.617 113.762  1.00  0.00     0.293 HD
ENDBRANCH   8  26
TORSDOF 6
ENDMDL
MODEL 3
REMARK VINA RESULT:    -6.416      1.310      1.647
REMARK INTER + INTRA:          -8.052
REMARK INTER:                  -7.827
REMARK INTRA:                  -0.225
REMARK UNBOUND:                -0.323
REMARK SMILES O=c1c(O)c(-c2ccc(O)c(O)c2)oc2cc(O)cc(O)c12
REMARK SMILES IDX 5 1 3 2 2 3 1 4 22 5 20 6 19 7 17 8 16 9 15 10 14 11 6 12
REMARK SMILES IDX 7 13 8 14 9 15 13 16 11 17 10 18 12 20 4 22 21 24 18 26
REMARK H PARENT 10 19 12 21 4 23 21 25 18 27
REMARK Flexibility Score: inf
ROOT
ATOM      1  C   UNL     1     130.001 131.224 115.104  1.00  0.00     0.180 A 
ATOM      2  C   UNL     1     130.763 130.049 114.982  1.00  0.00     0.208 A 
ATOM      3  C   UNL     1     130.876 129.438 113.723  1.00  0.00     0.238 A 
ATOM      4  O   UNL     1     131.604 128.418 113.609  1.00  0.00    -0.285 OA
ATOM      5  C   UNL     1     130.212 129.999 112.606  1.00  0.00     0.111 A 
ATOM      6  C   UNL     1     130.225 129.441 111.291  1.00  0.00     0.134 A 
ATOM      7  C   UNL     1     129.643 130.150 110.234  1.00  0.00     0.093 A 
ATOM      8  C   UNL     1     128.992 131.365 110.454  1.00  0.00     0.123 A 
ATOM      9  C   UNL     1     128.921 131.890 111.745  1.00  0.00     0.094 A 
ATOM     10  C   UNL     1     129.525 131.223 112.814  1.00  0.00     0.146 A 
ATOM     11  O   UNL     1     129.444 131.762 114.025  1.00  0.00    -0.452 OA
ENDROOT
BRANCH   1  12
ATOM     12  C   UNL     1     129.814 131.912 116.402  1.00  0.00     0.025 A 
ATOM     13  C   UNL     1     130.453 133.131 116.682  1.00  0.00     0.016 A 
ATOM     14  C   UNL     1     130.280 133.751 117.923  1.00  0.00     0.051 A 
ATOM     15  C   UNL     1     129.480 133.154 118.906  1.00  0.00     0.157 A 
ATOM     16  C   UNL     1     129.029 131.307 117.398  1.00  0.00     0.062 A 
ATOM     17  C   UNL     1     128.854 131.925 118.642  1.00  0.00     0.158 A 
BRANCH  15  18
ATOM     18  O   UNL     1     129.309 133.776 120.142  1.00  0.00    -0.504 OA
ATOM     19  H   UNL     1     129.907 134.537 120.441  1.00  0.00     0.293 HD
ENDBRANCH  15  18
BRANCH  17  20
ATOM     20  O   UNL     1     128.056 131.302 119.601  1.00  0.00    -0.504 OA
ATOM     21  H   UNL     1     128.027 130.294 119.704  1.00  0.00     0.293 HD
ENDBRANCH  17  20
ENDBRANCH   1  12
BRANCH   2  22
ATOM     22  O   UNL     1     131.427 129.525 116.094  1.00  0.00    -0.502 OA
ATOM     23  H   UNL     1     131.267 129.867 117.034  1.00  0.00     0.293 HD
ENDBRANCH   2  22
BRANCH   6  24
ATOM     24  O   UNL     1     130.768 128.192 110.979  1.00  0.00    -0.507 OA
ATOM     25  H   UNL     1     131.180 127.950 110.089  1.00  0.00     0.293 HD
ENDBRANCH   6  24
BRANCH   8  26
ATOM     26  O   UNL     1     128.409 132.036 109.381  1.00  0.00    -0.508 OA
ATOM     27  H   UNL     1     128.679 131.841 108.424  1.00  0.00     0.293 HD
ENDBRANCH   8  26
TORSDOF 6
ENDMDL
MODEL 4
REMARK VINA RESULT:    -6.360      2.002      3.751
REMARK INTER + INTRA:          -7.984
REMARK INTER:                  -7.703
REMARK INTRA:                  -0.281
REMARK UNBOUND:                -0.323
REMARK SMILES O=c1c(O)c(-c2ccc(O)c(O)c2)oc2cc(O)cc(O)c12
REMARK SMILES IDX 5 1 3 2 2 3 1 4 22 5 20 6 19 7 17 8 16 9 15 10 14 11 6 12
REMARK SMILES IDX 7 13 8 14 9 15 13 16 11 17 10 18 12 20 4 22 21 24 18 26
REMARK H PARENT 10 19 12 21 4 23 21 25 18 27
REMARK Flexibility Score: inf
ROOT
ATOM      1  C   UNL     1     129.102 131.264 111.737  1.00  0.00     0.180 A 
ATOM      2  C   UNL     1     128.102 131.741 110.871  1.00  0.00     0.208 A 
ATOM      3  C   UNL     1     127.745 130.970 109.754  1.00  0.00     0.238 A 
ATOM      4  O   UNL     1     126.812 131.376 109.012  1.00  0.00    -0.285 OA
ATOM      5  C   UNL     1     128.401 129.740 109.507  1.00  0.00     0.111 A 
ATOM      6  C   UNL     1     128.146 128.897 108.383  1.00  0.00     0.134 A 
ATOM      7  C   UNL     1     128.761 127.641 108.308  1.00  0.00     0.093 A 
ATOM      8  C   UNL     1     129.669 127.225 109.282  1.00  0.00     0.123 A 
ATOM      9  C   UNL     1     129.970 128.066 110.354  1.00  0.00     0.094 A 
ATOM     10  C   UNL     1     129.345 129.310 110.475  1.00  0.00     0.146 A 
ATOM     11  O   UNL     1     129.652 130.076 111.514  1.00  0.00    -0.452 OA
ENDROOT
BRANCH   1  12
ATOM     12  C   UNL     1     129.551 132.031 112.921  1.00  0.00     0.025 A 
ATOM     13  C   UNL     1     130.766 132.737 112.917  1.00  0.00     0.016 A 
ATOM     14  C   UNL     1     131.181 133.435 114.055  1.00  0.00     0.051 A 
ATOM     15  C   UNL     1     130.396 133.426 115.216  1.00  0.00     0.157 A 
ATOM     16  C   UNL     1     128.778 132.007 114.094  1.00  0.00     0.062 A 
ATOM     17  C   UNL     1     129.191 132.706 115.235  1.00  0.00     0.158 A 
BRANCH  15  18
ATOM     18  O   UNL     1     130.813 134.125 116.348  1.00  0.00    -0.504 OA
ATOM     19  H   UNL     1     130.284 134.907 116.714  1.00  0.00     0.293 HD
ENDBRANCH  15  18
BRANCH  17  20
ATOM     20  O   UNL     1     128.390 132.671 116.376  1.00  0.00    -0.504 OA
ATOM     21  H   UNL     1     128.671 133.112 117.244  1.00  0.00     0.293 HD
ENDBRANCH  17  20
ENDBRANCH   1  12
BRANCH   2  22
ATOM     22  O   UNL     1     127.453 132.947 111.145  1.00  0.00    -0.502 OA
ATOM     23  H   UNL     1     126.455 133.001 111.315  1.00  0.00     0.293 HD
ENDBRANCH   2  22
BRANCH   6  24
ATOM     24  O   UNL     1     127.327 129.255 107.308  1.00  0.00    -0.507 OA
ATOM     25  H   UNL     1     126.464 129.772 107.391  1.00  0.00     0.293 HD
ENDBRANCH   6  24
BRANCH   8  26
ATOM     26  O   UNL     1     130.274 125.975 109.168  1.00  0.00    -0.508 OA
ATOM     27  H   UNL     1     129.922 125.272 108.529  1.00  0.00     0.293 HD
ENDBRANCH   8  26
TORSDOF 6
ENDMDL
MODEL 5
REMARK VINA RESULT:    -5.321      1.467      1.812
REMARK INTER + INTRA:          -6.733
REMARK INTER:                  -6.441
REMARK INTRA:                  -0.292
REMARK UNBOUND:                -0.323
REMARK SMILES O=c1c(O)c(-c2ccc(O)c(O)c2)oc2cc(O)cc(O)c12
REMARK SMILES IDX 5 1 3 2 2 3 1 4 22 5 20 6 19 7 17 8 16 9 15 10 14 11 6 12
REMARK SMILES IDX 7 13 8 14 9 15 13 16 11 17 10 18 12 20 4 22 21 24 18 26
REMARK H PARENT 10 19 12 21 4 23 21 25 18 27
REMARK Flexibility Score: inf
ROOT
ATOM      1  C   UNL     1     129.832 130.955 112.501  1.00  0.00     0.180 A 
ATOM      2  C   UNL     1     130.669 129.886 112.135  1.00  0.00     0.208 A 
ATOM      3  C   UNL     1     130.356 129.138 110.990  1.00  0.00     0.238 A 
ATOM      4  O   UNL     1     131.138 128.217 110.637  1.00  0.00    -0.285 OA
ATOM      5  C   UNL     1     129.203 129.456 110.234  1.00  0.00     0.111 A 
ATOM      6  C   UNL     1     128.768 128.739 109.078  1.00  0.00     0.134 A 
ATOM      7  C   UNL     1     127.686 129.222 108.332  1.00  0.00     0.093 A 
ATOM      8  C   UNL     1     126.983 130.357 108.735  1.00  0.00     0.123 A 
ATOM      9  C   UNL     1     127.362 131.031 109.896  1.00  0.00     0.094 A 
ATOM     10  C   UNL     1     128.461 130.595 110.641  1.00  0.00     0.146 A 
ATOM     11  O   UNL     1     128.795 131.270 111.734  1.00  0.00    -0.452 OA
ENDROOT
BRANCH   1  12
ATOM     12  C   UNL     1     130.082 131.775 113.709  1.00  0.00     0.025 A 
ATOM     13  C   UNL     1     130.727 133.021 113.627  1.00  0.00     0.016 A 
ATOM     14  C   UNL     1     130.973 133.766 114.783  1.00  0.00     0.051 A 
ATOM     15  C   UNL     1     130.592 133.272 116.038  1.00  0.00     0.157 A 
ATOM     16  C   UNL     1     129.721 131.274 114.971  1.00  0.00     0.062 A 
ATOM     17  C   UNL     1     129.965 132.019 116.131  1.00  0.00     0.158 A 
BRANCH  15  18
ATOM     18  O   UNL     1     130.838 134.020 117.189  1.00  0.00    -0.504 OA
ATOM     19  H   UNL     1     130.811 133.600 118.110  1.00  0.00     0.293 HD
ENDBRANCH  15  18
BRANCH  17  20
ATOM     20  O   UNL     1     129.580 131.496 117.364  1.00  0.00    -0.504 OA
ATOM     21  H   UNL     1     129.443 132.083 118.179  1.00  0.00     0.293 HD
ENDBRANCH  17  20
ENDBRANCH   1  12
BRANCH   2  22
ATOM     22  O   UNL     1     131.814 129.603 112.885  1.00  0.00    -0.502 OA
ATOM     23  H   UNL     1     132.750 129.730 112.516  1.00  0.00     0.293 HD
ENDBRANCH   2  22
BRANCH   6  24
ATOM     24  O   UNL     1     129.343 127.543 108.639  1.00  0.00    -0.507 OA
ATOM     25  H   UNL     1     128.902 126.893 108.005  1.00  0.00     0.293 HD
ENDBRANCH   6  24
BRANCH   8  26
ATOM     26  O   UNL     1     125.901 130.801 107.977  1.00  0.00    -0.508 OA
ATOM     27  H   UNL     1     124.982 130.922 108.386  1.00  0.00     0.293 HD
ENDBRANCH   8  26
TORSDOF 6
ENDMDL
MODEL 6
REMARK VINA RESULT:    -5.166      2.276      7.566
REMARK INTER + INTRA:          -6.546
REMARK INTER:                  -6.713
REMARK INTRA:                   0.167
REMARK UNBOUND:                -0.323
REMARK SMILES O=c1c(O)c(-c2ccc(O)c(O)c2)oc2cc(O)cc(O)c12
REMARK SMILES IDX 5 1 3 2 2 3 1 4 22 5 20 6 19 7 17 8 16 9 15 10 14 11 6 12
REMARK SMILES IDX 7 13 8 14 9 15 13 16 11 17 10 18 12 20 4 22 21 24 18 26
REMARK H PARENT 10 19 12 21 4 23 21 25 18 27
REMARK Flexibility Score: inf
ROOT
ATOM      1  C   UNL     1     129.700 129.896 111.824  1.00  0.00     0.180 A 
ATOM      2  C   UNL     1     129.697 131.286 112.033  1.00  0.00     0.208 A 
ATOM      3  C   UNL     1     130.003 131.783 113.309  1.00  0.00     0.238 A 
ATOM      4  O   UNL     1     130.052 133.029 113.478  1.00  0.00    -0.285 OA
ATOM      5  C   UNL     1     130.293 130.885 114.364  1.00  0.00     0.111 A 
ATOM      6  C   UNL     1     130.578 131.277 115.708  1.00  0.00     0.134 A 
ATOM      7  C   UNL     1     130.979 130.311 116.639  1.00  0.00     0.093 A 
ATOM      8  C   UNL     1     131.042 128.961 116.294  1.00  0.00     0.123 A 
ATOM      9  C   UNL     1     130.708 128.560 115.000  1.00  0.00     0.094 A 
ATOM     10  C   UNL     1     130.340 129.505 114.038  1.00  0.00     0.146 A 
ATOM     11  O   UNL     1     130.040 129.082 112.816  1.00  0.00    -0.452 OA
ENDROOT
BRANCH   1  12
ATOM     12  C   UNL     1     129.363 129.296 110.513  1.00  0.00     0.025 A 
ATOM     13  C   UNL     1     128.381 129.860 109.680  1.00  0.00     0.016 A 
ATOM     14  C   UNL     1     128.063 129.262 108.457  1.00  0.00     0.051 A 
ATOM     15  C   UNL     1     128.710 128.086 108.056  1.00  0.00     0.157 A 
ATOM     16  C   UNL     1     129.993 128.105 110.115  1.00  0.00     0.062 A 
ATOM     17  C   UNL     1     129.677 127.504 108.891  1.00  0.00     0.158 A 
BRANCH  15  18
ATOM     18  O   UNL     1     128.390 127.494 106.835  1.00  0.00    -0.504 OA
ATOM     19  H   UNL     1     127.987 126.566 106.784  1.00  0.00     0.293 HD
ENDBRANCH  15  18
BRANCH  17  20
ATOM     20  O   UNL     1     130.334 126.330 108.524  1.00  0.00    -0.504 OA
ATOM     21  H   UNL     1     131.328 126.309 108.324  1.00  0.00     0.293 HD
ENDBRANCH  17  20
ENDBRANCH   1  12
BRANCH   2  22
ATOM     22  O   UNL     1     129.429 132.156 110.972  1.00  0.00    -0.502 OA
ATOM     23  H   UNL     1     128.495 132.289 110.601  1.00  0.00     0.293 HD
ENDBRANCH   2  22
BRANCH   6  24
ATOM     24  O   UNL     1     130.456 132.586 116.181  1.00  0.00    -0.507 OA
ATOM     25  H   UNL     1     131.215 133.132 116.564  1.00  0.00     0.293 HD
ENDBRANCH   6  24
BRANCH   8  26
ATOM     26  O   UNL     1     131.430 128.025 117.250  1.00  0.00    -0.508 OA
ATOM     27  H   UNL     1     130.789 127.318 117.590  1.00  0.00     0.293 HD
ENDBRANCH   8  26
TORSDOF 6
ENDMDL
MODEL 7
REMARK VINA RESULT:    -4.563      2.037      2.670
REMARK INTER + INTRA:          -5.820
REMARK INTER:                  -6.000
REMARK INTRA:                   0.180
REMARK UNBOUND:                -0.323
REMARK SMILES O=c1c(O)c(-c2ccc(O)c(O)c2)oc2cc(O)cc(O)c12
REMARK SMILES IDX 5 1 3 2 2 3 1 4 22 5 20 6 19 7 17 8 16 9 15 10 14 11 6 12
REMARK SMILES IDX 7 13 8 14 9 15 13 16 11 17 10 18 12 20 4 22 21 24 18 26
REMARK H PARENT 10 19 12 21 4 23 21 25 18 27
REMARK Flexibility Score: inf
ROOT
ATOM      1  C   UNL     1     130.124 129.942 113.332  1.00  0.00     0.180 A 
ATOM      2  C   UNL     1     130.527 128.633 113.644  1.00  0.00     0.208 A 
ATOM      3  C   UNL     1     130.399 127.631 112.669  1.00  0.00     0.238 A 
ATOM      4  O   UNL     1     130.811 126.472 112.935  1.00  0.00    -0.285 OA
ATOM      5  C   UNL     1     129.854 127.946 111.402  1.00  0.00     0.111 A 
ATOM      6  C   UNL     1     129.641 127.001 110.353  1.00  0.00     0.134 A 
ATOM      7  C   UNL     1     129.217 127.449 109.095  1.00  0.00     0.093 A 
ATOM      8  C   UNL     1     128.937 128.796 108.867  1.00  0.00     0.123 A 
ATOM      9  C   UNL     1     129.085 129.720 109.902  1.00  0.00     0.094 A 
ATOM     10  C   UNL     1     129.541 129.309 111.158  1.00  0.00     0.146 A 
ATOM     11  O   UNL     1     129.677 130.221 112.113  1.00  0.00    -0.452 OA
ENDROOT
BRANCH   1  12
ATOM     12  C   UNL     1     130.204 131.048 114.315  1.00  0.00     0.025 A 
ATOM     13  C   UNL     1     130.647 132.328 113.941  1.00  0.00     0.016 A 
ATOM     14  C   UNL     1     130.738 133.349 114.891  1.00  0.00     0.051 A 
ATOM     15  C   UNL     1     130.401 133.103 116.229  1.00  0.00     0.157 A 
ATOM     16  C   UNL     1     129.888 130.800 115.661  1.00  0.00     0.062 A 
ATOM     17  C   UNL     1     129.977 131.821 116.614  1.00  0.00     0.158 A 
BRANCH  15  18
ATOM     18  O   UNL     1     130.491 134.125 117.173  1.00  0.00    -0.504 OA
ATOM     19  H   UNL     1     130.186 135.068 116.965  1.00  0.00     0.293 HD
ENDBRANCH  15  18
BRANCH  17  20
ATOM     20  O   UNL     1     129.641 131.541 117.939  1.00  0.00    -0.504 OA
ATOM     21  H   UNL     1     129.206 130.667 118.211  1.00  0.00     0.293 HD
ENDBRANCH  17  20
ENDBRANCH   1  12
BRANCH   2  22
ATOM     22  O   UNL     1     131.082 128.348 114.894  1.00  0.00    -0.502 OA
ATOM     23  H   UNL     1     132.028 128.000 115.003  1.00  0.00     0.293 HD
ENDBRANCH   2  22
BRANCH   6  24
ATOM     24  O   UNL     1     129.802 125.621 110.501  1.00  0.00    -0.507 OA
ATOM     25  H   UNL     1     130.115 124.997 109.771  1.00  0.00     0.293 HD
ENDBRANCH   6  24
BRANCH   8  26
ATOM     26  O   UNL     1     128.503 129.204 107.608  1.00  0.00    -0.508 OA
ATOM     27  H   UNL     1     128.242 130.165 107.423  1.00  0.00     0.293 HD
ENDBRANCH   8  26
TORSDOF 6
ENDMDL
MODEL 8
REMARK VINA RESULT:    -4.451      2.670      3.765
REMARK INTER + INTRA:          -5.685
REMARK INTER:                  -5.550
REMARK INTRA:                  -0.135
REMARK UNBOUND:                -0.323
REMARK SMILES O=c1c(O)c(-c2ccc(O)c(O)c2)oc2cc(O)cc(O)c12
REMARK SMILES IDX 5 1 3 2 2 3 1 4 22 5 20 6 19 7 17 8 16 9 15 10 14 11 6 12
REMARK SMILES IDX 7 13 8 14 9 15 13 16 11 17 10 18 12 20 4 22 21 24 18 26
REMARK H PARENT 10 19 12 21 4 23 21 25 18 27
REMARK Flexibility Score: inf
ROOT
ATOM      1  C   UNL     1     129.874 130.560 116.565  1.00  0.00     0.180 A 
ATOM      2  C   UNL     1     130.324 129.278 116.926  1.00  0.00     0.208 A 
ATOM      3  C   UNL     1     130.816 128.424 115.927  1.00  0.00     0.238 A 
ATOM      4  O   UNL     1     131.267 127.298 116.262  1.00  0.00    -0.285 OA
ATOM      5  C   UNL     1     130.837 128.854 114.579  1.00  0.00     0.111 A 
ATOM      6  C   UNL     1     131.278 128.056 113.479  1.00  0.00     0.134 A 
ATOM      7  C   UNL     1     131.378 128.630 112.206  1.00  0.00     0.093 A 
ATOM      8  C   UNL     1     130.994 129.951 111.979  1.00  0.00     0.123 A 
ATOM      9  C   UNL     1     130.506 130.722 113.035  1.00  0.00     0.094 A 
ATOM     10  C   UNL     1     130.428 130.189 114.324  1.00  0.00     0.146 A 
ATOM     11  O   UNL     1     129.968 130.959 115.302  1.00  0.00    -0.452 OA
ENDROOT
BRANCH   1  12
ATOM     12  C   UNL     1     129.319 131.509 117.558  1.00  0.00     0.025 A 
ATOM     13  C   UNL     1     129.959 132.726 117.845  1.00  0.00     0.016 A 
ATOM     14  C   UNL     1     129.429 133.595 118.802  1.00  0.00     0.051 A 
ATOM     15  C   UNL     1     128.260 133.255 119.496  1.00  0.00     0.157 A 
ATOM     16  C   UNL     1     128.159 131.162 118.271  1.00  0.00     0.062 A 
ATOM     17  C   UNL     1     127.625 132.031 119.230  1.00  0.00     0.158 A 
BRANCH  15  18
ATOM     18  O   UNL     1     127.734 134.125 120.450  1.00  0.00    -0.504 OA
ATOM     19  H   UNL     1     126.870 133.920 120.936  1.00  0.00     0.293 HD
ENDBRANCH  15  18
BRANCH  17  20
ATOM     20  O   UNL     1     126.464 131.659 119.908  1.00  0.00    -0.504 OA
ATOM     21  H   UNL     1     125.543 131.779 119.504  1.00  0.00     0.293 HD
ENDBRANCH  17  20
ENDBRANCH   1  12
BRANCH   2  22
ATOM     22  O   UNL     1     130.314 128.881 118.266  1.00  0.00    -0.502 OA
ATOM     23  H   UNL     1     130.003 127.962 118.558  1.00  0.00     0.293 HD
ENDBRANCH   2  22
BRANCH   6  24
ATOM     24  O   UNL     1     131.598 126.700 113.579  1.00  0.00    -0.507 OA
ATOM     25  H   UNL     1     130.996 125.944 113.286  1.00  0.00     0.293 HD
ENDBRANCH   6  24
BRANCH   8  26
ATOM     26  O   UNL     1     131.092 130.485 110.696  1.00  0.00    -0.508 OA
ATOM     27  H   UNL     1     130.515 130.147 109.936  1.00  0.00     0.293 HD
ENDBRANCH   8  26
TORSDOF 6
ENDMDL
