MODEL 1
REMARK VINA RESULT:    -2.879      0.000      0.000
REMARK INTER + INTRA:          -3.491
REMARK INTER:                  -4.056
REMARK INTRA:                   0.565
REMARK UNBOUND:                 0.565
REMARK SMILES CC1=CCC(=C(C)C)C(=O)CC(C)=CCC1
REMARK SMILES IDX 12 1 14 2 13 3 15 4 16 5 2 6 1 7 3 8 11 10 9 11 10 12 5 13
REMARK SMILES IDX 6 14 7 15 8 16 4 17
REMARK H PARENT
REMARK Flexibility Score: 60.00
ROOT
ATOM      1  C   UNL     1       7.211 -35.690  15.172  1.00  0.00    -0.070 C 
ATOM      2  C   UNL     1       7.569 -36.239  13.991  1.00  0.00    -0.027 C 
ATOM      3  C   UNL     1       5.892 -36.109  15.774  1.00  0.00     0.039 C 
ENDROOT
BRANCH   2   4
ATOM      4  C   UNL     1       8.887 -36.021  13.280  1.00  0.00     0.032 C 
BRANCH   4   5
ATOM      5  C   UNL     1       9.171 -34.559  12.875  1.00  0.00     0.034 C 
BRANCH   5   6
ATOM      6  C   UNL     1      10.500 -34.043  13.395  1.00  0.00    -0.077 C 
ATOM      7  C   UNL     1      11.729 -34.878  13.131  1.00  0.00     0.039 C 
ATOM      8  C   UNL     1      10.666 -32.851  14.020  1.00  0.00    -0.023 CG0
ATOM      9  G   UNL     1       9.583 -31.863  14.405  1.00  0.00     0.000 G0
ENDBRANCH   5   6
ENDBRANCH   4   5
ENDBRANCH   2   4
BRANCH   1  10
ATOM     10  C   UNL     1       8.104 -34.754  15.959  1.00  0.00     0.111 C 
BRANCH  10  11
ATOM     11  C   UNL     1       7.818 -33.311  15.638  1.00  0.00     0.163 C 
ATOM     12  O   UNL     1       6.631 -32.990  15.356  1.00  0.00    -0.294 OA
BRANCH  11  13
ATOM     13  C   UNL     1       8.867 -32.251  15.703  1.00  0.00    -0.002 C 
ATOM     14  C   UNL     1       9.236 -31.706  16.902  1.00  0.00    -0.069 C 
ATOM     15  C   UNL     1      10.402 -30.749  17.021  1.00  0.00     0.039 C 
ATOM     16  C   UNL     1       8.494 -32.039  18.177  1.00  0.00     0.039 C 
BRANCH  13  17
ATOM     17  C   UNL     1       9.564 -31.880  14.405  1.00  0.00     0.066 CG0
ATOM     18  G   UNL     1      10.658 -32.861  14.036  1.00  0.00     0.000 G0
ENDBRANCH  13  17
ENDBRANCH  11  13
ENDBRANCH  10  11
ENDBRANCH   1  10
TORSDOF 0
ENDMDL
MODEL 2
REMARK VINA RESULT:    -2.139      1.738      3.448
REMARK INTER + INTRA:          -2.449
REMARK INTER:                  -3.877
REMARK INTRA:                   1.427
REMARK UNBOUND:                 0.565
REMARK SMILES CC1=CCC(=C(C)C)C(=O)CC(C)=CCC1
REMARK SMILES IDX 12 1 14 2 13 3 15 4 16 5 2 6 1 7 3 8 11 10 9 11 10 12 5 13
REMARK SMILES IDX 6 14 7 15 8 16 4 17
REMARK H PARENT
REMARK Flexibility Score: 60.00
ROOT
ATOM      1  C   UNL     1       9.321 -34.073  13.229  1.00  0.00    -0.070 C 
ATOM      2  C   UNL     1       8.326 -34.968  13.046  1.00  0.00    -0.027 C 
ATOM      3  C   UNL     1      10.739 -34.589  13.257  1.00  0.00     0.039 C 
ENDROOT
BRANCH   2   4
ATOM      4  C   UNL     1       6.858 -34.636  12.894  1.00  0.00     0.032 C 
BRANCH   4   5
ATOM      5  C   UNL     1       5.999 -34.909  14.146  1.00  0.00     0.034 C 
BRANCH   5   6
ATOM      6  C   UNL     1       6.825 -35.170  15.392  1.00  0.00    -0.077 C 
ATOM      7  C   UNL     1       6.975 -36.600  15.850  1.00  0.00     0.039 C 
ATOM      8  C   UNL     1       7.493 -34.211  16.081  1.00  0.00    -0.023 CG0
ATOM      9  G   UNL     1       7.477 -32.719  15.820  1.00  0.00     0.000 G0
ENDBRANCH   5   6
ENDBRANCH   4   5
ENDBRANCH   2   4
BRANCH   1  10
ATOM     10  C   UNL     1       9.091 -32.578  13.314  1.00  0.00     0.111 C 
BRANCH  10  11
ATOM     11  C   UNL     1       9.618 -32.007  14.603  1.00  0.00     0.163 C 
ATOM     12  O   UNL     1      10.725 -31.403  14.576  1.00  0.00    -0.294 OA
BRANCH  11  13
ATOM     13  C   UNL     1       8.852 -32.075  15.883  1.00  0.00    -0.002 C 
ATOM     14  C   UNL     1       9.352 -31.518  17.027  1.00  0.00    -0.069 C 
ATOM     15  C   UNL     1       8.535 -31.431  18.298  1.00  0.00     0.039 C 
ATOM     16  C   UNL     1      10.755 -30.956  17.078  1.00  0.00     0.039 C 
BRANCH  13  17
ATOM     17  C   UNL     1       7.467 -32.700  15.832  1.00  0.00     0.066 CG0
ATOM     18  G   UNL     1       7.499 -34.195  16.078  1.00  0.00     0.000 G0
ENDBRANCH  13  17
ENDBRANCH  11  13
ENDBRANCH  10  11
ENDBRANCH   1  10
TORSDOF 0
ENDMDL
MODEL 3
REMARK VINA RESULT:    -1.814      1.695      3.842
REMARK INTER + INTRA:          -1.991
REMARK INTER:                  -3.897
REMARK INTRA:                   1.906
REMARK UNBOUND:                 0.565
REMARK SMILES CC1=CCC(=C(C)C)C(=O)CC(C)=CCC1
REMARK SMILES IDX 12 1 14 2 13 3 15 4 16 5 2 6 1 7 3 8 11 10 9 11 10 12 5 13
REMARK SMILES IDX 6 14 7 15 8 16 4 17
REMARK H PARENT
REMARK Flexibility Score: 60.00
ROOT
ATOM      1  C   UNL     1       6.900 -35.631  14.351  1.00  0.00    -0.070 C 
ATOM      2  C   UNL     1       6.440 -34.587  15.076  1.00  0.00    -0.027 C 
ATOM      3  C   UNL     1       6.581 -37.023  14.839  1.00  0.00     0.039 C 
ENDROOT
BRANCH   2   4
ATOM      4  C   UNL     1       6.572 -33.127  14.701  1.00  0.00     0.032 C 
BRANCH   4   5
ATOM      5  C   UNL     1       7.002 -32.198  15.856  1.00  0.00     0.034 C 
BRANCH   5   6
ATOM      6  C   UNL     1       8.487 -32.277  16.164  1.00  0.00    -0.077 C 
ATOM      7  C   UNL     1       8.930 -31.965  17.572  1.00  0.00     0.039 C 
ATOM      8  C   UNL     1       9.431 -32.676  15.276  1.00  0.00    -0.023 CG0
ATOM      9  G   UNL     1       9.226 -33.020  13.815  1.00  0.00     0.000 G0
ENDBRANCH   5   6
ENDBRANCH   4   5
ENDBRANCH   2   4
BRANCH   1  10
ATOM     10  C   UNL     1       7.632 -35.473  13.035  1.00  0.00     0.111 C 
BRANCH  10  11
ATOM     11  C   UNL     1       9.125 -35.540  13.218  1.00  0.00     0.163 C 
ATOM     12  O   UNL     1       9.682 -36.669  13.140  1.00  0.00    -0.294 OA
BRANCH  11  13
ATOM     13  C   UNL     1       9.963 -34.322  13.422  1.00  0.00    -0.002 C 
ATOM     14  C   UNL     1      11.311 -34.354  13.193  1.00  0.00    -0.069 C 
ATOM     15  C   UNL     1      12.161 -33.103  13.237  1.00  0.00     0.039 C 
ATOM     16  C   UNL     1      12.023 -35.652  12.878  1.00  0.00     0.039 C 
BRANCH  13  17
ATOM     17  C   UNL     1       9.244 -33.037  13.800  1.00  0.00     0.066 CG0
ATOM     18  G   UNL     1       9.414 -32.690  15.265  1.00  0.00     0.000 G0
ENDBRANCH  13  17
ENDBRANCH  11  13
ENDBRANCH  10  11
ENDBRANCH   1  10
TORSDOF 0
ENDMDL
MODEL 4
REMARK VINA RESULT:    -1.762      1.359      1.979
REMARK INTER + INTRA:          -1.918
REMARK INTER:                  -2.949
REMARK INTRA:                   1.031
REMARK UNBOUND:                 0.565
REMARK SMILES CC1=CCC(=C(C)C)C(=O)CC(C)=CCC1
REMARK SMILES IDX 12 1 14 2 13 3 15 4 16 5 2 6 1 7 3 8 11 10 9 11 10 12 5 13
REMARK SMILES IDX 6 14 7 15 8 16 4 17
REMARK H PARENT
REMARK Flexibility Score: 60.00
ROOT
ATOM      1  C   UNL     1       7.162 -33.970  15.103  1.00  0.00    -0.070 C 
ATOM      2  C   UNL     1       7.136 -35.004  14.235  1.00  0.00    -0.027 C 
ATOM      3  C   UNL     1       5.968 -33.048  15.138  1.00  0.00     0.039 C 
ENDROOT
BRANCH   2   4
ATOM      4  C   UNL     1       8.188 -36.086  14.120  1.00  0.00     0.032 C 
BRANCH   4   5
ATOM      5  C   UNL     1       9.198 -35.888  12.970  1.00  0.00     0.034 C 
BRANCH   5   6
ATOM      6  C   UNL     1      10.567 -35.437  13.449  1.00  0.00    -0.077 C 
ATOM      7  C   UNL     1      11.648 -36.482  13.572  1.00  0.00     0.039 C 
ATOM      8  C   UNL     1      10.899 -34.148  13.706  1.00  0.00    -0.023 CG0
ATOM      9  G   UNL     1       9.982 -32.942  13.668  1.00  0.00     0.000 G0
ENDBRANCH   5   6
ENDBRANCH   4   5
ENDBRANCH   2   4
BRANCH   1  10
ATOM     10  C   UNL     1       8.280 -33.748  16.101  1.00  0.00     0.111 C 
BRANCH  10  11
ATOM     11  C   UNL     1       8.912 -32.391  15.933  1.00  0.00     0.163 C 
ATOM     12  O   UNL     1       8.524 -31.458  16.688  1.00  0.00    -0.294 OA
BRANCH  11  13
ATOM     13  C   UNL     1      10.014 -32.135  14.960  1.00  0.00    -0.002 C 
ATOM     14  C   UNL     1      11.041 -31.287  15.272  1.00  0.00    -0.069 C 
ATOM     15  C   UNL     1      12.249 -31.129  14.376  1.00  0.00     0.039 C 
ATOM     16  C   UNL     1      11.019 -30.464  16.541  1.00  0.00     0.039 C 
BRANCH  13  17
ATOM     17  C   UNL     1       9.991 -32.923  13.660  1.00  0.00     0.066 CG0
ATOM     18  G   UNL     1      10.897 -34.137  13.705  1.00  0.00     0.000 G0
ENDBRANCH  13  17
ENDBRANCH  11  13
ENDBRANCH  10  11
ENDBRANCH   1  10
TORSDOF 0
ENDMDL
MODEL 5
REMARK VINA RESULT:    -1.656      1.551      3.666
REMARK INTER + INTRA:          -1.768
REMARK INTER:                  -2.050
REMARK INTRA:                   0.282
REMARK UNBOUND:                 0.565
REMARK SMILES CC1=CCC(=C(C)C)C(=O)CC(C)=CCC1
REMARK SMILES IDX 12 1 14 2 13 3 15 4 16 5 2 6 1 7 3 8 11 10 9 11 10 12 5 13
REMARK SMILES IDX 6 14 7 15 8 16 4 17
REMARK H PARENT
REMARK Flexibility Score: 60.00
ROOT
ATOM      1  C   UNL     1       8.666 -32.980  16.215  1.00  0.00    -0.070 C 
ATOM      2  C   UNL     1       9.772 -32.531  15.582  1.00  0.00    -0.027 C 
ATOM      3  C   UNL     1       8.855 -33.827  17.449  1.00  0.00     0.039 C 
ENDROOT
BRANCH   2   4
ATOM      4  C   UNL     1       9.789 -31.595  14.393  1.00  0.00     0.032 C 
BRANCH   4   5
ATOM      5  C   UNL     1      10.022 -32.282  13.031  1.00  0.00     0.034 C 
BRANCH   5   6
ATOM      6  C   UNL     1      10.479 -33.724  13.160  1.00  0.00    -0.077 C 
ATOM      7  C   UNL     1      11.948 -33.977  13.391  1.00  0.00     0.039 C 
ATOM      8  C   UNL     1       9.646 -34.793  13.150  1.00  0.00    -0.023 CG0
ATOM      9  G   UNL     1       8.148 -34.783  12.917  1.00  0.00     0.000 G0
ENDBRANCH   5   6
ENDBRANCH   4   5
ENDBRANCH   2   4
BRANCH   1  10
ATOM     10  C   UNL     1       7.259 -32.600  15.803  1.00  0.00     0.111 C 
BRANCH  10  11
ATOM     11  C   UNL     1       6.872 -33.238  14.495  1.00  0.00     0.163 C 
ATOM     12  O   UNL     1       6.217 -32.547  13.668  1.00  0.00    -0.294 OA
BRANCH  11  13
ATOM     13  C   UNL     1       7.288 -34.623  14.125  1.00  0.00    -0.002 C 
ATOM     14  C   UNL     1       6.844 -35.701  14.840  1.00  0.00    -0.069 C 
ATOM     15  C   UNL     1       7.117 -37.122  14.398  1.00  0.00     0.039 C 
ATOM     16  C   UNL     1       6.051 -35.524  16.115  1.00  0.00     0.039 C 
BRANCH  13  17
ATOM     17  C   UNL     1       8.138 -34.784  12.875  1.00  0.00     0.066 CG0
ATOM     18  G   UNL     1       9.621 -34.821  13.187  1.00  0.00     0.000 G0
ENDBRANCH  13  17
ENDBRANCH  11  13
ENDBRANCH  10  11
ENDBRANCH   1  10
TORSDOF 0
ENDMDL
MODEL 6
REMARK VINA RESULT:    -1.422      1.693      3.841
REMARK INTER + INTRA:          -1.438
REMARK INTER:                  -1.951
REMARK INTRA:                   0.513
REMARK UNBOUND:                 0.565
REMARK SMILES CC1=CCC(=C(C)C)C(=O)CC(C)=CCC1
REMARK SMILES IDX 12 1 14 2 13 3 15 4 16 5 2 6 1 7 3 8 11 10 9 11 10 12 5 13
REMARK SMILES IDX 6 14 7 15 8 16 4 17
REMARK H PARENT
REMARK Flexibility Score: 60.00
ROOT
ATOM      1  C   UNL     1       8.363 -34.689  14.576  1.00  0.00    -0.070 C 
ATOM      2  C   UNL     1       7.622 -34.400  15.668  1.00  0.00    -0.027 C 
ATOM      3  C   UNL     1       7.688 -35.408  13.434  1.00  0.00     0.039 C 
ENDROOT
BRANCH   2   4
ATOM      4  C   UNL     1       8.090 -33.605  16.867  1.00  0.00     0.032 C 
BRANCH   4   5
ATOM      5  C   UNL     1       8.201 -32.084  16.632  1.00  0.00     0.034 C 
BRANCH   5   6
ATOM      6  C   UNL     1       9.409 -31.462  17.309  1.00  0.00    -0.077 C 
ATOM      7  C   UNL     1       9.496 -31.552  18.812  1.00  0.00     0.039 C 
ATOM      8  C   UNL     1      10.446 -30.892  16.647  1.00  0.00    -0.023 CG0
ATOM      9  G   UNL     1      10.568 -30.674  15.152  1.00  0.00     0.000 G0
ENDBRANCH   5   6
ENDBRANCH   4   5
ENDBRANCH   2   4
BRANCH   1  10
ATOM     10  C   UNL     1       9.802 -34.246  14.406  1.00  0.00     0.111 C 
BRANCH  10  11
ATOM     11  C   UNL     1       9.892 -32.822  13.924  1.00  0.00     0.163 C 
ATOM     12  O   UNL     1       8.975 -32.391  13.173  1.00  0.00    -0.294 OA
BRANCH  11  13
ATOM     13  C   UNL     1      10.982 -31.898  14.354  1.00  0.00    -0.002 C 
ATOM     14  C   UNL     1      12.277 -32.121  13.978  1.00  0.00    -0.069 C 
ATOM     15  C   UNL     1      13.378 -31.122  14.262  1.00  0.00     0.039 C 
ATOM     16  C   UNL     1      12.675 -33.386  13.250  1.00  0.00     0.039 C 
BRANCH  13  17
ATOM     17  C   UNL     1      10.577 -30.661  15.140  1.00  0.00     0.066 CG0
ATOM     18  G   UNL     1      10.469 -30.931  16.627  1.00  0.00     0.000 G0
ENDBRANCH  13  17
ENDBRANCH  11  13
ENDBRANCH  10  11
ENDBRANCH   1  10
TORSDOF 0
ENDMDL
MODEL 7
REMARK VINA RESULT:    -1.306      2.092      5.354
REMARK INTER + INTRA:          -1.275
REMARK INTER:                  -1.490
REMARK INTRA:                   0.216
REMARK UNBOUND:                 0.565
REMARK SMILES CC1=CCC(=C(C)C)C(=O)CC(C)=CCC1
REMARK SMILES IDX 12 1 14 2 13 3 15 4 16 5 2 6 1 7 3 8 11 10 9 11 10 12 5 13
REMARK SMILES IDX 6 14 7 15 8 16 4 17
REMARK H PARENT
REMARK Flexibility Score: 60.00
ROOT
ATOM      1  C   UNL     1      11.383 -31.355  14.753  1.00  0.00    -0.070 C 
ATOM      2  C   UNL     1      11.656 -30.771  15.941  1.00  0.00    -0.027 C 
ATOM      3  C   UNL     1      12.546 -31.729  13.867  1.00  0.00     0.039 C 
ENDROOT
BRANCH   2   4
ATOM      4  C   UNL     1      10.639 -30.413  17.002  1.00  0.00     0.032 C 
BRANCH   4   5
ATOM      5  C   UNL     1      10.190 -31.591  17.893  1.00  0.00     0.034 C 
BRANCH   5   6
ATOM      6  C   UNL     1       8.681 -31.742  17.966  1.00  0.00    -0.077 C 
ATOM      7  C   UNL     1       7.901 -30.664  18.677  1.00  0.00     0.039 C 
ATOM      8  C   UNL     1       7.984 -32.744  17.377  1.00  0.00    -0.023 CG0
ATOM      9  G   UNL     1       8.550 -33.936  16.631  1.00  0.00     0.000 G0
ENDBRANCH   5   6
ENDBRANCH   4   5
ENDBRANCH   2   4
BRANCH   1  10
ATOM     10  C   UNL     1       9.984 -31.734  14.314  1.00  0.00     0.111 C 
BRANCH  10  11
ATOM     11  C   UNL     1       9.740 -33.214  14.448  1.00  0.00     0.163 C 
ATOM     12  O   UNL     1      10.628 -34.002  14.022  1.00  0.00    -0.294 OA
BRANCH  11  13
ATOM     13  C   UNL     1       8.527 -33.769  15.118  1.00  0.00    -0.002 C 
ATOM     14  C   UNL     1       7.453 -34.188  14.383  1.00  0.00    -0.069 C 
ATOM     15  C   UNL     1       6.278 -34.899  15.017  1.00  0.00     0.039 C 
ATOM     16  C   UNL     1       7.389 -33.962  12.889  1.00  0.00     0.039 C 
BRANCH  13  17
ATOM     17  C   UNL     1       8.580 -33.933  16.628  1.00  0.00     0.066 CG0
ATOM     18  G   UNL     1       7.962 -32.758  17.358  1.00  0.00     0.000 G0
ENDBRANCH  13  17
ENDBRANCH  11  13
ENDBRANCH  10  11
ENDBRANCH   1  10
TORSDOF 0
ENDMDL
MODEL 8
REMARK VINA RESULT:    -1.255      1.751      4.732
REMARK INTER + INTRA:          -1.204
REMARK INTER:                  -1.794
REMARK INTRA:                   0.590
REMARK UNBOUND:                 0.565
REMARK SMILES CC1=CCC(=C(C)C)C(=O)CC(C)=CCC1
REMARK SMILES IDX 12 1 14 2 13 3 15 4 16 5 2 6 1 7 3 8 11 10 9 11 10 12 5 13
REMARK SMILES IDX 6 14 7 15 8 16 4 17
REMARK H PARENT
REMARK Flexibility Score: 60.00
ROOT
ATOM      1  C   UNL     1       9.378 -32.641  13.863  1.00  0.00    -0.070 C 
ATOM      2  C   UNL     1      10.283 -32.131  14.727  1.00  0.00    -0.027 C 
ATOM      3  C   UNL     1       9.837 -33.726  12.921  1.00  0.00     0.039 C 
ENDROOT
BRANCH   2   4
ATOM      4  C   UNL     1       9.993 -31.112  15.808  1.00  0.00     0.032 C 
BRANCH   4   5
ATOM      5  C   UNL     1      10.299 -31.587  17.244  1.00  0.00     0.034 C 
BRANCH   5   6
ATOM      6  C   UNL     1       9.050 -31.872  18.058  1.00  0.00    -0.077 C 
ATOM      7  C   UNL     1       8.645 -30.861  19.101  1.00  0.00     0.039 C 
ATOM      8  C   UNL     1       8.237 -32.940  17.862  1.00  0.00    -0.023 CG0
ATOM      9  G   UNL     1       8.450 -34.085  16.891  1.00  0.00     0.000 G0
ENDBRANCH   5   6
ENDBRANCH   4   5
ENDBRANCH   2   4
BRANCH   1  10
ATOM     10  C   UNL     1       7.916 -32.247  13.860  1.00  0.00     0.111 C 
BRANCH  10  11
ATOM     11  C   UNL     1       7.209 -32.723  15.102  1.00  0.00     0.163 C 
ATOM     12  O   UNL     1       6.315 -31.983  15.597  1.00  0.00    -0.294 OA
BRANCH  11  13
ATOM     13  C   UNL     1       7.483 -34.053  15.720  1.00  0.00    -0.002 C 
ATOM     14  C   UNL     1       6.954 -35.195  15.186  1.00  0.00    -0.069 C 
ATOM     15  C   UNL     1       7.340 -36.568  15.690  1.00  0.00     0.039 C 
ATOM     16  C   UNL     1       5.954 -35.141  14.053  1.00  0.00     0.039 C 
BRANCH  13  17
ATOM     17  C   UNL     1       8.443 -34.088  16.899  1.00  0.00     0.066 CG0
ATOM     18  G   UNL     1       8.219 -32.938  17.860  1.00  0.00     0.000 G0
ENDBRANCH  13  17
ENDBRANCH  11  13
ENDBRANCH  10  11
ENDBRANCH   1  10
TORSDOF 0
ENDMDL
MODEL 9
REMARK VINA RESULT:    -1.005      1.980      3.931
REMARK INTER + INTRA:          -0.851
REMARK INTER:                  -3.237
REMARK INTRA:                   2.386
REMARK UNBOUND:                 0.565
REMARK SMILES CC1=CCC(=C(C)C)C(=O)CC(C)=CCC1
REMARK SMILES IDX 12 1 14 2 13 3 15 4 16 5 2 6 1 7 3 8 11 10 9 11 10 12 5 13
REMARK SMILES IDX 6 14 7 15 8 16 4 17
REMARK H PARENT
REMARK Flexibility Score: 60.00
ROOT
ATOM      1  C   UNL     1       8.500 -32.406  17.392  1.00  0.00    -0.070 C 
ATOM      2  C   UNL     1       8.182 -33.717  17.312  1.00  0.00    -0.027 C 
ATOM      3  C   UNL     1       8.712 -31.814  18.763  1.00  0.00     0.039 C 
ENDROOT
BRANCH   2   4
ATOM      4  C   UNL     1       8.026 -34.510  16.033  1.00  0.00     0.032 C 
BRANCH   4   5
ATOM      5  C   UNL     1       6.820 -34.102  15.161  1.00  0.00     0.034 C 
BRANCH   5   6
ATOM      6  C   UNL     1       7.224 -33.449  13.852  1.00  0.00    -0.077 C 
ATOM      7  C   UNL     1       6.124 -32.978  12.933  1.00  0.00     0.039 C 
ATOM      8  C   UNL     1       8.505 -33.199  13.486  1.00  0.00    -0.023 CG0
ATOM      9  G   UNL     1       9.763 -33.593  14.234  1.00  0.00     0.000 G0
ENDBRANCH   5   6
ENDBRANCH   4   5
ENDBRANCH   2   4
BRANCH   1  10
ATOM     10  C   UNL     1       8.743 -31.533  16.178  1.00  0.00     0.111 C 
BRANCH  10  11
ATOM     11  C   UNL     1      10.184 -31.576  15.743  1.00  0.00     0.163 C 
ATOM     12  O   UNL     1      11.026 -30.916  16.412  1.00  0.00    -0.294 OA
BRANCH  11  13
ATOM     13  C   UNL     1      10.652 -32.413  14.599  1.00  0.00    -0.002 C 
ATOM     14  C   UNL     1      11.851 -32.162  13.993  1.00  0.00    -0.069 C 
ATOM     15  C   UNL     1      12.425 -33.085  12.940  1.00  0.00     0.039 C 
ATOM     16  C   UNL     1      12.670 -30.941  14.349  1.00  0.00     0.039 C 
BRANCH  13  17
ATOM     17  C   UNL     1       9.788 -33.602  14.208  1.00  0.00     0.066 CG0
ATOM     18  G   UNL     1       8.517 -33.183  13.498  1.00  0.00     0.000 G0
ENDBRANCH  13  17
ENDBRANCH  11  13
ENDBRANCH  10  11
ENDBRANCH   1  10
TORSDOF 0
ENDMDL
