MODEL 1
REMARK VINA RESULT:    -6.991      0.000      0.000
REMARK INTER + INTRA:          -7.280
REMARK INTER:                  -7.604
REMARK INTRA:                   0.325
REMARK UNBOUND:                 0.325
REMARK SMILES Cc1ccc(C(C)C)c(O)c1
REMARK SMILES IDX 1 1 2 2 11 3 9 4 5 5 4 6 3 7 10 8 6 10 7 11 8 12
REMARK H PARENT 10 9
REMARK Flexibility Score: inf
ROOT
ATOM      1  C   UNL     1     -13.149  -1.580 -11.109  1.00  0.00     0.044 C 
ATOM      2  C   UNL     1     -12.919  -0.230 -10.497  1.00  0.00    -0.047 A 
ATOM      3  C   UNL     1     -13.977   0.676 -10.365  1.00  0.00     0.049 A 
ATOM      4  C   UNL     1     -13.772   1.950  -9.820  1.00  0.00     0.119 A 
ATOM      5  C   UNL     1     -12.461   2.362  -9.457  1.00  0.00    -0.004 A 
ATOM      6  C   UNL     1     -11.411   1.426  -9.569  1.00  0.00     0.008 A 
ATOM      7  C   UNL     1     -11.635   0.154 -10.098  1.00  0.00     0.004 A 
ENDROOT
BRANCH   4   8
ATOM      8  O   UNL     1     -14.898   2.760  -9.644  1.00  0.00    -0.508 OA
ATOM      9  H   UNL     1     -15.174   3.493 -10.280  1.00  0.00     0.293 HD
ENDBRANCH   4   8
BRANCH   5  10
ATOM     10  C   UNL     1     -12.191   3.755  -8.893  1.00  0.00     0.017 C 
ATOM     11  C   UNL     1     -13.203   4.086  -7.793  1.00  0.00     0.012 C 
ATOM     12  C   UNL     1     -10.752   3.937  -8.381  1.00  0.00     0.012 C 
ENDBRANCH   5  10
TORSDOF 2
ENDMDL
MODEL 2
REMARK VINA RESULT:    -6.982      1.564      2.361
REMARK INTER + INTRA:          -7.270
REMARK INTER:                  -7.095
REMARK INTRA:                  -0.175
REMARK UNBOUND:                 0.325
REMARK SMILES Cc1ccc(C(C)C)c(O)c1
REMARK SMILES IDX 1 1 2 2 11 3 9 4 5 5 4 6 3 7 10 8 6 10 7 11 8 12
REMARK H PARENT 10 9
REMARK Flexibility Score: inf
ROOT
ATOM      1  C   UNL     1     -13.406  -1.534 -11.124  1.00  0.00     0.044 C 
ATOM      2  C   UNL     1     -13.123  -0.200 -10.498  1.00  0.00    -0.047 A 
ATOM      3  C   UNL     1     -11.869   0.065  -9.935  1.00  0.00     0.049 A 
ATOM      4  C   UNL     1     -11.598   1.296  -9.325  1.00  0.00     0.119 A 
ATOM      5  C   UNL     1     -12.626   2.270  -9.209  1.00  0.00    -0.004 A 
ATOM      6  C   UNL     1     -13.875   1.999  -9.808  1.00  0.00     0.008 A 
ATOM      7  C   UNL     1     -14.124   0.774 -10.428  1.00  0.00     0.004 A 
ENDROOT
BRANCH   4   8
ATOM      8  O   UNL     1     -10.295   1.511  -8.867  1.00  0.00    -0.508 OA
ATOM      9  H   UNL     1      -9.504   0.937  -9.120  1.00  0.00     0.293 HD
ENDBRANCH   4   8
BRANCH   5  10
ATOM     10  C   UNL     1     -12.381   3.610  -8.518  1.00  0.00     0.017 C 
ATOM     11  C   UNL     1     -11.745   4.601  -9.497  1.00  0.00     0.012 C 
ATOM     12  C   UNL     1     -13.648   4.211  -7.885  1.00  0.00     0.012 C 
ENDBRANCH   5  10
TORSDOF 2
ENDMDL
MODEL 3
REMARK VINA RESULT:    -6.628      0.903      4.064
REMARK INTER + INTRA:          -6.885
REMARK INTER:                  -6.826
REMARK INTRA:                  -0.058
REMARK UNBOUND:                 0.325
REMARK SMILES Cc1ccc(C(C)C)c(O)c1
REMARK SMILES IDX 1 1 2 2 11 3 9 4 5 5 4 6 3 7 10 8 6 10 7 11 8 12
REMARK H PARENT 10 9
REMARK Flexibility Score: inf
ROOT
ATOM      1  C   UNL     1     -10.703   3.875  -8.216  1.00  0.00     0.044 C 
ATOM      2  C   UNL     1     -11.561   2.832  -8.869  1.00  0.00    -0.047 A 
ATOM      3  C   UNL     1     -12.937   3.038  -9.016  1.00  0.00     0.049 A 
ATOM      4  C   UNL     1     -13.754   2.062  -9.600  1.00  0.00     0.119 A 
ATOM      5  C   UNL     1     -13.199   0.813  -9.989  1.00  0.00    -0.004 A 
ATOM      6  C   UNL     1     -11.805   0.633  -9.861  1.00  0.00     0.008 A 
ATOM      7  C   UNL     1     -11.001   1.622  -9.293  1.00  0.00     0.004 A 
ENDROOT
BRANCH   4   8
ATOM      8  O   UNL     1     -15.102   2.384  -9.788  1.00  0.00    -0.508 OA
ATOM      9  H   UNL     1     -15.461   2.863 -10.601  1.00  0.00     0.293 HD
ENDBRANCH   4   8
BRANCH   5  10
ATOM     10  C   UNL     1     -14.063  -0.290 -10.595  1.00  0.00     0.017 C 
ATOM     11  C   UNL     1     -13.180  -1.423 -11.125  1.00  0.00     0.012 C 
ATOM     12  C   UNL     1     -15.124  -0.837  -9.625  1.00  0.00     0.012 C 
ENDBRANCH   5  10
TORSDOF 2
ENDMDL
MODEL 4
REMARK VINA RESULT:    -6.157      1.867      2.813
REMARK INTER + INTRA:          -6.373
REMARK INTER:                  -7.161
REMARK INTRA:                   0.788
REMARK UNBOUND:                 0.325
REMARK SMILES Cc1ccc(C(C)C)c(O)c1
REMARK SMILES IDX 1 1 2 2 11 3 9 4 5 5 4 6 3 7 10 8 6 10 7 11 8 12
REMARK H PARENT 10 9
REMARK Flexibility Score: inf
ROOT
ATOM      1  C   UNL     1     -10.153  -2.564 -10.032  1.00  0.00     0.044 C 
ATOM      2  C   UNL     1     -10.966  -1.303 -10.025  1.00  0.00    -0.047 A 
ATOM      3  C   UNL     1     -10.495  -0.162  -9.365  1.00  0.00     0.049 A 
ATOM      4  C   UNL     1     -11.255   1.014  -9.327  1.00  0.00     0.119 A 
ATOM      5  C   UNL     1     -12.553   1.038  -9.905  1.00  0.00    -0.004 A 
ATOM      6  C   UNL     1     -13.000  -0.111 -10.592  1.00  0.00     0.008 A 
ATOM      7  C   UNL     1     -12.224  -1.270 -10.636  1.00  0.00     0.004 A 
ENDROOT
BRANCH   4   8
ATOM      8  O   UNL     1     -10.673   2.132  -8.723  1.00  0.00    -0.508 OA
ATOM      9  H   UNL     1     -11.151   2.739  -8.074  1.00  0.00     0.293 HD
ENDBRANCH   4   8
BRANCH   5  10
ATOM     10  C   UNL     1     -13.426   2.290  -9.854  1.00  0.00     0.017 C 
ATOM     11  C   UNL     1     -14.854   1.922  -9.442  1.00  0.00     0.012 C 
ATOM     12  C   UNL     1     -12.862   3.389  -8.936  1.00  0.00     0.012 C 
ENDBRANCH   5  10
TORSDOF 2
ENDMDL
MODEL 5
REMARK VINA RESULT:    -5.966      1.690      2.516
REMARK INTER + INTRA:          -6.164
REMARK INTER:                  -6.186
REMARK INTRA:                   0.022
REMARK UNBOUND:                 0.325
REMARK SMILES Cc1ccc(C(C)C)c(O)c1
REMARK SMILES IDX 1 1 2 2 11 3 9 4 5 5 4 6 3 7 10 8 6 10 7 11 8 12
REMARK H PARENT 10 9
REMARK Flexibility Score: inf
ROOT
ATOM      1  C   UNL     1      -9.838  -2.016 -10.351  1.00  0.00     0.044 C 
ATOM      2  C   UNL     1     -10.902  -0.977 -10.152  1.00  0.00    -0.047 A 
ATOM      3  C   UNL     1     -12.163  -1.135 -10.737  1.00  0.00     0.049 A 
ATOM      4  C   UNL     1     -13.157  -0.162 -10.581  1.00  0.00     0.119 A 
ATOM      5  C   UNL     1     -12.869   1.040  -9.879  1.00  0.00    -0.004 A 
ATOM      6  C   UNL     1     -11.602   1.170  -9.270  1.00  0.00     0.008 A 
ATOM      7  C   UNL     1     -10.628   0.182  -9.419  1.00  0.00     0.004 A 
ENDROOT
BRANCH   4   8
ATOM      8  O   UNL     1     -14.416  -0.439 -11.125  1.00  0.00    -0.508 OA
ATOM      9  H   UNL     1     -14.654  -1.303 -11.589  1.00  0.00     0.293 HD
ENDBRANCH   4   8
BRANCH   5  10
ATOM     10  C   UNL     1     -13.915   2.140  -9.718  1.00  0.00     0.017 C 
ATOM     11  C   UNL     1     -15.096   1.630  -8.888  1.00  0.00     0.012 C 
ATOM     12  C   UNL     1     -13.348   3.438  -9.117  1.00  0.00     0.012 C 
ENDBRANCH   5  10
TORSDOF 2
ENDMDL
MODEL 6
REMARK VINA RESULT:    -5.566     14.689     16.836
REMARK INTER + INTRA:          -5.730
REMARK INTER:                  -5.538
REMARK INTRA:                  -0.191
REMARK UNBOUND:                 0.325
REMARK SMILES Cc1ccc(C(C)C)c(O)c1
REMARK SMILES IDX 1 1 2 2 11 3 9 4 5 5 4 6 3 7 10 8 6 10 7 11 8 12
REMARK H PARENT 10 9
REMARK Flexibility Score: inf
ROOT
ATOM      1  C   UNL     1     -10.609   4.257   9.125  1.00  0.00     0.044 C 
ATOM      2  C   UNL     1     -11.264   4.894   7.935  1.00  0.00    -0.047 A 
ATOM      3  C   UNL     1     -10.938   6.204   7.564  1.00  0.00     0.049 A 
ATOM      4  C   UNL     1     -11.560   6.820   6.472  1.00  0.00     0.119 A 
ATOM      5  C   UNL     1     -12.588   6.139   5.765  1.00  0.00    -0.004 A 
ATOM      6  C   UNL     1     -12.883   4.809   6.132  1.00  0.00     0.008 A 
ATOM      7  C   UNL     1     -12.242   4.202   7.213  1.00  0.00     0.004 A 
ENDROOT
BRANCH   4   8
ATOM      8  O   UNL     1     -11.113   8.097   6.117  1.00  0.00    -0.508 OA
ATOM      9  H   UNL     1     -11.702   8.812   5.717  1.00  0.00     0.293 HD
ENDBRANCH   4   8
BRANCH   5  10
ATOM     10  C   UNL     1     -13.315   6.791   4.591  1.00  0.00     0.017 C 
ATOM     11  C   UNL     1     -13.636   5.744   3.521  1.00  0.00     0.012 C 
ATOM     12  C   UNL     1     -14.586   7.550   5.006  1.00  0.00     0.012 C 
ENDBRANCH   5  10
TORSDOF 2
ENDMDL
MODEL 7
REMARK VINA RESULT:    -5.457     15.621     16.751
REMARK INTER + INTRA:          -5.611
REMARK INTER:                  -5.424
REMARK INTRA:                  -0.187
REMARK UNBOUND:                 0.325
REMARK SMILES Cc1ccc(C(C)C)c(O)c1
REMARK SMILES IDX 1 1 2 2 11 3 9 4 5 5 4 6 3 7 10 8 6 10 7 11 8 12
REMARK H PARENT 10 9
REMARK Flexibility Score: inf
ROOT
ATOM      1  C   UNL     1     -14.991   7.163   4.589  1.00  0.00     0.044 C 
ATOM      2  C   UNL     1     -13.720   6.707   5.242  1.00  0.00    -0.047 A 
ATOM      3  C   UNL     1     -13.502   5.346   5.490  1.00  0.00     0.049 A 
ATOM      4  C   UNL     1     -12.332   4.908   6.122  1.00  0.00     0.119 A 
ATOM      5  C   UNL     1     -11.378   5.855   6.584  1.00  0.00    -0.004 A 
ATOM      6  C   UNL     1     -11.600   7.219   6.299  1.00  0.00     0.008 A 
ATOM      7  C   UNL     1     -12.763   7.640   5.652  1.00  0.00     0.004 A 
ENDROOT
BRANCH   4   8
ATOM      8  O   UNL     1     -12.154   3.527   6.252  1.00  0.00    -0.508 OA
ATOM      9  H   UNL     1     -11.444   2.999   5.766  1.00  0.00     0.293 HD
ENDBRANCH   4   8
BRANCH   5  10
ATOM     10  C   UNL     1     -10.108   5.418   7.310  1.00  0.00     0.017 C 
ATOM     11  C   UNL     1      -8.893   6.153   6.737  1.00  0.00     0.012 C 
ATOM     12  C   UNL     1     -10.183   5.601   8.835  1.00  0.00     0.012 C 
ENDBRANCH   5  10
TORSDOF 2
ENDMDL
MODEL 8
REMARK VINA RESULT:    -5.296      2.595      4.244
REMARK INTER + INTRA:          -5.435
REMARK INTER:                  -5.530
REMARK INTRA:                   0.095
REMARK UNBOUND:                 0.325
REMARK SMILES Cc1ccc(C(C)C)c(O)c1
REMARK SMILES IDX 1 1 2 2 11 3 9 4 5 5 4 6 3 7 10 8 6 10 7 11 8 12
REMARK H PARENT 10 9
REMARK Flexibility Score: inf
ROOT
ATOM      1  C   UNL     1      -9.189  -3.265  -9.102  1.00  0.00     0.044 C 
ATOM      2  C   UNL     1     -10.337  -2.426  -9.582  1.00  0.00    -0.047 A 
ATOM      3  C   UNL     1     -10.250  -1.029  -9.560  1.00  0.00     0.049 A 
ATOM      4  C   UNL     1     -11.322  -0.233  -9.980  1.00  0.00     0.119 A 
ATOM      5  C   UNL     1     -12.545  -0.842 -10.373  1.00  0.00    -0.004 A 
ATOM      6  C   UNL     1     -12.606  -2.251 -10.418  1.00  0.00     0.008 A 
ATOM      7  C   UNL     1     -11.522  -3.031 -10.012  1.00  0.00     0.004 A 
ENDROOT
BRANCH   4   8
ATOM      8  O   UNL     1     -11.120   1.150 -10.008  1.00  0.00    -0.508 OA
ATOM      9  H   UNL     1     -11.475   1.788  -9.311  1.00  0.00     0.293 HD
ENDBRANCH   4   8
BRANCH   5  10
ATOM     10  C   UNL     1     -13.749  -0.007 -10.803  1.00  0.00     0.017 C 
ATOM     11  C   UNL     1     -14.938  -0.918 -11.121  1.00  0.00     0.012 C 
ATOM     12  C   UNL     1     -14.147   1.066  -9.775  1.00  0.00     0.012 C 
ENDBRANCH   5  10
TORSDOF 2
ENDMDL
