MODEL 1
REMARK VINA RESULT:    -4.421      0.000      0.000
REMARK INTER + INTRA:          -5.782
REMARK INTER:                  -5.197
REMARK INTRA:                  -0.585
REMARK UNBOUND:                -0.585
REMARK SMILES C=CC(C)=CCC=C(C)C
REMARK SMILES IDX 5 1 3 2 4 3 6 4 7 5 9 6 8 7 10 8 2 9 1 10
REMARK H PARENT
REMARK Flexibility Score: inf
ROOT
ATOM      1  C   UNL     1     -47.896 -49.511  17.662  1.00  0.00    -0.020 C 
ATOM      2  C   UNL     1     -47.746 -49.397  16.327  1.00  0.00    -0.055 C 
ATOM      3  C   UNL     1     -47.094 -48.152  15.777  1.00  0.00     0.044 C 
ENDROOT
BRANCH   1   4
ATOM      4  C   UNL     1     -48.484 -50.706  18.367  1.00  0.00     0.055 C 
BRANCH   4   5
ATOM      5  C   UNL     1     -49.577 -50.307  19.331  1.00  0.00    -0.024 C 
ATOM      6  C   UNL     1     -51.873 -49.899  20.103  1.00  0.00     0.039 C 
ATOM      7  C   UNL     1     -50.895 -50.320  19.037  1.00  0.00    -0.080 C 
ATOM      8  C   UNL     1     -51.408 -50.748  17.682  1.00  0.00     0.039 C 
ENDBRANCH   4   5
ENDBRANCH   1   4
BRANCH   2   9
ATOM      9  C   UNL     1     -48.175 -50.480  15.398  1.00  0.00    -0.005 C 
ATOM     10  C   UNL     1     -49.275 -50.404  14.648  1.00  0.00     0.009 C 
ENDBRANCH   2   9
TORSDOF 3
ENDMDL
MODEL 2
REMARK VINA RESULT:    -4.412      1.102      2.184
REMARK INTER + INTRA:          -5.771
REMARK INTER:                  -5.178
REMARK INTRA:                  -0.593
REMARK UNBOUND:                -0.585
REMARK SMILES C=CC(C)=CCC=C(C)C
REMARK SMILES IDX 5 1 3 2 4 3 6 4 7 5 9 6 8 7 10 8 2 9 1 10
REMARK H PARENT
REMARK Flexibility Score: inf
ROOT
ATOM      1  C   UNL     1     -49.134 -50.953  16.960  1.00  0.00    -0.020 C 
ATOM      2  C   UNL     1     -48.569 -50.264  15.947  1.00  0.00    -0.055 C 
ATOM      3  C   UNL     1     -49.143 -50.419  14.560  1.00  0.00     0.044 C 
ENDROOT
BRANCH   1   4
ATOM      4  C   UNL     1     -48.709 -50.873  18.403  1.00  0.00     0.055 C 
BRANCH   4   5
ATOM      5  C   UNL     1     -49.844 -50.435  19.298  1.00  0.00    -0.024 C 
ATOM      6  C   UNL     1     -51.267 -48.865  20.543  1.00  0.00     0.039 C 
ATOM      7  C   UNL     1     -50.093 -49.153  19.643  1.00  0.00    -0.080 C 
ATOM      8  C   UNL     1     -49.237 -48.011  19.148  1.00  0.00     0.039 C 
ENDBRANCH   4   5
ENDBRANCH   1   4
BRANCH   2   9
ATOM      9  C   UNL     1     -47.423 -49.340  16.176  1.00  0.00    -0.005 C 
ATOM     10  C   UNL     1     -47.424 -48.065  15.784  1.00  0.00     0.009 C 
ENDBRANCH   2   9
TORSDOF 3
ENDMDL
MODEL 3
REMARK VINA RESULT:    -4.323     13.561     15.276
REMARK INTER + INTRA:          -5.667
REMARK INTER:                  -5.053
REMARK INTRA:                  -0.614
REMARK UNBOUND:                -0.585
REMARK SMILES C=CC(C)=CCC=C(C)C
REMARK SMILES IDX 5 1 3 2 4 3 6 4 7 5 9 6 8 7 10 8 2 9 1 10
REMARK H PARENT
REMARK Flexibility Score: inf
ROOT
ATOM      1  C   UNL     1     -42.158 -47.996  28.295  1.00  0.00    -0.020 C 
ATOM      2  C   UNL     1     -42.539 -48.850  29.267  1.00  0.00    -0.055 C 
ATOM      3  C   UNL     1     -43.965 -48.795  29.758  1.00  0.00     0.044 C 
ENDROOT
BRANCH   1   4
ATOM      4  C   UNL     1     -40.789 -47.956  27.668  1.00  0.00     0.055 C 
BRANCH   4   5
ATOM      5  C   UNL     1     -39.918 -46.891  28.291  1.00  0.00    -0.024 C 
ATOM      6  C   UNL     1     -37.942 -45.957  29.414  1.00  0.00     0.039 C 
ATOM      7  C   UNL     1     -38.701 -47.121  28.831  1.00  0.00    -0.080 C 
ATOM      8  C   UNL     1     -38.086 -48.500  28.858  1.00  0.00     0.039 C 
ENDBRANCH   4   5
ENDBRANCH   1   4
BRANCH   2   9
ATOM      9  C   UNL     1     -41.599 -49.857  29.834  1.00  0.00    -0.005 C 
ATOM     10  C   UNL     1     -41.287 -49.916  31.130  1.00  0.00     0.009 C 
ENDBRANCH   2   9
TORSDOF 3
ENDMDL
MODEL 4
REMARK VINA RESULT:    -4.264     13.813     15.773
REMARK INTER + INTRA:          -5.597
REMARK INTER:                  -5.055
REMARK INTRA:                  -0.542
REMARK UNBOUND:                -0.585
REMARK SMILES C=CC(C)=CCC=C(C)C
REMARK SMILES IDX 5 1 3 2 4 3 6 4 7 5 9 6 8 7 10 8 2 9 1 10
REMARK H PARENT
REMARK Flexibility Score: inf
ROOT
ATOM      1  C   UNL     1     -45.786 -49.830  31.510  1.00  0.00    -0.020 C 
ATOM      2  C   UNL     1     -46.292 -50.259  32.685  1.00  0.00    -0.055 C 
ATOM      3  C   UNL     1     -46.993 -49.263  33.576  1.00  0.00     0.044 C 
ENDROOT
BRANCH   1   4
ATOM      4  C   UNL     1     -45.101 -50.705  30.493  1.00  0.00     0.055 C 
BRANCH   4   5
ATOM      5  C   UNL     1     -43.829 -50.075  29.977  1.00  0.00    -0.024 C 
ATOM      6  C   UNL     1     -41.434 -49.529  29.929  1.00  0.00     0.039 C 
ATOM      7  C   UNL     1     -42.618 -50.214  30.560  1.00  0.00    -0.080 C 
ATOM      8  C   UNL     1     -42.423 -51.036  31.812  1.00  0.00     0.039 C 
ENDBRANCH   4   5
ENDBRANCH   1   4
BRANCH   2   9
ATOM      9  C   UNL     1     -46.201 -51.688  33.098  1.00  0.00    -0.005 C 
ATOM     10  C   UNL     1     -45.292 -52.141  33.963  1.00  0.00     0.009 C 
ENDBRANCH   2   9
TORSDOF 3
ENDMDL
MODEL 5
REMARK VINA RESULT:    -4.235      6.124      7.821
REMARK INTER + INTRA:          -5.563
REMARK INTER:                  -4.989
REMARK INTRA:                  -0.574
REMARK UNBOUND:                -0.585
REMARK SMILES C=CC(C)=CCC=C(C)C
REMARK SMILES IDX 5 1 3 2 4 3 6 4 7 5 9 6 8 7 10 8 2 9 1 10
REMARK H PARENT
REMARK Flexibility Score: inf
ROOT
ATOM      1  C   UNL     1     -51.901 -48.820  22.515  1.00  0.00    -0.020 C 
ATOM      2  C   UNL     1     -51.875 -48.507  23.826  1.00  0.00    -0.055 C 
ATOM      3  C   UNL     1     -51.005 -49.329  24.747  1.00  0.00     0.044 C 
ENDROOT
BRANCH   1   4
ATOM      4  C   UNL     1     -52.679 -48.072  21.464  1.00  0.00     0.055 C 
BRANCH   4   5
ATOM      5  C   UNL     1     -54.055 -48.660  21.260  1.00  0.00    -0.024 C 
ATOM      6  C   UNL     1     -56.509 -48.686  21.139  1.00  0.00     0.039 C 
ATOM      7  C   UNL     1     -55.208 -47.964  21.377  1.00  0.00    -0.080 C 
ATOM      8  C   UNL     1     -55.223 -46.496  21.729  1.00  0.00     0.039 C 
ENDBRANCH   4   5
ENDBRANCH   1   4
BRANCH   2   9
ATOM      9  C   UNL     1     -52.653 -47.359  24.371  1.00  0.00    -0.005 C 
ATOM     10  C   UNL     1     -52.098 -46.192  24.702  1.00  0.00     0.009 C 
ENDBRANCH   2   9
TORSDOF 3
ENDMDL
MODEL 6
REMARK VINA RESULT:    -4.171      3.473      7.059
REMARK INTER + INTRA:          -5.488
REMARK INTER:                  -4.984
REMARK INTRA:                  -0.505
REMARK UNBOUND:                -0.585
REMARK SMILES C=CC(C)=CCC=C(C)C
REMARK SMILES IDX 5 1 3 2 4 3 6 4 7 5 9 6 8 7 10 8 2 9 1 10
REMARK H PARENT
REMARK Flexibility Score: inf
ROOT
ATOM      1  C   UNL     1     -53.528 -47.194  22.063  1.00  0.00    -0.020 C 
ATOM      2  C   UNL     1     -54.785 -47.223  21.576  1.00  0.00    -0.055 C 
ATOM      3  C   UNL     1     -55.504 -45.914  21.356  1.00  0.00     0.044 C 
ENDROOT
BRANCH   1   4
ATOM      4  C   UNL     1     -52.664 -48.406  22.296  1.00  0.00     0.055 C 
BRANCH   4   5
ATOM      5  C   UNL     1     -51.407 -48.368  21.459  1.00  0.00    -0.024 C 
ATOM      6  C   UNL     1     -49.957 -48.842  19.532  1.00  0.00     0.039 C 
ATOM      7  C   UNL     1     -51.272 -48.971  20.257  1.00  0.00    -0.080 C 
ATOM      8  C   UNL     1     -52.397 -49.756  19.625  1.00  0.00     0.039 C 
ENDBRANCH   4   5
ENDBRANCH   1   4
BRANCH   2   9
ATOM      9  C   UNL     1     -55.458 -48.505  21.225  1.00  0.00    -0.005 C 
ATOM     10  C   UNL     1     -56.746 -48.586  20.888  1.00  0.00     0.009 C 
ENDBRANCH   2   9
TORSDOF 3
ENDMDL
MODEL 7
REMARK VINA RESULT:    -4.167      3.702      5.863
REMARK INTER + INTRA:          -5.483
REMARK INTER:                  -4.832
REMARK INTRA:                  -0.651
REMARK UNBOUND:                -0.585
REMARK SMILES C=CC(C)=CCC=C(C)C
REMARK SMILES IDX 5 1 3 2 4 3 6 4 7 5 9 6 8 7 10 8 2 9 1 10
REMARK H PARENT
REMARK Flexibility Score: inf
ROOT
ATOM      1  C   UNL     1     -51.648 -48.089  21.796  1.00  0.00    -0.020 C 
ATOM      2  C   UNL     1     -51.316 -48.821  20.713  1.00  0.00    -0.055 C 
ATOM      3  C   UNL     1     -49.926 -48.674  20.142  1.00  0.00     0.044 C 
ENDROOT
BRANCH   1   4
ATOM      4  C   UNL     1     -52.974 -48.153  22.509  1.00  0.00     0.055 C 
BRANCH   4   5
ATOM      5  C   UNL     1     -53.890 -47.027  22.092  1.00  0.00    -0.024 C 
ATOM      6  C   UNL     1     -55.901 -45.981  21.142  1.00  0.00     0.039 C 
ATOM      7  C   UNL     1     -55.092 -47.202  21.499  1.00  0.00    -0.080 C 
ATOM      8  C   UNL     1     -55.641 -48.575  21.193  1.00  0.00     0.039 C 
ENDBRANCH   4   5
ENDBRANCH   1   4
BRANCH   2   9
ATOM      9  C   UNL     1     -52.272 -49.784  20.098  1.00  0.00    -0.005 C 
ATOM     10  C   UNL     1     -52.689 -49.692  18.834  1.00  0.00     0.009 C 
ENDBRANCH   2   9
TORSDOF 3
ENDMDL
MODEL 8
REMARK VINA RESULT:    -4.148      1.360      4.087
REMARK INTER + INTRA:          -5.461
REMARK INTER:                  -4.800
REMARK INTRA:                  -0.661
REMARK UNBOUND:                -0.585
REMARK SMILES C=CC(C)=CCC=C(C)C
REMARK SMILES IDX 5 1 3 2 4 3 6 4 7 5 9 6 8 7 10 8 2 9 1 10
REMARK H PARENT
REMARK Flexibility Score: inf
ROOT
ATOM      1  C   UNL     1     -48.028 -48.443  18.983  1.00  0.00    -0.020 C 
ATOM      2  C   UNL     1     -49.142 -48.785  19.661  1.00  0.00    -0.055 C 
ATOM      3  C   UNL     1     -49.802 -47.746  20.536  1.00  0.00     0.044 C 
ENDROOT
BRANCH   1   4
ATOM      4  C   UNL     1     -47.280 -49.347  18.038  1.00  0.00     0.055 C 
BRANCH   4   5
ATOM      5  C   UNL     1     -47.917 -49.376  16.668  1.00  0.00    -0.024 C 
ATOM      6  C   UNL     1     -48.958 -50.373  14.679  1.00  0.00     0.039 C 
ATOM      7  C   UNL     1     -48.336 -50.499  16.045  1.00  0.00    -0.080 C 
ATOM      8  C   UNL     1     -48.204 -51.863  16.681  1.00  0.00     0.039 C 
ENDBRANCH   4   5
ENDBRANCH   1   4
BRANCH   2   9
ATOM      9  C   UNL     1     -49.745 -50.142  19.539  1.00  0.00    -0.005 C 
ATOM     10  C   UNL     1     -50.881 -50.380  18.882  1.00  0.00     0.009 C 
ENDBRANCH   2   9
TORSDOF 3
ENDMDL
MODEL 9
REMARK VINA RESULT:    -4.130      6.044      7.831
REMARK INTER + INTRA:          -5.439
REMARK INTER:                  -4.991
REMARK INTRA:                  -0.448
REMARK UNBOUND:                -0.585
REMARK SMILES C=CC(C)=CCC=C(C)C
REMARK SMILES IDX 5 1 3 2 4 3 6 4 7 5 9 6 8 7 10 8 2 9 1 10
REMARK H PARENT
REMARK Flexibility Score: inf
ROOT
ATOM      1  C   UNL     1     -53.942 -48.828  21.397  1.00  0.00    -0.020 C 
ATOM      2  C   UNL     1     -55.088 -48.118  21.375  1.00  0.00    -0.055 C 
ATOM      3  C   UNL     1     -56.399 -48.865  21.320  1.00  0.00     0.044 C 
ENDROOT
BRANCH   1   4
ATOM      4  C   UNL     1     -52.560 -48.235  21.497  1.00  0.00     0.055 C 
BRANCH   4   5
ATOM      5  C   UNL     1     -51.744 -48.895  22.583  1.00  0.00    -0.024 C 
ATOM      6  C   UNL     1     -50.881 -49.268  24.853  1.00  0.00     0.039 C 
ATOM      7  C   UNL     1     -51.745 -48.510  23.878  1.00  0.00    -0.080 C 
ATOM      8  C   UNL     1     -52.587 -47.357  24.369  1.00  0.00     0.039 C 
ENDBRANCH   4   5
ENDBRANCH   1   4
BRANCH   2   9
ATOM      9  C   UNL     1     -55.087 -46.629  21.437  1.00  0.00    -0.005 C 
ATOM     10  C   UNL     1     -56.048 -45.875  20.903  1.00  0.00     0.009 C 
ENDBRANCH   2   9
TORSDOF 3
ENDMDL
