MODEL 1
REMARK VINA RESULT:    -3.033      0.000      0.000
REMARK INTER + INTRA:          -3.419
REMARK INTER:                  -3.388
REMARK INTRA:                  -0.031
REMARK UNBOUND:                -0.031
REMARK SMILES CCCC(=O)[O-]
REMARK SMILES IDX 3 1 4 2 5 3 6 4 2 5 1 6
REMARK H PARENT
REMARK Flexibility Score: inf
ROOT
ATOM      1  C   UNL     1       3.000  28.469  56.710  1.00  0.00     0.052 C 
ENDROOT
BRANCH   1   2
ATOM      2  C   UNL     1       3.858  27.526  57.496  1.00  0.00     0.041 C 
ATOM      3  O   UNL     1       5.025  27.258  57.108  1.00  0.00    -0.550 OA
ATOM      4  O   UNL     1       3.381  26.971  58.678  1.00  0.00    -0.550 OA
ENDBRANCH   1   2
BRANCH   1   5
ATOM      5  C   UNL     1       1.736  28.869  57.481  1.00  0.00     0.003 C 
ATOM      6  C   UNL     1       0.456  28.524  56.719  1.00  0.00     0.004 C 
ENDBRANCH   1   5
TORSDOF 2
ENDMDL
MODEL 2
REMARK VINA RESULT:    -3.017      2.993      3.640
REMARK INTER + INTRA:          -3.401
REMARK INTER:                  -3.336
REMARK INTRA:                  -0.065
REMARK UNBOUND:                -0.031
REMARK SMILES CCCC(=O)[O-]
REMARK SMILES IDX 3 1 4 2 5 3 6 4 2 5 1 6
REMARK H PARENT
REMARK Flexibility Score: inf
ROOT
ATOM      1  C   UNL     1       1.112  29.125  57.071  1.00  0.00     0.052 C 
ENDROOT
BRANCH   1   2
ATOM      2  C   UNL     1       0.893  28.978  55.597  1.00  0.00     0.041 C 
ATOM      3  O   UNL     1       0.917  29.990  54.849  1.00  0.00    -0.550 OA
ATOM      4  O   UNL     1       0.699  27.718  55.043  1.00  0.00    -0.550 OA
ENDBRANCH   1   2
BRANCH   1   5
ATOM      5  C   UNL     1       2.222  28.195  57.579  1.00  0.00     0.003 C 
ATOM      6  C   UNL     1       3.572  28.492  56.926  1.00  0.00     0.004 C 
ENDBRANCH   1   5
TORSDOF 2
ENDMDL
MODEL 3
REMARK VINA RESULT:    -2.999      1.932      2.330
REMARK INTER + INTRA:          -3.381
REMARK INTER:                  -3.344
REMARK INTRA:                  -0.037
REMARK UNBOUND:                -0.031
REMARK SMILES CCCC(=O)[O-]
REMARK SMILES IDX 3 1 4 2 5 3 6 4 2 5 1 6
REMARK H PARENT
REMARK Flexibility Score: inf
ROOT
ATOM      1  C   UNL     1       1.764  28.827  57.307  1.00  0.00     0.052 C 
ENDROOT
BRANCH   1   2
ATOM      2  C   UNL     1       2.545  28.412  56.098  1.00  0.00     0.041 C 
ATOM      3  O   UNL     1       3.802  28.344  56.148  1.00  0.00    -0.550 OA
ATOM      4  O   UNL     1       1.884  28.067  54.926  1.00  0.00    -0.550 OA
ENDBRANCH   1   2
BRANCH   1   5
ATOM      5  C   UNL     1       0.292  28.410  57.206  1.00  0.00     0.003 C 
ATOM      6  C   UNL     1      -0.651  29.613  57.165  1.00  0.00     0.004 C 
ENDBRANCH   1   5
TORSDOF 2
ENDMDL
MODEL 4
REMARK VINA RESULT:    -2.914      2.698      3.600
REMARK INTER + INTRA:          -3.286
REMARK INTER:                  -3.263
REMARK INTRA:                  -0.024
REMARK UNBOUND:                -0.031
REMARK SMILES CCCC(=O)[O-]
REMARK SMILES IDX 3 1 4 2 5 3 6 4 2 5 1 6
REMARK H PARENT
REMARK Flexibility Score: inf
ROOT
ATOM      1  C   UNL     1       1.746  28.707  57.432  1.00  0.00     0.052 C 
ENDROOT
BRANCH   1   2
ATOM      2  C   UNL     1       0.645  28.611  56.421  1.00  0.00     0.041 C 
ATOM      3  O   UNL     1       0.815  27.952  55.361  1.00  0.00    -0.550 OA
ATOM      4  O   UNL     1      -0.580  29.218  56.665  1.00  0.00    -0.550 OA
ENDBRANCH   1   2
BRANCH   1   5
ATOM      5  C   UNL     1       3.096  28.272  56.848  1.00  0.00     0.003 C 
ATOM      6  C   UNL     1       3.894  27.400  57.819  1.00  0.00     0.004 C 
ENDBRANCH   1   5
TORSDOF 2
ENDMDL
MODEL 5
REMARK VINA RESULT:    -2.912      8.433      9.480
REMARK INTER + INTRA:          -3.283
REMARK INTER:                  -3.273
REMARK INTRA:                  -0.010
REMARK UNBOUND:                -0.031
REMARK SMILES CCCC(=O)[O-]
REMARK SMILES IDX 3 1 4 2 5 3 6 4 2 5 1 6
REMARK H PARENT
REMARK Flexibility Score: inf
ROOT
ATOM      1  C   UNL     1      -6.105  31.531  59.712  1.00  0.00     0.052 C 
ENDROOT
BRANCH   1   2
ATOM      2  C   UNL     1      -4.732  30.967  59.514  1.00  0.00     0.041 C 
ATOM      3  O   UNL     1      -3.749  31.462  60.125  1.00  0.00    -0.550 OA
ATOM      4  O   UNL     1      -4.543  29.870  58.681  1.00  0.00    -0.550 OA
ENDBRANCH   1   2
BRANCH   1   5
ATOM      5  C   UNL     1      -6.757  31.927  58.381  1.00  0.00     0.003 C 
ATOM      6  C   UNL     1      -8.284  31.927  58.459  1.00  0.00     0.004 C 
ENDBRANCH   1   5
TORSDOF 2
ENDMDL
MODEL 6
REMARK VINA RESULT:    -2.818      2.258      3.429
REMARK INTER + INTRA:          -3.179
REMARK INTER:                  -3.132
REMARK INTRA:                  -0.047
REMARK UNBOUND:                -0.031
REMARK SMILES CCCC(=O)[O-]
REMARK SMILES IDX 3 1 4 2 5 3 6 4 2 5 1 6
REMARK H PARENT
REMARK Flexibility Score: inf
ROOT
ATOM      1  C   UNL     1       3.313  27.780  57.594  1.00  0.00     0.052 C 
ENDROOT
BRANCH   1   2
ATOM      2  C   UNL     1       2.177  28.437  56.872  1.00  0.00     0.041 C 
ATOM      3  O   UNL     1       1.423  29.243  57.478  1.00  0.00    -0.550 OA
ATOM      4  O   UNL     1       1.973  28.187  55.520  1.00  0.00    -0.550 OA
ENDBRANCH   1   2
BRANCH   1   5
ATOM      5  C   UNL     1       4.623  27.873  56.802  1.00  0.00     0.003 C 
ATOM      6  C   UNL     1       5.388  29.164  57.094  1.00  0.00     0.004 C 
ENDBRANCH   1   5
TORSDOF 2
ENDMDL
MODEL 7
REMARK VINA RESULT:    -2.818      9.167     10.472
REMARK INTER + INTRA:          -3.179
REMARK INTER:                  -3.142
REMARK INTRA:                  -0.037
REMARK UNBOUND:                -0.031
REMARK SMILES CCCC(=O)[O-]
REMARK SMILES IDX 3 1 4 2 5 3 6 4 2 5 1 6
REMARK H PARENT
REMARK Flexibility Score: inf
ROOT
ATOM      1  C   UNL     1      -6.605  31.808  58.353  1.00  0.00     0.052 C 
ENDROOT
BRANCH   1   2
ATOM      2  C   UNL     1      -7.290  30.640  57.714  1.00  0.00     0.041 C 
ATOM      3  O   UNL     1      -8.521  30.691  57.455  1.00  0.00    -0.550 OA
ATOM      4  O   UNL     1      -6.562  29.507  57.370  1.00  0.00    -0.550 OA
ENDBRANCH   1   2
BRANCH   1   5
ATOM      5  C   UNL     1      -6.097  31.471  59.761  1.00  0.00     0.003 C 
ATOM      6  C   UNL     1      -4.590  31.217  59.789  1.00  0.00     0.004 C 
ENDBRANCH   1   5
TORSDOF 2
ENDMDL
MODEL 8
REMARK VINA RESULT:    -2.772     15.952     16.524
REMARK INTER + INTRA:          -3.127
REMARK INTER:                  -3.093
REMARK INTRA:                  -0.034
REMARK UNBOUND:                -0.031
REMARK SMILES CCCC(=O)[O-]
REMARK SMILES IDX 3 1 4 2 5 3 6 4 2 5 1 6
REMARK H PARENT
REMARK Flexibility Score: inf
ROOT
ATOM      1  C   UNL     1       0.148  28.754  40.296  1.00  0.00     0.052 C 
ENDROOT
BRANCH   1   2
ATOM      2  C   UNL     1      -0.070  27.720  41.357  1.00  0.00     0.041 C 
ATOM      3  O   UNL     1      -0.542  28.050  42.477  1.00  0.00    -0.550 OA
ATOM      4  O   UNL     1       0.214  26.385  41.097  1.00  0.00    -0.550 OA
ENDBRANCH   1   2
BRANCH   1   5
ATOM      5  C   UNL     1       0.920  29.967  40.832  1.00  0.00     0.003 C 
ATOM      6  C   UNL     1       2.304  29.588  41.359  1.00  0.00     0.004 C 
ENDBRANCH   1   5
TORSDOF 2
ENDMDL
MODEL 9
REMARK VINA RESULT:    -2.750     15.688     16.253
REMARK INTER + INTRA:          -3.102
REMARK INTER:                  -3.035
REMARK INTRA:                  -0.067
REMARK UNBOUND:                -0.031
REMARK SMILES CCCC(=O)[O-]
REMARK SMILES IDX 3 1 4 2 5 3 6 4 2 5 1 6
REMARK H PARENT
REMARK Flexibility Score: inf
ROOT
ATOM      1  C   UNL     1      -0.006  29.185  41.071  1.00  0.00     0.052 C 
ENDROOT
BRANCH   1   2
ATOM      2  C   UNL     1       1.291  29.412  41.785  1.00  0.00     0.041 C 
ATOM      3  O   UNL     1       2.362  29.527  41.133  1.00  0.00    -0.550 OA
ATOM      4  O   UNL     1       1.312  29.533  43.169  1.00  0.00    -0.550 OA
ENDBRANCH   1   2
BRANCH   1   5
ATOM      5  C   UNL     1       0.048  27.945  40.170  1.00  0.00     0.003 C 
ATOM      6  C   UNL     1       0.251  26.656  40.968  1.00  0.00     0.004 C 
ENDBRANCH   1   5
TORSDOF 2
ENDMDL
