MODEL 1
REMARK VINA RESULT:    -5.217      0.000      0.000
REMARK INTER + INTRA:          -6.367
REMARK INTER:                  -6.132
REMARK INTRA:                  -0.235
REMARK UNBOUND:                -0.235
REMARK SMILES CCCC[C@H]1OC(=O)C2=C1CCC=C2
REMARK SMILES IDX 3 1 2 2 1 3 4 4 5 5 10 6 6 7 9 8 11 9 7 10 14 11 12 12 8 13
REMARK SMILES IDX 13 14
REMARK H PARENT
REMARK Flexibility Score: inf
ROOT
ATOM      1  C   UNL     1     -27.854 -50.783  51.593  1.00  0.00     0.004 C 
ENDROOT
BRANCH   1   2
ATOM      2  C   UNL     1     -29.044 -50.126  50.875  1.00  0.00    -0.003 C 
ATOM      3  C   UNL     1     -30.314 -50.975  50.920  1.00  0.00     0.004 C 
ENDBRANCH   1   2
BRANCH   1   4
ATOM      4  C   UNL     1     -27.935 -52.316  51.727  1.00  0.00     0.050 C 
BRANCH   4   5
ATOM      5  C   UNL     1     -26.829 -52.910  52.616  1.00  0.00     0.204 C 
ATOM      6  C   UNL     1     -27.405 -53.589  53.839  1.00  0.00    -0.015 C 
ATOM      7  O   UNL     1     -26.024 -51.871  53.183  1.00  0.00    -0.454 OA
ATOM      8  C   UNL     1     -27.002 -52.988  54.945  1.00  0.00     0.062 C 
ATOM      9  C   UNL     1     -28.412 -54.705  53.876  1.00  0.00     0.040 C 
ATOM     10  C   UNL     1     -26.133 -51.906  54.563  1.00  0.00     0.338 C 
ATOM     11  C   UNL     1     -27.437 -53.408  56.283  1.00  0.00     0.011 C 
ATOM     12  C   UNL     1     -28.347 -55.464  55.223  1.00  0.00     0.032 C 
ATOM     13  O   UNL     1     -25.554 -51.107  55.342  1.00  0.00    -0.246 OA
ATOM     14  C   UNL     1     -28.139 -54.542  56.408  1.00  0.00    -0.026 C 
ENDBRANCH   4   5
ENDBRANCH   1   4
TORSDOF 3
ENDMDL
MODEL 2
REMARK VINA RESULT:    -5.073      2.132      5.320
REMARK INTER + INTRA:          -6.197
REMARK INTER:                  -5.971
REMARK INTRA:                  -0.227
REMARK UNBOUND:                -0.235
REMARK SMILES CCCC[C@H]1OC(=O)C2=C1CCC=C2
REMARK SMILES IDX 3 1 2 2 1 3 4 4 5 5 10 6 6 7 9 8 11 9 7 10 14 11 12 12 8 13
REMARK SMILES IDX 13 14
REMARK H PARENT
REMARK Flexibility Score: inf
ROOT
ATOM      1  C   UNL     1     -28.114 -54.075  54.444  1.00  0.00     0.004 C 
ENDROOT
BRANCH   1   2
ATOM      2  C   UNL     1     -27.819 -53.784  55.925  1.00  0.00    -0.003 C 
ATOM      3  C   UNL     1     -26.545 -52.965  56.132  1.00  0.00     0.004 C 
ENDBRANCH   1   2
BRANCH   1   4
ATOM      4  C   UNL     1     -26.985 -53.701  53.465  1.00  0.00     0.050 C 
BRANCH   4   5
ATOM      5  C   UNL     1     -27.438 -53.672  51.995  1.00  0.00     0.204 C 
ATOM      6  C   UNL     1     -28.186 -52.398  51.670  1.00  0.00    -0.015 C 
ATOM      7  O   UNL     1     -28.418 -54.685  51.748  1.00  0.00    -0.454 OA
ATOM      8  C   UNL     1     -29.433 -52.661  51.319  1.00  0.00     0.062 C 
ATOM      9  C   UNL     1     -27.699 -50.985  51.832  1.00  0.00     0.040 C 
ATOM     10  C   UNL     1     -29.606 -54.089  51.359  1.00  0.00     0.338 C 
ATOM     11  C   UNL     1     -30.405 -51.611  50.987  1.00  0.00     0.011 C 
ATOM     12  C   UNL     1     -28.498 -50.017  50.927  1.00  0.00     0.032 C 
ATOM     13  O   UNL     1     -30.661 -54.718  51.086  1.00  0.00    -0.246 OA
ATOM     14  C   UNL     1     -29.976 -50.347  50.875  1.00  0.00    -0.026 C 
ENDBRANCH   4   5
ENDBRANCH   1   4
TORSDOF 3
ENDMDL
MODEL 3
REMARK VINA RESULT:    -4.885      1.771      4.556
REMARK INTER + INTRA:          -5.976
REMARK INTER:                  -5.348
REMARK INTRA:                  -0.629
REMARK UNBOUND:                -0.235
REMARK SMILES CCCC[C@H]1OC(=O)C2=C1CCC=C2
REMARK SMILES IDX 3 1 2 2 1 3 4 4 5 5 10 6 6 7 9 8 11 9 7 10 14 11 12 12 8 13
REMARK SMILES IDX 13 14
REMARK H PARENT
REMARK Flexibility Score: inf
ROOT
ATOM      1  C   UNL     1     -26.822 -56.432  55.487  1.00  0.00     0.004 C 
ENDROOT
BRANCH   1   2
ATOM      2  C   UNL     1     -26.637 -57.110  54.119  1.00  0.00    -0.003 C 
ATOM      3  C   UNL     1     -25.645 -56.376  53.217  1.00  0.00     0.004 C 
ENDBRANCH   1   2
BRANCH   1   4
ATOM      4  C   UNL     1     -28.265 -55.997  55.813  1.00  0.00     0.050 C 
BRANCH   4   5
ATOM      5  C   UNL     1     -28.449 -54.471  55.842  1.00  0.00     0.204 C 
ATOM      6  C   UNL     1     -28.101 -53.843  54.510  1.00  0.00    -0.015 C 
ATOM      7  O   UNL     1     -27.505 -53.865  56.732  1.00  0.00    -0.454 OA
ATOM      8  C   UNL     1     -27.074 -53.020  54.631  1.00  0.00     0.062 C 
ATOM      9  C   UNL     1     -28.695 -54.163  53.166  1.00  0.00     0.040 C 
ATOM     10  C   UNL     1     -26.682 -53.013  56.015  1.00  0.00     0.338 C 
ATOM     11  C   UNL     1     -26.493 -52.300  53.492  1.00  0.00     0.011 C 
ATOM     12  C   UNL     1     -28.486 -52.992  52.177  1.00  0.00     0.032 C 
ATOM     13  O   UNL     1     -25.740 -52.346  56.518  1.00  0.00    -0.246 OA
ATOM     14  C   UNL     1     -27.121 -52.347  52.309  1.00  0.00    -0.026 C 
ENDBRANCH   4   5
ENDBRANCH   1   4
TORSDOF 3
ENDMDL
MODEL 4
REMARK VINA RESULT:    -4.684      2.274      3.103
REMARK INTER + INTRA:          -5.740
REMARK INTER:                  -5.335
REMARK INTRA:                  -0.405
REMARK UNBOUND:                -0.235
REMARK SMILES CCCC[C@H]1OC(=O)C2=C1CCC=C2
REMARK SMILES IDX 3 1 2 2 1 3 4 4 5 5 10 6 6 7 9 8 11 9 7 10 14 11 12 12 8 13
REMARK SMILES IDX 13 14
REMARK H PARENT
REMARK Flexibility Score: inf
ROOT
ATOM      1  C   UNL     1     -27.720 -52.712  50.875  1.00  0.00     0.004 C 
ENDROOT
BRANCH   1   2
ATOM      2  C   UNL     1     -28.742 -51.563  50.911  1.00  0.00    -0.003 C 
ATOM      3  C   UNL     1     -28.145 -50.245  51.402  1.00  0.00     0.004 C 
ENDBRANCH   1   2
BRANCH   1   4
ATOM      4  C   UNL     1     -28.125 -53.973  51.662  1.00  0.00     0.050 C 
BRANCH   4   5
ATOM      5  C   UNL     1     -28.826 -53.662  52.995  1.00  0.00     0.204 C 
ATOM      6  C   UNL     1     -27.829 -53.492  54.120  1.00  0.00    -0.015 C 
ATOM      7  O   UNL     1     -29.604 -54.782  53.430  1.00  0.00    -0.454 OA
ATOM      8  C   UNL     1     -28.004 -54.417  55.048  1.00  0.00     0.062 C 
ATOM      9  C   UNL     1     -26.680 -52.524  54.185  1.00  0.00     0.040 C 
ATOM     10  C   UNL     1     -29.112 -55.239  54.642  1.00  0.00     0.338 C 
ATOM     11  C   UNL     1     -27.152 -54.520  56.239  1.00  0.00     0.011 C 
ATOM     12  C   UNL     1     -26.242 -52.282  55.649  1.00  0.00     0.032 C 
ATOM     13  O   UNL     1     -29.578 -56.223  55.271  1.00  0.00    -0.246 OA
ATOM     14  C   UNL     1     -26.264 -53.547  56.485  1.00  0.00    -0.026 C 
ENDBRANCH   4   5
ENDBRANCH   1   4
TORSDOF 3
ENDMDL
MODEL 5
REMARK VINA RESULT:    -4.646      2.624      4.275
REMARK INTER + INTRA:          -5.695
REMARK INTER:                  -5.089
REMARK INTRA:                  -0.607
REMARK UNBOUND:                -0.235
REMARK SMILES CCCC[C@H]1OC(=O)C2=C1CCC=C2
REMARK SMILES IDX 3 1 2 2 1 3 4 4 5 5 10 6 6 7 9 8 11 9 7 10 14 11 12 12 8 13
REMARK SMILES IDX 13 14
REMARK H PARENT
REMARK Flexibility Score: inf
ROOT
ATOM      1  C   UNL     1     -27.272 -55.946  52.013  1.00  0.00     0.004 C 
ENDROOT
BRANCH   1   2
ATOM      2  C   UNL     1     -25.886 -56.545  52.304  1.00  0.00    -0.003 C 
ATOM      3  C   UNL     1     -25.477 -56.424  53.772  1.00  0.00     0.004 C 
ENDBRANCH   1   2
BRANCH   1   4
ATOM      4  C   UNL     1     -27.298 -54.418  51.820  1.00  0.00     0.050 C 
BRANCH   4   5
ATOM      5  C   UNL     1     -28.138 -53.683  52.878  1.00  0.00     0.204 C 
ATOM      6  C   UNL     1     -27.264 -53.030  53.925  1.00  0.00    -0.015 C 
ATOM      7  O   UNL     1     -28.908 -54.614  53.647  1.00  0.00    -0.454 OA
ATOM      8  C   UNL     1     -27.490 -53.549  55.119  1.00  0.00     0.062 C 
ATOM      9  C   UNL     1     -26.167 -52.024  53.703  1.00  0.00     0.040 C 
ATOM     10  C   UNL     1     -28.518 -54.545  54.974  1.00  0.00     0.338 C 
ATOM     11  C   UNL     1     -26.755 -53.134  56.320  1.00  0.00     0.011 C 
ATOM     12  C   UNL     1     -25.885 -51.220  54.994  1.00  0.00     0.032 C 
ATOM     13  O   UNL     1     -29.002 -55.254  55.894  1.00  0.00    -0.246 OA
ATOM     14  C   UNL     1     -25.937 -52.077  56.243  1.00  0.00    -0.026 C 
ENDBRANCH   4   5
ENDBRANCH   1   4
TORSDOF 3
ENDMDL
MODEL 6
REMARK VINA RESULT:    -4.618      1.776      4.621
REMARK INTER + INTRA:          -5.662
REMARK INTER:                  -5.240
REMARK INTRA:                  -0.422
REMARK UNBOUND:                -0.235
REMARK SMILES CCCC[C@H]1OC(=O)C2=C1CCC=C2
REMARK SMILES IDX 3 1 2 2 1 3 4 4 5 5 10 6 6 7 9 8 11 9 7 10 14 11 12 12 8 13
REMARK SMILES IDX 13 14
REMARK H PARENT
REMARK Flexibility Score: inf
ROOT
ATOM      1  C   UNL     1     -29.203 -57.010  55.594  1.00  0.00     0.004 C 
ENDROOT
BRANCH   1   2
ATOM      2  C   UNL     1     -30.436 -56.509  56.365  1.00  0.00    -0.003 C 
ATOM      3  C   UNL     1     -31.629 -56.210  55.459  1.00  0.00     0.004 C 
ENDBRANCH   1   2
BRANCH   1   4
ATOM      4  C   UNL     1     -27.954 -56.113  55.700  1.00  0.00     0.050 C 
BRANCH   4   5
ATOM      5  C   UNL     1     -28.285 -54.613  55.773  1.00  0.00     0.204 C 
ATOM      6  C   UNL     1     -28.018 -53.921  54.455  1.00  0.00    -0.015 C 
ATOM      7  O   UNL     1     -27.393 -53.942  56.668  1.00  0.00    -0.454 OA
ATOM      8  C   UNL     1     -27.074 -53.004  54.587  1.00  0.00     0.062 C 
ATOM      9  C   UNL     1     -28.596 -54.261  53.109  1.00  0.00     0.040 C 
ATOM     10  C   UNL     1     -26.665 -52.996  55.967  1.00  0.00     0.338 C 
ATOM     11  C   UNL     1     -26.581 -52.202  53.461  1.00  0.00     0.011 C 
ATOM     12  C   UNL     1     -28.516 -53.050  52.150  1.00  0.00     0.032 C 
ATOM     13  O   UNL     1     -25.786 -52.254  56.477  1.00  0.00    -0.246 OA
ATOM     14  C   UNL     1     -27.217 -52.279  52.285  1.00  0.00    -0.026 C 
ENDBRANCH   4   5
ENDBRANCH   1   4
TORSDOF 3
ENDMDL
MODEL 7
REMARK VINA RESULT:    -4.475     14.630     16.806
REMARK INTER + INTRA:          -5.495
REMARK INTER:                  -4.868
REMARK INTRA:                  -0.628
REMARK UNBOUND:                -0.235
REMARK SMILES CCCC[C@H]1OC(=O)C2=C1CCC=C2
REMARK SMILES IDX 3 1 2 2 1 3 4 4 5 5 10 6 6 7 9 8 11 9 7 10 14 11 12 12 8 13
REMARK SMILES IDX 13 14
REMARK H PARENT
REMARK Flexibility Score: inf
ROOT
ATOM      1  C   UNL     1     -24.267 -66.932  56.773  1.00  0.00     0.004 C 
ENDROOT
BRANCH   1   2
ATOM      2  C   UNL     1     -24.100 -65.904  57.905  1.00  0.00    -0.003 C 
ATOM      3  C   UNL     1     -23.036 -64.849  57.604  1.00  0.00     0.004 C 
ENDBRANCH   1   2
BRANCH   1   4
ATOM      4  C   UNL     1     -24.020 -68.398  57.179  1.00  0.00     0.050 C 
BRANCH   4   5
ATOM      5  C   UNL     1     -22.584 -68.873  56.902  1.00  0.00     0.204 C 
ATOM      6  C   UNL     1     -21.675 -68.610  58.083  1.00  0.00    -0.015 C 
ATOM      7  O   UNL     1     -21.984 -68.092  55.863  1.00  0.00    -0.454 OA
ATOM      8  C   UNL     1     -20.712 -67.765  57.757  1.00  0.00     0.062 C 
ATOM      9  C   UNL     1     -21.852 -69.089  59.497  1.00  0.00     0.040 C 
ATOM     10  C   UNL     1     -20.882 -67.425  56.369  1.00  0.00     0.338 C 
ATOM     11  C   UNL     1     -19.705 -67.297  58.718  1.00  0.00     0.011 C 
ATOM     12  C   UNL     1     -20.505 -69.078  60.258  1.00  0.00     0.032 C 
ATOM     13  O   UNL     1     -20.154 -66.646  55.701  1.00  0.00    -0.246 OA
ATOM     14  C   UNL     1     -19.655 -67.867  59.929  1.00  0.00    -0.026 C 
ENDBRANCH   4   5
ENDBRANCH   1   4
TORSDOF 3
ENDMDL
MODEL 8
REMARK VINA RESULT:    -4.427      1.850      4.407
REMARK INTER + INTRA:          -5.439
REMARK INTER:                  -4.771
REMARK INTRA:                  -0.668
REMARK UNBOUND:                -0.235
REMARK SMILES CCCC[C@H]1OC(=O)C2=C1CCC=C2
REMARK SMILES IDX 3 1 2 2 1 3 4 4 5 5 10 6 6 7 9 8 11 9 7 10 14 11 12 12 8 13
REMARK SMILES IDX 13 14
REMARK H PARENT
REMARK Flexibility Score: inf
ROOT
ATOM      1  C   UNL     1     -26.292 -55.742  54.988  1.00  0.00     0.004 C 
ENDROOT
BRANCH   1   2
ATOM      2  C   UNL     1     -26.317 -56.656  53.752  1.00  0.00    -0.003 C 
ATOM      3  C   UNL     1     -25.680 -56.015  52.519  1.00  0.00     0.004 C 
ENDBRANCH   1   2
BRANCH   1   4
ATOM      4  C   UNL     1     -27.675 -55.306  55.508  1.00  0.00     0.050 C 
BRANCH   4   5
ATOM      5  C   UNL     1     -28.055 -53.872  55.102  1.00  0.00     0.204 C 
ATOM      6  C   UNL     1     -28.572 -53.817  53.681  1.00  0.00    -0.015 C 
ATOM      7  O   UNL     1     -26.892 -53.038  55.046  1.00  0.00    -0.454 OA
ATOM      8  C   UNL     1     -27.784 -53.076  52.921  1.00  0.00     0.062 C 
ATOM      9  C   UNL     1     -29.731 -54.580  53.100  1.00  0.00     0.040 C 
ATOM     10  C   UNL     1     -26.723 -52.574  53.753  1.00  0.00     0.338 C 
ATOM     11  C   UNL     1     -28.021 -52.877  51.486  1.00  0.00     0.011 C 
ATOM     12  C   UNL     1     -30.269 -53.884  51.828  1.00  0.00     0.032 C 
ATOM     13  O   UNL     1     -25.778 -51.829  53.383  1.00  0.00    -0.246 OA
ATOM     14  C   UNL     1     -29.164 -53.326  50.952  1.00  0.00    -0.026 C 
ENDBRANCH   4   5
ENDBRANCH   1   4
TORSDOF 3
ENDMDL
MODEL 9
REMARK VINA RESULT:    -4.413     15.209     16.891
REMARK INTER + INTRA:          -5.422
REMARK INTER:                  -4.816
REMARK INTRA:                  -0.606
REMARK UNBOUND:                -0.235
REMARK SMILES CCCC[C@H]1OC(=O)C2=C1CCC=C2
REMARK SMILES IDX 3 1 2 2 1 3 4 4 5 5 10 6 6 7 9 8 11 9 7 10 14 11 12 12 8 13
REMARK SMILES IDX 13 14
REMARK H PARENT
REMARK Flexibility Score: inf
ROOT
ATOM      1  C   UNL     1     -21.754 -66.630  55.065  1.00  0.00     0.004 C 
ENDROOT
BRANCH   1   2
ATOM      2  C   UNL     1     -20.898 -67.726  54.409  1.00  0.00    -0.003 C 
ATOM      3  C   UNL     1     -20.627 -68.910  55.336  1.00  0.00     0.004 C 
ENDBRANCH   1   2
BRANCH   1   4
ATOM      4  C   UNL     1     -21.058 -65.840  56.191  1.00  0.00     0.050 C 
BRANCH   4   5
ATOM      5  C   UNL     1     -21.783 -65.938  57.543  1.00  0.00     0.204 C 
ATOM      6  C   UNL     1     -21.147 -66.977  58.440  1.00  0.00    -0.015 C 
ATOM      7  O   UNL     1     -23.111 -66.443  57.369  1.00  0.00    -0.454 OA
ATOM      8  C   UNL     1     -21.998 -67.953  58.707  1.00  0.00     0.062 C 
ATOM      9  C   UNL     1     -19.715 -67.039  58.895  1.00  0.00     0.040 C 
ATOM     10  C   UNL     1     -23.238 -67.643  58.048  1.00  0.00     0.338 C 
ATOM     11  C   UNL     1     -21.639 -69.120  59.523  1.00  0.00     0.011 C 
ATOM     12  C   UNL     1     -19.579 -67.893  60.178  1.00  0.00     0.032 C 
ATOM     13  O   UNL     1     -24.286 -68.338  58.071  1.00  0.00    -0.246 OA
ATOM     14  C   UNL     1     -20.461 -69.125  60.160  1.00  0.00    -0.026 C 
ENDBRANCH   4   5
ENDBRANCH   1   4
TORSDOF 3
ENDMDL
