MODEL 1
REMARK VINA RESULT:    -4.169      0.000      0.000
REMARK INTER + INTRA:          -5.772
REMARK INTER:                  -5.631
REMARK INTRA:                  -0.141
REMARK UNBOUND:                -0.141
REMARK SMILES CCCCCCCC(=O)[O-]
REMARK SMILES IDX 5 1 6 2 7 3 8 4 9 5 10 6 4 7 3 8 2 9 1 10
REMARK H PARENT
REMARK Flexibility Score: inf
ROOT
ATOM      1  C   UNL     1     -14.031   2.389  -8.621  1.00  0.00     0.000 C 
ENDROOT
BRANCH   1   2
ATOM      2  C   UNL     1     -14.091   1.408  -9.798  1.00  0.00     0.006 C 
BRANCH   2   3
ATOM      3  C   UNL     1     -15.426   0.657  -9.821  1.00  0.00     0.053 C 
BRANCH   3   4
ATOM      4  C   UNL     1     -15.300  -0.657  -9.116  1.00  0.00     0.041 C 
ATOM      5  O   UNL     1     -15.999  -0.899  -8.099  1.00  0.00    -0.550 OA
ATOM      6  O   UNL     1     -14.445  -1.633  -9.613  1.00  0.00    -0.550 OA
ENDBRANCH   3   4
ENDBRANCH   2   3
ENDBRANCH   1   2
BRANCH   1   7
ATOM      7  C   UNL     1     -13.270   3.663  -9.003  1.00  0.00     0.000 C 
BRANCH   7   8
ATOM      8  C   UNL     1     -12.054   3.334  -9.882  1.00  0.00    -0.000 C 
BRANCH   8   9
ATOM      9  C   UNL     1     -10.937   2.625  -9.102  1.00  0.00    -0.003 C 
ATOM     10  C   UNL     1     -10.648   1.219  -9.629  1.00  0.00     0.004 C 
ENDBRANCH   8   9
ENDBRANCH   7   8
ENDBRANCH   1   7
TORSDOF 6
ENDMDL
MODEL 2
REMARK VINA RESULT:    -4.140     15.928     16.816
REMARK INTER + INTRA:          -5.733
REMARK INTER:                  -5.135
REMARK INTRA:                  -0.598
REMARK UNBOUND:                -0.141
REMARK SMILES CCCCCCCC(=O)[O-]
REMARK SMILES IDX 5 1 6 2 7 3 8 4 9 5 10 6 4 7 3 8 2 9 1 10
REMARK H PARENT
REMARK Flexibility Score: inf
ROOT
ATOM      1  C   UNL     1     -13.173   4.070   6.127  1.00  0.00     0.000 C 
ENDROOT
BRANCH   1   2
ATOM      2  C   UNL     1     -12.598   5.058   5.104  1.00  0.00     0.006 C 
BRANCH   2   3
ATOM      3  C   UNL     1     -11.721   6.110   5.789  1.00  0.00     0.053 C 
BRANCH   3   4
ATOM      4  C   UNL     1     -10.272   5.807   5.571  1.00  0.00     0.041 C 
ATOM      5  O   UNL     1      -9.902   5.197   4.534  1.00  0.00    -0.550 OA
ATOM      6  O   UNL     1      -9.324   6.242   6.488  1.00  0.00    -0.550 OA
ENDBRANCH   3   4
ENDBRANCH   2   3
ENDBRANCH   1   2
BRANCH   1   7
ATOM      7  C   UNL     1     -12.302   2.813   6.229  1.00  0.00     0.000 C 
BRANCH   7   8
ATOM      8  C   UNL     1     -11.355   2.896   7.436  1.00  0.00    -0.000 C 
BRANCH   8   9
ATOM      9  C   UNL     1     -11.996   3.602   8.640  1.00  0.00    -0.003 C 
ATOM     10  C   UNL     1     -11.134   4.741   9.186  1.00  0.00     0.004 C 
ENDBRANCH   8   9
ENDBRANCH   7   8
ENDBRANCH   1   7
TORSDOF 6
ENDMDL
MODEL 3
REMARK VINA RESULT:    -4.103     15.895     16.723
REMARK INTER + INTRA:          -5.683
REMARK INTER:                  -5.334
REMARK INTRA:                  -0.349
REMARK UNBOUND:                -0.141
REMARK SMILES CCCCCCCC(=O)[O-]
REMARK SMILES IDX 5 1 6 2 7 3 8 4 9 5 10 6 4 7 3 8 2 9 1 10
REMARK H PARENT
REMARK Flexibility Score: inf
ROOT
ATOM      1  C   UNL     1     -10.345   5.203   6.783  1.00  0.00     0.000 C 
ENDROOT
BRANCH   1   2
ATOM      2  C   UNL     1     -11.427   5.758   5.846  1.00  0.00     0.006 C 
BRANCH   2   3
ATOM      3  C   UNL     1     -12.643   4.829   5.800  1.00  0.00     0.053 C 
BRANCH   3   4
ATOM      4  C   UNL     1     -12.754   4.179   4.457  1.00  0.00     0.041 C 
ATOM      5  O   UNL     1     -11.893   3.339   4.087  1.00  0.00    -0.550 OA
ATOM      6  O   UNL     1     -13.836   4.464   3.633  1.00  0.00    -0.550 OA
ENDBRANCH   3   4
ENDBRANCH   2   3
ENDBRANCH   1   2
BRANCH   1   7
ATOM      7  C   UNL     1     -10.929   4.161   7.743  1.00  0.00     0.000 C 
BRANCH   7   8
ATOM      8  C   UNL     1     -11.212   4.779   9.120  1.00  0.00    -0.000 C 
BRANCH   8   9
ATOM      9  C   UNL     1     -11.884   3.790  10.084  1.00  0.00    -0.003 C 
ATOM     10  C   UNL     1     -12.210   2.449   9.424  1.00  0.00     0.004 C 
ENDBRANCH   8   9
ENDBRANCH   7   8
ENDBRANCH   1   7
TORSDOF 6
ENDMDL
MODEL 4
REMARK VINA RESULT:    -4.085     14.901     15.650
REMARK INTER + INTRA:          -5.659
REMARK INTER:                  -5.293
REMARK INTRA:                  -0.366
REMARK UNBOUND:                -0.141
REMARK SMILES CCCCCCCC(=O)[O-]
REMARK SMILES IDX 5 1 6 2 7 3 8 4 9 5 10 6 4 7 3 8 2 9 1 10
REMARK H PARENT
REMARK Flexibility Score: inf
ROOT
ATOM      1  C   UNL     1     -11.199   3.635   7.355  1.00  0.00     0.000 C 
ENDROOT
BRANCH   1   2
ATOM      2  C   UNL     1     -12.564   3.223   6.791  1.00  0.00     0.006 C 
BRANCH   2   3
ATOM      3  C   UNL     1     -13.182   4.355   5.965  1.00  0.00     0.053 C 
BRANCH   3   4
ATOM      4  C   UNL     1     -13.022   4.083   4.502  1.00  0.00     0.041 C 
ATOM      5  O   UNL     1     -12.073   3.367   4.091  1.00  0.00    -0.550 OA
ATOM      6  O   UNL     1     -13.951   4.581   3.596  1.00  0.00    -0.550 OA
ENDBRANCH   3   4
ENDBRANCH   2   3
ENDBRANCH   1   2
BRANCH   1   7
ATOM      7  C   UNL     1     -11.027   5.159   7.327  1.00  0.00     0.000 C 
BRANCH   7   8
ATOM      8  C   UNL     1      -9.727   5.552   6.610  1.00  0.00    -0.000 C 
BRANCH   8   9
ATOM      9  C   UNL     1      -9.973   6.068   5.184  1.00  0.00    -0.003 C 
ATOM     10  C   UNL     1      -9.442   7.485   4.968  1.00  0.00     0.004 C 
ENDBRANCH   8   9
ENDBRANCH   7   8
ENDBRANCH   1   7
TORSDOF 6
ENDMDL
MODEL 5
REMARK VINA RESULT:    -3.997     15.252     16.260
REMARK INTER + INTRA:          -5.540
REMARK INTER:                  -5.000
REMARK INTRA:                  -0.540
REMARK UNBOUND:                -0.141
REMARK SMILES CCCCCCCC(=O)[O-]
REMARK SMILES IDX 5 1 6 2 7 3 8 4 9 5 10 6 4 7 3 8 2 9 1 10
REMARK H PARENT
REMARK Flexibility Score: inf
ROOT
ATOM      1  C   UNL     1     -12.013   3.775   7.573  1.00  0.00     0.000 C 
ENDROOT
BRANCH   1   2
ATOM      2  C   UNL     1     -10.753   3.972   6.721  1.00  0.00     0.006 C 
BRANCH   2   3
ATOM      3  C   UNL     1     -10.263   5.421   6.791  1.00  0.00     0.053 C 
BRANCH   3   4
ATOM      4  C   UNL     1      -9.920   5.925   5.424  1.00  0.00     0.041 C 
ATOM      5  O   UNL     1      -9.860   5.128   4.452  1.00  0.00    -0.550 OA
ATOM      6  O   UNL     1      -9.716   7.283   5.214  1.00  0.00    -0.550 OA
ENDBRANCH   3   4
ENDBRANCH   2   3
ENDBRANCH   1   2
BRANCH   1   7
ATOM      7  C   UNL     1     -13.233   3.477   6.694  1.00  0.00     0.000 C 
BRANCH   7   8
ATOM      8  C   UNL     1     -12.857   3.506   5.205  1.00  0.00    -0.000 C 
BRANCH   8   9
ATOM      9  C   UNL     1     -13.611   4.595   4.427  1.00  0.00    -0.003 C 
ATOM     10  C   UNL     1     -13.895   5.837   5.272  1.00  0.00     0.004 C 
ENDBRANCH   8   9
ENDBRANCH   7   8
ENDBRANCH   1   7
TORSDOF 6
ENDMDL
MODEL 6
REMARK VINA RESULT:    -3.899     15.572     16.331
REMARK INTER + INTRA:          -5.408
REMARK INTER:                  -5.167
REMARK INTRA:                  -0.241
REMARK UNBOUND:                -0.141
REMARK SMILES CCCCCCCC(=O)[O-]
REMARK SMILES IDX 5 1 6 2 7 3 8 4 9 5 10 6 4 7 3 8 2 9 1 10
REMARK H PARENT
REMARK Flexibility Score: inf
ROOT
ATOM      1  C   UNL     1      -9.949   5.416   6.506  1.00  0.00     0.000 C 
ENDROOT
BRANCH   1   2
ATOM      2  C   UNL     1     -11.003   4.877   7.481  1.00  0.00     0.006 C 
BRANCH   2   3
ATOM      3  C   UNL     1     -11.217   3.374   7.283  1.00  0.00     0.053 C 
BRANCH   3   4
ATOM      4  C   UNL     1     -12.196   3.125   6.180  1.00  0.00     0.041 C 
ATOM      5  O   UNL     1     -11.900   2.351   5.233  1.00  0.00    -0.550 OA
ATOM      6  O   UNL     1     -13.456   3.711   6.222  1.00  0.00    -0.550 OA
ENDBRANCH   3   4
ENDBRANCH   2   3
ENDBRANCH   1   2
BRANCH   1   7
ATOM      7  C   UNL     1     -10.540   6.505   5.602  1.00  0.00     0.000 C 
BRANCH   7   8
ATOM      8  C   UNL     1      -9.428   7.334   4.943  1.00  0.00    -0.000 C 
BRANCH   8   9
ATOM      9  C   UNL     1      -8.704   8.250   5.941  1.00  0.00    -0.003 C 
ATOM     10  C   UNL     1      -8.060   9.464   5.271  1.00  0.00     0.004 C 
ENDBRANCH   8   9
ENDBRANCH   7   8
ENDBRANCH   1   7
TORSDOF 6
ENDMDL
MODEL 7
REMARK VINA RESULT:    -3.848     16.373     17.131
REMARK INTER + INTRA:          -5.339
REMARK INTER:                  -5.142
REMARK INTRA:                  -0.197
REMARK UNBOUND:                -0.141
REMARK SMILES CCCCCCCC(=O)[O-]
REMARK SMILES IDX 5 1 6 2 7 3 8 4 9 5 10 6 4 7 3 8 2 9 1 10
REMARK H PARENT
REMARK Flexibility Score: inf
ROOT
ATOM      1  C   UNL     1      -9.430   6.389   6.342  1.00  0.00     0.000 C 
ENDROOT
BRANCH   1   2
ATOM      2  C   UNL     1     -10.341   5.158   6.421  1.00  0.00     0.006 C 
BRANCH   2   3
ATOM      3  C   UNL     1     -10.776   4.887   7.865  1.00  0.00     0.053 C 
BRANCH   3   4
ATOM      4  C   UNL     1     -11.444   3.553   7.969  1.00  0.00     0.041 C 
ATOM      5  O   UNL     1     -12.113   3.258   8.993  1.00  0.00    -0.550 OA
ATOM      6  O   UNL     1     -11.367   2.652   6.913  1.00  0.00    -0.550 OA
ENDBRANCH   3   4
ENDBRANCH   2   3
ENDBRANCH   1   2
BRANCH   1   7
ATOM      7  C   UNL     1      -9.457   7.006   4.939  1.00  0.00     0.000 C 
BRANCH   7   8
ATOM      8  C   UNL     1      -9.179   8.516   4.998  1.00  0.00    -0.000 C 
BRANCH   8   9
ATOM      9  C   UNL     1      -8.276   8.904   6.178  1.00  0.00    -0.003 C 
ATOM     10  C   UNL     1      -7.129   9.828   5.767  1.00  0.00     0.004 C 
ENDBRANCH   8   9
ENDBRANCH   7   8
ENDBRANCH   1   7
TORSDOF 6
ENDMDL
MODEL 8
REMARK VINA RESULT:    -3.831     16.123     17.150
REMARK INTER + INTRA:          -5.316
REMARK INTER:                  -5.040
REMARK INTRA:                  -0.275
REMARK UNBOUND:                -0.141
REMARK SMILES CCCCCCCC(=O)[O-]
REMARK SMILES IDX 5 1 6 2 7 3 8 4 9 5 10 6 4 7 3 8 2 9 1 10
REMARK H PARENT
REMARK Flexibility Score: inf
ROOT
ATOM      1  C   UNL     1      -9.936   5.419   6.649  1.00  0.00     0.000 C 
ENDROOT
BRANCH   1   2
ATOM      2  C   UNL     1     -10.506   6.422   5.638  1.00  0.00     0.006 C 
BRANCH   2   3
ATOM      3  C   UNL     1      -9.385   7.103   4.847  1.00  0.00     0.053 C 
BRANCH   3   4
ATOM      4  C   UNL     1      -9.471   8.590   4.991  1.00  0.00     0.041 C 
ATOM      5  O   UNL     1     -10.589   9.146   5.148  1.00  0.00    -0.550 OA
ATOM      6  O   UNL     1      -8.313   9.356   5.001  1.00  0.00    -0.550 OA
ENDBRANCH   3   4
ENDBRANCH   2   3
ENDBRANCH   1   2
BRANCH   1   7
ATOM      7  C   UNL     1     -11.028   4.915   7.600  1.00  0.00     0.000 C 
BRANCH   7   8
ATOM      8  C   UNL     1     -11.202   3.393   7.478  1.00  0.00    -0.000 C 
BRANCH   8   9
ATOM      9  C   UNL     1     -12.640   2.992   7.115  1.00  0.00    -0.003 C 
ATOM     10  C   UNL     1     -13.331   4.018   6.216  1.00  0.00     0.004 C 
ENDBRANCH   8   9
ENDBRANCH   7   8
ENDBRANCH   1   7
TORSDOF 6
ENDMDL
MODEL 9
REMARK VINA RESULT:    -3.828     16.178     17.044
REMARK INTER + INTRA:          -5.312
REMARK INTER:                  -4.904
REMARK INTRA:                  -0.408
REMARK UNBOUND:                -0.141
REMARK SMILES CCCCCCCC(=O)[O-]
REMARK SMILES IDX 5 1 6 2 7 3 8 4 9 5 10 6 4 7 3 8 2 9 1 10
REMARK H PARENT
REMARK Flexibility Score: inf
ROOT
ATOM      1  C   UNL     1     -13.324   3.630   6.322  1.00  0.00     0.000 C 
ENDROOT
BRANCH   1   2
ATOM      2  C   UNL     1     -13.281   4.629   5.159  1.00  0.00     0.006 C 
BRANCH   2   3
ATOM      3  C   UNL     1     -13.919   5.963   5.556  1.00  0.00     0.053 C 
BRANCH   3   4
ATOM      4  C   UNL     1     -12.863   6.969   5.890  1.00  0.00     0.041 C 
ATOM      5  O   UNL     1     -13.185   8.103   6.330  1.00  0.00    -0.550 OA
ATOM      6  O   UNL     1     -11.520   6.636   5.763  1.00  0.00    -0.550 OA
ENDBRANCH   3   4
ENDBRANCH   2   3
ENDBRANCH   1   2
BRANCH   1   7
ATOM      7  C   UNL     1     -11.945   3.006   6.564  1.00  0.00     0.000 C 
BRANCH   7   8
ATOM      8  C   UNL     1     -11.574   3.055   8.054  1.00  0.00    -0.000 C 
BRANCH   8   9
ATOM      9  C   UNL     1     -11.196   4.468   8.521  1.00  0.00    -0.003 C 
ATOM     10  C   UNL     1     -11.561   4.725   9.984  1.00  0.00     0.004 C 
ENDBRANCH   8   9
ENDBRANCH   7   8
ENDBRANCH   1   7
TORSDOF 6
ENDMDL
