MODEL 1
REMARK VINA RESULT:    -1.790      0.000      0.000
REMARK INTER + INTRA:          -1.790
REMARK INTER:                  -1.790
REMARK INTRA:                   0.000
REMARK UNBOUND:                 0.000
REMARK SMILES CC(=O)[O-]
REMARK SMILES IDX 1 1 2 2 3 3 4 4
REMARK H PARENT
REMARK Flexibility Score: inf
ROOT
ATOM      1  C   UNL     1     -10.056  21.246  19.875  1.00  0.00     0.063 C 
ATOM      2  C   UNL     1     -11.271  21.848  19.252  1.00  0.00     0.038 C 
ATOM      3  O   UNL     1     -11.367  23.098  19.137  1.00  0.00    -0.550 OA
ATOM      4  O   UNL     1     -12.275  21.030  18.751  1.00  0.00    -0.550 OA
ENDROOT
TORSDOF 0
ENDMDL
MODEL 2
REMARK VINA RESULT:    -1.786      2.058      2.576
REMARK INTER + INTRA:          -1.786
REMARK INTER:                  -1.786
REMARK INTRA:                   0.000
REMARK UNBOUND:                 0.000
REMARK SMILES CC(=O)[O-]
REMARK SMILES IDX 1 1 2 2 3 3 4 4
REMARK H PARENT
REMARK Flexibility Score: inf
ROOT
ATOM      1  C   UNL     1     -11.244  22.373  19.127  1.00  0.00     0.063 C 
ATOM      2  C   UNL     1     -10.338  21.873  20.200  1.00  0.00     0.038 C 
ATOM      3  O   UNL     1      -9.483  20.986  19.942  1.00  0.00    -0.550 OA
ATOM      4  O   UNL     1     -10.398  22.422  21.474  1.00  0.00    -0.550 OA
ENDROOT
TORSDOF 0
ENDMDL
MODEL 3
REMARK VINA RESULT:    -1.724      2.035      2.487
REMARK INTER + INTRA:          -1.724
REMARK INTER:                  -1.724
REMARK INTRA:                   0.000
REMARK UNBOUND:                 0.000
REMARK SMILES CC(=O)[O-]
REMARK SMILES IDX 1 1 2 2 3 3 4 4
REMARK H PARENT
REMARK Flexibility Score: inf
ROOT
ATOM      1  C   UNL     1     -11.213  22.408  19.108  1.00  0.00     0.063 C 
ATOM      2  C   UNL     1     -11.776  23.154  20.271  1.00  0.00     0.038 C 
ATOM      3  O   UNL     1     -12.992  23.477  20.285  1.00  0.00    -0.550 OA
ATOM      4  O   UNL     1     -10.972  23.447  21.365  1.00  0.00    -0.550 OA
ENDROOT
TORSDOF 0
ENDMDL
MODEL 4
REMARK VINA RESULT:    -1.615      1.848      2.036
REMARK INTER + INTRA:          -1.615
REMARK INTER:                  -1.615
REMARK INTRA:                   0.000
REMARK UNBOUND:                 0.000
REMARK SMILES CC(=O)[O-]
REMARK SMILES IDX 1 1 2 2 3 3 4 4
REMARK H PARENT
REMARK Flexibility Score: inf
ROOT
ATOM      1  C   UNL     1     -10.804  22.620  21.352  1.00  0.00     0.063 C 
ATOM      2  C   UNL     1     -10.490  22.011  20.027  1.00  0.00     0.038 C 
ATOM      3  O   UNL     1      -9.616  21.110  19.939  1.00  0.00    -0.550 OA
ATOM      4  O   UNL     1     -11.198  22.398  18.898  1.00  0.00    -0.550 OA
ENDROOT
TORSDOF 0
ENDMDL
MODEL 5
REMARK VINA RESULT:    -1.564     27.807     28.215
REMARK INTER + INTRA:          -1.564
REMARK INTER:                  -1.564
REMARK INTRA:                   0.000
REMARK UNBOUND:                 0.000
REMARK SMILES CC(=O)[O-]
REMARK SMILES IDX 1 1 2 2 3 3 4 4
REMARK H PARENT
REMARK Flexibility Score: inf
ROOT
ATOM      1  C   UNL     1       5.284  40.746   4.580  1.00  0.00     0.063 C 
ATOM      2  C   UNL     1       3.919  40.908   5.160  1.00  0.00     0.038 C 
ATOM      3  O   UNL     1       2.922  41.033   4.402  1.00  0.00    -0.550 OA
ATOM      4  O   UNL     1       3.738  40.868   6.536  1.00  0.00    -0.550 OA
ENDROOT
TORSDOF 0
ENDMDL
MODEL 6
REMARK VINA RESULT:    -1.553      8.367      8.917
REMARK INTER + INTRA:          -1.553
REMARK INTER:                  -1.553
REMARK INTRA:                   0.000
REMARK UNBOUND:                 0.000
REMARK SMILES CC(=O)[O-]
REMARK SMILES IDX 1 1 2 2 3 3 4 4
REMARK H PARENT
REMARK Flexibility Score: inf
ROOT
ATOM      1  C   UNL     1      -3.365  23.254  22.012  1.00  0.00     0.063 C 
ATOM      2  C   UNL     1      -2.835  22.008  21.387  1.00  0.00     0.038 C 
ATOM      3  O   UNL     1      -3.268  21.630  20.267  1.00  0.00    -0.550 OA
ATOM      4  O   UNL     1      -1.825  21.290  22.014  1.00  0.00    -0.550 OA
ENDROOT
TORSDOF 0
ENDMDL
MODEL 7
REMARK VINA RESULT:    -1.465      8.361      8.576
REMARK INTER + INTRA:          -1.465
REMARK INTER:                  -1.465
REMARK INTRA:                   0.000
REMARK UNBOUND:                 0.000
REMARK SMILES CC(=O)[O-]
REMARK SMILES IDX 1 1 2 2 3 3 4 4
REMARK H PARENT
REMARK Flexibility Score: inf
ROOT
ATOM      1  C   UNL     1      -2.198  21.384  22.125  1.00  0.00     0.063 C 
ATOM      2  C   UNL     1      -3.009  22.336  21.313  1.00  0.00     0.038 C 
ATOM      3  O   UNL     1      -3.501  23.363  21.849  1.00  0.00    -0.550 OA
ATOM      4  O   UNL     1      -3.181  22.119  19.952  1.00  0.00    -0.550 OA
ENDROOT
TORSDOF 0
ENDMDL
MODEL 8
REMARK VINA RESULT:    -1.444     27.603     27.871
REMARK INTER + INTRA:          -1.444
REMARK INTER:                  -1.444
REMARK INTRA:                   0.000
REMARK UNBOUND:                 0.000
REMARK SMILES CC(=O)[O-]
REMARK SMILES IDX 1 1 2 2 3 3 4 4
REMARK H PARENT
REMARK Flexibility Score: inf
ROOT
ATOM      1  C   UNL     1       7.022  34.092   2.971  1.00  0.00     0.063 C 
ATOM      2  C   UNL     1       6.749  35.555   3.067  1.00  0.00     0.038 C 
ATOM      3  O   UNL     1       7.068  36.189   4.106  1.00  0.00    -0.550 OA
ATOM      4  O   UNL     1       6.190  36.231   1.991  1.00  0.00    -0.550 OA
ENDROOT
TORSDOF 0
ENDMDL
MODEL 9
REMARK VINA RESULT:    -1.430     18.191     18.549
REMARK INTER + INTRA:          -1.430
REMARK INTER:                  -1.430
REMARK INTRA:                   0.000
REMARK UNBOUND:                 0.000
REMARK SMILES CC(=O)[O-]
REMARK SMILES IDX 1 1 2 2 3 3 4 4
REMARK H PARENT
REMARK Flexibility Score: inf
ROOT
ATOM      1  C   UNL     1      -8.946  39.909  15.495  1.00  0.00     0.063 C 
ATOM      2  C   UNL     1      -8.620  39.947  16.950  1.00  0.00     0.038 C 
ATOM      3  O   UNL     1      -7.522  40.425  17.339  1.00  0.00    -0.550 OA
ATOM      4  O   UNL     1      -9.547  39.502  17.884  1.00  0.00    -0.550 OA
ENDROOT
TORSDOF 0
ENDMDL
