MODEL 1
REMARK VINA RESULT:    -4.206      0.000      0.000
REMARK INTER + INTRA:          -4.206
REMARK INTER:                  -4.206
REMARK INTRA:                   0.000
REMARK UNBOUND:                 0.000
REMARK SMILES CC(C)=C1CC[C@H](C)CC1=O
REMARK SMILES IDX 8 1 7 2 6 3 5 4 4 5 2 6 1 7 3 8 10 9 11 10 9 11
REMARK H PARENT
REMARK Flexibility Score: inf
ROOT
ATOM      1  C   UNL     1      22.561  30.064  30.127  1.00  0.00     0.008 C 
ATOM      2  C   UNL     1      21.858  28.714  29.948  1.00  0.00    -0.006 C 
ATOM      3  C   UNL     1      20.413  28.917  29.465  1.00  0.00     0.008 C 
ATOM      4  C   UNL     1      19.662  27.582  29.378  1.00  0.00     0.039 C 
ATOM      5  C   UNL     1      20.413  26.542  28.557  1.00  0.00    -0.006 C 
ATOM      6  C   UNL     1      19.748  25.598  27.828  1.00  0.00    -0.070 C 
ATOM      7  C   UNL     1      18.237  25.535  27.818  1.00  0.00     0.039 C 
ATOM      8  C   UNL     1      20.481  24.597  26.963  1.00  0.00     0.039 C 
ATOM      9  C   UNL     1      21.900  26.549  28.693  1.00  0.00     0.159 C 
ATOM     10  O   UNL     1      22.570  25.485  28.603  1.00  0.00    -0.295 OA
ATOM     11  C   UNL     1      22.627  27.837  28.950  1.00  0.00     0.084 C 
ENDROOT
TORSDOF 0
ENDMDL
MODEL 2
REMARK VINA RESULT:    -4.204      1.064      4.025
REMARK INTER + INTRA:          -4.204
REMARK INTER:                  -4.204
REMARK INTRA:                   0.000
REMARK UNBOUND:                 0.000
REMARK SMILES CC(C)=C1CC[C@H](C)CC1=O
REMARK SMILES IDX 8 1 7 2 6 3 5 4 4 5 2 6 1 7 3 8 10 9 11 10 9 11
REMARK H PARENT
REMARK Flexibility Score: inf
ROOT
ATOM      1  C   UNL     1      20.117  23.626  26.693  1.00  0.00     0.008 C 
ATOM      2  C   UNL     1      20.331  25.079  27.132  1.00  0.00    -0.006 C 
ATOM      3  C   UNL     1      19.092  25.609  27.871  1.00  0.00     0.008 C 
ATOM      4  C   UNL     1      19.248  27.093  28.228  1.00  0.00     0.039 C 
ATOM      5  C   UNL     1      20.543  27.381  28.976  1.00  0.00    -0.006 C 
ATOM      6  C   UNL     1      20.620  28.377  29.906  1.00  0.00    -0.070 C 
ATOM      7  C   UNL     1      19.425  29.249  30.221  1.00  0.00     0.039 C 
ATOM      8  C   UNL     1      21.882  28.634  30.696  1.00  0.00     0.039 C 
ATOM      9  C   UNL     1      21.737  26.591  28.548  1.00  0.00     0.159 C 
ATOM     10  O   UNL     1      22.897  27.079  28.601  1.00  0.00    -0.295 OA
ATOM     11  C   UNL     1      21.569  25.191  28.034  1.00  0.00     0.084 C 
ENDROOT
TORSDOF 0
ENDMDL
MODEL 3
REMARK VINA RESULT:    -4.171      3.991      6.021
REMARK INTER + INTRA:          -4.171
REMARK INTER:                  -4.171
REMARK INTRA:                   0.000
REMARK UNBOUND:                 0.000
REMARK SMILES CC(C)=C1CC[C@H](C)CC1=O
REMARK SMILES IDX 8 1 7 2 6 3 5 4 4 5 2 6 1 7 3 8 10 9 11 10 9 11
REMARK H PARENT
REMARK Flexibility Score: inf
ROOT
ATOM      1  C   UNL     1      20.353  27.548  28.899  1.00  0.00     0.008 C 
ATOM      2  C   UNL     1      19.742  28.833  29.470  1.00  0.00    -0.006 C 
ATOM      3  C   UNL     1      20.559  30.060  29.035  1.00  0.00     0.008 C 
ATOM      4  C   UNL     1      20.022  31.345  29.679  1.00  0.00     0.039 C 
ATOM      5  C   UNL     1      18.527  31.529  29.458  1.00  0.00    -0.006 C 
ATOM      6  C   UNL     1      17.973  32.772  29.347  1.00  0.00    -0.070 C 
ATOM      7  C   UNL     1      18.820  34.020  29.458  1.00  0.00     0.039 C 
ATOM      8  C   UNL     1      16.500  32.967  29.069  1.00  0.00     0.039 C 
ATOM      9  C   UNL     1      17.701  30.284  29.485  1.00  0.00     0.159 C 
ATOM     10  O   UNL     1      16.514  30.296  29.909  1.00  0.00    -0.295 OA
ATOM     11  C   UNL     1      18.284  28.984  29.012  1.00  0.00     0.084 C 
ENDROOT
TORSDOF 0
ENDMDL
MODEL 4
REMARK VINA RESULT:    -4.164      1.702      4.590
REMARK INTER + INTRA:          -4.164
REMARK INTER:                  -4.164
REMARK INTRA:                   0.000
REMARK UNBOUND:                 0.000
REMARK SMILES CC(C)=C1CC[C@H](C)CC1=O
REMARK SMILES IDX 8 1 7 2 6 3 5 4 4 5 2 6 1 7 3 8 10 9 11 10 9 11
REMARK H PARENT
REMARK Flexibility Score: inf
ROOT
ATOM      1  C   UNL     1      16.804  25.103  27.537  1.00  0.00     0.008 C 
ATOM      2  C   UNL     1      18.074  25.557  28.266  1.00  0.00    -0.006 C 
ATOM      3  C   UNL     1      19.326  25.164  27.465  1.00  0.00     0.008 C 
ATOM      4  C   UNL     1      20.609  25.519  28.228  1.00  0.00     0.039 C 
ATOM      5  C   UNL     1      20.637  26.972  28.681  1.00  0.00    -0.006 C 
ATOM      6  C   UNL     1      21.809  27.664  28.776  1.00  0.00    -0.070 C 
ATOM      7  C   UNL     1      23.134  27.011  28.450  1.00  0.00     0.039 C 
ATOM      8  C   UNL     1      21.844  29.124  29.168  1.00  0.00     0.039 C 
ATOM      9  C   UNL     1      19.330  27.546  29.121  1.00  0.00     0.159 C 
ATOM     10  O   UNL     1      19.272  28.424  30.024  1.00  0.00    -0.295 OA
ATOM     11  C   UNL     1      18.051  27.075  28.493  1.00  0.00     0.084 C 
ENDROOT
TORSDOF 0
ENDMDL
MODEL 5
REMARK VINA RESULT:    -4.111      1.849      4.489
REMARK INTER + INTRA:          -4.111
REMARK INTER:                  -4.111
REMARK INTRA:                   0.000
REMARK UNBOUND:                 0.000
REMARK SMILES CC(C)=C1CC[C@H](C)CC1=O
REMARK SMILES IDX 8 1 7 2 6 3 5 4 4 5 2 6 1 7 3 8 10 9 11 10 9 11
REMARK H PARENT
REMARK Flexibility Score: inf
ROOT
ATOM      1  C   UNL     1      20.820  23.998  27.118  1.00  0.00     0.008 C 
ATOM      2  C   UNL     1      20.529  25.196  28.027  1.00  0.00    -0.006 C 
ATOM      3  C   UNL     1      21.788  26.061  28.202  1.00  0.00     0.008 C 
ATOM      4  C   UNL     1      21.543  27.208  29.191  1.00  0.00     0.039 C 
ATOM      5  C   UNL     1      20.312  28.032  28.837  1.00  0.00    -0.006 C 
ATOM      6  C   UNL     1      20.247  29.367  29.115  1.00  0.00    -0.070 C 
ATOM      7  C   UNL     1      21.389  30.081  29.803  1.00  0.00     0.039 C 
ATOM      8  C   UNL     1      19.055  30.207  28.717  1.00  0.00     0.039 C 
ATOM      9  C   UNL     1      19.152  27.272  28.282  1.00  0.00     0.159 C 
ATOM     10  O   UNL     1      17.966  27.636  28.501  1.00  0.00    -0.295 OA
ATOM     11  C   UNL     1      19.386  26.044  27.451  1.00  0.00     0.084 C 
ENDROOT
TORSDOF 0
ENDMDL
MODEL 6
REMARK VINA RESULT:    -4.107      1.544      2.664
REMARK INTER + INTRA:          -4.107
REMARK INTER:                  -4.107
REMARK INTRA:                   0.000
REMARK UNBOUND:                 0.000
REMARK SMILES CC(C)=C1CC[C@H](C)CC1=O
REMARK SMILES IDX 8 1 7 2 6 3 5 4 4 5 2 6 1 7 3 8 10 9 11 10 9 11
REMARK H PARENT
REMARK Flexibility Score: inf
ROOT
ATOM      1  C   UNL     1      25.009  27.363  28.605  1.00  0.00     0.008 C 
ATOM      2  C   UNL     1      23.536  27.482  29.009  1.00  0.00    -0.006 C 
ATOM      3  C   UNL     1      22.992  28.878  28.665  1.00  0.00     0.008 C 
ATOM      4  C   UNL     1      21.548  29.050  29.155  1.00  0.00     0.039 C 
ATOM      5  C   UNL     1      20.632  27.931  28.678  1.00  0.00    -0.006 C 
ATOM      6  C   UNL     1      19.310  28.157  28.423  1.00  0.00    -0.070 C 
ATOM      7  C   UNL     1      18.695  29.524  28.620  1.00  0.00     0.039 C 
ATOM      8  C   UNL     1      18.404  27.069  27.893  1.00  0.00     0.039 C 
ATOM      9  C   UNL     1      21.238  26.567  28.620  1.00  0.00     0.159 C 
ATOM     10  O   UNL     1      20.548  25.535  28.838  1.00  0.00    -0.295 OA
ATOM     11  C   UNL     1      22.697  26.404  28.308  1.00  0.00     0.084 C 
ENDROOT
TORSDOF 0
ENDMDL
MODEL 7
REMARK VINA RESULT:    -4.077      1.269      4.228
REMARK INTER + INTRA:          -4.077
REMARK INTER:                  -4.077
REMARK INTRA:                   0.000
REMARK UNBOUND:                 0.000
REMARK SMILES CC(C)=C1CC[C@H](C)CC1=O
REMARK SMILES IDX 8 1 7 2 6 3 5 4 4 5 2 6 1 7 3 8 10 9 11 10 9 11
REMARK H PARENT
REMARK Flexibility Score: inf
ROOT
ATOM      1  C   UNL     1      17.376  25.242  27.805  1.00  0.00     0.008 C 
ATOM      2  C   UNL     1      18.453  26.330  27.747  1.00  0.00    -0.006 C 
ATOM      3  C   UNL     1      17.907  27.661  28.289  1.00  0.00     0.008 C 
ATOM      4  C   UNL     1      18.939  28.787  28.145  1.00  0.00     0.039 C 
ATOM      5  C   UNL     1      20.291  28.422  28.744  1.00  0.00    -0.006 C 
ATOM      6  C   UNL     1      21.100  29.369  29.300  1.00  0.00    -0.070 C 
ATOM      7  C   UNL     1      20.696  30.827  29.329  1.00  0.00     0.039 C 
ATOM      8  C   UNL     1      22.417  29.011  29.950  1.00  0.00     0.039 C 
ATOM      9  C   UNL     1      20.717  26.999  28.581  1.00  0.00     0.159 C 
ATOM     10  O   UNL     1      21.933  26.691  28.459  1.00  0.00    -0.295 OA
ATOM     11  C   UNL     1      19.691  25.904  28.550  1.00  0.00     0.084 C 
ENDROOT
TORSDOF 0
ENDMDL
MODEL 8
REMARK VINA RESULT:    -4.031      1.815      3.291
REMARK INTER + INTRA:          -4.031
REMARK INTER:                  -4.031
REMARK INTRA:                   0.000
REMARK UNBOUND:                 0.000
REMARK SMILES CC(C)=C1CC[C@H](C)CC1=O
REMARK SMILES IDX 8 1 7 2 6 3 5 4 4 5 2 6 1 7 3 8 10 9 11 10 9 11
REMARK H PARENT
REMARK Flexibility Score: inf
ROOT
ATOM      1  C   UNL     1      16.608  28.915  29.376  1.00  0.00     0.008 C 
ATOM      2  C   UNL     1      17.676  27.817  29.403  1.00  0.00    -0.006 C 
ATOM      3  C   UNL     1      17.522  26.882  28.193  1.00  0.00     0.008 C 
ATOM      4  C   UNL     1      18.518  25.717  28.257  1.00  0.00     0.039 C 
ATOM      5  C   UNL     1      19.953  26.186  28.455  1.00  0.00    -0.006 C 
ATOM      6  C   UNL     1      21.005  25.492  27.930  1.00  0.00    -0.070 C 
ATOM      7  C   UNL     1      20.791  24.218  27.144  1.00  0.00     0.039 C 
ATOM      8  C   UNL     1      22.430  25.978  28.069  1.00  0.00     0.039 C 
ATOM      9  C   UNL     1      20.139  27.371  29.345  1.00  0.00     0.159 C 
ATOM     10  O   UNL     1      21.172  27.499  30.056  1.00  0.00    -0.295 OA
ATOM     11  C   UNL     1      19.082  28.434  29.413  1.00  0.00     0.084 C 
ENDROOT
TORSDOF 0
ENDMDL
MODEL 9
REMARK VINA RESULT:    -4.008      2.069      3.253
REMARK INTER + INTRA:          -4.008
REMARK INTER:                  -4.008
REMARK INTRA:                   0.000
REMARK UNBOUND:                 0.000
REMARK SMILES CC(C)=C1CC[C@H](C)CC1=O
REMARK SMILES IDX 8 1 7 2 6 3 5 4 4 5 2 6 1 7 3 8 10 9 11 10 9 11
REMARK H PARENT
REMARK Flexibility Score: inf
ROOT
ATOM      1  C   UNL     1      25.799  29.941  29.865  1.00  0.00     0.008 C 
ATOM      2  C   UNL     1      24.651  29.254  29.116  1.00  0.00    -0.006 C 
ATOM      3  C   UNL     1      24.898  27.740  29.017  1.00  0.00     0.008 C 
ATOM      4  C   UNL     1      23.811  27.051  28.183  1.00  0.00     0.039 C 
ATOM      5  C   UNL     1      22.406  27.383  28.665  1.00  0.00    -0.006 C 
ATOM      6  C   UNL     1      21.386  26.483  28.555  1.00  0.00    -0.070 C 
ATOM      7  C   UNL     1      21.605  25.123  27.931  1.00  0.00     0.039 C 
ATOM      8  C   UNL     1      20.000  26.779  29.083  1.00  0.00     0.039 C 
ATOM      9  C   UNL     1      22.193  28.779  29.153  1.00  0.00     0.159 C 
ATOM     10  O   UNL     1      21.084  29.360  29.010  1.00  0.00    -0.295 OA
ATOM     11  C   UNL     1      23.313  29.522  29.821  1.00  0.00     0.084 C 
ENDROOT
TORSDOF 0
ENDMDL
