MODEL 1
REMARK VINA RESULT:    -4.994      0.000      0.000
REMARK INTER + INTRA:          -8.694
REMARK INTER:                  -7.622
REMARK INTRA:                  -1.072
REMARK UNBOUND:                -1.072
REMARK SMILES CCCCCCCCCCC(=O)[O-]
REMARK SMILES IDX 7 1 8 2 9 3 10 4 11 5 12 6 13 7 6 8 5 9 4 10 3 11 2 12 1 13
REMARK H PARENT
REMARK Flexibility Score: inf
ROOT
ATOM      1  C   UNL     1       8.554  22.563  -9.321  1.00  0.00     0.000 C 
ENDROOT
BRANCH   1   2
ATOM      2  C   UNL     1       8.438  23.955  -8.681  1.00  0.00     0.000 C 
BRANCH   2   3
ATOM      3  C   UNL     1       6.969  24.362  -8.513  1.00  0.00     0.006 C 
BRANCH   3   4
ATOM      4  C   UNL     1       6.313  23.591  -7.363  1.00  0.00     0.053 C 
BRANCH   4   5
ATOM      5  C   UNL     1       6.858  24.049  -6.047  1.00  0.00     0.041 C 
ATOM      6  O   UNL     1       7.484  23.247  -5.307  1.00  0.00    -0.550 OA
ATOM      7  O   UNL     1       6.630  25.350  -5.616  1.00  0.00    -0.550 OA
ENDBRANCH   4   5
ENDBRANCH   3   4
ENDBRANCH   2   3
ENDBRANCH   1   2
BRANCH   1   8
ATOM      8  C   UNL     1       9.737  21.752  -8.769  1.00  0.00     0.000 C 
BRANCH   8   9
ATOM      9  C   UNL     1      10.017  22.049  -7.285  1.00  0.00    -0.000 C 
BRANCH   9  10
ATOM     10  C   UNL     1      11.509  22.295  -7.003  1.00  0.00    -0.000 C 
BRANCH  10  11
ATOM     11  C   UNL     1      12.316  22.562  -8.286  1.00  0.00    -0.000 C 
BRANCH  11  12
ATOM     12  C   UNL     1      12.609  24.056  -8.495  1.00  0.00    -0.003 C 
ATOM     13  C   UNL     1      11.973  24.613  -9.769  1.00  0.00     0.004 C 
ENDBRANCH  11  12
ENDBRANCH  10  11
ENDBRANCH   9  10
ENDBRANCH   8   9
ENDBRANCH   1   8
TORSDOF 9
ENDMDL
MODEL 2
REMARK VINA RESULT:    -4.833      2.724      5.262
REMARK INTER + INTRA:          -8.448
REMARK INTER:                  -7.469
REMARK INTRA:                  -0.980
REMARK UNBOUND:                -1.072
REMARK SMILES CCCCCCCCCCC(=O)[O-]
REMARK SMILES IDX 7 1 8 2 9 3 10 4 11 5 12 6 13 7 6 8 5 9 4 10 3 11 2 12 1 13
REMARK H PARENT
REMARK Flexibility Score: inf
ROOT
ATOM      1  C   UNL     1       8.872  22.882  -9.692  1.00  0.00     0.000 C 
ENDROOT
BRANCH   1   2
ATOM      2  C   UNL     1       9.556  21.868  -8.763  1.00  0.00     0.000 C 
BRANCH   2   3
ATOM      3  C   UNL     1      10.591  22.556  -7.865  1.00  0.00     0.006 C 
BRANCH   3   4
ATOM      4  C   UNL     1      11.983  22.524  -8.506  1.00  0.00     0.053 C 
BRANCH   4   5
ATOM      5  C   UNL     1      12.491  23.913  -8.726  1.00  0.00     0.041 C 
ATOM      6  O   UNL     1      12.018  24.621  -9.654  1.00  0.00    -0.550 OA
ATOM      7  O   UNL     1      13.521  24.410  -7.939  1.00  0.00    -0.550 OA
ENDBRANCH   4   5
ENDBRANCH   3   4
ENDBRANCH   2   3
ENDBRANCH   1   2
BRANCH   1   8
ATOM      8  C   UNL     1       7.368  22.615  -9.861  1.00  0.00     0.000 C 
BRANCH   8   9
ATOM      9  C   UNL     1       6.502  23.534  -8.982  1.00  0.00    -0.000 C 
BRANCH   9  10
ATOM     10  C   UNL     1       7.331  24.596  -8.240  1.00  0.00    -0.000 C 
BRANCH  10  11
ATOM     11  C   UNL     1       6.860  24.805  -6.790  1.00  0.00    -0.000 C 
BRANCH  11  12
ATOM     12  C   UNL     1       6.558  23.478  -6.074  1.00  0.00    -0.003 C 
ATOM     13  C   UNL     1       7.794  22.862  -5.419  1.00  0.00     0.004 C 
ENDBRANCH  11  12
ENDBRANCH  10  11
ENDBRANCH   9  10
ENDBRANCH   8   9
ENDBRANCH   1   8
TORSDOF 9
ENDMDL
MODEL 3
REMARK VINA RESULT:    -4.786      1.304      2.409
REMARK INTER + INTRA:          -8.376
REMARK INTER:                  -7.453
REMARK INTRA:                  -0.924
REMARK UNBOUND:                -1.072
REMARK SMILES CCCCCCCCCCC(=O)[O-]
REMARK SMILES IDX 7 1 8 2 9 3 10 4 11 5 12 6 13 7 6 8 5 9 4 10 3 11 2 12 1 13
REMARK H PARENT
REMARK Flexibility Score: inf
ROOT
ATOM      1  C   UNL     1      10.083  22.864  -9.895  1.00  0.00     0.000 C 
ENDROOT
BRANCH   1   2
ATOM      2  C   UNL     1       8.595  22.910  -9.512  1.00  0.00     0.000 C 
BRANCH   2   3
ATOM      3  C   UNL     1       8.422  23.237  -8.024  1.00  0.00     0.006 C 
BRANCH   3   4
ATOM      4  C   UNL     1       7.084  23.937  -7.767  1.00  0.00     0.053 C 
BRANCH   4   5
ATOM      5  C   UNL     1       6.854  24.105  -6.298  1.00  0.00     0.041 C 
ATOM      6  O   UNL     1       6.884  23.105  -5.534  1.00  0.00    -0.550 OA
ATOM      7  O   UNL     1       6.557  25.359  -5.780  1.00  0.00    -0.550 OA
ENDBRANCH   4   5
ENDBRANCH   3   4
ENDBRANCH   2   3
ENDBRANCH   1   2
BRANCH   1   8
ATOM      8  C   UNL     1      10.901  23.987  -9.237  1.00  0.00     0.000 C 
BRANCH   8   9
ATOM      9  C   UNL     1      12.164  23.463  -8.532  1.00  0.00    -0.000 C 
BRANCH   9  10
ATOM     10  C   UNL     1      11.873  22.270  -7.606  1.00  0.00    -0.000 C 
BRANCH  10  11
ATOM     11  C   UNL     1      12.567  20.978  -8.073  1.00  0.00    -0.000 C 
BRANCH  11  12
ATOM     12  C   UNL     1      11.597  19.789  -8.162  1.00  0.00    -0.003 C 
ATOM     13  C   UNL     1      10.243  20.078  -7.513  1.00  0.00     0.004 C 
ENDBRANCH  11  12
ENDBRANCH  10  11
ENDBRANCH   9  10
ENDBRANCH   8   9
ENDBRANCH   1   8
TORSDOF 9
ENDMDL
MODEL 4
REMARK VINA RESULT:    -4.724      2.421      2.798
REMARK INTER + INTRA:          -8.282
REMARK INTER:                  -7.566
REMARK INTRA:                  -0.716
REMARK UNBOUND:                -1.072
REMARK SMILES CCCCCCCCCCC(=O)[O-]
REMARK SMILES IDX 7 1 8 2 9 3 10 4 11 5 12 6 13 7 6 8 5 9 4 10 3 11 2 12 1 13
REMARK H PARENT
REMARK Flexibility Score: inf
ROOT
ATOM      1  C   UNL     1       7.844  23.718  -8.206  1.00  0.00     0.000 C 
ENDROOT
BRANCH   1   2
ATOM      2  C   UNL     1       7.148  23.146  -9.450  1.00  0.00     0.000 C 
BRANCH   2   3
ATOM      3  C   UNL     1       5.726  23.704  -9.588  1.00  0.00     0.006 C 
BRANCH   3   4
ATOM      4  C   UNL     1       4.693  22.572  -9.633  1.00  0.00     0.053 C 
BRANCH   4   5
ATOM      5  C   UNL     1       3.943  22.496  -8.341  1.00  0.00     0.041 C 
ATOM      6  O   UNL     1       4.487  22.871  -7.269  1.00  0.00    -0.550 OA
ATOM      7  O   UNL     1       2.661  21.965  -8.313  1.00  0.00    -0.550 OA
ENDBRANCH   4   5
ENDBRANCH   3   4
ENDBRANCH   2   3
ENDBRANCH   1   2
BRANCH   1   8
ATOM      8  C   UNL     1       8.950  22.796  -7.667  1.00  0.00     0.000 C 
BRANCH   8   9
ATOM      9  C   UNL     1       9.525  21.866  -8.750  1.00  0.00    -0.000 C 
BRANCH   9  10
ATOM     10  C   UNL     1      10.988  22.191  -9.093  1.00  0.00    -0.000 C 
BRANCH  10  11
ATOM     11  C   UNL     1      11.113  23.266 -10.187  1.00  0.00    -0.000 C 
BRANCH  11  12
ATOM     12  C   UNL     1      11.896  24.501  -9.712  1.00  0.00    -0.003 C 
ATOM     13  C   UNL     1      12.762  24.217  -8.484  1.00  0.00     0.004 C 
ENDBRANCH  11  12
ENDBRANCH  10  11
ENDBRANCH   9  10
ENDBRANCH   8   9
ENDBRANCH   1   8
TORSDOF 9
ENDMDL
MODEL 5
REMARK VINA RESULT:    -4.658      2.253      5.133
REMARK INTER + INTRA:          -8.181
REMARK INTER:                  -7.290
REMARK INTRA:                  -0.891
REMARK UNBOUND:                -1.072
REMARK SMILES CCCCCCCCCCC(=O)[O-]
REMARK SMILES IDX 7 1 8 2 9 3 10 4 11 5 12 6 13 7 6 8 5 9 4 10 3 11 2 12 1 13
REMARK H PARENT
REMARK Flexibility Score: inf
ROOT
ATOM      1  C   UNL     1       7.475  22.123 -10.395  1.00  0.00     0.000 C 
ENDROOT
BRANCH   1   2
ATOM      2  C   UNL     1       8.330  22.878  -9.365  1.00  0.00     0.000 C 
BRANCH   2   3
ATOM      3  C   UNL     1       9.817  22.547  -9.540  1.00  0.00     0.006 C 
BRANCH   3   4
ATOM      4  C   UNL     1      10.587  22.774  -8.234  1.00  0.00     0.053 C 
BRANCH   4   5
ATOM      5  C   UNL     1      10.410  21.609  -7.313  1.00  0.00     0.041 C 
ATOM      6  O   UNL     1      10.496  21.768  -6.067  1.00  0.00    -0.550 OA
ATOM      7  O   UNL     1      10.199  20.338  -7.831  1.00  0.00    -0.550 OA
ENDBRANCH   4   5
ENDBRANCH   3   4
ENDBRANCH   2   3
ENDBRANCH   1   2
BRANCH   1   8
ATOM      8  C   UNL     1       5.966  22.317 -10.172  1.00  0.00     0.000 C 
BRANCH   8   9
ATOM      9  C   UNL     1       5.659  23.347  -9.071  1.00  0.00    -0.000 C 
BRANCH   9  10
ATOM     10  C   UNL     1       4.576  22.861  -8.092  1.00  0.00    -0.000 C 
BRANCH  10  11
ATOM     11  C   UNL     1       4.973  23.073  -6.621  1.00  0.00    -0.000 C 
BRANCH  11  12
ATOM     12  C   UNL     1       6.242  23.927  -6.472  1.00  0.00    -0.003 C 
ATOM     13  C   UNL     1       7.348  23.217  -5.691  1.00  0.00     0.004 C 
ENDBRANCH  11  12
ENDBRANCH  10  11
ENDBRANCH   9  10
ENDBRANCH   8   9
ENDBRANCH   1   8
TORSDOF 9
ENDMDL
MODEL 6
REMARK VINA RESULT:    -4.638      2.392      5.350
REMARK INTER + INTRA:          -8.151
REMARK INTER:                  -7.434
REMARK INTRA:                  -0.716
REMARK UNBOUND:                -1.072
REMARK SMILES CCCCCCCCCCC(=O)[O-]
REMARK SMILES IDX 7 1 8 2 9 3 10 4 11 5 12 6 13 7 6 8 5 9 4 10 3 11 2 12 1 13
REMARK H PARENT
REMARK Flexibility Score: inf
ROOT
ATOM      1  C   UNL     1      10.734  22.877 -10.026  1.00  0.00     0.000 C 
ENDROOT
BRANCH   1   2
ATOM      2  C   UNL     1      11.162  24.212  -9.399  1.00  0.00     0.000 C 
BRANCH   2   3
ATOM      3  C   UNL     1      12.420  24.036  -8.540  1.00  0.00     0.006 C 
BRANCH   3   4
ATOM      4  C   UNL     1      12.613  22.570  -8.140  1.00  0.00     0.053 C 
BRANCH   4   5
ATOM      5  C   UNL     1      12.183  22.353  -6.724  1.00  0.00     0.041 C 
ATOM      6  O   UNL     1      13.010  22.489  -5.783  1.00  0.00    -0.550 OA
ATOM      7  O   UNL     1      10.884  21.951  -6.445  1.00  0.00    -0.550 OA
ENDBRANCH   4   5
ENDBRANCH   3   4
ENDBRANCH   2   3
ENDBRANCH   1   2
BRANCH   1   8
ATOM      8  C   UNL     1       9.274  22.512  -9.710  1.00  0.00     0.000 C 
BRANCH   8   9
ATOM      9  C   UNL     1       8.605  23.521  -8.761  1.00  0.00    -0.000 C 
BRANCH   9  10
ATOM     10  C   UNL     1       7.097  23.669  -9.023  1.00  0.00    -0.000 C 
BRANCH  10  11
ATOM     11  C   UNL     1       6.602  22.753 -10.156  1.00  0.00    -0.000 C 
BRANCH  11  12
ATOM     12  C   UNL     1       5.073  22.784 -10.310  1.00  0.00    -0.003 C 
ATOM     13  C   UNL     1       4.339  22.602  -8.982  1.00  0.00     0.004 C 
ENDBRANCH  11  12
ENDBRANCH  10  11
ENDBRANCH   9  10
ENDBRANCH   8   9
ENDBRANCH   1   8
TORSDOF 9
ENDMDL
MODEL 7
REMARK VINA RESULT:    -4.632      2.825      5.233
REMARK INTER + INTRA:          -8.141
REMARK INTER:                  -7.406
REMARK INTRA:                  -0.735
REMARK UNBOUND:                -1.072
REMARK SMILES CCCCCCCCCCC(=O)[O-]
REMARK SMILES IDX 7 1 8 2 9 3 10 4 11 5 12 6 13 7 6 8 5 9 4 10 3 11 2 12 1 13
REMARK H PARENT
REMARK Flexibility Score: inf
ROOT
ATOM      1  C   UNL     1       9.054  22.580  -6.999  1.00  0.00     0.000 C 
ENDROOT
BRANCH   1   2
ATOM      2  C   UNL     1      10.327  21.843  -6.555  1.00  0.00     0.000 C 
BRANCH   2   3
ATOM      3  C   UNL     1      11.524  22.242  -7.427  1.00  0.00     0.006 C 
BRANCH   3   4
ATOM      4  C   UNL     1      11.085  23.151  -8.580  1.00  0.00     0.053 C 
BRANCH   4   5
ATOM      5  C   UNL     1      12.163  24.135  -8.911  1.00  0.00     0.041 C 
ATOM      6  O   UNL     1      13.087  24.363  -8.086  1.00  0.00    -0.550 OA
ATOM      7  O   UNL     1      12.120  24.836 -10.108  1.00  0.00    -0.550 OA
ENDBRANCH   4   5
ENDBRANCH   3   4
ENDBRANCH   2   3
ENDBRANCH   1   2
BRANCH   1   8
ATOM      8  C   UNL     1       8.107  22.887  -5.828  1.00  0.00     0.000 C 
BRANCH   8   9
ATOM      9  C   UNL     1       6.917  23.768  -6.245  1.00  0.00    -0.000 C 
BRANCH   9  10
ATOM     10  C   UNL     1       6.985  24.193  -7.722  1.00  0.00    -0.000 C 
BRANCH  10  11
ATOM     11  C   UNL     1       5.978  23.433  -8.602  1.00  0.00    -0.000 C 
BRANCH  11  12
ATOM     12  C   UNL     1       6.449  23.308 -10.060  1.00  0.00    -0.003 C 
ATOM     13  C   UNL     1       7.432  22.155 -10.269  1.00  0.00     0.004 C 
ENDBRANCH  11  12
ENDBRANCH  10  11
ENDBRANCH   9  10
ENDBRANCH   8   9
ENDBRANCH   1   8
TORSDOF 9
ENDMDL
MODEL 8
REMARK VINA RESULT:    -4.613      2.361      5.091
REMARK INTER + INTRA:          -8.113
REMARK INTER:                  -7.205
REMARK INTRA:                  -0.908
REMARK UNBOUND:                -1.072
REMARK SMILES CCCCCCCCCCC(=O)[O-]
REMARK SMILES IDX 7 1 8 2 9 3 10 4 11 5 12 6 13 7 6 8 5 9 4 10 3 11 2 12 1 13
REMARK H PARENT
REMARK Flexibility Score: inf
ROOT
ATOM      1  C   UNL     1       8.760  22.294  -9.083  1.00  0.00     0.000 C 
ENDROOT
BRANCH   1   2
ATOM      2  C   UNL     1      10.064  22.690  -9.792  1.00  0.00     0.000 C 
BRANCH   2   3
ATOM      3  C   UNL     1      10.782  23.813  -9.033  1.00  0.00     0.006 C 
BRANCH   3   4
ATOM      4  C   UNL     1      12.211  23.401  -8.663  1.00  0.00     0.053 C 
BRANCH   4   5
ATOM      5  C   UNL     1      12.197  22.184  -7.794  1.00  0.00     0.041 C 
ATOM      6  O   UNL     1      12.849  21.160  -8.128  1.00  0.00    -0.550 OA
ATOM      7  O   UNL     1      11.424  22.162  -6.641  1.00  0.00    -0.550 OA
ENDBRANCH   4   5
ENDBRANCH   3   4
ENDBRANCH   2   3
ENDBRANCH   1   2
BRANCH   1   8
ATOM      8  C   UNL     1       7.506  22.703  -9.873  1.00  0.00     0.000 C 
BRANCH   8   9
ATOM      9  C   UNL     1       6.539  23.564  -9.043  1.00  0.00    -0.000 C 
BRANCH   9  10
ATOM     10  C   UNL     1       7.252  24.713  -8.309  1.00  0.00    -0.000 C 
BRANCH  10  11
ATOM     11  C   UNL     1       6.892  24.771  -6.814  1.00  0.00    -0.000 C 
BRANCH  11  12
ATOM     12  C   UNL     1       6.600  23.381  -6.226  1.00  0.00    -0.003 C 
ATOM     13  C   UNL     1       7.723  22.871  -5.322  1.00  0.00     0.004 C 
ENDBRANCH  11  12
ENDBRANCH  10  11
ENDBRANCH   9  10
ENDBRANCH   8   9
ENDBRANCH   1   8
TORSDOF 9
ENDMDL
MODEL 9
REMARK VINA RESULT:    -4.567      2.389      2.778
REMARK INTER + INTRA:          -8.043
REMARK INTER:                  -7.226
REMARK INTRA:                  -0.817
REMARK UNBOUND:                -1.072
REMARK SMILES CCCCCCCCCCC(=O)[O-]
REMARK SMILES IDX 7 1 8 2 9 3 10 4 11 5 12 6 13 7 6 8 5 9 4 10 3 11 2 12 1 13
REMARK H PARENT
REMARK Flexibility Score: inf
ROOT
ATOM      1  C   UNL     1       8.911  22.829  -8.044  1.00  0.00     0.000 C 
ENDROOT
BRANCH   1   2
ATOM      2  C   UNL     1       8.866  22.229  -9.457  1.00  0.00     0.000 C 
BRANCH   2   3
ATOM      3  C   UNL     1       7.541  22.562 -10.152  1.00  0.00     0.006 C 
BRANCH   3   4
ATOM      4  C   UNL     1       6.604  23.328  -9.212  1.00  0.00     0.053 C 
BRANCH   4   5
ATOM      5  C   UNL     1       5.230  23.415  -9.798  1.00  0.00     0.041 C 
ATOM      6  O   UNL     1       4.273  22.796  -9.264  1.00  0.00    -0.550 OA
ATOM      7  O   UNL     1       5.016  24.140 -10.963  1.00  0.00    -0.550 OA
ENDBRANCH   4   5
ENDBRANCH   3   4
ENDBRANCH   2   3
ENDBRANCH   1   2
BRANCH   1   8
ATOM      8  C   UNL     1       9.855  22.063  -7.102  1.00  0.00     0.000 C 
BRANCH   8   9
ATOM      9  C   UNL     1      10.669  20.981  -7.833  1.00  0.00    -0.000 C 
BRANCH   9  10
ATOM     10  C   UNL     1      12.112  21.425  -8.127  1.00  0.00    -0.000 C 
BRANCH  10  11
ATOM     11  C   UNL     1      12.516  22.680  -7.335  1.00  0.00    -0.000 C 
BRANCH  11  12
ATOM     12  C   UNL     1      13.148  23.760  -8.228  1.00  0.00    -0.003 C 
ATOM     13  C   UNL     1      12.138  24.420  -9.167  1.00  0.00     0.004 C 
ENDBRANCH  11  12
ENDBRANCH  10  11
ENDBRANCH   9  10
ENDBRANCH   8   9
ENDBRANCH   1   8
TORSDOF 9
ENDMDL
