MODEL 1
REMARK VINA RESULT:    -5.988      0.000      0.000
REMARK INTER + INTRA:          -7.352
REMARK INTER:                  -7.389
REMARK INTRA:                   0.037
REMARK UNBOUND:                 0.037
REMARK SMILES COc1cc(-c2oc3cc(O)cc(O)c3c(=O)c2O)ccc1O
REMARK SMILES IDX 6 1 18 2 16 3 17 4 15 5 13 6 12 7 10 8 9 9 8 10 7 11 5 12
REMARK SMILES IDX 3 13 22 14 4 15 21 16 20 17 2 18 1 19 23 20 19 22 14 24
REMARK SMILES IDX 11 26
REMARK H PARENT 23 21 19 23 14 25 11 27
REMARK Flexibility Score: inf
ROOT
ATOM      1  C   UNL     1       6.949  26.228  13.744  1.00  0.00     0.180 A 
ATOM      2  C   UNL     1       7.750  25.658  12.738  1.00  0.00     0.208 A 
ATOM      3  C   UNL     1       7.305  24.493  12.093  1.00  0.00     0.238 A 
ATOM      4  O   UNL     1       8.000  24.018  11.156  1.00  0.00    -0.285 OA
ATOM      5  C   UNL     1       6.075  23.904  12.471  1.00  0.00     0.111 A 
ATOM      6  C   UNL     1       5.547  22.701  11.913  1.00  0.00     0.134 A 
ATOM      7  C   UNL     1       4.260  22.280  12.270  1.00  0.00     0.093 A 
ATOM      8  C   UNL     1       3.509  22.981  13.213  1.00  0.00     0.123 A 
ATOM      9  C   UNL     1       4.040  24.126  13.810  1.00  0.00     0.094 A 
ATOM     10  C   UNL     1       5.306  24.590  13.447  1.00  0.00     0.146 A 
ATOM     11  O   UNL     1       5.770  25.688  14.031  1.00  0.00    -0.452 OA
ENDROOT
BRANCH   1  12
ATOM     12  C   UNL     1       7.363  27.442  14.486  1.00  0.00     0.025 A 
ATOM     13  C   UNL     1       6.755  29.547  15.572  1.00  0.00     0.161 A 
ATOM     14  C   UNL     1       8.097  29.730  15.950  1.00  0.00     0.157 A 
ATOM     15  C   UNL     1       6.395  28.394  14.845  1.00  0.00     0.062 A 
ATOM     16  C   UNL     1       9.056  28.771  15.609  1.00  0.00     0.051 A 
ATOM     17  C   UNL     1       8.694  27.632  14.890  1.00  0.00     0.016 A 
BRANCH  13  18
ATOM     18  O   UNL     1       5.812  30.523  15.933  1.00  0.00    -0.493 OA
ATOM     19  C   UNL     1       4.776  30.329  16.892  1.00  0.00     0.278 C 
ENDBRANCH  13  18
BRANCH  14  20
ATOM     20  O   UNL     1       8.497  30.857  16.668  1.00  0.00    -0.504 OA
ATOM     21  H   UNL     1       7.881  31.331  17.315  1.00  0.00     0.293 HD
ENDBRANCH  14  20
ENDBRANCH   1  12
BRANCH   2  22
ATOM     22  O   UNL     1       8.951  26.269  12.365  1.00  0.00    -0.502 OA
ATOM     23  H   UNL     1       8.989  27.030  11.698  1.00  0.00     0.293 HD
ENDBRANCH   2  22
BRANCH   6  24
ATOM     24  O   UNL     1       6.250  21.876  11.030  1.00  0.00    -0.507 OA
ATOM     25  H   UNL     1       6.322  20.873  11.115  1.00  0.00     0.293 HD
ENDBRANCH   6  24
BRANCH   8  26
ATOM     26  O   UNL     1       2.238  22.526  13.557  1.00  0.00    -0.508 OA
ATOM     27  H   UNL     1       1.660  23.021  14.226  1.00  0.00     0.293 HD
ENDBRANCH   8  26
TORSDOF 6
ENDMDL
MODEL 2
REMARK VINA RESULT:    -5.951     21.212     22.794
REMARK INTER + INTRA:          -7.306
REMARK INTER:                  -6.963
REMARK INTRA:                  -0.343
REMARK UNBOUND:                 0.037
REMARK SMILES COc1cc(-c2oc3cc(O)cc(O)c3c(=O)c2O)ccc1O
REMARK SMILES IDX 6 1 18 2 16 3 17 4 15 5 13 6 12 7 10 8 9 9 8 10 7 11 5 12
REMARK SMILES IDX 3 13 22 14 4 15 21 16 20 17 2 18 1 19 23 20 19 22 14 24
REMARK SMILES IDX 11 26
REMARK H PARENT 23 21 19 23 14 25 11 27
REMARK Flexibility Score: inf
ROOT
ATOM      1  C   UNL     1      -4.050  38.974  -0.218  1.00  0.00     0.180 A 
ATOM      2  C   UNL     1      -3.614  39.105   1.112  1.00  0.00     0.208 A 
ATOM      3  C   UNL     1      -2.417  39.794   1.371  1.00  0.00     0.238 A 
ATOM      4  O   UNL     1      -2.059  39.955   2.568  1.00  0.00    -0.285 OA
ATOM      5  C   UNL     1      -1.664  40.326   0.297  1.00  0.00     0.111 A 
ATOM      6  C   UNL     1      -0.417  41.006   0.440  1.00  0.00     0.134 A 
ATOM      7  C   UNL     1       0.175  41.606  -0.678  1.00  0.00     0.093 A 
ATOM      8  C   UNL     1      -0.399  41.494  -1.944  1.00  0.00     0.123 A 
ATOM      9  C   UNL     1      -1.588  40.781  -2.105  1.00  0.00     0.094 A 
ATOM     10  C   UNL     1      -2.221  40.203  -1.002  1.00  0.00     0.146 A 
ATOM     11  O   UNL     1      -3.355  39.541  -1.197  1.00  0.00    -0.452 OA
ENDROOT
BRANCH   1  12
ATOM     12  C   UNL     1      -5.288  38.242  -0.571  1.00  0.00     0.025 A 
ATOM     13  C   UNL     1      -6.377  36.155  -1.234  1.00  0.00     0.161 A 
ATOM     14  C   UNL     1      -7.625  36.801  -1.187  1.00  0.00     0.157 A 
ATOM     15  C   UNL     1      -5.212  36.883  -0.917  1.00  0.00     0.062 A 
ATOM     16  C   UNL     1      -7.701  38.148  -0.823  1.00  0.00     0.051 A 
ATOM     17  C   UNL     1      -6.545  38.864  -0.510  1.00  0.00     0.016 A 
BRANCH  13  18
ATOM     18  O   UNL     1      -6.331  34.799  -1.596  1.00  0.00    -0.493 OA
ATOM     19  C   UNL     1      -6.543  33.715  -0.697  1.00  0.00     0.278 C 
ENDBRANCH  13  18
BRANCH  14  20
ATOM     20  O   UNL     1      -8.803  36.119  -1.495  1.00  0.00    -0.504 OA
ATOM     21  H   UNL     1      -9.386  36.377  -2.281  1.00  0.00     0.293 HD
ENDBRANCH  14  20
ENDBRANCH   1  12
BRANCH   2  22
ATOM     22  O   UNL     1      -4.383  38.591   2.159  1.00  0.00    -0.502 OA
ATOM     23  H   UNL     1      -3.977  38.073   2.929  1.00  0.00     0.293 HD
ENDBRANCH   2  22
BRANCH   6  24
ATOM     24  O   UNL     1       0.288  41.098   1.644  1.00  0.00    -0.507 OA
ATOM     25  H   UNL     1       0.692  41.946   2.010  1.00  0.00     0.293 HD
ENDBRANCH   6  24
BRANCH   8  26
ATOM     26  O   UNL     1       0.225  42.091  -3.037  1.00  0.00    -0.508 OA
ATOM     27  H   UNL     1       0.420  43.085  -3.060  1.00  0.00     0.293 HD
ENDBRANCH   8  26
TORSDOF 6
ENDMDL
MODEL 3
REMARK VINA RESULT:    -5.876      2.556      7.223
REMARK INTER + INTRA:          -7.213
REMARK INTER:                  -6.880
REMARK INTRA:                  -0.333
REMARK UNBOUND:                 0.037
REMARK SMILES COc1cc(-c2oc3cc(O)cc(O)c3c(=O)c2O)ccc1O
REMARK SMILES IDX 6 1 18 2 16 3 17 4 15 5 13 6 12 7 10 8 9 9 8 10 7 11 5 12
REMARK SMILES IDX 3 13 22 14 4 15 21 16 20 17 2 18 1 19 23 20 19 22 14 24
REMARK SMILES IDX 11 26
REMARK H PARENT 23 21 19 23 14 25 11 27
REMARK Flexibility Score: inf
ROOT
ATOM      1  C   UNL     1       8.656  26.179  13.259  1.00  0.00     0.180 A 
ATOM      2  C   UNL     1       9.912  26.509  13.798  1.00  0.00     0.208 A 
ATOM      3  C   UNL     1      10.008  27.595  14.684  1.00  0.00     0.238 A 
ATOM      4  O   UNL     1      11.125  27.852  15.205  1.00  0.00    -0.285 OA
ATOM      5  C   UNL     1       8.853  28.346  15.005  1.00  0.00     0.111 A 
ATOM      6  C   UNL     1       8.841  29.490  15.859  1.00  0.00     0.134 A 
ATOM      7  C   UNL     1       7.619  30.077  16.211  1.00  0.00     0.093 A 
ATOM      8  C   UNL     1       6.416  29.604  15.690  1.00  0.00     0.123 A 
ATOM      9  C   UNL     1       6.421  28.523  14.807  1.00  0.00     0.094 A 
ATOM     10  C   UNL     1       7.620  27.893  14.466  1.00  0.00     0.146 A 
ATOM     11  O   UNL     1       7.580  26.862  13.631  1.00  0.00    -0.452 OA
ENDROOT
BRANCH   1  12
ATOM     12  C   UNL     1       8.480  25.063  12.301  1.00  0.00     0.025 A 
ATOM     13  C   UNL     1       8.795  24.157  10.051  1.00  0.00     0.161 A 
ATOM     14  C   UNL     1       8.220  22.943  10.469  1.00  0.00     0.157 A 
ATOM     15  C   UNL     1       8.928  25.211  10.978  1.00  0.00     0.062 A 
ATOM     16  C   UNL     1       7.793  22.790  11.791  1.00  0.00     0.051 A 
ATOM     17  C   UNL     1       7.927  23.836  12.703  1.00  0.00     0.016 A 
BRANCH  13  18
ATOM     18  O   UNL     1       9.223  24.280   8.719  1.00  0.00    -0.493 OA
ATOM     19  C   UNL     1      10.565  24.094   8.281  1.00  0.00     0.278 C 
ENDBRANCH  13  18
BRANCH  14  20
ATOM     20  O   UNL     1       8.068  21.875   9.584  1.00  0.00    -0.504 OA
ATOM     21  H   UNL     1       7.295  21.226   9.650  1.00  0.00     0.293 HD
ENDBRANCH  14  20
ENDBRANCH   1  12
BRANCH   2  22
ATOM     22  O   UNL     1      11.036  25.741  13.484  1.00  0.00    -0.502 OA
ATOM     23  H   UNL     1      11.818  25.636  14.120  1.00  0.00     0.293 HD
ENDBRANCH   2  22
BRANCH   6  24
ATOM     24  O   UNL     1       9.994  30.100  16.362  1.00  0.00    -0.507 OA
ATOM     25  H   UNL     1      10.604  29.693  17.053  1.00  0.00     0.293 HD
ENDBRANCH   6  24
BRANCH   8  26
ATOM     26  O   UNL     1       5.220  30.222  16.050  1.00  0.00    -0.508 OA
ATOM     27  H   UNL     1       4.966  31.135  15.690  1.00  0.00     0.293 HD
ENDBRANCH   8  26
TORSDOF 6
ENDMDL
MODEL 4
REMARK VINA RESULT:    -5.764      2.107      2.837
REMARK INTER + INTRA:          -7.075
REMARK INTER:                  -6.786
REMARK INTRA:                  -0.289
REMARK UNBOUND:                 0.037
REMARK SMILES COc1cc(-c2oc3cc(O)cc(O)c3c(=O)c2O)ccc1O
REMARK SMILES IDX 6 1 18 2 16 3 17 4 15 5 13 6 12 7 10 8 9 9 8 10 7 11 5 12
REMARK SMILES IDX 3 13 22 14 4 15 21 16 20 17 2 18 1 19 23 20 19 22 14 24
REMARK SMILES IDX 11 26
REMARK H PARENT 23 21 19 23 14 25 11 27
REMARK Flexibility Score: inf
ROOT
ATOM      1  C   UNL     1       6.155  27.312  13.940  1.00  0.00     0.180 A 
ATOM      2  C   UNL     1       5.693  27.550  12.634  1.00  0.00     0.208 A 
ATOM      3  C   UNL     1       4.956  26.549  11.981  1.00  0.00     0.238 A 
ATOM      4  O   UNL     1       4.498  26.788  10.832  1.00  0.00    -0.285 OA
ATOM      5  C   UNL     1       4.705  25.318  12.633  1.00  0.00     0.111 A 
ATOM      6  C   UNL     1       4.005  24.219  12.051  1.00  0.00     0.134 A 
ATOM      7  C   UNL     1       3.701  23.100  12.836  1.00  0.00     0.093 A 
ATOM      8  C   UNL     1       4.129  23.011  14.160  1.00  0.00     0.123 A 
ATOM      9  C   UNL     1       4.866  24.054  14.721  1.00  0.00     0.094 A 
ATOM     10  C   UNL     1       5.152  25.200  13.975  1.00  0.00     0.146 A 
ATOM     11  O   UNL     1       5.848  26.174  14.550  1.00  0.00    -0.452 OA
ENDROOT
BRANCH   1  12
ATOM     12  C   UNL     1       6.958  28.310  14.684  1.00  0.00     0.025 A 
ATOM     13  C   UNL     1       9.128  29.037  15.548  1.00  0.00     0.161 A 
ATOM     14  C   UNL     1       8.530  30.212  16.037  1.00  0.00     0.157 A 
ATOM     15  C   UNL     1       8.334  28.093  14.865  1.00  0.00     0.062 A 
ATOM     16  C   UNL     1       7.165  30.436  15.839  1.00  0.00     0.051 A 
ATOM     17  C   UNL     1       6.384  29.499  15.162  1.00  0.00     0.016 A 
BRANCH  13  18
ATOM     18  O   UNL     1      10.503  28.841  15.755  1.00  0.00    -0.493 OA
ATOM     19  C   UNL     1      11.077  27.657  16.302  1.00  0.00     0.278 C 
ENDBRANCH  13  18
BRANCH  14  20
ATOM     20  O   UNL     1       9.278  31.171  16.720  1.00  0.00    -0.504 OA
ATOM     21  H   UNL     1       9.884  30.932  17.494  1.00  0.00     0.293 HD
ENDBRANCH  14  20
ENDBRANCH   1  12
BRANCH   2  22
ATOM     22  O   UNL     1       5.933  28.780  12.015  1.00  0.00    -0.502 OA
ATOM     23  H   UNL     1       6.851  29.055  11.690  1.00  0.00     0.293 HD
ENDBRANCH   2  22
BRANCH   6  24
ATOM     24  O   UNL     1       3.611  24.167  10.711  1.00  0.00    -0.507 OA
ATOM     25  H   UNL     1       3.631  23.337  10.138  1.00  0.00     0.293 HD
ENDBRANCH   6  24
BRANCH   8  26
ATOM     26  O   UNL     1       3.822  21.875  14.907  1.00  0.00    -0.508 OA
ATOM     27  H   UNL     1       3.764  21.905  15.918  1.00  0.00     0.293 HD
ENDBRANCH   8  26
TORSDOF 6
ENDMDL
MODEL 5
REMARK VINA RESULT:    -5.681      1.569      6.869
REMARK INTER + INTRA:          -6.972
REMARK INTER:                  -6.679
REMARK INTRA:                  -0.293
REMARK UNBOUND:                 0.037
REMARK SMILES COc1cc(-c2oc3cc(O)cc(O)c3c(=O)c2O)ccc1O
REMARK SMILES IDX 6 1 18 2 16 3 17 4 15 5 13 6 12 7 10 8 9 9 8 10 7 11 5 12
REMARK SMILES IDX 3 13 22 14 4 15 21 16 20 17 2 18 1 19 23 20 19 22 14 24
REMARK SMILES IDX 11 26
REMARK H PARENT 23 21 19 23 14 25 11 27
REMARK Flexibility Score: inf
ROOT
ATOM      1  C   UNL     1       6.435  25.803  14.027  1.00  0.00     0.180 A 
ATOM      2  C   UNL     1       7.819  25.608  14.183  1.00  0.00     0.208 A 
ATOM      3  C   UNL     1       8.594  26.642  14.733  1.00  0.00     0.238 A 
ATOM      4  O   UNL     1       9.823  26.441  14.920  1.00  0.00    -0.285 OA
ATOM      5  C   UNL     1       7.981  27.862  15.105  1.00  0.00     0.111 A 
ATOM      6  C   UNL     1       8.675  28.991  15.634  1.00  0.00     0.134 A 
ATOM      7  C   UNL     1       7.950  30.098  16.089  1.00  0.00     0.093 A 
ATOM      8  C   UNL     1       6.561  30.145  15.974  1.00  0.00     0.123 A 
ATOM      9  C   UNL     1       5.876  29.072  15.403  1.00  0.00     0.094 A 
ATOM     10  C   UNL     1       6.569  27.938  14.974  1.00  0.00     0.146 A 
ATOM     11  O   UNL     1       5.879  26.934  14.446  1.00  0.00    -0.452 OA
ENDROOT
BRANCH   1  12
ATOM     12  C   UNL     1       5.556  24.769  13.434  1.00  0.00     0.025 A 
ATOM     13  C   UNL     1       4.078  22.844  13.735  1.00  0.00     0.161 A 
ATOM     14  C   UNL     1       3.829  22.829  12.351  1.00  0.00     0.157 A 
ATOM     15  C   UNL     1       4.939  23.825  14.270  1.00  0.00     0.062 A 
ATOM     16  C   UNL     1       4.428  23.782  11.523  1.00  0.00     0.051 A 
ATOM     17  C   UNL     1       5.279  24.750  12.057  1.00  0.00     0.016 A 
BRANCH  13  18
ATOM     18  O   UNL     1       3.458  21.879  14.545  1.00  0.00    -0.493 OA
ATOM     19  C   UNL     1       2.083  21.899  14.918  1.00  0.00     0.278 C 
ENDBRANCH  13  18
BRANCH  14  20
ATOM     20  O   UNL     1       2.986  21.875  11.781  1.00  0.00    -0.504 OA
ATOM     21  H   UNL     1       2.111  22.124  11.339  1.00  0.00     0.293 HD
ENDBRANCH  14  20
ENDBRANCH   1  12
BRANCH   2  22
ATOM     22  O   UNL     1       8.401  24.388  13.830  1.00  0.00    -0.502 OA
ATOM     23  H   UNL     1       8.410  23.589  14.452  1.00  0.00     0.293 HD
ENDBRANCH   2  22
BRANCH   6  24
ATOM     24  O   UNL     1      10.069  29.084  15.709  1.00  0.00    -0.507 OA
ATOM     25  H   UNL     1      10.621  29.801  15.263  1.00  0.00     0.293 HD
ENDBRANCH   6  24
BRANCH   8  26
ATOM     26  O   UNL     1       5.871  31.270  16.423  1.00  0.00    -0.508 OA
ATOM     27  H   UNL     1       5.757  32.090  15.839  1.00  0.00     0.293 HD
ENDBRANCH   8  26
TORSDOF 6
ENDMDL
MODEL 6
REMARK VINA RESULT:    -5.624      1.517      6.928
REMARK INTER + INTRA:          -6.902
REMARK INTER:                  -6.630
REMARK INTRA:                  -0.273
REMARK UNBOUND:                 0.037
REMARK SMILES COc1cc(-c2oc3cc(O)cc(O)c3c(=O)c2O)ccc1O
REMARK SMILES IDX 6 1 18 2 16 3 17 4 15 5 13 6 12 7 10 8 9 9 8 10 7 11 5 12
REMARK SMILES IDX 3 13 22 14 4 15 21 16 20 17 2 18 1 19 23 20 19 22 14 24
REMARK SMILES IDX 11 26
REMARK H PARENT 23 21 19 23 14 25 11 27
REMARK Flexibility Score: inf
ROOT
ATOM      1  C   UNL     1       8.141  26.305  13.694  1.00  0.00     0.180 A 
ATOM      2  C   UNL     1       9.465  26.537  14.105  1.00  0.00     0.208 A 
ATOM      3  C   UNL     1       9.746  27.673  14.882  1.00  0.00     0.238 A 
ATOM      4  O   UNL     1      10.924  27.847  15.292  1.00  0.00    -0.285 OA
ATOM      5  C   UNL     1       8.706  28.569  15.224  1.00  0.00     0.111 A 
ATOM      6  C   UNL     1       8.884  29.771  15.972  1.00  0.00     0.134 A 
ATOM      7  C   UNL     1       7.764  30.514  16.364  1.00  0.00     0.093 A 
ATOM      8  C   UNL     1       6.478  30.135  15.979  1.00  0.00     0.123 A 
ATOM      9  C   UNL     1       6.297  28.994  15.197  1.00  0.00     0.094 A 
ATOM     10  C   UNL     1       7.392  28.212  14.822  1.00  0.00     0.146 A 
ATOM     11  O   UNL     1       7.176  27.128  14.086  1.00  0.00    -0.452 OA
ENDROOT
BRANCH   1  12
ATOM     12  C   UNL     1       7.770  25.143  12.853  1.00  0.00     0.025 A 
ATOM     13  C   UNL     1       6.493  23.075  12.574  1.00  0.00     0.161 A 
ATOM     14  C   UNL     1       6.992  22.954  11.265  1.00  0.00     0.157 A 
ATOM     15  C   UNL     1       6.882  24.179  13.360  1.00  0.00     0.062 A 
ATOM     16  C   UNL     1       7.860  23.924  10.755  1.00  0.00     0.051 A 
ATOM     17  C   UNL     1       8.241  25.014  11.537  1.00  0.00     0.016 A 
BRANCH  13  18
ATOM     18  O   UNL     1       5.617  22.090  13.059  1.00  0.00    -0.493 OA
ATOM     19  C   UNL     1       4.263  22.325  13.431  1.00  0.00     0.278 C 
ENDBRANCH  13  18
BRANCH  14  20
ATOM     20  O   UNL     1       6.634  21.877  10.454  1.00  0.00    -0.504 OA
ATOM     21  H   UNL     1       5.907  21.946   9.755  1.00  0.00     0.293 HD
ENDBRANCH  14  20
ENDBRANCH   1  12
BRANCH   2  22
ATOM     22  O   UNL     1      10.474  25.628  13.775  1.00  0.00    -0.502 OA
ATOM     23  H   UNL     1      10.356  24.627  13.868  1.00  0.00     0.293 HD
ENDBRANCH   2  22
BRANCH   6  24
ATOM     24  O   UNL     1      10.132  30.289  16.330  1.00  0.00    -0.507 OA
ATOM     25  H   UNL     1      10.990  29.759  16.351  1.00  0.00     0.293 HD
ENDBRANCH   6  24
BRANCH   8  26
ATOM     26  O   UNL     1       5.387  30.906  16.374  1.00  0.00    -0.508 OA
ATOM     27  H   UNL     1       5.502  31.856  16.707  1.00  0.00     0.293 HD
ENDBRANCH   8  26
TORSDOF 6
ENDMDL
MODEL 7
REMARK VINA RESULT:    -5.591      1.942      3.037
REMARK INTER + INTRA:          -6.861
REMARK INTER:                  -6.764
REMARK INTRA:                  -0.097
REMARK UNBOUND:                 0.037
REMARK SMILES COc1cc(-c2oc3cc(O)cc(O)c3c(=O)c2O)ccc1O
REMARK SMILES IDX 6 1 18 2 16 3 17 4 15 5 13 6 12 7 10 8 9 9 8 10 7 11 5 12
REMARK SMILES IDX 3 13 22 14 4 15 21 16 20 17 2 18 1 19 23 20 19 22 14 24
REMARK SMILES IDX 11 26
REMARK H PARENT 23 21 19 23 14 25 11 27
REMARK Flexibility Score: inf
ROOT
ATOM      1  C   UNL     1       6.338  26.680  14.304  1.00  0.00     0.180 A 
ATOM      2  C   UNL     1       6.437  25.419  14.917  1.00  0.00     0.208 A 
ATOM      3  C   UNL     1       5.794  24.321  14.322  1.00  0.00     0.238 A 
ATOM      4  O   UNL     1       5.930  23.184  14.846  1.00  0.00    -0.285 OA
ATOM      5  C   UNL     1       5.048  24.500  13.133  1.00  0.00     0.111 A 
ATOM      6  C   UNL     1       4.324  23.467  12.466  1.00  0.00     0.134 A 
ATOM      7  C   UNL     1       3.729  23.729  11.226  1.00  0.00     0.093 A 
ATOM      8  C   UNL     1       3.776  25.002  10.660  1.00  0.00     0.123 A 
ATOM      9  C   UNL     1       4.431  26.035  11.331  1.00  0.00     0.094 A 
ATOM     10  C   UNL     1       5.065  25.795  12.552  1.00  0.00     0.146 A 
ATOM     11  O   UNL     1       5.686  26.803  13.153  1.00  0.00    -0.452 OA
ENDROOT
BRANCH   1  12
ATOM     12  C   UNL     1       6.968  27.889  14.884  1.00  0.00     0.025 A 
ATOM     13  C   UNL     1       8.982  29.041  15.658  1.00  0.00     0.161 A 
ATOM     14  C   UNL     1       8.213  30.187  15.925  1.00  0.00     0.157 A 
ATOM     15  C   UNL     1       8.351  27.896  15.130  1.00  0.00     0.062 A 
ATOM     16  C   UNL     1       6.840  30.185  15.661  1.00  0.00     0.051 A 
ATOM     17  C   UNL     1       6.222  29.050  15.138  1.00  0.00     0.016 A 
BRANCH  13  18
ATOM     18  O   UNL     1      10.360  29.072  15.927  1.00  0.00    -0.493 OA
ATOM     19  C   UNL     1      11.125  27.952  16.362  1.00  0.00     0.278 C 
ENDBRANCH  13  18
BRANCH  14  20
ATOM     20  O   UNL     1       8.796  31.340  16.451  1.00  0.00    -0.504 OA
ATOM     21  H   UNL     1       8.294  31.967  17.067  1.00  0.00     0.293 HD
ENDBRANCH  14  20
ENDBRANCH   1  12
BRANCH   2  22
ATOM     22  O   UNL     1       7.196  25.259  16.080  1.00  0.00    -0.502 OA
ATOM     23  H   UNL     1       6.910  25.642  16.973  1.00  0.00     0.293 HD
ENDBRANCH   2  22
BRANCH   6  24
ATOM     24  O   UNL     1       4.137  22.183  12.989  1.00  0.00    -0.507 OA
ATOM     25  H   UNL     1       3.341  21.897  13.538  1.00  0.00     0.293 HD
ENDBRANCH   6  24
BRANCH   8  26
ATOM     26  O   UNL     1       3.160  25.232   9.431  1.00  0.00    -0.508 OA
ATOM     27  H   UNL     1       3.699  25.443   8.599  1.00  0.00     0.293 HD
ENDBRANCH   8  26
TORSDOF 6
ENDMDL
MODEL 8
REMARK VINA RESULT:    -5.364     20.390     22.421
REMARK INTER + INTRA:          -6.581
REMARK INTER:                  -6.202
REMARK INTRA:                  -0.379
REMARK UNBOUND:                 0.037
REMARK SMILES COc1cc(-c2oc3cc(O)cc(O)c3c(=O)c2O)ccc1O
REMARK SMILES IDX 6 1 18 2 16 3 17 4 15 5 13 6 12 7 10 8 9 9 8 10 7 11 5 12
REMARK SMILES IDX 3 13 22 14 4 15 21 16 20 17 2 18 1 19 23 20 19 22 14 24
REMARK SMILES IDX 11 26
REMARK H PARENT 23 21 19 23 14 25 11 27
REMARK Flexibility Score: inf
ROOT
ATOM      1  C   UNL     1      -6.649  37.939   1.363  1.00  0.00     0.180 A 
ATOM      2  C   UNL     1      -7.458  38.841   2.077  1.00  0.00     0.208 A 
ATOM      3  C   UNL     1      -6.846  39.769   2.936  1.00  0.00     0.238 A 
ATOM      4  O   UNL     1      -7.571  40.610   3.531  1.00  0.00    -0.285 OA
ATOM      5  C   UNL     1      -5.439  39.772   3.084  1.00  0.00     0.111 A 
ATOM      6  C   UNL     1      -4.717  40.640   3.956  1.00  0.00     0.134 A 
ATOM      7  C   UNL     1      -3.317  40.645   3.924  1.00  0.00     0.093 A 
ATOM      8  C   UNL     1      -2.613  39.768   3.100  1.00  0.00     0.123 A 
ATOM      9  C   UNL     1      -3.308  38.873   2.286  1.00  0.00     0.094 A 
ATOM     10  C   UNL     1      -4.705  38.871   2.269  1.00  0.00     0.146 A 
ATOM     11  O   UNL     1      -5.328  38.010   1.473  1.00  0.00    -0.452 OA
ENDROOT
BRANCH   1  12
ATOM     12  C   UNL     1      -7.222  36.916   0.457  1.00  0.00     0.025 A 
ATOM     13  C   UNL     1      -8.298  34.740   0.159  1.00  0.00     0.161 A 
ATOM     14  C   UNL     1      -8.375  34.977  -1.225  1.00  0.00     0.157 A 
ATOM     15  C   UNL     1      -7.725  35.720   0.995  1.00  0.00     0.062 A 
ATOM     16  C   UNL     1      -7.892  36.176  -1.756  1.00  0.00     0.051 A 
ATOM     17  C   UNL     1      -7.327  37.143  -0.925  1.00  0.00     0.016 A 
BRANCH  13  18
ATOM     18  O   UNL     1      -8.797  33.529   0.668  1.00  0.00    -0.493 OA
ATOM     19  C   UNL     1      -8.022  32.573   1.384  1.00  0.00     0.278 C 
ENDBRANCH  13  18
BRANCH  14  20
ATOM     20  O   UNL     1      -8.932  34.033  -2.088  1.00  0.00    -0.504 OA
ATOM     21  H   UNL     1      -9.392  34.295  -2.949  1.00  0.00     0.293 HD
ENDBRANCH  14  20
ENDBRANCH   1  12
BRANCH   2  22
ATOM     22  O   UNL     1      -8.844  38.835   1.901  1.00  0.00    -0.502 OA
ATOM     23  H   UNL     1      -9.320  38.125   1.358  1.00  0.00     0.293 HD
ENDBRANCH   2  22
BRANCH   6  24
ATOM     24  O   UNL     1      -5.322  41.492   4.886  1.00  0.00    -0.507 OA
ATOM     25  H   UNL     1      -4.917  42.349   5.229  1.00  0.00     0.293 HD
ENDBRANCH   6  24
BRANCH   8  26
ATOM     26  O   UNL     1      -1.219  39.789   3.105  1.00  0.00    -0.508 OA
ATOM     27  H   UNL     1      -0.701  40.471   3.647  1.00  0.00     0.293 HD
ENDBRANCH   8  26
TORSDOF 6
ENDMDL
MODEL 9
REMARK VINA RESULT:    -5.235     21.577     22.598
REMARK INTER + INTRA:          -6.422
REMARK INTER:                  -6.229
REMARK INTRA:                  -0.193
REMARK UNBOUND:                 0.037
REMARK SMILES COc1cc(-c2oc3cc(O)cc(O)c3c(=O)c2O)ccc1O
REMARK SMILES IDX 6 1 18 2 16 3 17 4 15 5 13 6 12 7 10 8 9 9 8 10 7 11 5 12
REMARK SMILES IDX 3 13 22 14 4 15 21 16 20 17 2 18 1 19 23 20 19 22 14 24
REMARK SMILES IDX 11 26
REMARK H PARENT 23 21 19 23 14 25 11 27
REMARK Flexibility Score: inf
ROOT
ATOM      1  C   UNL     1      -4.389  39.292  -0.489  1.00  0.00     0.180 A 
ATOM      2  C   UNL     1      -4.688  37.923  -0.614  1.00  0.00     0.208 A 
ATOM      3  C   UNL     1      -5.838  37.419   0.015  1.00  0.00     0.238 A 
ATOM      4  O   UNL     1      -6.130  36.204  -0.144  1.00  0.00    -0.285 OA
ATOM      5  C   UNL     1      -6.664  38.282   0.773  1.00  0.00     0.111 A 
ATOM      6  C   UNL     1      -7.830  37.871   1.486  1.00  0.00     0.134 A 
ATOM      7  C   UNL     1      -8.644  38.834   2.095  1.00  0.00     0.093 A 
ATOM      8  C   UNL     1      -8.300  40.185   2.073  1.00  0.00     0.123 A 
ATOM      9  C   UNL     1      -7.130  40.592   1.430  1.00  0.00     0.094 A 
ATOM     10  C   UNL     1      -6.317  39.659   0.782  1.00  0.00     0.146 A 
ATOM     11  O   UNL     1      -5.219  40.089   0.174  1.00  0.00    -0.452 OA
ENDROOT
BRANCH   1  12
ATOM     12  C   UNL     1      -3.183  39.893  -1.104  1.00  0.00     0.025 A 
ATOM     13  C   UNL     1      -1.009  40.982  -0.835  1.00  0.00     0.161 A 
ATOM     14  C   UNL     1      -0.848  40.985  -2.232  1.00  0.00     0.157 A 
ATOM     15  C   UNL     1      -2.179  40.425  -0.278  1.00  0.00     0.062 A 
ATOM     16  C   UNL     1      -1.838  40.437  -3.051  1.00  0.00     0.051 A 
ATOM     17  C   UNL     1      -2.993  39.888  -2.495  1.00  0.00     0.016 A 
BRANCH  13  18
ATOM     18  O   UNL     1       0.004  41.533  -0.034  1.00  0.00    -0.493 OA
ATOM     19  C   UNL     1       0.020  41.497   1.389  1.00  0.00     0.278 C 
ENDBRANCH  13  18
BRANCH  14  20
ATOM     20  O   UNL     1       0.293  41.528  -2.824  1.00  0.00    -0.504 OA
ATOM     21  H   UNL     1       0.367  42.511  -3.052  1.00  0.00     0.293 HD
ENDBRANCH  14  20
ENDBRANCH   1  12
BRANCH   2  22
ATOM     22  O   UNL     1      -3.871  37.092  -1.385  1.00  0.00    -0.502 OA
ATOM     23  H   UNL     1      -3.386  36.293  -0.995  1.00  0.00     0.293 HD
ENDBRANCH   2  22
BRANCH   6  24
ATOM     24  O   UNL     1      -8.215  36.537   1.647  1.00  0.00    -0.507 OA
ATOM     25  H   UNL     1      -8.553  36.136   2.509  1.00  0.00     0.293 HD
ENDBRANCH   6  24
BRANCH   8  26
ATOM     26  O   UNL     1      -9.125  41.115   2.702  1.00  0.00    -0.508 OA
ATOM     27  H   UNL     1      -9.655  41.798   2.173  1.00  0.00     0.293 HD
ENDBRANCH   8  26
TORSDOF 6
ENDMDL
