MODEL 1
REMARK VINA RESULT:    -3.663      0.000      0.000
REMARK INTER + INTRA:          -5.205
REMARK INTER:                  -4.948
REMARK INTRA:                  -0.257
REMARK UNBOUND:                -0.257
REMARK SMILES CCCCCCCC(=O)[O-]
REMARK SMILES IDX 5 1 6 2 7 3 8 4 9 5 10 6 4 7 3 8 2 9 1 10
REMARK H PARENT
REMARK Flexibility Score: inf
ROOT
ATOM      1  C   UNL     1      12.304 -21.616  40.684  1.00  0.00     0.000 C 
ENDROOT
BRANCH   1   2
ATOM      2  C   UNL     1      12.700 -22.457  39.453  1.00  0.00     0.006 C 
BRANCH   2   3
ATOM      3  C   UNL     1      13.691 -21.769  38.502  1.00  0.00     0.053 C 
BRANCH   3   4
ATOM      4  C   UNL     1      13.871 -22.538  37.229  1.00  0.00     0.041 C 
ATOM      5  O   UNL     1      13.815 -23.795  37.233  1.00  0.00    -0.550 OA
ATOM      6  O   UNL     1      14.135 -21.865  36.042  1.00  0.00    -0.550 OA
ENDBRANCH   3   4
ENDBRANCH   2   3
ENDBRANCH   1   2
BRANCH   1   7
ATOM      7  C   UNL     1      11.157 -22.198  41.530  1.00  0.00     0.000 C 
BRANCH   7   8
ATOM      8  C   UNL     1       9.929 -22.581  40.691  1.00  0.00    -0.000 C 
BRANCH   8   9
ATOM      9  C   UNL     1       9.707 -24.098  40.704  1.00  0.00    -0.003 C 
ATOM     10  C   UNL     1       9.356 -24.617  39.313  1.00  0.00     0.004 C 
ENDBRANCH   8   9
ENDBRANCH   7   8
ENDBRANCH   1   7
TORSDOF 6
ENDMDL
MODEL 2
REMARK VINA RESULT:    -3.565      1.320      1.997
REMARK INTER + INTRA:          -5.072
REMARK INTER:                  -4.893
REMARK INTRA:                  -0.179
REMARK UNBOUND:                -0.257
REMARK SMILES CCCCCCCC(=O)[O-]
REMARK SMILES IDX 5 1 6 2 7 3 8 4 9 5 10 6 4 7 3 8 2 9 1 10
REMARK H PARENT
REMARK Flexibility Score: inf
ROOT
ATOM      1  C   UNL     1      13.428 -20.548  39.931  1.00  0.00     0.000 C 
ENDROOT
BRANCH   1   2
ATOM      2  C   UNL     1      14.398 -20.775  38.752  1.00  0.00     0.006 C 
BRANCH   2   3
ATOM      3  C   UNL     1      13.911 -20.209  37.409  1.00  0.00     0.053 C 
BRANCH   3   4
ATOM      4  C   UNL     1      14.030 -21.212  36.303  1.00  0.00     0.041 C 
ATOM      5  O   UNL     1      14.580 -22.325  36.512  1.00  0.00    -0.550 OA
ATOM      6  O   UNL     1      13.563 -20.904  35.031  1.00  0.00    -0.550 OA
ENDBRANCH   3   4
ENDBRANCH   2   3
ENDBRANCH   1   2
BRANCH   1   7
ATOM      7  C   UNL     1      12.433 -21.694  40.186  1.00  0.00     0.000 C 
BRANCH   7   8
ATOM      8  C   UNL     1      11.921 -21.732  41.633  1.00  0.00    -0.000 C 
BRANCH   8   9
ATOM      9  C   UNL     1      10.819 -22.786  41.797  1.00  0.00    -0.003 C 
ATOM     10  C   UNL     1       9.842 -22.750  40.626  1.00  0.00     0.004 C 
ENDBRANCH   8   9
ENDBRANCH   7   8
ENDBRANCH   1   7
TORSDOF 6
ENDMDL
MODEL 3
REMARK VINA RESULT:    -3.427      3.740      4.643
REMARK INTER + INTRA:          -4.886
REMARK INTER:                  -4.607
REMARK INTRA:                  -0.278
REMARK UNBOUND:                -0.257
REMARK SMILES CCCCCCCC(=O)[O-]
REMARK SMILES IDX 5 1 6 2 7 3 8 4 9 5 10 6 4 7 3 8 2 9 1 10
REMARK H PARENT
REMARK Flexibility Score: inf
ROOT
ATOM      1  C   UNL     1      10.995 -22.578  40.464  1.00  0.00     0.000 C 
ENDROOT
BRANCH   1   2
ATOM      2  C   UNL     1      11.470 -21.872  41.751  1.00  0.00     0.006 C 
BRANCH   2   3
ATOM      3  C   UNL     1      12.587 -22.607  42.507  1.00  0.00     0.053 C 
BRANCH   3   4
ATOM      4  C   UNL     1      13.181 -21.761  43.590  1.00  0.00     0.041 C 
ATOM      5  O   UNL     1      13.695 -20.645  43.315  1.00  0.00    -0.550 OA
ATOM      6  O   UNL     1      13.196 -22.220  44.902  1.00  0.00    -0.550 OA
ENDBRANCH   3   4
ENDBRANCH   2   3
ENDBRANCH   1   2
BRANCH   1   7
ATOM      7  C   UNL     1       9.543 -23.088  40.498  1.00  0.00     0.000 C 
BRANCH   7   8
ATOM      8  C   UNL     1       9.373 -24.459  39.828  1.00  0.00    -0.000 C 
BRANCH   8   9
ATOM      9  C   UNL     1       8.851 -25.497  40.829  1.00  0.00    -0.003 C 
ATOM     10  C   UNL     1       9.991 -26.108  41.638  1.00  0.00     0.004 C 
ENDBRANCH   8   9
ENDBRANCH   7   8
ENDBRANCH   1   7
TORSDOF 6
ENDMDL
MODEL 4
REMARK VINA RESULT:    -3.418      0.919      1.258
REMARK INTER + INTRA:          -4.874
REMARK INTER:                  -4.421
REMARK INTRA:                  -0.453
REMARK UNBOUND:                -0.257
REMARK SMILES CCCCCCCC(=O)[O-]
REMARK SMILES IDX 5 1 6 2 7 3 8 4 9 5 10 6 4 7 3 8 2 9 1 10
REMARK H PARENT
REMARK Flexibility Score: inf
ROOT
ATOM      1  C   UNL     1      12.719 -21.423  40.666  1.00  0.00     0.000 C 
ENDROOT
BRANCH   1   2
ATOM      2  C   UNL     1      13.100 -21.696  39.197  1.00  0.00     0.006 C 
BRANCH   2   3
ATOM      3  C   UNL     1      13.006 -23.172  38.778  1.00  0.00     0.053 C 
BRANCH   3   4
ATOM      4  C   UNL     1      13.873 -23.474  37.595  1.00  0.00     0.041 C 
ATOM      5  O   UNL     1      13.791 -24.589  37.016  1.00  0.00    -0.550 OA
ATOM      6  O   UNL     1      14.796 -22.535  37.151  1.00  0.00    -0.550 OA
ENDBRANCH   3   4
ENDBRANCH   2   3
ENDBRANCH   1   2
BRANCH   1   7
ATOM      7  C   UNL     1      12.410 -22.677  41.504  1.00  0.00     0.000 C 
BRANCH   7   8
ATOM      8  C   UNL     1      10.971 -22.701  42.039  1.00  0.00    -0.000 C 
BRANCH   8   9
ATOM      9  C   UNL     1       9.957 -22.608  40.891  1.00  0.00    -0.003 C 
ATOM     10  C   UNL     1       9.666 -23.983  40.299  1.00  0.00     0.004 C 
ENDBRANCH   8   9
ENDBRANCH   7   8
ENDBRANCH   1   7
TORSDOF 6
ENDMDL
MODEL 5
REMARK VINA RESULT:    -3.409      4.573      6.352
REMARK INTER + INTRA:          -4.862
REMARK INTER:                  -4.523
REMARK INTRA:                  -0.340
REMARK UNBOUND:                -0.257
REMARK SMILES CCCCCCCC(=O)[O-]
REMARK SMILES IDX 5 1 6 2 7 3 8 4 9 5 10 6 4 7 3 8 2 9 1 10
REMARK H PARENT
REMARK Flexibility Score: inf
ROOT
ATOM      1  C   UNL     1      10.438 -25.235  40.375  1.00  0.00     0.000 C 
ENDROOT
BRANCH   1   2
ATOM      2  C   UNL     1       9.844 -26.058  41.537  1.00  0.00     0.006 C 
BRANCH   2   3
ATOM      3  C   UNL     1       8.366 -26.437  41.360  1.00  0.00     0.053 C 
BRANCH   3   4
ATOM      4  C   UNL     1       8.159 -27.920  41.394  1.00  0.00     0.041 C 
ATOM      5  O   UNL     1       7.873 -28.545  40.340  1.00  0.00    -0.550 OA
ATOM      6  O   UNL     1       8.251 -28.607  42.598  1.00  0.00    -0.550 OA
ENDBRANCH   3   4
ENDBRANCH   2   3
ENDBRANCH   1   2
BRANCH   1   7
ATOM      7  C   UNL     1       9.542 -24.093  39.862  1.00  0.00     0.000 C 
BRANCH   7   8
ATOM      8  C   UNL     1       9.709 -22.794  40.664  1.00  0.00    -0.000 C 
BRANCH   8   9
ATOM      9  C   UNL     1      11.185 -22.388  40.750  1.00  0.00    -0.003 C 
ATOM     10  C   UNL     1      11.627 -22.214  42.200  1.00  0.00     0.004 C 
ENDBRANCH   8   9
ENDBRANCH   7   8
ENDBRANCH   1   7
TORSDOF 6
ENDMDL
MODEL 6
REMARK VINA RESULT:    -3.397      1.977      3.354
REMARK INTER + INTRA:          -4.846
REMARK INTER:                  -4.255
REMARK INTRA:                  -0.591
REMARK UNBOUND:                -0.257
REMARK SMILES CCCCCCCC(=O)[O-]
REMARK SMILES IDX 5 1 6 2 7 3 8 4 9 5 10 6 4 7 3 8 2 9 1 10
REMARK H PARENT
REMARK Flexibility Score: inf
ROOT
ATOM      1  C   UNL     1      10.307 -25.193  41.048  1.00  0.00     0.000 C 
ENDROOT
BRANCH   1   2
ATOM      2  C   UNL     1      11.351 -26.087  40.348  1.00  0.00     0.006 C 
BRANCH   2   3
ATOM      3  C   UNL     1      12.701 -25.404  40.084  1.00  0.00     0.053 C 
BRANCH   3   4
ATOM      4  C   UNL     1      12.838 -24.968  38.658  1.00  0.00     0.041 C 
ATOM      5  O   UNL     1      12.709 -23.755  38.349  1.00  0.00    -0.550 OA
ATOM      6  O   UNL     1      13.076 -25.909  37.663  1.00  0.00    -0.550 OA
ENDBRANCH   3   4
ENDBRANCH   2   3
ENDBRANCH   1   2
BRANCH   1   7
ATOM      7  C   UNL     1       9.617 -24.162  40.137  1.00  0.00     0.000 C 
BRANCH   7   8
ATOM      8  C   UNL     1       9.719 -22.726  40.671  1.00  0.00    -0.000 C 
BRANCH   8   9
ATOM      9  C   UNL     1      10.818 -22.614  41.735  1.00  0.00    -0.003 C 
ATOM     10  C   UNL     1      11.985 -21.767  41.235  1.00  0.00     0.004 C 
ENDBRANCH   8   9
ENDBRANCH   7   8
ENDBRANCH   1   7
TORSDOF 6
ENDMDL
MODEL 7
REMARK VINA RESULT:    -3.351      2.913      4.184
REMARK INTER + INTRA:          -4.783
REMARK INTER:                  -4.549
REMARK INTRA:                  -0.234
REMARK UNBOUND:                -0.257
REMARK SMILES CCCCCCCC(=O)[O-]
REMARK SMILES IDX 5 1 6 2 7 3 8 4 9 5 10 6 4 7 3 8 2 9 1 10
REMARK H PARENT
REMARK Flexibility Score: inf
ROOT
ATOM      1  C   UNL     1       9.822 -24.077  39.995  1.00  0.00     0.000 C 
ENDROOT
BRANCH   1   2
ATOM      2  C   UNL     1       9.862 -22.695  40.680  1.00  0.00     0.006 C 
BRANCH   2   3
ATOM      3  C   UNL     1      10.900 -22.572  41.806  1.00  0.00     0.053 C 
BRANCH   3   4
ATOM      4  C   UNL     1      12.075 -21.738  41.395  1.00  0.00     0.041 C 
ATOM      5  O   UNL     1      12.359 -21.598  40.176  1.00  0.00    -0.550 OA
ATOM      6  O   UNL     1      12.877 -21.142  42.360  1.00  0.00    -0.550 OA
ENDBRANCH   3   4
ENDBRANCH   2   3
ENDBRANCH   1   2
BRANCH   1   7
ATOM      7  C   UNL     1       8.970 -25.138  40.716  1.00  0.00     0.000 C 
BRANCH   7   8
ATOM      8  C   UNL     1       9.811 -26.114  41.551  1.00  0.00    -0.000 C 
BRANCH   8   9
ATOM      9  C   UNL     1       9.063 -27.435  41.767  1.00  0.00    -0.003 C 
ATOM     10  C   UNL     1       7.597 -27.312  41.364  1.00  0.00     0.004 C 
ENDBRANCH   8   9
ENDBRANCH   7   8
ENDBRANCH   1   7
TORSDOF 6
ENDMDL
MODEL 8
REMARK VINA RESULT:    -3.327      1.599      2.386
REMARK INTER + INTRA:          -4.751
REMARK INTER:                  -4.128
REMARK INTRA:                  -0.624
REMARK UNBOUND:                -0.257
REMARK SMILES CCCCCCCC(=O)[O-]
REMARK SMILES IDX 5 1 6 2 7 3 8 4 9 5 10 6 4 7 3 8 2 9 1 10
REMARK H PARENT
REMARK Flexibility Score: inf
ROOT
ATOM      1  C   UNL     1      10.863 -22.554  41.666  1.00  0.00     0.000 C 
ENDROOT
BRANCH   1   2
ATOM      2  C   UNL     1      12.109 -21.821  41.128  1.00  0.00     0.006 C 
BRANCH   2   3
ATOM      3  C   UNL     1      12.393 -22.056  39.637  1.00  0.00     0.053 C 
BRANCH   3   4
ATOM      4  C   UNL     1      13.017 -23.394  39.389  1.00  0.00     0.041 C 
ATOM      5  O   UNL     1      12.771 -24.023  38.327  1.00  0.00    -0.550 OA
ATOM      6  O   UNL     1      13.847 -23.963  40.349  1.00  0.00    -0.550 OA
ENDBRANCH   3   4
ENDBRANCH   2   3
ENDBRANCH   1   2
BRANCH   1   7
ATOM      7  C   UNL     1       9.743 -22.778  40.633  1.00  0.00     0.000 C 
BRANCH   7   8
ATOM      8  C   UNL     1       9.475 -24.264  40.353  1.00  0.00    -0.000 C 
BRANCH   8   9
ATOM      9  C   UNL     1      10.325 -25.156  41.266  1.00  0.00    -0.003 C 
ATOM     10  C   UNL     1      10.927 -26.324  40.491  1.00  0.00     0.004 C 
ENDBRANCH   8   9
ENDBRANCH   7   8
ENDBRANCH   1   7
TORSDOF 6
ENDMDL
MODEL 9
REMARK VINA RESULT:    -3.266     11.928     14.190
REMARK INTER + INTRA:          -4.668
REMARK INTER:                  -4.442
REMARK INTRA:                  -0.226
REMARK UNBOUND:                -0.257
REMARK SMILES CCCCCCCC(=O)[O-]
REMARK SMILES IDX 5 1 6 2 7 3 8 4 9 5 10 6 4 7 3 8 2 9 1 10
REMARK H PARENT
REMARK Flexibility Score: inf
ROOT
ATOM      1  C   UNL     1       1.741 -31.087  38.211  1.00  0.00     0.000 C 
ENDROOT
BRANCH   1   2
ATOM      2  C   UNL     1       0.214 -31.015  38.002  1.00  0.00     0.006 C 
BRANCH   2   3
ATOM      3  C   UNL     1      -0.271 -29.753  37.272  1.00  0.00     0.053 C 
BRANCH   3   4
ATOM      4  C   UNL     1      -1.765 -29.678  37.216  1.00  0.00     0.041 C 
ATOM      5  O   UNL     1      -2.334 -28.624  36.828  1.00  0.00    -0.550 OA
ATOM      6  O   UNL     1      -2.532 -30.763  37.625  1.00  0.00    -0.550 OA
ENDBRANCH   3   4
ENDBRANCH   2   3
ENDBRANCH   1   2
BRANCH   1   7
ATOM      7  C   UNL     1       2.254 -30.412  39.496  1.00  0.00     0.000 C 
BRANCH   7   8
ATOM      8  C   UNL     1       2.588 -28.926  39.301  1.00  0.00    -0.000 C 
BRANCH   8   9
ATOM      9  C   UNL     1       1.874 -28.062  40.347  1.00  0.00    -0.003 C 
ATOM     10  C   UNL     1       2.649 -26.777  40.623  1.00  0.00     0.004 C 
ENDBRANCH   8   9
ENDBRANCH   7   8
ENDBRANCH   1   7
TORSDOF 6
ENDMDL
