MODEL 1
REMARK VINA RESULT:    -7.451      0.000      0.000
REMARK INTER + INTRA:         -12.364
REMARK INTER:                 -11.371
REMARK INTRA:                  -0.993
REMARK UNBOUND:                -0.993
REMARK SMILES OC[C@@H]1O[C@@](CO)(O[C@@H]2O[C@H](CO)[C@H](O)[C@@H](O)[C@H]2O)[C@H](O)[C@H]1O
REMARK SMILES IDX 8 1 9 2 11 3 14 4 10 5 16 6 18 7 12 8 13 9 15 11 17 13 19 15
REMARK SMILES IDX 5 17 20 18 4 19 22 20 3 21 6 22 7 23 21 25 23 27 2 29 1 30
REMARK H PARENT 13 10 15 12 17 14 19 16 7 24 21 26 23 28 1 31
REMARK Flexibility Score: inf
ROOT
ATOM      1  O   UNL     1     204.243 202.595 232.323  1.00  0.00    -0.313 OA
ENDROOT
BRANCH   1   2
ATOM      2  C   UNL     1     204.575 201.569 231.390  1.00  0.00     0.285 C 
ATOM      3  C   UNL     1     202.633 201.852 230.007  1.00  0.00     0.178 C 
ATOM      4  C   UNL     1     202.048 200.480 230.429  1.00  0.00     0.177 C 
ATOM      5  O   UNL     1     204.053 201.907 230.109  1.00  0.00    -0.341 OA
ATOM      6  C   UNL     1     202.594 200.041 231.800  1.00  0.00     0.179 C 
ATOM      7  C   UNL     1     204.125 200.147 231.830  1.00  0.00     0.202 C 
BRANCH   3   8
ATOM      8  C   UNL     1     201.946 203.122 230.581  1.00  0.00     0.191 C 
BRANCH   8   9
ATOM      9  O   UNL     1     200.597 203.228 230.198  1.00  0.00    -0.394 OA
ATOM     10  H   UNL     1     200.311 204.161 230.374  1.00  0.00     0.210 HD
ENDBRANCH   8   9
ENDBRANCH   3   8
BRANCH   4  11
ATOM     11  O   UNL     1     200.641 200.525 230.438  1.00  0.00    -0.387 OA
ATOM     12  H   UNL     1     200.322 199.585 230.427  1.00  0.00     0.211 HD
ENDBRANCH   4  11
BRANCH   6  13
ATOM     13  O   UNL     1     202.180 198.735 232.136  1.00  0.00    -0.387 OA
ATOM     14  H   UNL     1     202.989 198.194 232.338  1.00  0.00     0.211 HD
ENDBRANCH   6  13
BRANCH   7  15
ATOM     15  O   UNL     1     204.732 199.155 231.031  1.00  0.00    -0.385 OA
ATOM     16  H   UNL     1     205.445 199.580 230.485  1.00  0.00     0.211 HD
ENDBRANCH   7  15
ENDBRANCH   1   2
BRANCH   1  17
ATOM     17  C   UNL     1     205.235 203.590 232.625  1.00  0.00     0.224 C 
ATOM     18  C   UNL     1     205.663 204.203 231.259  1.00  0.00     0.208 C 
ATOM     19  O   UNL     1     204.634 204.611 233.396  1.00  0.00    -0.337 OA
ATOM     20  C   UNL     1     205.128 205.627 231.304  1.00  0.00     0.180 C 
ATOM     21  C   UNL     1     204.216 205.636 232.526  1.00  0.00     0.179 C 
BRANCH  17  22
ATOM     22  C   UNL     1     206.473 203.063 233.418  1.00  0.00     0.225 C 
BRANCH  22  23
ATOM     23  O   UNL     1     206.172 202.976 234.785  1.00  0.00    -0.391 OA
ATOM     24  H   UNL     1     205.313 203.461 234.916  1.00  0.00     0.210 HD
ENDBRANCH  22  23
ENDBRANCH  17  22
BRANCH  18  25
ATOM     25  O   UNL     1     207.060 204.198 231.063  1.00  0.00    -0.385 OA
ATOM     26  H   UNL     1     207.407 205.049 231.443  1.00  0.00     0.211 HD
ENDBRANCH  18  25
BRANCH  20  27
ATOM     27  O   UNL     1     204.432 205.982 230.127  1.00  0.00    -0.387 OA
ATOM     28  H   UNL     1     204.019 205.164 229.750  1.00  0.00     0.211 HD
ENDBRANCH  20  27
BRANCH  21  29
ATOM     29  C   UNL     1     204.258 206.973 233.271  1.00  0.00     0.191 C 
BRANCH  29  30
ATOM     30  O   UNL     1     205.010 207.904 232.537  1.00  0.00    -0.394 OA
ATOM     31  H   UNL     1     204.602 207.940 231.628  1.00  0.00     0.210 HD
ENDBRANCH  29  30
ENDBRANCH  21  29
ENDBRANCH   1  17
TORSDOF 13
ENDMDL
MODEL 2
REMARK VINA RESULT:    -7.410      1.845      6.003
REMARK INTER + INTRA:         -12.301
REMARK INTER:                 -11.303
REMARK INTRA:                  -0.999
REMARK UNBOUND:                -0.993
REMARK SMILES OC[C@@H]1O[C@@](CO)(O[C@@H]2O[C@H](CO)[C@H](O)[C@@H](O)[C@H]2O)[C@H](O)[C@H]1O
REMARK SMILES IDX 8 1 9 2 11 3 14 4 10 5 16 6 18 7 12 8 13 9 15 11 17 13 19 15
REMARK SMILES IDX 5 17 20 18 4 19 22 20 3 21 6 22 7 23 21 25 23 27 2 29 1 30
REMARK H PARENT 13 10 15 12 17 14 19 16 7 24 21 26 23 28 1 31
REMARK Flexibility Score: inf
ROOT
ATOM      1  O   UNL     1     202.935 203.322 232.351  1.00  0.00    -0.313 OA
ENDROOT
BRANCH   1   2
ATOM      2  C   UNL     1     202.635 204.359 231.419  1.00  0.00     0.285 C 
ATOM      3  C   UNL     1     204.658 204.141 230.144  1.00  0.00     0.178 C 
ATOM      4  C   UNL     1     205.190 205.516 230.624  1.00  0.00     0.177 C 
ATOM      5  O   UNL     1     203.236 204.057 230.164  1.00  0.00    -0.341 OA
ATOM      6  C   UNL     1     204.558 205.918 231.969  1.00  0.00     0.179 C 
ATOM      7  C   UNL     1     203.030 205.782 231.910  1.00  0.00     0.202 C 
BRANCH   3   8
ATOM      8  C   UNL     1     205.337 202.874 230.733  1.00  0.00     0.191 C 
BRANCH   8   9
ATOM      9  O   UNL     1     206.650 202.694 230.263  1.00  0.00    -0.394 OA
ATOM     10  H   UNL     1     207.225 203.355 230.726  1.00  0.00     0.210 HD
ENDBRANCH   8   9
ENDBRANCH   3   8
BRANCH   4  11
ATOM     11  O   UNL     1     206.595 205.497 230.712  1.00  0.00    -0.387 OA
ATOM     12  H   UNL     1     206.929 206.247 230.153  1.00  0.00     0.211 HD
ENDBRANCH   4  11
BRANCH   6  13
ATOM     13  O   UNL     1     204.926 207.224 232.352  1.00  0.00    -0.387 OA
ATOM     14  H   UNL     1     204.360 207.868 231.848  1.00  0.00     0.211 HD
ENDBRANCH   6  13
BRANCH   7  15
ATOM     15  O   UNL     1     202.450 206.777 231.096  1.00  0.00    -0.385 OA
ATOM     16  H   UNL     1     201.712 207.210 231.602  1.00  0.00     0.211 HD
ENDBRANCH   7  15
ENDBRANCH   1   2
BRANCH   1  17
ATOM     17  C   UNL     1     201.954 202.293 232.565  1.00  0.00     0.224 C 
ATOM     18  C   UNL     1     201.604 201.730 231.156  1.00  0.00     0.208 C 
ATOM     19  O   UNL     1     202.545 201.254 233.319  1.00  0.00    -0.337 OA
ATOM     20  C   UNL     1     202.170 200.318 231.165  1.00  0.00     0.180 C 
ATOM     21  C   UNL     1     203.027 200.277 232.427  1.00  0.00     0.179 C 
BRANCH  17  22
ATOM     22  C   UNL     1     200.670 202.758 233.321  1.00  0.00     0.225 C 
BRANCH  22  23
ATOM     23  O   UNL     1     200.949 202.942 234.684  1.00  0.00    -0.391 OA
ATOM     24  H   UNL     1     201.765 202.407 234.878  1.00  0.00     0.210 HD
ENDBRANCH  22  23
ENDBRANCH  17  22
BRANCH  18  25
ATOM     25  O   UNL     1     200.217 201.713 230.896  1.00  0.00    -0.385 OA
ATOM     26  H   UNL     1     199.779 202.213 231.636  1.00  0.00     0.211 HD
ENDBRANCH  18  25
BRANCH  20  27
ATOM     27  O   UNL     1     202.926 200.030 230.008  1.00  0.00    -0.387 OA
ATOM     28  H   UNL     1     203.583 200.761 229.874  1.00  0.00     0.211 HD
ENDBRANCH  20  27
BRANCH  21  29
ATOM     29  C   UNL     1     202.983 198.908 233.112  1.00  0.00     0.191 C 
BRANCH  29  30
ATOM     30  O   UNL     1     202.206 198.020 232.353  1.00  0.00    -0.394 OA
ATOM     31  H   UNL     1     201.509 197.660 232.968  1.00  0.00     0.210 HD
ENDBRANCH  29  30
ENDBRANCH  21  29
ENDBRANCH   1  17
TORSDOF 13
ENDMDL
MODEL 3
REMARK VINA RESULT:    -7.358      1.993      4.212
REMARK INTER + INTRA:         -12.223
REMARK INTER:                 -10.671
REMARK INTRA:                  -1.552
REMARK UNBOUND:                -0.993
REMARK SMILES OC[C@@H]1O[C@@](CO)(O[C@@H]2O[C@H](CO)[C@H](O)[C@@H](O)[C@H]2O)[C@H](O)[C@H]1O
REMARK SMILES IDX 8 1 9 2 11 3 14 4 10 5 16 6 18 7 12 8 13 9 15 11 17 13 19 15
REMARK SMILES IDX 5 17 20 18 4 19 22 20 3 21 6 22 7 23 21 25 23 27 2 29 1 30
REMARK H PARENT 13 10 15 12 17 14 19 16 7 24 21 26 23 28 1 31
REMARK Flexibility Score: inf
ROOT
ATOM      1  O   UNL     1     204.245 202.625 231.747  1.00  0.00    -0.313 OA
ENDROOT
BRANCH   1   2
ATOM      2  C   UNL     1     203.467 201.976 230.744  1.00  0.00     0.285 C 
ATOM      3  C   UNL     1     202.847 203.981 229.576  1.00  0.00     0.178 C 
ATOM      4  C   UNL     1     201.361 203.849 229.997  1.00  0.00     0.177 C 
ATOM      5  O   UNL     1     203.527 202.730 229.537  1.00  0.00    -0.341 OA
ATOM      6  C   UNL     1     201.220 203.020 231.287  1.00  0.00     0.179 C 
ATOM      7  C   UNL     1     201.995 201.700 231.167  1.00  0.00     0.202 C 
BRANCH   3   8
ATOM      8  C   UNL     1     203.683 205.092 230.268  1.00  0.00     0.191 C 
BRANCH   8   9
ATOM      9  O   UNL     1     205.057 204.991 229.987  1.00  0.00    -0.394 OA
ATOM     10  H   UNL     1     205.148 204.767 229.026  1.00  0.00     0.210 HD
ENDBRANCH   8   9
ENDBRANCH   3   8
BRANCH   4  11
ATOM     11  O   UNL     1     200.777 205.121 230.150  1.00  0.00    -0.387 OA
ATOM     12  H   UNL     1     201.497 205.789 230.007  1.00  0.00     0.211 HD
ENDBRANCH   4  11
BRANCH   6  13
ATOM     13  O   UNL     1     199.870 202.774 231.608  1.00  0.00    -0.387 OA
ATOM     14  H   UNL     1     199.558 201.995 231.076  1.00  0.00     0.211 HD
ENDBRANCH   6  13
BRANCH   7  15
ATOM     15  O   UNL     1     201.371 200.808 230.271  1.00  0.00    -0.385 OA
ATOM     16  H   UNL     1     202.018 200.573 229.554  1.00  0.00     0.211 HD
ENDBRANCH   7  15
ENDBRANCH   1   2
BRANCH   1  17
ATOM     17  C   UNL     1     205.413 201.951 232.246  1.00  0.00     0.224 C 
ATOM     18  C   UNL     1     206.042 202.904 233.305  1.00  0.00     0.208 C 
ATOM     19  O   UNL     1     205.007 200.768 232.905  1.00  0.00    -0.337 OA
ATOM     20  C   UNL     1     205.831 202.184 234.629  1.00  0.00     0.180 C 
ATOM     21  C   UNL     1     204.874 201.049 234.278  1.00  0.00     0.179 C 
BRANCH  17  22
ATOM     22  C   UNL     1     206.457 201.554 231.156  1.00  0.00     0.225 C 
BRANCH  22  23
ATOM     23  O   UNL     1     206.688 202.632 230.289  1.00  0.00    -0.391 OA
ATOM     24  H   UNL     1     206.031 203.337 230.536  1.00  0.00     0.210 HD
ENDBRANCH  22  23
ENDBRANCH  17  22
BRANCH  18  25
ATOM     25  O   UNL     1     207.413 203.152 233.082  1.00  0.00    -0.385 OA
ATOM     26  H   UNL     1     207.468 203.951 232.493  1.00  0.00     0.211 HD
ENDBRANCH  18  25
BRANCH  20  27
ATOM     27  O   UNL     1     205.298 203.029 235.627  1.00  0.00    -0.387 OA
ATOM     28  H   UNL     1     205.934 203.053 236.388  1.00  0.00     0.211 HD
ENDBRANCH  20  27
BRANCH  21  29
ATOM     29  C   UNL     1     205.167 199.776 235.079  1.00  0.00     0.191 C 
BRANCH  29  30
ATOM     30  O   UNL     1     204.354 199.736 236.222  1.00  0.00    -0.394 OA
ATOM     31  H   UNL     1     203.421 199.602 235.899  1.00  0.00     0.210 HD
ENDBRANCH  29  30
ENDBRANCH  21  29
ENDBRANCH   1  17
TORSDOF 13
ENDMDL
MODEL 4
REMARK VINA RESULT:    -7.256      2.370      4.784
REMARK INTER + INTRA:         -12.067
REMARK INTER:                 -10.507
REMARK INTRA:                  -1.560
REMARK UNBOUND:                -0.993
REMARK SMILES OC[C@@H]1O[C@@](CO)(O[C@@H]2O[C@H](CO)[C@H](O)[C@@H](O)[C@H]2O)[C@H](O)[C@H]1O
REMARK SMILES IDX 8 1 9 2 11 3 14 4 10 5 16 6 18 7 12 8 13 9 15 11 17 13 19 15
REMARK SMILES IDX 5 17 20 18 4 19 22 20 3 21 6 22 7 23 21 25 23 27 2 29 1 30
REMARK H PARENT 13 10 15 12 17 14 19 16 7 24 21 26 23 28 1 31
REMARK Flexibility Score: inf
ROOT
ATOM      1  O   UNL     1     202.964 203.432 231.745  1.00  0.00    -0.313 OA
ENDROOT
BRANCH   1   2
ATOM      2  C   UNL     1     203.756 204.116 230.777  1.00  0.00     0.285 C 
ATOM      3  C   UNL     1     204.415 202.152 229.563  1.00  0.00     0.178 C 
ATOM      4  C   UNL     1     205.892 202.282 230.017  1.00  0.00     0.177 C 
ATOM      5  O   UNL     1     203.725 203.398 229.547  1.00  0.00    -0.341 OA
ATOM      6  C   UNL     1     206.001 203.074 231.332  1.00  0.00     0.179 C 
ATOM      7  C   UNL     1     205.217 204.391 231.237  1.00  0.00     0.202 C 
BRANCH   3   8
ATOM      8  C   UNL     1     203.575 201.014 230.206  1.00  0.00     0.191 C 
BRANCH   8   9
ATOM      9  O   UNL     1     202.210 201.096 229.878  1.00  0.00    -0.394 OA
ATOM     10  H   UNL     1     202.016 200.370 229.231  1.00  0.00     0.210 HD
ENDBRANCH   8   9
ENDBRANCH   3   8
BRANCH   4  11
ATOM     11  O   UNL     1     206.484 201.011 230.143  1.00  0.00    -0.387 OA
ATOM     12  H   UNL     1     206.188 200.476 229.360  1.00  0.00     0.211 HD
ENDBRANCH   4  11
BRANCH   6  13
ATOM     13  O   UNL     1     207.343 203.321 231.688  1.00  0.00    -0.387 OA
ATOM     14  H   UNL     1     207.354 203.769 232.575  1.00  0.00     0.211 HD
ENDBRANCH   6  13
BRANCH   7  15
ATOM     15  O   UNL     1     205.851 205.314 230.380  1.00  0.00    -0.385 OA
ATOM     16  H   UNL     1     205.188 205.636 229.713  1.00  0.00     0.211 HD
ENDBRANCH   7  15
ENDBRANCH   1   2
BRANCH   1  17
ATOM     17  C   UNL     1     201.753 204.058 232.201  1.00  0.00     0.224 C 
ATOM     18  C   UNL     1     201.073 203.036 233.159  1.00  0.00     0.208 C 
ATOM     19  O   UNL     1     202.091 205.206 232.952  1.00  0.00    -0.337 OA
ATOM     20  C   UNL     1     201.181 203.682 234.533  1.00  0.00     0.180 C 
ATOM     21  C   UNL     1     202.137 204.850 234.312  1.00  0.00     0.179 C 
BRANCH  17  22
ATOM     22  C   UNL     1     200.776 204.501 231.066  1.00  0.00     0.225 C 
BRANCH  22  23
ATOM     23  O   UNL     1     200.560 203.443 230.171  1.00  0.00    -0.391 OA
ATOM     24  H   UNL     1     201.074 202.667 230.523  1.00  0.00     0.210 HD
ENDBRANCH  22  23
ENDBRANCH  17  22
BRANCH  18  25
ATOM     25  O   UNL     1     199.725 202.780 232.830  1.00  0.00    -0.385 OA
ATOM     26  H   UNL     1     199.222 203.621 233.003  1.00  0.00     0.211 HD
ENDBRANCH  18  25
BRANCH  20  27
ATOM     27  O   UNL     1     201.661 202.789 235.516  1.00  0.00    -0.387 OA
ATOM     28  H   UNL     1     201.508 201.863 235.198  1.00  0.00     0.211 HD
ENDBRANCH  20  27
BRANCH  21  29
ATOM     29  C   UNL     1     201.767 206.069 235.162  1.00  0.00     0.191 C 
BRANCH  29  30
ATOM     30  O   UNL     1     202.684 206.212 236.215  1.00  0.00    -0.394 OA
ATOM     31  H   UNL     1     203.528 205.776 235.913  1.00  0.00     0.210 HD
ENDBRANCH  29  30
ENDBRANCH  21  29
ENDBRANCH   1  17
TORSDOF 13
ENDMDL
MODEL 5
REMARK VINA RESULT:    -7.167      1.928      4.173
REMARK INTER + INTRA:         -11.931
REMARK INTER:                 -10.922
REMARK INTRA:                  -1.010
REMARK UNBOUND:                -0.993
REMARK SMILES OC[C@@H]1O[C@@](CO)(O[C@@H]2O[C@H](CO)[C@H](O)[C@@H](O)[C@H]2O)[C@H](O)[C@H]1O
REMARK SMILES IDX 8 1 9 2 11 3 14 4 10 5 16 6 18 7 12 8 13 9 15 11 17 13 19 15
REMARK SMILES IDX 5 17 20 18 4 19 22 20 3 21 6 22 7 23 21 25 23 27 2 29 1 30
REMARK H PARENT 13 10 15 12 17 14 19 16 7 24 21 26 23 28 1 31
REMARK Flexibility Score: inf
ROOT
ATOM      1  O   UNL     1     203.254 202.317 232.353  1.00  0.00    -0.313 OA
ENDROOT
BRANCH   1   2
ATOM      2  C   UNL     1     202.269 201.966 231.384  1.00  0.00     0.285 C 
ATOM      3  C   UNL     1     202.492 203.963 230.069  1.00  0.00     0.178 C 
ATOM      4  C   UNL     1     201.083 204.468 230.472  1.00  0.00     0.177 C 
ATOM      5  O   UNL     1     202.613 202.545 230.129  1.00  0.00    -0.341 OA
ATOM      6  C   UNL     1     200.636 203.858 231.813  1.00  0.00     0.179 C 
ATOM      7  C   UNL     1     200.816 202.333 231.799  1.00  0.00     0.202 C 
BRANCH   3   8
ATOM      8  C   UNL     1     203.712 204.691 230.697  1.00  0.00     0.191 C 
BRANCH   8   9
ATOM      9  O   UNL     1     203.856 206.010 230.230  1.00  0.00    -0.394 OA
ATOM     10  H   UNL     1     204.390 205.973 229.396  1.00  0.00     0.210 HD
ENDBRANCH   8   9
ENDBRANCH   3   8
BRANCH   4  11
ATOM     11  O   UNL     1     201.059 205.874 230.525  1.00  0.00    -0.387 OA
ATOM     12  H   UNL     1     201.877 206.195 230.061  1.00  0.00     0.211 HD
ENDBRANCH   4  11
BRANCH   6  13
ATOM     13  O   UNL     1     199.305 204.198 232.127  1.00  0.00    -0.387 OA
ATOM     14  H   UNL     1     198.816 203.364 232.361  1.00  0.00     0.211 HD
ENDBRANCH   6  13
BRANCH   7  15
ATOM     15  O   UNL     1     199.875 201.706 230.956  1.00  0.00    -0.385 OA
ATOM     16  H   UNL     1     200.268 200.858 230.618  1.00  0.00     0.211 HD
ENDBRANCH   7  15
ENDBRANCH   1   2
BRANCH   1  17
ATOM     17  C   UNL     1     204.286 201.363 232.654  1.00  0.00     0.224 C 
ATOM     18  C   UNL     1     204.908 200.954 231.286  1.00  0.00     0.208 C 
ATOM     19  O   UNL     1     205.288 202.004 233.418  1.00  0.00    -0.337 OA
ATOM     20  C   UNL     1     206.312 201.541 231.323  1.00  0.00     0.180 C 
ATOM     21  C   UNL     1     206.292 202.457 232.542  1.00  0.00     0.179 C 
BRANCH  17  22
ATOM     22  C   UNL     1     203.808 200.109 233.452  1.00  0.00     0.225 C 
BRANCH  22  23
ATOM     23  O   UNL     1     203.279 200.496 234.692  1.00  0.00    -0.391 OA
ATOM     24  H   UNL     1     202.293 200.546 234.574  1.00  0.00     0.210 HD
ENDBRANCH  22  23
ENDBRANCH  17  22
BRANCH  18  25
ATOM     25  O   UNL     1     204.954 199.557 231.093  1.00  0.00    -0.385 OA
ATOM     26  H   UNL     1     204.386 199.357 230.302  1.00  0.00     0.211 HD
ENDBRANCH  18  25
BRANCH  20  27
ATOM     27  O   UNL     1     206.636 202.246 230.143  1.00  0.00    -0.387 OA
ATOM     28  H   UNL     1     206.610 203.216 230.342  1.00  0.00     0.211 HD
ENDBRANCH  20  27
BRANCH  21  29
ATOM     29  C   UNL     1     207.634 202.466 233.281  1.00  0.00     0.191 C 
BRANCH  29  30
ATOM     30  O   UNL     1     208.564 201.673 232.591  1.00  0.00    -0.394 OA
ATOM     31  H   UNL     1     208.723 202.124 231.716  1.00  0.00     0.210 HD
ENDBRANCH  29  30
ENDBRANCH  21  29
ENDBRANCH   1  17
TORSDOF 13
ENDMDL
MODEL 6
REMARK VINA RESULT:    -7.049      2.006      4.319
REMARK INTER + INTRA:         -11.751
REMARK INTER:                 -10.711
REMARK INTRA:                  -1.040
REMARK UNBOUND:                -0.993
REMARK SMILES OC[C@@H]1O[C@@](CO)(O[C@@H]2O[C@H](CO)[C@H](O)[C@@H](O)[C@H]2O)[C@H](O)[C@H]1O
REMARK SMILES IDX 8 1 9 2 11 3 14 4 10 5 16 6 18 7 12 8 13 9 15 11 17 13 19 15
REMARK SMILES IDX 5 17 20 18 4 19 22 20 3 21 6 22 7 23 21 25 23 27 2 29 1 30
REMARK H PARENT 13 10 15 12 17 14 19 16 7 24 21 26 23 28 1 31
REMARK Flexibility Score: inf
ROOT
ATOM      1  O   UNL     1     203.919 203.642 232.445  1.00  0.00    -0.313 OA
ENDROOT
BRANCH   1   2
ATOM      2  C   UNL     1     204.938 203.978 231.507  1.00  0.00     0.285 C 
ATOM      3  C   UNL     1     204.700 202.002 230.163  1.00  0.00     0.178 C 
ATOM      4  C   UNL     1     206.084 201.456 230.597  1.00  0.00     0.177 C 
ATOM      5  O   UNL     1     204.614 203.422 230.236  1.00  0.00    -0.341 OA
ATOM      6  C   UNL     1     206.510 202.038 231.957  1.00  0.00     0.179 C 
ATOM      7  C   UNL     1     206.370 203.567 231.956  1.00  0.00     0.202 C 
BRANCH   3   8
ATOM      8  C   UNL     1     203.445 201.299 230.749  1.00  0.00     0.191 C 
BRANCH   8   9
ATOM      9  O   UNL     1     203.279 199.991 230.262  1.00  0.00    -0.394 OA
ATOM     10  H   UNL     1     203.069 200.058 229.295  1.00  0.00     0.210 HD
ENDBRANCH   8   9
ENDBRANCH   3   8
BRANCH   4  11
ATOM     11  O   UNL     1     206.069 200.048 230.634  1.00  0.00    -0.387 OA
ATOM     12  H   UNL     1     206.511 199.777 231.481  1.00  0.00     0.211 HD
ENDBRANCH   4  11
BRANCH   6  13
ATOM     13  O   UNL     1     207.823 201.660 232.302  1.00  0.00    -0.387 OA
ATOM     14  H   UNL     1     208.184 202.332 232.939  1.00  0.00     0.211 HD
ENDBRANCH   6  13
BRANCH   7  15
ATOM     15  O   UNL     1     207.349 204.179 231.147  1.00  0.00    -0.385 OA
ATOM     16  H   UNL     1     206.954 204.990 230.729  1.00  0.00     0.211 HD
ENDBRANCH   7  15
ENDBRANCH   1   2
BRANCH   1  17
ATOM     17  C   UNL     1     202.895 204.613 232.717  1.00  0.00     0.224 C 
ATOM     18  C   UNL     1     202.284 204.994 231.337  1.00  0.00     0.208 C 
ATOM     19  O   UNL     1     201.883 204.000 233.491  1.00  0.00    -0.337 OA
ATOM     20  C   UNL     1     200.874 204.423 231.380  1.00  0.00     0.180 C 
ATOM     21  C   UNL     1     200.879 203.537 232.622  1.00  0.00     0.179 C 
BRANCH  17  22
ATOM     22  C   UNL     1     203.381 205.881 233.488  1.00  0.00     0.225 C 
BRANCH  22  23
ATOM     23  O   UNL     1     202.890 205.869 234.802  1.00  0.00    -0.391 OA
ATOM     24  H   UNL     1     203.285 206.660 235.257  1.00  0.00     0.210 HD
ENDBRANCH  22  23
ENDBRANCH  17  22
BRANCH  18  25
ATOM     25  O   UNL     1     202.253 206.387 231.111  1.00  0.00    -0.385 OA
ATOM     26  H   UNL     1     203.190 206.670 230.929  1.00  0.00     0.211 HD
ENDBRANCH  18  25
BRANCH  20  27
ATOM     27  O   UNL     1     200.549 203.693 230.216  1.00  0.00    -0.387 OA
ATOM     28  H   UNL     1     200.457 204.331 229.463  1.00  0.00     0.211 HD
ENDBRANCH  20  27
BRANCH  21  29
ATOM     29  C   UNL     1     199.533 203.559 233.353  1.00  0.00     0.191 C 
BRANCH  29  30
ATOM     30  O   UNL     1     198.561 204.169 232.545  1.00  0.00    -0.394 OA
ATOM     31  H   UNL     1     198.564 203.675 231.680  1.00  0.00     0.210 HD
ENDBRANCH  29  30
ENDBRANCH  21  29
ENDBRANCH   1  17
TORSDOF 13
ENDMDL
MODEL 7
REMARK VINA RESULT:    -6.986      2.349      4.938
REMARK INTER + INTRA:         -11.654
REMARK INTER:                 -10.072
REMARK INTRA:                  -1.583
REMARK UNBOUND:                -0.993
REMARK SMILES OC[C@@H]1O[C@@](CO)(O[C@@H]2O[C@H](CO)[C@H](O)[C@@H](O)[C@H]2O)[C@H](O)[C@H]1O
REMARK SMILES IDX 8 1 9 2 11 3 14 4 10 5 16 6 18 7 12 8 13 9 15 11 17 13 19 15
REMARK SMILES IDX 5 17 20 18 4 19 22 20 3 21 6 22 7 23 21 25 23 27 2 29 1 30
REMARK H PARENT 13 10 15 12 17 14 19 16 7 24 21 26 23 28 1 31
REMARK Flexibility Score: inf
ROOT
ATOM      1  O   UNL     1     203.574 203.608 232.587  1.00  0.00    -0.313 OA
ENDROOT
BRANCH   1   2
ATOM      2  C   UNL     1     204.502 203.863 233.639  1.00  0.00     0.285 C 
ATOM      3  C   UNL     1     206.475 203.664 232.285  1.00  0.00     0.178 C 
ATOM      4  C   UNL     1     206.914 202.357 232.994  1.00  0.00     0.177 C 
ATOM      5  O   UNL     1     205.661 204.496 233.106  1.00  0.00    -0.341 OA
ATOM      6  C   UNL     1     205.708 201.632 233.619  1.00  0.00     0.179 C 
ATOM      7  C   UNL     1     204.877 202.602 234.470  1.00  0.00     0.202 C 
BRANCH   3   8
ATOM      8  C   UNL     1     205.925 203.534 230.838  1.00  0.00     0.191 C 
BRANCH   8   9
ATOM      9  O   UNL     1     205.484 204.762 230.313  1.00  0.00    -0.394 OA
ATOM     10  H   UNL     1     204.849 204.560 229.579  1.00  0.00     0.210 HD
ENDBRANCH   8   9
ENDBRANCH   3   8
BRANCH   4  11
ATOM     11  O   UNL     1     207.599 201.515 232.097  1.00  0.00    -0.387 OA
ATOM     12  H   UNL     1     208.552 201.794 232.110  1.00  0.00     0.211 HD
ENDBRANCH   4  11
BRANCH   6  13
ATOM     13  O   UNL     1     206.105 200.516 234.383  1.00  0.00    -0.387 OA
ATOM     14  H   UNL     1     207.096 200.522 234.454  1.00  0.00     0.211 HD
ENDBRANCH   6  13
BRANCH   7  15
ATOM     15  O   UNL     1     205.548 202.960 235.658  1.00  0.00    -0.385 OA
ATOM     16  H   UNL     1     206.522 203.016 235.467  1.00  0.00     0.211 HD
ENDBRANCH   7  15
ENDBRANCH   1   2
BRANCH   1  17
ATOM     17  C   UNL     1     202.443 204.483 232.448  1.00  0.00     0.224 C 
ATOM     18  C   UNL     1     201.799 204.141 231.072  1.00  0.00     0.208 C 
ATOM     19  O   UNL     1     201.506 204.178 233.460  1.00  0.00    -0.337 OA
ATOM     20  C   UNL     1     200.465 203.503 231.432  1.00  0.00     0.180 C 
ATOM     21  C   UNL     1     200.566 203.271 232.937  1.00  0.00     0.179 C 
BRANCH  17  22
ATOM     22  C   UNL     1     202.776 206.006 232.550  1.00  0.00     0.225 C 
BRANCH  22  23
ATOM     23  O   UNL     1     203.709 206.366 231.567  1.00  0.00    -0.391 OA
ATOM     24  H   UNL     1     203.974 207.304 231.762  1.00  0.00     0.210 HD
ENDBRANCH  22  23
ENDBRANCH  17  22
BRANCH  18  25
ATOM     25  O   UNL     1     201.608 205.273 230.252  1.00  0.00    -0.385 OA
ATOM     26  H   UNL     1     200.758 205.700 230.545  1.00  0.00     0.211 HD
ENDBRANCH  18  25
BRANCH  20  27
ATOM     27  O   UNL     1     200.232 202.300 230.731  1.00  0.00    -0.387 OA
ATOM     28  H   UNL     1     199.374 201.916 231.044  1.00  0.00     0.211 HD
ENDBRANCH  20  27
BRANCH  21  29
ATOM     29  C   UNL     1     199.224 203.475 233.645  1.00  0.00     0.191 C 
BRANCH  29  30
ATOM     30  O   UNL     1     198.321 204.114 232.782  1.00  0.00    -0.394 OA
ATOM     31  H   UNL     1     198.267 205.062 233.083  1.00  0.00     0.210 HD
ENDBRANCH  29  30
ENDBRANCH  21  29
ENDBRANCH   1  17
TORSDOF 13
ENDMDL
MODEL 8
REMARK VINA RESULT:    -6.937      2.968      4.078
REMARK INTER + INTRA:         -11.579
REMARK INTER:                 -10.500
REMARK INTRA:                  -1.079
REMARK UNBOUND:                -0.993
REMARK SMILES OC[C@@H]1O[C@@](CO)(O[C@@H]2O[C@H](CO)[C@H](O)[C@@H](O)[C@H]2O)[C@H](O)[C@H]1O
REMARK SMILES IDX 8 1 9 2 11 3 14 4 10 5 16 6 18 7 12 8 13 9 15 11 17 13 19 15
REMARK SMILES IDX 5 17 20 18 4 19 22 20 3 21 6 22 7 23 21 25 23 27 2 29 1 30
REMARK H PARENT 13 10 15 12 17 14 19 16 7 24 21 26 23 28 1 31
REMARK Flexibility Score: inf
ROOT
ATOM      1  O   UNL     1     203.286 201.523 233.772  1.00  0.00    -0.313 OA
ENDROOT
BRANCH   1   2
ATOM      2  C   UNL     1     203.825 201.830 232.488  1.00  0.00     0.285 C 
ATOM      3  C   UNL     1     202.190 203.496 231.924  1.00  0.00     0.178 C 
ATOM      4  C   UNL     1     201.569 202.610 230.814  1.00  0.00     0.177 C 
ATOM      5  O   UNL     1     203.559 203.194 232.177  1.00  0.00    -0.341 OA
ATOM      6  C   UNL     1     201.843 201.118 231.076  1.00  0.00     0.179 C 
ATOM      7  C   UNL     1     203.334 200.883 231.355  1.00  0.00     0.202 C 
BRANCH   3   8
ATOM      8  C   UNL     1     201.369 203.673 233.231  1.00  0.00     0.191 C 
BRANCH   8   9
ATOM      9  O   UNL     1     200.658 202.513 233.586  1.00  0.00    -0.394 OA
ATOM     10  H   UNL     1     201.170 202.057 234.302  1.00  0.00     0.210 HD
ENDBRANCH   8   9
ENDBRANCH   3   8
BRANCH   4  11
ATOM     11  O   UNL     1     200.188 202.857 230.701  1.00  0.00    -0.387 OA
ATOM     12  H   UNL     1     199.844 202.999 231.621  1.00  0.00     0.211 HD
ENDBRANCH   4  11
BRANCH   6  13
ATOM     13  O   UNL     1     201.405 200.308 230.007  1.00  0.00    -0.387 OA
ATOM     14  H   UNL     1     201.684 199.372 230.190  1.00  0.00     0.211 HD
ENDBRANCH   6  13
BRANCH   7  15
ATOM     15  O   UNL     1     204.114 201.041 230.191  1.00  0.00    -0.385 OA
ATOM     16  H   UNL     1     204.917 201.581 230.417  1.00  0.00     0.211 HD
ENDBRANCH   7  15
ENDBRANCH   1   2
BRANCH   1  17
ATOM     17  C   UNL     1     204.186 201.460 234.892  1.00  0.00     0.224 C 
ATOM     18  C   UNL     1     204.740 202.902 235.083  1.00  0.00     0.208 C 
ATOM     19  O   UNL     1     203.448 201.115 236.047  1.00  0.00    -0.337 OA
ATOM     20  C   UNL     1     204.134 203.364 236.400  1.00  0.00     0.180 C 
ATOM     21  C   UNL     1     203.085 202.302 236.711  1.00  0.00     0.179 C 
BRANCH  17  22
ATOM     22  C   UNL     1     205.346 200.425 234.743  1.00  0.00     0.225 C 
BRANCH  22  23
ATOM     23  O   UNL     1     205.070 199.275 235.497  1.00  0.00    -0.391 OA
ATOM     24  H   UNL     1     204.493 199.566 236.253  1.00  0.00     0.210 HD
ENDBRANCH  22  23
ENDBRANCH  17  22
BRANCH  18  25
ATOM     25  O   UNL     1     206.149 202.952 235.135  1.00  0.00    -0.385 OA
ATOM     26  H   UNL     1     206.469 203.028 234.197  1.00  0.00     0.211 HD
ENDBRANCH  18  25
BRANCH  20  27
ATOM     27  O   UNL     1     203.565 204.654 236.312  1.00  0.00    -0.387 OA
ATOM     28  H   UNL     1     203.426 204.997 237.232  1.00  0.00     0.211 HD
ENDBRANCH  20  27
BRANCH  21  29
ATOM     29  C   UNL     1     202.973 202.021 238.213  1.00  0.00     0.191 C 
BRANCH  29  30
ATOM     30  O   UNL     1     202.208 203.023 238.830  1.00  0.00    -0.394 OA
ATOM     31  H   UNL     1     202.839 203.761 239.052  1.00  0.00     0.210 HD
ENDBRANCH  29  30
ENDBRANCH  21  29
ENDBRANCH   1  17
TORSDOF 13
ENDMDL
MODEL 9
REMARK VINA RESULT:    -6.921      2.031      4.886
REMARK INTER + INTRA:         -11.555
REMARK INTER:                 -10.437
REMARK INTRA:                  -1.118
REMARK UNBOUND:                -0.993
REMARK SMILES OC[C@@H]1O[C@@](CO)(O[C@@H]2O[C@H](CO)[C@H](O)[C@@H](O)[C@H]2O)[C@H](O)[C@H]1O
REMARK SMILES IDX 8 1 9 2 11 3 14 4 10 5 16 6 18 7 12 8 13 9 15 11 17 13 19 15
REMARK SMILES IDX 5 17 20 18 4 19 22 20 3 21 6 22 7 23 21 25 23 27 2 29 1 30
REMARK H PARENT 13 10 15 12 17 14 19 16 7 24 21 26 23 28 1 31
REMARK Flexibility Score: inf
ROOT
ATOM      1  O   UNL     1     203.521 203.112 232.983  1.00  0.00    -0.313 OA
ENDROOT
BRANCH   1   2
ATOM      2  C   UNL     1     203.969 202.448 231.803  1.00  0.00     0.285 C 
ATOM      3  C   UNL     1     205.659 201.131 232.886  1.00  0.00     0.178 C 
ATOM      4  C   UNL     1     206.807 201.907 232.190  1.00  0.00     0.177 C 
ATOM      5  O   UNL     1     204.445 201.150 232.142  1.00  0.00    -0.341 OA
ATOM      6  C   UNL     1     206.351 203.317 231.772  1.00  0.00     0.179 C 
ATOM      7  C   UNL     1     205.030 203.248 230.994  1.00  0.00     0.202 C 
BRANCH   3   8
ATOM      8  C   UNL     1     205.435 201.403 234.398  1.00  0.00     0.191 C 
BRANCH   8   9
ATOM      9  O   UNL     1     205.814 202.703 234.778  1.00  0.00    -0.394 OA
ATOM     10  H   UNL     1     206.795 202.773 234.661  1.00  0.00     0.210 HD
ENDBRANCH   8   9
ENDBRANCH   3   8
BRANCH   4  11
ATOM     11  O   UNL     1     207.938 201.970 233.027  1.00  0.00    -0.387 OA
ATOM     12  H   UNL     1     207.604 201.981 233.963  1.00  0.00     0.211 HD
ENDBRANCH   4  11
BRANCH   6  13
ATOM     13  O   UNL     1     207.338 203.985 231.019  1.00  0.00    -0.387 OA
ATOM     14  H   UNL     1     207.825 203.311 230.474  1.00  0.00     0.211 HD
ENDBRANCH   6  13
BRANCH   7  15
ATOM     15  O   UNL     1     205.210 202.693 229.710  1.00  0.00    -0.385 OA
ATOM     16  H   UNL     1     204.885 201.754 229.721  1.00  0.00     0.211 HD
ENDBRANCH   7  15
ENDBRANCH   1   2
BRANCH   1  17
ATOM     17  C   UNL     1     202.610 204.214 232.842  1.00  0.00     0.224 C 
ATOM     18  C   UNL     1     202.070 204.145 231.383  1.00  0.00     0.208 C 
ATOM     19  O   UNL     1     201.521 204.019 233.722  1.00  0.00    -0.337 OA
ATOM     20  C   UNL     1     200.604 203.770 231.542  1.00  0.00     0.180 C 
ATOM     21  C   UNL     1     200.486 203.382 233.013  1.00  0.00     0.179 C 
BRANCH  17  22
ATOM     22  C   UNL     1     203.224 205.617 233.149  1.00  0.00     0.225 C 
BRANCH  22  23
ATOM     23  O   UNL     1     204.413 205.476 233.879  1.00  0.00    -0.391 OA
ATOM     24  H   UNL     1     204.820 204.615 233.590  1.00  0.00     0.210 HD
ENDBRANCH  22  23
ENDBRANCH  17  22
BRANCH  18  25
ATOM     25  O   UNL     1     202.203 205.364 230.684  1.00  0.00    -0.385 OA
ATOM     26  H   UNL     1     201.320 205.554 230.268  1.00  0.00     0.211 HD
ENDBRANCH  18  25
BRANCH  20  27
ATOM     27  O   UNL     1     200.219 202.713 230.689  1.00  0.00    -0.387 OA
ATOM     28  H   UNL     1     199.307 202.903 230.349  1.00  0.00     0.211 HD
ENDBRANCH  20  27
BRANCH  21  29
ATOM     29  C   UNL     1     199.139 203.795 233.614  1.00  0.00     0.191 C 
BRANCH  29  30
ATOM     30  O   UNL     1     198.278 204.237 232.597  1.00  0.00    -0.394 OA
ATOM     31  H   UNL     1     197.593 203.523 232.480  1.00  0.00     0.210 HD
ENDBRANCH  29  30
ENDBRANCH  21  29
ENDBRANCH   1  17
TORSDOF 13
ENDMDL
