MODEL 1
REMARK VINA RESULT:    -6.319      0.000      0.000
REMARK INTER + INTRA:          -8.964
REMARK INTER:                  -8.535
REMARK INTRA:                  -0.429
REMARK UNBOUND:                -0.429
REMARK SMILES COc1ccc(-c2cc(=O)c3c(OC)c(OC)c(OC)cc3o2)cc1OC
REMARK SMILES IDX 7 1 8 2 9 3 10 4 11 5 12 6 15 7 18 8 21 9 22 10 23 11 6 12
REMARK SMILES IDX 3 13 25 14 4 15 24 16 5 17 2 18 1 19 26 20 27 21 13 22 14 23
REMARK SMILES IDX 19 24 20 25 16 26 17 27
REMARK H PARENT
REMARK Flexibility Score: inf
ROOT
ATOM      1  C   UNL     1     170.081 144.690 152.051  1.00  0.00     0.138 A 
ATOM      2  C   UNL     1     168.776 144.529 152.543  1.00  0.00     0.100 A 
ATOM      3  C   UNL     1     168.577 144.352 153.912  1.00  0.00     0.197 A 
ATOM      4  O   UNL     1     167.404 144.171 154.336  1.00  0.00    -0.289 OA
ATOM      5  C   UNL     1     169.686 144.350 154.786  1.00  0.00     0.111 A 
ATOM      6  C   UNL     1     169.571 144.210 156.192  1.00  0.00     0.179 A 
ATOM      7  C   UNL     1     170.740 144.095 156.987  1.00  0.00     0.204 A 
ATOM      8  C   UNL     1     172.004 144.236 156.393  1.00  0.00     0.168 A 
ATOM      9  C   UNL     1     172.108 144.442 155.008  1.00  0.00     0.098 A 
ATOM     10  C   UNL     1     170.968 144.483 154.207  1.00  0.00     0.146 A 
ATOM     11  O   UNL     1     171.107 144.647 152.896  1.00  0.00    -0.456 OA
ENDROOT
BRANCH   1  12
ATOM     12  C   UNL     1     170.354 144.883 150.604  1.00  0.00     0.021 A 
ATOM     13  C   UNL     1     170.863 145.192 147.844  1.00  0.00     0.160 A 
ATOM     14  C   UNL     1     169.997 144.183 148.287  1.00  0.00     0.161 A 
ATOM     15  C   UNL     1     171.480 146.039 148.783  1.00  0.00     0.051 A 
ATOM     16  C   UNL     1     169.750 144.031 149.665  1.00  0.00     0.062 A 
ATOM     17  C   UNL     1     171.231 145.883 150.147  1.00  0.00     0.016 A 
BRANCH  13  18
ATOM     18  O   UNL     1     171.089 145.320 146.464  1.00  0.00    -0.493 OA
ATOM     19  C   UNL     1     172.358 145.585 145.875  1.00  0.00     0.278 C 
ENDBRANCH  13  18
BRANCH  14  20
ATOM     20  O   UNL     1     169.399 143.350 147.326  1.00  0.00    -0.493 OA
ATOM     21  C   UNL     1     168.197 143.656 146.628  1.00  0.00     0.278 C 
ENDBRANCH  14  20
ENDBRANCH   1  12
BRANCH   6  22
ATOM     22  O   UNL     1     168.312 144.224 156.797  1.00  0.00    -0.492 OA
ATOM     23  C   UNL     1     167.816 143.082 157.488  1.00  0.00     0.278 C 
ENDBRANCH   6  22
BRANCH   8  24
ATOM     24  O   UNL     1     173.138 144.156 157.218  1.00  0.00    -0.493 OA
ATOM     25  C   UNL     1     173.959 145.264 157.574  1.00  0.00     0.278 C 
ENDBRANCH   8  24
BRANCH   7  26
ATOM     26  O   UNL     1     170.714 143.841 158.371  1.00  0.00    -0.490 OA
ATOM     27  C   UNL     1     170.563 144.816 159.398  1.00  0.00     0.278 C 
ENDBRANCH   7  26
TORSDOF 6
ENDMDL
MODEL 2
REMARK VINA RESULT:    -6.317      1.623      1.893
REMARK INTER + INTRA:          -8.962
REMARK INTER:                  -8.470
REMARK INTRA:                  -0.491
REMARK UNBOUND:                -0.429
REMARK SMILES COc1ccc(-c2cc(=O)c3c(OC)c(OC)c(OC)cc3o2)cc1OC
REMARK SMILES IDX 7 1 8 2 9 3 10 4 11 5 12 6 15 7 18 8 21 9 22 10 23 11 6 12
REMARK SMILES IDX 3 13 25 14 4 15 24 16 5 17 2 18 1 19 26 20 27 21 13 22 14 23
REMARK SMILES IDX 19 24 20 25 16 26 17 27
REMARK H PARENT
REMARK Flexibility Score: inf
ROOT
ATOM      1  C   UNL     1     170.620 144.157 152.910  1.00  0.00     0.138 A 
ATOM      2  C   UNL     1     169.364 143.767 153.401  1.00  0.00     0.100 A 
ATOM      3  C   UNL     1     169.151 143.725 154.779  1.00  0.00     0.197 A 
ATOM      4  O   UNL     1     168.031 143.336 155.207  1.00  0.00    -0.289 OA
ATOM      5  C   UNL     1     170.193 144.087 155.660  1.00  0.00     0.111 A 
ATOM      6  C   UNL     1     170.050 144.106 157.071  1.00  0.00     0.179 A 
ATOM      7  C   UNL     1     171.179 144.363 157.890  1.00  0.00     0.204 A 
ATOM      8  C   UNL     1     172.403 144.712 157.299  1.00  0.00     0.168 A 
ATOM      9  C   UNL     1     172.519 144.759 155.901  1.00  0.00     0.098 A 
ATOM     10  C   UNL     1     171.436 144.435 155.087  1.00  0.00     0.146 A 
ATOM     11  O   UNL     1     171.591 144.459 153.768  1.00  0.00    -0.456 OA
ENDROOT
BRANCH   1  12
ATOM     12  C   UNL     1     170.906 144.222 151.454  1.00  0.00     0.021 A 
ATOM     13  C   UNL     1     171.499 144.310 148.694  1.00  0.00     0.160 A 
ATOM     14  C   UNL     1     171.884 143.199 149.458  1.00  0.00     0.161 A 
ATOM     15  C   UNL     1     170.826 145.378 149.315  1.00  0.00     0.051 A 
ATOM     16  C   UNL     1     171.590 143.163 150.835  1.00  0.00     0.062 A 
ATOM     17  C   UNL     1     170.536 145.336 150.679  1.00  0.00     0.016 A 
BRANCH  13  18
ATOM     18  O   UNL     1     171.805 144.318 147.324  1.00  0.00    -0.493 OA
ATOM     19  C   UNL     1     172.658 145.267 146.693  1.00  0.00     0.278 C 
ENDBRANCH  13  18
BRANCH  14  20
ATOM     20  O   UNL     1     172.559 142.150 148.812  1.00  0.00    -0.493 OA
ATOM     21  C   UNL     1     173.968 141.955 148.844  1.00  0.00     0.278 C 
ENDBRANCH  14  20
ENDBRANCH   1  12
BRANCH   6  22
ATOM     22  O   UNL     1     168.795 143.908 157.651  1.00  0.00    -0.492 OA
ATOM     23  C   UNL     1     168.513 142.739 158.414  1.00  0.00     0.278 C 
ENDBRANCH   6  22
BRANCH   8  24
ATOM     24  O   UNL     1     173.489 145.000 158.143  1.00  0.00    -0.493 OA
ATOM     25  C   UNL     1     174.035 146.300 158.345  1.00  0.00     0.278 C 
ENDBRANCH   8  24
BRANCH   7  26
ATOM     26  O   UNL     1     171.150 144.289 159.295  1.00  0.00    -0.490 OA
ATOM     27  C   UNL     1     170.874 145.366 160.184  1.00  0.00     0.278 C 
ENDBRANCH   7  26
TORSDOF 6
ENDMDL
MODEL 3
REMARK VINA RESULT:    -6.295      1.167      1.952
REMARK INTER + INTRA:          -8.932
REMARK INTER:                  -8.447
REMARK INTRA:                  -0.485
REMARK UNBOUND:                -0.429
REMARK SMILES COc1ccc(-c2cc(=O)c3c(OC)c(OC)c(OC)cc3o2)cc1OC
REMARK SMILES IDX 7 1 8 2 9 3 10 4 11 5 12 6 15 7 18 8 21 9 22 10 23 11 6 12
REMARK SMILES IDX 3 13 25 14 4 15 24 16 5 17 2 18 1 19 26 20 27 21 13 22 14 23
REMARK SMILES IDX 19 24 20 25 16 26 17 27
REMARK H PARENT
REMARK Flexibility Score: inf
ROOT
ATOM      1  C   UNL     1     170.141 144.603 152.437  1.00  0.00     0.138 A 
ATOM      2  C   UNL     1     168.996 144.039 153.021  1.00  0.00     0.100 A 
ATOM      3  C   UNL     1     168.873 144.022 154.411  1.00  0.00     0.197 A 
ATOM      4  O   UNL     1     167.858 143.478 154.924  1.00  0.00    -0.289 OA
ATOM      5  C   UNL     1     169.892 144.584 155.210  1.00  0.00     0.111 A 
ATOM      6  C   UNL     1     169.831 144.640 156.626  1.00  0.00     0.179 A 
ATOM      7  C   UNL     1     170.950 145.108 157.362  1.00  0.00     0.204 A 
ATOM      8  C   UNL     1     172.065 145.623 156.682  1.00  0.00     0.168 A 
ATOM      9  C   UNL     1     172.090 145.627 155.278  1.00  0.00     0.098 A 
ATOM     10  C   UNL     1     171.027 145.100 154.547  1.00  0.00     0.146 A 
ATOM     11  O   UNL     1     171.100 145.092 153.220  1.00  0.00    -0.456 OA
ENDROOT
BRANCH   1  12
ATOM     12  C   UNL     1     170.327 144.650 150.965  1.00  0.00     0.021 A 
ATOM     13  C   UNL     1     170.689 144.801 148.168  1.00  0.00     0.160 A 
ATOM     14  C   UNL     1     171.298 145.747 149.004  1.00  0.00     0.161 A 
ATOM     15  C   UNL     1     169.893 143.787 148.732  1.00  0.00     0.051 A 
ATOM     16  C   UNL     1     171.111 145.670 150.398  1.00  0.00     0.062 A 
ATOM     17  C   UNL     1     169.712 143.715 150.114  1.00  0.00     0.016 A 
BRANCH  13  18
ATOM     18  O   UNL     1     170.894 144.903 146.783  1.00  0.00    -0.493 OA
ATOM     19  C   UNL     1     169.985 145.515 145.875  1.00  0.00     0.278 C 
ENDBRANCH  13  18
BRANCH  14  20
ATOM     20  O   UNL     1     172.083 146.750 148.412  1.00  0.00    -0.493 OA
ATOM     21  C   UNL     1     171.698 148.115 148.299  1.00  0.00     0.278 C 
ENDBRANCH  14  20
ENDBRANCH   1  12
BRANCH   6  22
ATOM     22  O   UNL     1     168.662 144.269 157.293  1.00  0.00    -0.492 OA
ATOM     23  C   UNL     1     168.576 143.036 158.000  1.00  0.00     0.278 C 
ENDBRANCH   6  22
BRANCH   8  24
ATOM     24  O   UNL     1     173.138 146.115 157.444  1.00  0.00    -0.493 OA
ATOM     25  C   UNL     1     174.420 145.501 157.528  1.00  0.00     0.278 C 
ENDBRANCH   8  24
BRANCH   7  26
ATOM     26  O   UNL     1     171.016 145.091 158.767  1.00  0.00    -0.490 OA
ATOM     27  C   UNL     1     171.609 144.071 159.564  1.00  0.00     0.278 C 
ENDBRANCH   7  26
TORSDOF 6
ENDMDL
MODEL 4
REMARK VINA RESULT:    -6.157      1.714      3.604
REMARK INTER + INTRA:          -8.746
REMARK INTER:                  -8.164
REMARK INTRA:                  -0.582
REMARK UNBOUND:                -0.429
REMARK SMILES COc1ccc(-c2cc(=O)c3c(OC)c(OC)c(OC)cc3o2)cc1OC
REMARK SMILES IDX 7 1 8 2 9 3 10 4 11 5 12 6 15 7 18 8 21 9 22 10 23 11 6 12
REMARK SMILES IDX 3 13 25 14 4 15 24 16 5 17 2 18 1 19 26 20 27 21 13 22 14 23
REMARK SMILES IDX 19 24 20 25 16 26 17 27
REMARK H PARENT
REMARK Flexibility Score: inf
ROOT
ATOM      1  C   UNL     1     171.355 144.388 153.077  1.00  0.00     0.138 A 
ATOM      2  C   UNL     1     172.549 145.033 153.439  1.00  0.00     0.100 A 
ATOM      3  C   UNL     1     172.841 145.227 154.789  1.00  0.00     0.197 A 
ATOM      4  O   UNL     1     173.897 145.841 155.099  1.00  0.00    -0.289 OA
ATOM      5  C   UNL     1     171.942 144.762 155.773  1.00  0.00     0.111 A 
ATOM      6  C   UNL     1     172.177 144.888 157.166  1.00  0.00     0.179 A 
ATOM      7  C   UNL     1     171.169 144.506 158.088  1.00  0.00     0.204 A 
ATOM      8  C   UNL     1     169.992 143.899 157.623  1.00  0.00     0.168 A 
ATOM      9  C   UNL     1     169.796 143.716 156.245  1.00  0.00     0.098 A 
ATOM     10  C   UNL     1     170.748 144.155 155.326  1.00  0.00     0.146 A 
ATOM     11  O   UNL     1     170.513 143.994 154.029  1.00  0.00    -0.456 OA
ENDROOT
BRANCH   1  12
ATOM     12  C   UNL     1     170.991 144.152 151.657  1.00  0.00     0.021 A 
ATOM     13  C   UNL     1     170.358 143.688 148.945  1.00  0.00     0.160 A 
ATOM     14  C   UNL     1     171.416 142.992 149.545  1.00  0.00     0.161 A 
ATOM     15  C   UNL     1     169.624 144.620 149.700  1.00  0.00     0.051 A 
ATOM     16  C   UNL     1     171.731 143.231 150.897  1.00  0.00     0.062 A 
ATOM     17  C   UNL     1     169.940 144.852 151.040  1.00  0.00     0.016 A 
BRANCH  13  18
ATOM     18  O   UNL     1     170.067 143.428 147.596  1.00  0.00    -0.493 OA
ATOM     19  C   UNL     1     168.909 143.900 146.915  1.00  0.00     0.278 C 
ENDBRANCH  13  18
BRANCH  14  20
ATOM     20  O   UNL     1     172.134 142.070 148.764  1.00  0.00    -0.493 OA
ATOM     21  C   UNL     1     173.536 142.132 148.527  1.00  0.00     0.278 C 
ENDBRANCH  14  20
ENDBRANCH   1  12
BRANCH   6  22
ATOM     22  O   UNL     1     173.410 145.351 157.630  1.00  0.00    -0.492 OA
ATOM     23  C   UNL     1     174.376 144.456 158.173  1.00  0.00     0.278 C 
ENDBRANCH   6  22
BRANCH   8  24
ATOM     24  O   UNL     1     169.035 143.497 158.568  1.00  0.00    -0.493 OA
ATOM     25  C   UNL     1     167.946 142.619 158.294  1.00  0.00     0.278 C 
ENDBRANCH   8  24
BRANCH   7  26
ATOM     26  O   UNL     1     171.276 144.701 159.477  1.00  0.00    -0.490 OA
ATOM     27  C   UNL     1     171.304 145.958 160.146  1.00  0.00     0.278 C 
ENDBRANCH   7  26
TORSDOF 6
ENDMDL
MODEL 5
REMARK VINA RESULT:    -5.903      1.964      3.011
REMARK INTER + INTRA:          -8.402
REMARK INTER:                  -8.031
REMARK INTRA:                  -0.371
REMARK UNBOUND:                -0.429
REMARK SMILES COc1ccc(-c2cc(=O)c3c(OC)c(OC)c(OC)cc3o2)cc1OC
REMARK SMILES IDX 7 1 8 2 9 3 10 4 11 5 12 6 15 7 18 8 21 9 22 10 23 11 6 12
REMARK SMILES IDX 3 13 25 14 4 15 24 16 5 17 2 18 1 19 26 20 27 21 13 22 14 23
REMARK SMILES IDX 19 24 20 25 16 26 17 27
REMARK H PARENT
REMARK Flexibility Score: inf
ROOT
ATOM      1  C   UNL     1     171.048 144.582 153.380  1.00  0.00     0.138 A 
ATOM      2  C   UNL     1     170.027 144.431 154.331  1.00  0.00     0.100 A 
ATOM      3  C   UNL     1     170.277 144.762 155.663  1.00  0.00     0.197 A 
ATOM      4  O   UNL     1     169.363 144.585 156.513  1.00  0.00    -0.289 OA
ATOM      5  C   UNL     1     171.546 145.256 156.035  1.00  0.00     0.111 A 
ATOM      6  C   UNL     1     171.872 145.647 157.359  1.00  0.00     0.179 A 
ATOM      7  C   UNL     1     173.205 146.017 157.675  1.00  0.00     0.204 A 
ATOM      8  C   UNL     1     174.165 146.105 156.655  1.00  0.00     0.168 A 
ATOM      9  C   UNL     1     173.816 145.781 155.335  1.00  0.00     0.098 A 
ATOM     10  C   UNL     1     172.529 145.346 155.025  1.00  0.00     0.146 A 
ATOM     11  O   UNL     1     172.244 145.017 153.770  1.00  0.00    -0.456 OA
ENDROOT
BRANCH   1  12
ATOM     12  C   UNL     1     170.841 144.248 151.948  1.00  0.00     0.021 A 
ATOM     13  C   UNL     1     170.505 143.593 149.222  1.00  0.00     0.160 A 
ATOM     14  C   UNL     1     171.438 142.892 150.000  1.00  0.00     0.161 A 
ATOM     15  C   UNL     1     169.750 144.625 149.807  1.00  0.00     0.051 A 
ATOM     16  C   UNL     1     171.604 143.226 151.358  1.00  0.00     0.062 A 
ATOM     17  C   UNL     1     169.919 144.951 151.153  1.00  0.00     0.016 A 
BRANCH  13  18
ATOM     18  O   UNL     1     170.361 143.237 147.871  1.00  0.00    -0.493 OA
ATOM     19  C   UNL     1     169.360 143.758 147.003  1.00  0.00     0.278 C 
ENDBRANCH  13  18
BRANCH  14  20
ATOM     20  O   UNL     1     172.181 141.870 149.387  1.00  0.00    -0.493 OA
ATOM     21  C   UNL     1     173.530 142.001 148.952  1.00  0.00     0.278 C 
ENDBRANCH  14  20
ENDBRANCH   1  12
BRANCH   6  22
ATOM     22  O   UNL     1     170.879 145.705 158.338  1.00  0.00    -0.492 OA
ATOM     23  C   UNL     1     170.776 144.699 159.341  1.00  0.00     0.278 C 
ENDBRANCH   6  22
BRANCH   8  24
ATOM     24  O   UNL     1     175.464 146.514 157.000  1.00  0.00    -0.493 OA
ATOM     25  C   UNL     1     175.963 147.839 156.844  1.00  0.00     0.278 C 
ENDBRANCH   8  24
BRANCH   7  26
ATOM     26  O   UNL     1     173.639 146.309 158.981  1.00  0.00    -0.490 OA
ATOM     27  C   UNL     1     174.203 145.382 159.903  1.00  0.00     0.278 C 
ENDBRANCH   7  26
TORSDOF 6
ENDMDL
MODEL 6
REMARK VINA RESULT:    -5.834      1.750      8.310
REMARK INTER + INTRA:          -8.309
REMARK INTER:                  -7.680
REMARK INTRA:                  -0.629
REMARK UNBOUND:                -0.429
REMARK SMILES COc1ccc(-c2cc(=O)c3c(OC)c(OC)c(OC)cc3o2)cc1OC
REMARK SMILES IDX 7 1 8 2 9 3 10 4 11 5 12 6 15 7 18 8 21 9 22 10 23 11 6 12
REMARK SMILES IDX 3 13 25 14 4 15 24 16 5 17 2 18 1 19 26 20 27 21 13 22 14 23
REMARK SMILES IDX 19 24 20 25 16 26 17 27
REMARK H PARENT
REMARK Flexibility Score: inf
ROOT
ATOM      1  C   UNL     1     170.674 143.952 153.732  1.00  0.00     0.138 A 
ATOM      2  C   UNL     1     170.418 142.611 153.404  1.00  0.00     0.100 A 
ATOM      3  C   UNL     1     170.342 142.237 152.062  1.00  0.00     0.197 A 
ATOM      4  O   UNL     1     170.073 141.037 151.782  1.00  0.00    -0.289 OA
ATOM      5  C   UNL     1     170.538 143.204 151.053  1.00  0.00     0.111 A 
ATOM      6  C   UNL     1     170.513 142.903 149.668  1.00  0.00     0.179 A 
ATOM      7  C   UNL     1     170.597 143.952 148.717  1.00  0.00     0.204 A 
ATOM      8  C   UNL     1     170.820 145.268 149.149  1.00  0.00     0.168 A 
ATOM      9  C   UNL     1     170.913 145.549 150.521  1.00  0.00     0.098 A 
ATOM     10  C   UNL     1     170.758 144.537 151.466  1.00  0.00     0.146 A 
ATOM     11  O   UNL     1     170.819 144.846 152.757  1.00  0.00    -0.456 OA
ENDROOT
BRANCH   1  12
ATOM     12  C   UNL     1     170.767 144.409 155.141  1.00  0.00     0.021 A 
ATOM     13  C   UNL     1     170.884 145.264 157.830  1.00  0.00     0.160 A 
ATOM     14  C   UNL     1     169.984 144.258 157.455  1.00  0.00     0.161 A 
ATOM     15  C   UNL     1     171.718 145.847 156.859  1.00  0.00     0.051 A 
ATOM     16  C   UNL     1     169.926 143.838 156.111  1.00  0.00     0.062 A 
ATOM     17  C   UNL     1     171.657 145.427 155.529  1.00  0.00     0.016 A 
BRANCH  13  18
ATOM     18  O   UNL     1     170.920 145.661 159.177  1.00  0.00    -0.493 OA
ATOM     19  C   UNL     1     171.897 145.231 160.119  1.00  0.00     0.278 C 
ENDBRANCH  13  18
BRANCH  14  20
ATOM     20  O   UNL     1     169.161 143.698 158.446  1.00  0.00    -0.493 OA
ATOM     21  C   UNL     1     168.119 142.760 158.197  1.00  0.00     0.278 C 
ENDBRANCH  14  20
ENDBRANCH   1  12
BRANCH   6  22
ATOM     22  O   UNL     1     170.443 141.575 149.240  1.00  0.00    -0.492 OA
ATOM     23  C   UNL     1     171.610 140.875 148.820  1.00  0.00     0.278 C 
ENDBRANCH   6  22
BRANCH   8  24
ATOM     24  O   UNL     1     170.938 146.275 148.177  1.00  0.00    -0.493 OA
ATOM     25  C   UNL     1     171.974 147.252 148.145  1.00  0.00     0.278 C 
ENDBRANCH   8  24
BRANCH   7  26
ATOM     26  O   UNL     1     170.466 143.753 147.330  1.00  0.00    -0.490 OA
ATOM     27  C   UNL     1     169.243 143.709 146.602  1.00  0.00     0.278 C 
ENDBRANCH   7  26
TORSDOF 6
ENDMDL
MODEL 7
REMARK VINA RESULT:    -5.817      2.348      8.203
REMARK INTER + INTRA:          -8.286
REMARK INTER:                  -7.774
REMARK INTRA:                  -0.512
REMARK UNBOUND:                -0.429
REMARK SMILES COc1ccc(-c2cc(=O)c3c(OC)c(OC)c(OC)cc3o2)cc1OC
REMARK SMILES IDX 7 1 8 2 9 3 10 4 11 5 12 6 15 7 18 8 21 9 22 10 23 11 6 12
REMARK SMILES IDX 3 13 25 14 4 15 24 16 5 17 2 18 1 19 26 20 27 21 13 22 14 23
REMARK SMILES IDX 19 24 20 25 16 26 17 27
REMARK H PARENT
REMARK Flexibility Score: inf
ROOT
ATOM      1  C   UNL     1     170.896 144.692 154.302  1.00  0.00     0.138 A 
ATOM      2  C   UNL     1     170.231 145.626 153.492  1.00  0.00     0.100 A 
ATOM      3  C   UNL     1     170.312 145.509 152.104  1.00  0.00     0.197 A 
ATOM      4  O   UNL     1     169.742 146.376 151.388  1.00  0.00    -0.289 OA
ATOM      5  C   UNL     1     171.049 144.449 151.532  1.00  0.00     0.111 A 
ATOM      6  C   UNL     1     171.154 144.238 150.134  1.00  0.00     0.179 A 
ATOM      7  C   UNL     1     172.013 143.223 149.638  1.00  0.00     0.204 A 
ATOM      8  C   UNL     1     172.663 142.360 150.534  1.00  0.00     0.168 A 
ATOM      9  C   UNL     1     172.499 142.533 151.917  1.00  0.00     0.098 A 
ATOM     10  C   UNL     1     171.717 143.573 152.416  1.00  0.00     0.146 A 
ATOM     11  O   UNL     1     171.611 143.726 153.732  1.00  0.00    -0.456 OA
ENDROOT
BRANCH   1  12
ATOM     12  C   UNL     1     170.845 144.764 155.784  1.00  0.00     0.021 A 
ATOM     13  C   UNL     1     170.689 144.882 158.601  1.00  0.00     0.160 A 
ATOM     14  C   UNL     1     169.886 143.977 157.894  1.00  0.00     0.161 A 
ATOM     15  C   UNL     1     171.562 145.732 157.898  1.00  0.00     0.051 A 
ATOM     16  C   UNL     1     169.964 143.926 156.488  1.00  0.00     0.062 A 
ATOM     17  C   UNL     1     171.636 145.676 156.506  1.00  0.00     0.016 A 
BRANCH  13  18
ATOM     18  O   UNL     1     170.590 144.910 160.002  1.00  0.00    -0.493 OA
ATOM     19  C   UNL     1     171.650 145.274 160.878  1.00  0.00     0.278 C 
ENDBRANCH  13  18
BRANCH  14  20
ATOM     20  O   UNL     1     169.021 143.144 158.623  1.00  0.00    -0.493 OA
ATOM     21  C   UNL     1     167.798 142.615 158.123  1.00  0.00     0.278 C 
ENDBRANCH  14  20
ENDBRANCH   1  12
BRANCH   6  22
ATOM     22  O   UNL     1     170.388 145.000 149.250  1.00  0.00    -0.492 OA
ATOM     23  C   UNL     1     169.296 144.426 148.539  1.00  0.00     0.278 C 
ENDBRANCH   6  22
BRANCH   8  24
ATOM     24  O   UNL     1     173.474 141.342 150.005  1.00  0.00    -0.493 OA
ATOM     25  C   UNL     1     174.876 141.459 149.780  1.00  0.00     0.278 C 
ENDBRANCH   8  24
BRANCH   7  26
ATOM     26  O   UNL     1     172.263 143.021 148.268  1.00  0.00    -0.490 OA
ATOM     27  C   UNL     1     172.839 143.967 147.374  1.00  0.00     0.278 C 
ENDBRANCH   7  26
TORSDOF 6
ENDMDL
MODEL 8
REMARK VINA RESULT:    -5.673      1.934      8.358
REMARK INTER + INTRA:          -8.092
REMARK INTER:                  -7.482
REMARK INTRA:                  -0.610
REMARK UNBOUND:                -0.429
REMARK SMILES COc1ccc(-c2cc(=O)c3c(OC)c(OC)c(OC)cc3o2)cc1OC
REMARK SMILES IDX 7 1 8 2 9 3 10 4 11 5 12 6 15 7 18 8 21 9 22 10 23 11 6 12
REMARK SMILES IDX 3 13 25 14 4 15 24 16 5 17 2 18 1 19 26 20 27 21 13 22 14 23
REMARK SMILES IDX 19 24 20 25 16 26 17 27
REMARK H PARENT
REMARK Flexibility Score: inf
ROOT
ATOM      1  C   UNL     1     170.766 144.346 153.358  1.00  0.00     0.138 A 
ATOM      2  C   UNL     1     170.476 142.990 153.141  1.00  0.00     0.100 A 
ATOM      3  C   UNL     1     170.342 142.519 151.835  1.00  0.00     0.197 A 
ATOM      4  O   UNL     1     170.043 141.307 151.655  1.00  0.00    -0.289 OA
ATOM      5  C   UNL     1     170.512 143.406 150.750  1.00  0.00     0.111 A 
ATOM      6  C   UNL     1     170.428 143.003 149.393  1.00  0.00     0.179 A 
ATOM      7  C   UNL     1     170.489 143.977 148.364  1.00  0.00     0.204 A 
ATOM      8  C   UNL     1     170.750 145.318 148.688  1.00  0.00     0.168 A 
ATOM      9  C   UNL     1     170.901 145.698 150.031  1.00  0.00     0.098 A 
ATOM     10  C   UNL     1     170.768 144.761 151.054  1.00  0.00     0.146 A 
ATOM     11  O   UNL     1     170.885 145.163 152.315  1.00  0.00    -0.456 OA
ENDROOT
BRANCH   1  12
ATOM     12  C   UNL     1     170.921 144.905 154.725  1.00  0.00     0.021 A 
ATOM     13  C   UNL     1     171.219 145.910 157.347  1.00  0.00     0.160 A 
ATOM     14  C   UNL     1     171.751 144.657 157.014  1.00  0.00     0.161 A 
ATOM     15  C   UNL     1     170.531 146.654 156.371  1.00  0.00     0.051 A 
ATOM     16  C   UNL     1     171.596 144.158 155.706  1.00  0.00     0.062 A 
ATOM     17  C   UNL     1     170.381 146.155 155.076  1.00  0.00     0.016 A 
BRANCH  13  18
ATOM     18  O   UNL     1     171.390 146.382 158.659  1.00  0.00    -0.493 OA
ATOM     19  C   UNL     1     172.440 147.249 159.073  1.00  0.00     0.278 C 
ENDBRANCH  13  18
BRANCH  14  20
ATOM     20  O   UNL     1     172.429 143.936 158.011  1.00  0.00    -0.493 OA
ATOM     21  C   UNL     1     172.227 142.554 158.286  1.00  0.00     0.278 C 
ENDBRANCH  14  20
ENDBRANCH   1  12
BRANCH   6  22
ATOM     22  O   UNL     1     170.321 141.649 149.069  1.00  0.00    -0.492 OA
ATOM     23  C   UNL     1     171.461 140.896 148.669  1.00  0.00     0.278 C 
ENDBRANCH   6  22
BRANCH   8  24
ATOM     24  O   UNL     1     170.845 146.248 147.640  1.00  0.00    -0.493 OA
ATOM     25  C   UNL     1     172.066 146.673 147.043  1.00  0.00     0.278 C 
ENDBRANCH   8  24
BRANCH   7  26
ATOM     26  O   UNL     1     170.301 143.679 147.002  1.00  0.00    -0.490 OA
ATOM     27  C   UNL     1     169.053 143.645 146.318  1.00  0.00     0.278 C 
ENDBRANCH   7  26
TORSDOF 6
ENDMDL
MODEL 9
REMARK VINA RESULT:    -5.619      2.440      4.218
REMARK INTER + INTRA:          -8.019
REMARK INTER:                  -7.363
REMARK INTRA:                  -0.656
REMARK UNBOUND:                -0.429
REMARK SMILES COc1ccc(-c2cc(=O)c3c(OC)c(OC)c(OC)cc3o2)cc1OC
REMARK SMILES IDX 7 1 8 2 9 3 10 4 11 5 12 6 15 7 18 8 21 9 22 10 23 11 6 12
REMARK SMILES IDX 3 13 25 14 4 15 24 16 5 17 2 18 1 19 26 20 27 21 13 22 14 23
REMARK SMILES IDX 19 24 20 25 16 26 17 27
REMARK H PARENT
REMARK Flexibility Score: inf
ROOT
ATOM      1  C   UNL     1     172.328 144.373 153.199  1.00  0.00     0.138 A 
ATOM      2  C   UNL     1     173.690 144.062 153.342  1.00  0.00     0.100 A 
ATOM      3  C   UNL     1     174.328 144.324 154.555  1.00  0.00     0.197 A 
ATOM      4  O   UNL     1     175.560 144.075 154.658  1.00  0.00    -0.289 OA
ATOM      5  C   UNL     1     173.596 144.885 155.624  1.00  0.00     0.111 A 
ATOM      6  C   UNL     1     174.158 145.150 156.899  1.00  0.00     0.179 A 
ATOM      7  C   UNL     1     173.390 145.827 157.880  1.00  0.00     0.204 A 
ATOM      8  C   UNL     1     172.042 146.126 157.626  1.00  0.00     0.168 A 
ATOM      9  C   UNL     1     171.473 145.799 156.385  1.00  0.00     0.098 A 
ATOM     10  C   UNL     1     172.240 145.200 155.387  1.00  0.00     0.146 A 
ATOM     11  O   UNL     1     171.677 144.934 154.214  1.00  0.00    -0.456 OA
ENDROOT
BRANCH   1  12
ATOM     12  C   UNL     1     171.595 144.116 151.933  1.00  0.00     0.021 A 
ATOM     13  C   UNL     1     170.255 143.614 149.499  1.00  0.00     0.160 A 
ATOM     14  C   UNL     1     171.464 142.962 149.779  1.00  0.00     0.161 A 
ATOM     15  C   UNL     1     169.724 144.522 150.433  1.00  0.00     0.051 A 
ATOM     16  C   UNL     1     172.131 143.219 150.993  1.00  0.00     0.062 A 
ATOM     17  C   UNL     1     170.388 144.773 151.634  1.00  0.00     0.016 A 
BRANCH  13  18
ATOM     18  O   UNL     1     169.613 143.336 148.282  1.00  0.00    -0.493 OA
ATOM     19  C   UNL     1     169.610 144.205 147.154  1.00  0.00     0.278 C 
ENDBRANCH  13  18
BRANCH  14  20
ATOM     20  O   UNL     1     171.972 142.064 148.826  1.00  0.00    -0.493 OA
ATOM     21  C   UNL     1     173.356 141.863 148.563  1.00  0.00     0.278 C 
ENDBRANCH  14  20
ENDBRANCH   1  12
BRANCH   6  22
ATOM     22  O   UNL     1     175.450 144.715 157.200  1.00  0.00    -0.492 OA
ATOM     23  C   UNL     1     175.669 143.584 158.038  1.00  0.00     0.278 C 
ENDBRANCH   6  22
BRANCH   8  24
ATOM     24  O   UNL     1     171.301 146.761 158.636  1.00  0.00    -0.493 OA
ATOM     25  C   UNL     1     171.165 148.173 158.775  1.00  0.00     0.278 C 
ENDBRANCH   8  24
BRANCH   7  26
ATOM     26  O   UNL     1     173.904 146.229 159.126  1.00  0.00    -0.490 OA
ATOM     27  C   UNL     1     174.794 147.317 159.352  1.00  0.00     0.278 C 
ENDBRANCH   7  26
TORSDOF 6
ENDMDL
