MODEL 1
REMARK VINA RESULT:    -4.713      0.000      0.000
REMARK INTER + INTRA:          -5.006
REMARK INTER:                  -4.988
REMARK INTRA:                  -0.018
REMARK UNBOUND:                -0.018
REMARK SMILES O=C([O-])c1cccnc1
REMARK SMILES IDX 4 1 5 2 9 3 6 4 8 5 7 6 2 7 1 8 3 9
REMARK H PARENT
REMARK Flexibility Score: inf
ROOT
ATOM      1  C   UNL     1       5.011 -34.622  22.212  1.00  0.00     0.016 A 
ATOM      2  C   UNL     1       5.581 -33.867  23.249  1.00  0.00     0.013 A 
ATOM      3  C   UNL     1       5.001 -36.023  22.333  1.00  0.00     0.120 A 
ATOM      4  C   UNL     1       6.122 -34.506  24.367  1.00  0.00     0.021 A 
ATOM      5  N   UNL     1       5.535 -36.620  23.433  1.00  0.00    -0.264 NA
ATOM      6  C   UNL     1       6.089 -35.898  24.442  1.00  0.00     0.111 A 
ENDROOT
BRANCH   1   7
ATOM      7  C   UNL     1       4.435 -33.958  21.023  1.00  0.00     0.073 C 
ATOM      8  O   UNL     1       3.500 -33.123  21.146  1.00  0.00    -0.545 OA
ATOM      9  O   UNL     1       4.918 -34.247  19.752  1.00  0.00    -0.545 OA
ENDBRANCH   1   7
TORSDOF 1
ENDMDL
MODEL 2
REMARK VINA RESULT:    -4.682      1.937      2.671
REMARK INTER + INTRA:          -4.974
REMARK INTER:                  -4.955
REMARK INTRA:                  -0.020
REMARK UNBOUND:                -0.018
REMARK SMILES O=C([O-])c1cccnc1
REMARK SMILES IDX 4 1 5 2 9 3 6 4 8 5 7 6 2 7 1 8 3 9
REMARK H PARENT
REMARK Flexibility Score: inf
ROOT
ATOM      1  C   UNL     1       4.945 -35.595  22.482  1.00  0.00     0.016 A 
ATOM      2  C   UNL     1       4.898 -36.465  23.582  1.00  0.00     0.013 A 
ATOM      3  C   UNL     1       4.958 -36.150  21.190  1.00  0.00     0.120 A 
ATOM      4  C   UNL     1       4.867 -37.847  23.382  1.00  0.00     0.021 A 
ATOM      5  N   UNL     1       4.927 -37.500  21.023  1.00  0.00    -0.264 NA
ATOM      6  C   UNL     1       4.881 -38.351  22.081  1.00  0.00     0.111 A 
ENDROOT
BRANCH   1   7
ATOM      7  C   UNL     1       4.979 -34.129  22.680  1.00  0.00     0.073 C 
ATOM      8  O   UNL     1       4.259 -33.371  21.979  1.00  0.00    -0.545 OA
ATOM      9  O   UNL     1       5.809 -33.569  23.645  1.00  0.00    -0.545 OA
ENDBRANCH   1   7
TORSDOF 1
ENDMDL
MODEL 3
REMARK VINA RESULT:    -4.640      1.828      2.846
REMARK INTER + INTRA:          -4.929
REMARK INTER:                  -4.909
REMARK INTRA:                  -0.020
REMARK UNBOUND:                -0.018
REMARK SMILES O=C([O-])c1cccnc1
REMARK SMILES IDX 4 1 5 2 9 3 6 4 8 5 7 6 2 7 1 8 3 9
REMARK H PARENT
REMARK Flexibility Score: inf
ROOT
ATOM      1  C   UNL     1       4.983 -35.647  22.472  1.00  0.00     0.016 A 
ATOM      2  C   UNL     1       4.984 -36.128  21.153  1.00  0.00     0.013 A 
ATOM      3  C   UNL     1       4.938 -36.578  23.524  1.00  0.00     0.120 A 
ATOM      4  C   UNL     1       4.940 -37.503  20.908  1.00  0.00     0.021 A 
ATOM      5  N   UNL     1       4.895 -37.912  23.258  1.00  0.00    -0.264 NA
ATOM      6  C   UNL     1       4.896 -38.388  21.985  1.00  0.00     0.111 A 
ENDROOT
BRANCH   1   7
ATOM      7  C   UNL     1       5.031 -34.194  22.745  1.00  0.00     0.073 C 
ATOM      8  O   UNL     1       4.321 -33.394  22.079  1.00  0.00    -0.545 OA
ATOM      9  O   UNL     1       5.861 -33.691  23.740  1.00  0.00    -0.545 OA
ENDBRANCH   1   7
TORSDOF 1
ENDMDL
MODEL 4
REMARK VINA RESULT:    -4.628      3.214      3.914
REMARK INTER + INTRA:          -4.916
REMARK INTER:                  -4.893
REMARK INTRA:                  -0.023
REMARK UNBOUND:                -0.018
REMARK SMILES O=C([O-])c1cccnc1
REMARK SMILES IDX 4 1 5 2 9 3 6 4 8 5 7 6 2 7 1 8 3 9
REMARK H PARENT
REMARK Flexibility Score: inf
ROOT
ATOM      1  C   UNL     1       5.040 -36.568  23.312  1.00  0.00     0.016 A 
ATOM      2  C   UNL     1       5.429 -35.287  23.734  1.00  0.00     0.013 A 
ATOM      3  C   UNL     1       4.978 -36.827  21.931  1.00  0.00     0.120 A 
ATOM      4  C   UNL     1       5.744 -34.304  22.793  1.00  0.00     0.021 A 
ATOM      5  N   UNL     1       5.290 -35.851  21.035  1.00  0.00    -0.264 NA
ATOM      6  C   UNL     1       5.668 -34.609  21.434  1.00  0.00     0.111 A 
ENDROOT
BRANCH   1   7
ATOM      7  C   UNL     1       4.704 -37.618  24.298  1.00  0.00     0.073 C 
ATOM      8  O   UNL     1       4.667 -38.829  23.956  1.00  0.00    -0.545 OA
ATOM      9  O   UNL     1       4.425 -37.280  25.617  1.00  0.00    -0.545 OA
ENDBRANCH   1   7
TORSDOF 1
ENDMDL
MODEL 5
REMARK VINA RESULT:    -4.618      1.458      1.977
REMARK INTER + INTRA:          -4.906
REMARK INTER:                  -4.885
REMARK INTRA:                  -0.020
REMARK UNBOUND:                -0.018
REMARK SMILES O=C([O-])c1cccnc1
REMARK SMILES IDX 4 1 5 2 9 3 6 4 8 5 7 6 2 7 1 8 3 9
REMARK H PARENT
REMARK Flexibility Score: inf
ROOT
ATOM      1  C   UNL     1       4.836 -35.092  20.748  1.00  0.00     0.016 A 
ATOM      2  C   UNL     1       4.752 -33.870  21.434  1.00  0.00     0.013 A 
ATOM      3  C   UNL     1       5.179 -36.245  21.476  1.00  0.00     0.120 A 
ATOM      4  C   UNL     1       5.008 -33.817  22.806  1.00  0.00     0.021 A 
ATOM      5  N   UNL     1       5.422 -36.166  22.812  1.00  0.00    -0.264 NA
ATOM      6  C   UNL     1       5.344 -34.988  23.485  1.00  0.00     0.111 A 
ENDROOT
BRANCH   1   7
ATOM      7  C   UNL     1       4.568 -35.161  19.295  1.00  0.00     0.073 C 
ATOM      8  O   UNL     1       5.001 -34.267  18.520  1.00  0.00    -0.545 OA
ATOM      9  O   UNL     1       3.834 -36.216  18.764  1.00  0.00    -0.545 OA
ENDBRANCH   1   7
TORSDOF 1
ENDMDL
MODEL 6
REMARK VINA RESULT:    -4.549      2.294      2.987
REMARK INTER + INTRA:          -4.833
REMARK INTER:                  -4.811
REMARK INTRA:                  -0.022
REMARK UNBOUND:                -0.018
REMARK SMILES O=C([O-])c1cccnc1
REMARK SMILES IDX 4 1 5 2 9 3 6 4 8 5 7 6 2 7 1 8 3 9
REMARK H PARENT
REMARK Flexibility Score: inf
ROOT
ATOM      1  C   UNL     1       4.711 -35.814  20.952  1.00  0.00     0.016 A 
ATOM      2  C   UNL     1       5.287 -36.121  22.195  1.00  0.00     0.013 A 
ATOM      3  C   UNL     1       4.298 -34.491  20.715  1.00  0.00     0.120 A 
ATOM      4  C   UNL     1       5.438 -35.126  23.163  1.00  0.00     0.021 A 
ATOM      5  N   UNL     1       4.457 -33.540  21.675  1.00  0.00    -0.264 NA
ATOM      6  C   UNL     1       5.013 -33.827  22.881  1.00  0.00     0.111 A 
ENDROOT
BRANCH   1   7
ATOM      7  C   UNL     1       4.545 -36.859  19.918  1.00  0.00     0.073 C 
ATOM      8  O   UNL     1       3.679 -36.733  19.013  1.00  0.00    -0.545 OA
ATOM      9  O   UNL     1       5.344 -37.997  19.934  1.00  0.00    -0.545 OA
ENDBRANCH   1   7
TORSDOF 1
ENDMDL
MODEL 7
REMARK VINA RESULT:    -4.549      3.326      4.189
REMARK INTER + INTRA:          -4.833
REMARK INTER:                  -4.813
REMARK INTRA:                  -0.020
REMARK UNBOUND:                -0.018
REMARK SMILES O=C([O-])c1cccnc1
REMARK SMILES IDX 4 1 5 2 9 3 6 4 8 5 7 6 2 7 1 8 3 9
REMARK H PARENT
REMARK Flexibility Score: inf
ROOT
ATOM      1  C   UNL     1       4.952 -36.994  23.584  1.00  0.00     0.016 A 
ATOM      2  C   UNL     1       5.151 -35.964  22.650  1.00  0.00     0.013 A 
ATOM      3  C   UNL     1       4.626 -38.276  23.106  1.00  0.00     0.120 A 
ATOM      4  C   UNL     1       5.023 -36.222  21.284  1.00  0.00     0.021 A 
ATOM      5  N   UNL     1       4.508 -38.499  21.769  1.00  0.00    -0.264 NA
ATOM      6  C   UNL     1       4.698 -37.510  20.858  1.00  0.00     0.111 A 
ENDROOT
BRANCH   1   7
ATOM      7  C   UNL     1       5.085 -36.734  25.034  1.00  0.00     0.073 C 
ATOM      8  O   UNL     1       4.259 -37.221  25.850  1.00  0.00    -0.545 OA
ATOM      9  O   UNL     1       6.125 -35.946  25.515  1.00  0.00    -0.545 OA
ENDBRANCH   1   7
TORSDOF 1
ENDMDL
MODEL 8
REMARK VINA RESULT:    -4.489      1.376      2.058
REMARK INTER + INTRA:          -4.770
REMARK INTER:                  -4.748
REMARK INTRA:                  -0.022
REMARK UNBOUND:                -0.018
REMARK SMILES O=C([O-])c1cccnc1
REMARK SMILES IDX 4 1 5 2 9 3 6 4 8 5 7 6 2 7 1 8 3 9
REMARK H PARENT
REMARK Flexibility Score: inf
ROOT
ATOM      1  C   UNL     1       4.828 -35.218  21.493  1.00  0.00     0.016 A 
ATOM      2  C   UNL     1       4.964 -36.492  22.067  1.00  0.00     0.013 A 
ATOM      3  C   UNL     1       5.062 -34.091  22.302  1.00  0.00     0.120 A 
ATOM      4  C   UNL     1       5.322 -36.621  23.411  1.00  0.00     0.021 A 
ATOM      5  N   UNL     1       5.409 -34.245  23.608  1.00  0.00    -0.264 NA
ATOM      6  C   UNL     1       5.543 -35.474  24.173  1.00  0.00     0.111 A 
ENDROOT
BRANCH   1   7
ATOM      7  C   UNL     1       4.450 -35.068  20.071  1.00  0.00     0.073 C 
ATOM      8  O   UNL     1       4.807 -34.053  19.417  1.00  0.00    -0.545 OA
ATOM      9  O   UNL     1       3.693 -36.047  19.437  1.00  0.00    -0.545 OA
ENDBRANCH   1   7
TORSDOF 1
ENDMDL
