MODEL 1
REMARK VINA RESULT:    64.674      0.000      0.000
REMARK INTER + INTRA:          89.566
REMARK INTER:                  89.249
REMARK INTRA:                   0.317
REMARK UNBOUND:                 0.317
REMARK SMILES CC[C@H](CC[C@@H](C)[C@@H]1CC[C@@H]2C3=CC[C@@H]4C[C@H](O)CC[C@]4(C)[C@H]3CC[C@@]21C)C(C)C
REMARK SMILES IDX 5 1 4 2 3 3 2 4 1 5 28 6 29 7 30 8 6 9 7 10 8 11 9 12 26 13
REMARK SMILES IDX 10 14 11 15 25 16 27 17 12 18 24 19 23 20 13 21 21 22 14 23
REMARK SMILES IDX 15 24 20 25 22 26 16 27 19 28 17 29 18 30
REMARK H PARENT 18 31
REMARK Flexibility Score: inf
ROOT
ATOM      1  C   UNL     1     -30.707  30.842  -1.660  1.00  0.00     0.004 C 
ENDROOT
BRANCH   1   2
ATOM      2  C   UNL     1     -31.805  29.758  -1.769  1.00  0.00     0.004 C 
BRANCH   2   3
ATOM      3  C   UNL     1     -33.114  30.304  -2.426  1.00  0.00    -0.009 C 
BRANCH   3   4
ATOM      4  C   UNL     1     -33.242  29.858  -3.908  1.00  0.00     0.000 C 
ATOM      5  C   UNL     1     -34.528  30.360  -4.563  1.00  0.00     0.004 C 
ENDBRANCH   3   4
BRANCH   3   6
ATOM      6  C   UNL     1     -34.411  29.949  -1.625  1.00  0.00    -0.014 C 
ATOM      7  C   UNL     1     -35.643  30.784  -2.025  1.00  0.00     0.007 C 
ATOM      8  C   UNL     1     -34.737  28.449  -1.684  1.00  0.00     0.007 C 
ENDBRANCH   3   6
ENDBRANCH   2   3
ENDBRANCH   1   2
BRANCH   1   9
ATOM      9  C   UNL     1     -30.142  31.351  -3.020  1.00  0.00    -0.011 C 
ATOM     10  C   UNL     1     -31.096  32.410  -3.617  1.00  0.00     0.008 C 
BRANCH   9  11
ATOM     11  C   UNL     1     -28.658  31.864  -2.944  1.00  0.00    -0.002 C 
ATOM     12  C   UNL     1     -28.425  33.147  -3.741  1.00  0.00     0.005 C 
ATOM     13  C   UNL     1     -27.501  30.895  -3.392  1.00  0.00    -0.023 C 
ATOM     14  C   UNL     1     -26.920  33.268  -3.888  1.00  0.00     0.009 C 
ATOM     15  C   UNL     1     -26.372  31.837  -3.942  1.00  0.00     0.021 C 
ATOM     16  C   UNL     1     -27.909  29.811  -4.458  1.00  0.00     0.008 C 
ATOM     17  C   UNL     1     -26.946  30.137  -2.160  1.00  0.00     0.012 C 
ATOM     18  C   UNL     1     -25.956  31.451  -5.356  1.00  0.00    -0.067 C 
ATOM     19  C   UNL     1     -28.095  30.312  -5.913  1.00  0.00     0.009 C 
ATOM     20  C   UNL     1     -27.061  31.384  -6.381  1.00  0.00     0.021 C 
ATOM     21  C   UNL     1     -24.787  30.814  -5.554  1.00  0.00    -0.027 C 
ATOM     22  C   UNL     1     -26.545  31.252  -7.863  1.00  0.00    -0.023 C 
ATOM     23  C   UNL     1     -24.332  30.312  -6.894  1.00  0.00     0.031 C 
ATOM     24  C   UNL     1     -25.459  30.140  -7.947  1.00  0.00     0.002 C 
ATOM     25  C   UNL     1     -25.910  32.603  -8.313  1.00  0.00     0.010 C 
ATOM     26  C   UNL     1     -27.756  30.933  -8.795  1.00  0.00     0.012 C 
ATOM     27  C   UNL     1     -24.858  30.038  -9.373  1.00  0.00     0.036 C 
ATOM     28  C   UNL     1     -25.300  32.559  -9.727  1.00  0.00     0.032 C 
ATOM     29  C   UNL     1     -24.334  31.380  -9.950  1.00  0.00     0.114 C 
BRANCH  29  30
ATOM     30  O   UNL     1     -23.072  31.703  -9.427  1.00  0.00    -0.393 OA
ATOM     31  H   UNL     1     -23.172  32.558  -8.933  1.00  0.00     0.210 HD
ENDBRANCH  29  30
ENDBRANCH   9  11
ENDBRANCH   1   9
TORSDOF 7
ENDMDL
MODEL 2
REMARK VINA RESULT:    64.824      0.499      1.135
REMARK INTER + INTRA:          89.773
REMARK INTER:                  88.473
REMARK INTRA:                   1.299
REMARK UNBOUND:                 0.317
REMARK SMILES CC[C@H](CC[C@@H](C)[C@@H]1CC[C@@H]2C3=CC[C@@H]4C[C@H](O)CC[C@]4(C)[C@H]3CC[C@@]21C)C(C)C
REMARK SMILES IDX 5 1 4 2 3 3 2 4 1 5 28 6 29 7 30 8 6 9 7 10 8 11 9 12 26 13
REMARK SMILES IDX 10 14 11 15 25 16 27 17 12 18 24 19 23 20 13 21 21 22 14 23
REMARK SMILES IDX 15 24 20 25 22 26 16 27 19 28 17 29 18 30
REMARK H PARENT 18 31
REMARK Flexibility Score: inf
ROOT
ATOM      1  C   UNL     1     -30.459  30.530  -1.913  1.00  0.00     0.004 C 
ENDROOT
BRANCH   1   2
ATOM      2  C   UNL     1     -31.955  30.723  -1.572  1.00  0.00     0.004 C 
BRANCH   2   3
ATOM      3  C   UNL     1     -32.884  29.810  -2.436  1.00  0.00    -0.009 C 
BRANCH   3   4
ATOM      4  C   UNL     1     -33.418  28.600  -1.624  1.00  0.00     0.000 C 
ATOM      5  C   UNL     1     -34.925  28.406  -1.781  1.00  0.00     0.004 C 
ENDBRANCH   3   4
BRANCH   3   6
ATOM      6  C   UNL     1     -34.060  30.583  -3.120  1.00  0.00    -0.014 C 
ATOM      7  C   UNL     1     -34.288  30.201  -4.595  1.00  0.00     0.007 C 
ATOM      8  C   UNL     1     -35.370  30.465  -2.327  1.00  0.00     0.007 C 
ENDBRANCH   3   6
ENDBRANCH   2   3
ENDBRANCH   1   2
BRANCH   1   9
ATOM      9  C   UNL     1     -29.941  31.367  -3.120  1.00  0.00    -0.011 C 
ATOM     10  C   UNL     1     -30.834  32.614  -3.310  1.00  0.00     0.008 C 
BRANCH   9  11
ATOM     11  C   UNL     1     -28.415  31.735  -3.035  1.00  0.00    -0.002 C 
ATOM     12  C   UNL     1     -28.077  33.055  -3.728  1.00  0.00     0.005 C 
ATOM     13  C   UNL     1     -27.359  30.707  -3.590  1.00  0.00    -0.023 C 
ATOM     14  C   UNL     1     -26.570  33.051  -3.898  1.00  0.00     0.009 C 
ATOM     15  C   UNL     1     -26.157  31.587  -4.085  1.00  0.00     0.021 C 
ATOM     16  C   UNL     1     -27.882  29.760  -4.734  1.00  0.00     0.008 C 
ATOM     17  C   UNL     1     -26.857  29.799  -2.439  1.00  0.00     0.012 C 
ATOM     18  C   UNL     1     -25.800  31.287  -5.535  1.00  0.00    -0.067 C 
ATOM     19  C   UNL     1     -28.044  30.397  -6.136  1.00  0.00     0.009 C 
ATOM     20  C   UNL     1     -26.923  31.408  -6.537  1.00  0.00     0.021 C 
ATOM     21  C   UNL     1     -24.698  30.566  -5.813  1.00  0.00    -0.027 C 
ATOM     22  C   UNL     1     -26.443  31.357  -8.036  1.00  0.00    -0.023 C 
ATOM     23  C   UNL     1     -24.312  30.141  -7.200  1.00  0.00     0.031 C 
ATOM     24  C   UNL     1     -25.466  30.162  -8.239  1.00  0.00     0.002 C 
ATOM     25  C   UNL     1     -25.694  32.679  -8.386  1.00  0.00     0.010 C 
ATOM     26  C   UNL     1     -27.692  31.230  -8.963  1.00  0.00     0.012 C 
ATOM     27  C   UNL     1     -24.899  30.129  -9.681  1.00  0.00     0.036 C 
ATOM     28  C   UNL     1     -25.112  32.701  -9.812  1.00  0.00     0.032 C 
ATOM     29  C   UNL     1     -24.263  31.463 -10.156  1.00  0.00     0.114 C 
BRANCH  29  30
ATOM     30  O   UNL     1     -22.968  31.624  -9.637  1.00  0.00    -0.393 OA
ATOM     31  H   UNL     1     -22.562  30.719  -9.583  1.00  0.00     0.210 HD
ENDBRANCH  29  30
ENDBRANCH   9  11
ENDBRANCH   1   9
TORSDOF 7
ENDMDL
MODEL 3
REMARK VINA RESULT:    65.023      1.061      2.070
REMARK INTER + INTRA:          90.048
REMARK INTER:                  89.945
REMARK INTRA:                   0.103
REMARK UNBOUND:                 0.317
REMARK SMILES CC[C@H](CC[C@@H](C)[C@@H]1CC[C@@H]2C3=CC[C@@H]4C[C@H](O)CC[C@]4(C)[C@H]3CC[C@@]21C)C(C)C
REMARK SMILES IDX 5 1 4 2 3 3 2 4 1 5 28 6 29 7 30 8 6 9 7 10 8 11 9 12 26 13
REMARK SMILES IDX 10 14 11 15 25 16 27 17 12 18 24 19 23 20 13 21 21 22 14 23
REMARK SMILES IDX 15 24 20 25 22 26 16 27 19 28 17 29 18 30
REMARK H PARENT 18 31
REMARK Flexibility Score: inf
ROOT
ATOM      1  C   UNL     1     -30.163  31.402  -2.600  1.00  0.00     0.004 C 
ENDROOT
BRANCH   1   2
ATOM      2  C   UNL     1     -31.627  31.243  -3.072  1.00  0.00     0.004 C 
BRANCH   2   3
ATOM      3  C   UNL     1     -32.384  30.120  -2.291  1.00  0.00    -0.009 C 
BRANCH   3   4
ATOM      4  C   UNL     1     -32.457  30.427  -0.772  1.00  0.00     0.000 C 
ATOM      5  C   UNL     1     -31.126  30.923  -0.207  1.00  0.00     0.004 C 
ENDBRANCH   3   4
BRANCH   3   6
ATOM      6  C   UNL     1     -33.806  29.809  -2.864  1.00  0.00    -0.014 C 
ATOM      7  C   UNL     1     -34.959  30.140  -1.896  1.00  0.00     0.007 C 
ATOM      8  C   UNL     1     -34.042  30.479  -4.227  1.00  0.00     0.007 C 
ENDBRANCH   3   6
ENDBRANCH   2   3
ENDBRANCH   1   2
BRANCH   1   9
ATOM      9  C   UNL     1     -29.182  31.975  -3.667  1.00  0.00    -0.011 C 
ATOM     10  C   UNL     1     -29.189  33.519  -3.605  1.00  0.00     0.008 C 
BRANCH   9  11
ATOM     11  C   UNL     1     -27.728  31.383  -3.581  1.00  0.00    -0.002 C 
ATOM     12  C   UNL     1     -26.640  32.454  -3.646  1.00  0.00     0.005 C 
ATOM     13  C   UNL     1     -27.291  30.300  -4.637  1.00  0.00    -0.023 C 
ATOM     14  C   UNL     1     -25.354  31.710  -3.951  1.00  0.00     0.009 C 
ATOM     15  C   UNL     1     -25.744  30.500  -4.809  1.00  0.00     0.021 C 
ATOM     16  C   UNL     1     -28.033  30.377  -6.024  1.00  0.00     0.008 C 
ATOM     17  C   UNL     1     -27.538  28.881  -4.065  1.00  0.00     0.012 C 
ATOM     18  C   UNL     1     -25.361  30.703  -6.269  1.00  0.00    -0.067 C 
ATOM     19  C   UNL     1     -27.601  31.522  -6.974  1.00  0.00     0.009 C 
ATOM     20  C   UNL     1     -26.069  31.822  -6.994  1.00  0.00     0.021 C 
ATOM     21  C   UNL     1     -24.771  29.702  -6.947  1.00  0.00    -0.027 C 
ATOM     22  C   UNL     1     -25.445  32.160  -8.400  1.00  0.00    -0.023 C 
ATOM     23  C   UNL     1     -24.439  29.771  -8.409  1.00  0.00     0.031 C 
ATOM     24  C   UNL     1     -25.219  30.849  -9.209  1.00  0.00     0.002 C 
ATOM     25  C   UNL     1     -24.069  32.866  -8.200  1.00  0.00     0.010 C 
ATOM     26  C   UNL     1     -26.401  33.135  -9.157  1.00  0.00     0.012 C 
ATOM     27  C   UNL     1     -24.523  31.130 -10.565  1.00  0.00     0.036 C 
ATOM     28  C   UNL     1     -23.334  33.171  -9.519  1.00  0.00     0.032 C 
ATOM     29  C   UNL     1     -23.214  31.958 -10.460  1.00  0.00     0.114 C 
BRANCH  29  30
ATOM     30  O   UNL     1     -22.135  31.156 -10.056  1.00  0.00    -0.393 OA
ATOM     31  H   UNL     1     -21.753  30.747 -10.876  1.00  0.00     0.210 HD
ENDBRANCH  29  30
ENDBRANCH   9  11
ENDBRANCH   1   9
TORSDOF 7
ENDMDL
MODEL 4
REMARK VINA RESULT:    66.497      4.896      8.705
REMARK INTER + INTRA:          92.082
REMARK INTER:                  91.310
REMARK INTRA:                   0.772
REMARK UNBOUND:                 0.317
REMARK SMILES CC[C@H](CC[C@@H](C)[C@@H]1CC[C@@H]2C3=CC[C@@H]4C[C@H](O)CC[C@]4(C)[C@H]3CC[C@@]21C)C(C)C
REMARK SMILES IDX 5 1 4 2 3 3 2 4 1 5 28 6 29 7 30 8 6 9 7 10 8 11 9 12 26 13
REMARK SMILES IDX 10 14 11 15 25 16 27 17 12 18 24 19 23 20 13 21 21 22 14 23
REMARK SMILES IDX 15 24 20 25 22 26 16 27 19 28 17 29 18 30
REMARK H PARENT 18 31
REMARK Flexibility Score: inf
ROOT
ATOM      1  C   UNL     1     -25.704  30.911  -6.913  1.00  0.00     0.004 C 
ENDROOT
BRANCH   1   2
ATOM      2  C   UNL     1     -26.105  31.942  -7.995  1.00  0.00     0.004 C 
BRANCH   2   3
ATOM      3  C   UNL     1     -25.103  31.963  -9.194  1.00  0.00    -0.009 C 
BRANCH   3   4
ATOM      4  C   UNL     1     -25.716  32.652 -10.442  1.00  0.00     0.000 C 
ATOM      5  C   UNL     1     -25.790  31.720 -11.651  1.00  0.00     0.004 C 
ENDBRANCH   3   4
BRANCH   3   6
ATOM      6  C   UNL     1     -23.715  32.592  -8.838  1.00  0.00    -0.014 C 
ATOM      7  C   UNL     1     -22.509  31.739  -9.275  1.00  0.00     0.007 C 
ATOM      8  C   UNL     1     -23.576  34.028  -9.366  1.00  0.00     0.007 C 
ENDBRANCH   3   6
ENDBRANCH   2   3
ENDBRANCH   1   2
BRANCH   1   9
ATOM      9  C   UNL     1     -26.569  29.615  -6.880  1.00  0.00    -0.011 C 
ATOM     10  C   UNL     1     -28.049  29.971  -7.143  1.00  0.00     0.008 C 
BRANCH   9  11
ATOM     11  C   UNL     1     -26.051  28.478  -7.834  1.00  0.00    -0.002 C 
ATOM     12  C   UNL     1     -26.159  27.084  -7.217  1.00  0.00     0.005 C 
ATOM     13  C   UNL     1     -24.577  28.564  -8.380  1.00  0.00    -0.023 C 
ATOM     14  C   UNL     1     -25.277  26.193  -8.070  1.00  0.00     0.009 C 
ATOM     15  C   UNL     1     -24.129  27.073  -8.577  1.00  0.00     0.021 C 
ATOM     16  C   UNL     1     -23.566  29.348  -7.463  1.00  0.00     0.008 C 
ATOM     17  C   UNL     1     -24.573  29.262  -9.764  1.00  0.00     0.012 C 
ATOM     18  C   UNL     1     -22.828  26.775  -7.843  1.00  0.00    -0.067 C 
ATOM     19  C   UNL     1     -23.083  28.613  -6.187  1.00  0.00     0.009 C 
ATOM     20  C   UNL     1     -22.811  27.086  -6.366  1.00  0.00     0.021 C 
ATOM     21  C   UNL     1     -21.683  26.656  -8.539  1.00  0.00    -0.027 C 
ATOM     22  C   UNL     1     -21.554  26.511  -5.611  1.00  0.00    -0.023 C 
ATOM     23  C   UNL     1     -20.340  26.454  -7.901  1.00  0.00     0.031 C 
ATOM     24  C   UNL     1     -20.258  26.854  -6.403  1.00  0.00     0.002 C 
ATOM     25  C   UNL     1     -21.677  24.960  -5.507  1.00  0.00     0.010 C 
ATOM     26  C   UNL     1     -21.512  27.107  -4.170  1.00  0.00     0.012 C 
ATOM     27  C   UNL     1     -19.004  26.227  -5.741  1.00  0.00     0.036 C 
ATOM     28  C   UNL     1     -20.457  24.285  -4.852  1.00  0.00     0.032 C 
ATOM     29  C   UNL     1     -19.110  24.703  -5.471  1.00  0.00     0.114 C 
BRANCH  29  30
ATOM     30  O   UNL     1     -18.880  23.961  -6.640  1.00  0.00    -0.393 OA
ATOM     31  H   UNL     1     -18.081  23.395  -6.473  1.00  0.00     0.210 HD
ENDBRANCH  29  30
ENDBRANCH   9  11
ENDBRANCH   1   9
TORSDOF 7
ENDMDL
MODEL 5
REMARK VINA RESULT:    67.005      3.892      9.107
REMARK INTER + INTRA:          92.782
REMARK INTER:                  91.502
REMARK INTRA:                   1.280
REMARK UNBOUND:                 0.317
REMARK SMILES CC[C@H](CC[C@@H](C)[C@@H]1CC[C@@H]2C3=CC[C@@H]4C[C@H](O)CC[C@]4(C)[C@H]3CC[C@@]21C)C(C)C
REMARK SMILES IDX 5 1 4 2 3 3 2 4 1 5 28 6 29 7 30 8 6 9 7 10 8 11 9 12 26 13
REMARK SMILES IDX 10 14 11 15 25 16 27 17 12 18 24 19 23 20 13 21 21 22 14 23
REMARK SMILES IDX 15 24 20 25 22 26 16 27 19 28 17 29 18 30
REMARK H PARENT 18 31
REMARK Flexibility Score: inf
ROOT
ATOM      1  C   UNL     1     -22.651  27.400  -7.007  1.00  0.00     0.004 C 
ENDROOT
BRANCH   1   2
ATOM      2  C   UNL     1     -22.349  25.971  -6.497  1.00  0.00     0.004 C 
BRANCH   2   3
ATOM      3  C   UNL     1     -20.826  25.744  -6.234  1.00  0.00    -0.009 C 
BRANCH   3   4
ATOM      4  C   UNL     1     -20.386  26.327  -4.864  1.00  0.00     0.000 C 
ATOM      5  C   UNL     1     -18.875  26.249  -4.650  1.00  0.00     0.004 C 
ENDBRANCH   3   4
BRANCH   3   6
ATOM      6  C   UNL     1     -20.383  24.249  -6.370  1.00  0.00    -0.014 C 
ATOM      7  C   UNL     1     -19.132  24.042  -7.245  1.00  0.00     0.007 C 
ATOM      8  C   UNL     1     -20.200  23.572  -5.003  1.00  0.00     0.007 C 
ENDBRANCH   3   6
ENDBRANCH   2   3
ENDBRANCH   1   2
BRANCH   1   9
ATOM      9  C   UNL     1     -23.663  27.481  -8.189  1.00  0.00    -0.011 C 
ATOM     10  C   UNL     1     -24.991  26.803  -7.785  1.00  0.00     0.008 C 
BRANCH   9  11
ATOM     11  C   UNL     1     -23.882  28.937  -8.743  1.00  0.00    -0.002 C 
ATOM     12  C   UNL     1     -23.056  29.989  -8.006  1.00  0.00     0.005 C 
ATOM     13  C   UNL     1     -25.345  29.520  -8.772  1.00  0.00    -0.023 C 
ATOM     14  C   UNL     1     -23.671  31.324  -8.378  1.00  0.00     0.009 C 
ATOM     15  C   UNL     1     -25.168  31.069  -8.593  1.00  0.00     0.021 C 
ATOM     16  C   UNL     1     -26.324  28.929  -7.691  1.00  0.00     0.008 C 
ATOM     17  C   UNL     1     -25.984  29.259 -10.160  1.00  0.00     0.012 C 
ATOM     18  C   UNL     1     -25.998  31.600  -7.432  1.00  0.00    -0.067 C 
ATOM     19  C   UNL     1     -26.124  29.423  -6.236  1.00  0.00     0.009 C 
ATOM     20  C   UNL     1     -25.773  30.938  -6.094  1.00  0.00     0.021 C 
ATOM     21  C   UNL     1     -27.125  32.292  -7.682  1.00  0.00    -0.027 C 
ATOM     22  C   UNL     1     -26.445  31.697  -4.890  1.00  0.00    -0.023 C 
ATOM     23  C   UNL     1     -28.057  32.776  -6.609  1.00  0.00     0.031 C 
ATOM     24  C   UNL     1     -27.919  32.051  -5.243  1.00  0.00     0.002 C 
ATOM     25  C   UNL     1     -25.668  33.020  -4.612  1.00  0.00     0.010 C 
ATOM     26  C   UNL     1     -26.369  30.796  -3.617  1.00  0.00     0.012 C 
ATOM     27  C   UNL     1     -28.591  32.880  -4.119  1.00  0.00     0.036 C 
ATOM     28  C   UNL     1     -26.292  33.882  -3.498  1.00  0.00     0.032 C 
ATOM     29  C   UNL     1     -27.798  34.142  -3.685  1.00  0.00     0.114 C 
BRANCH  29  30
ATOM     30  O   UNL     1     -27.984  35.197  -4.591  1.00  0.00    -0.393 OA
ATOM     31  H   UNL     1     -27.780  34.843  -5.496  1.00  0.00     0.210 HD
ENDBRANCH  29  30
ENDBRANCH   9  11
ENDBRANCH   1   9
TORSDOF 7
ENDMDL
