MODEL 1
REMARK VINA RESULT:    -4.322      0.000      0.000
REMARK INTER + INTRA:          -9.533
REMARK INTER:                  -7.860
REMARK INTRA:                  -1.673
REMARK UNBOUND:                -1.673
REMARK SMILES CCCCCC=CCC=CCCCCCCCC(=O)[O-]
REMARK SMILES IDX 11 1 12 2 13 3 14 4 15 5 16 6 17 7 18 8 19 9 20 10 10 11
REMARK SMILES IDX 9 12 8 13 7 14 6 15 5 16 4 17 3 18 2 19 1 20
REMARK H PARENT
REMARK Flexibility Score: inf
ROOT
ATOM      1  C   UNL     1      18.194   7.565   6.018  1.00  0.00     0.027 C 
ENDROOT
BRANCH   1   2
ATOM      2  C   UNL     1      18.753   8.799   5.296  1.00  0.00     0.004 C 
BRANCH   2   3
ATOM      3  C   UNL     1      18.484   8.780   3.780  1.00  0.00     0.000 C 
BRANCH   3   4
ATOM      4  C   UNL     1      18.231  10.161   3.146  1.00  0.00     0.000 C 
BRANCH   4   5
ATOM      5  C   UNL     1      16.807  10.680   3.388  1.00  0.00     0.000 C 
BRANCH   5   6
ATOM      6  C   UNL     1      16.666  12.135   2.918  1.00  0.00     0.006 C 
BRANCH   6   7
ATOM      7  C   UNL     1      15.202  12.592   2.870  1.00  0.00     0.053 C 
BRANCH   7   8
ATOM      8  C   UNL     1      15.073  14.000   2.375  1.00  0.00     0.041 C 
ATOM      9  O   UNL     1      15.051  14.238   1.139  1.00  0.00    -0.550 OA
ATOM     10  O   UNL     1      15.012  15.053   3.280  1.00  0.00    -0.550 OA
ENDBRANCH   7   8
ENDBRANCH   6   7
ENDBRANCH   5   6
ENDBRANCH   4   5
ENDBRANCH   3   4
ENDBRANCH   2   3
ENDBRANCH   1   2
BRANCH   1  11
ATOM     11  C   UNL     1      16.946   7.061   5.344  1.00  0.00    -0.031 C 
ATOM     12  C   UNL     1      15.795   7.742   5.440  1.00  0.00    -0.027 C 
BRANCH  12  13
ATOM     13  C   UNL     1      14.537   7.250   4.782  1.00  0.00     0.054 C 
BRANCH  13  14
ATOM     14  C   UNL     1      14.210   8.100   3.580  1.00  0.00    -0.027 C 
ATOM     15  C   UNL     1      14.781   7.978   2.366  1.00  0.00    -0.031 C 
BRANCH  15  16
ATOM     16  C   UNL     1      15.809   6.938   2.000  1.00  0.00     0.027 C 
BRANCH  16  17
ATOM     17  C   UNL     1      16.143   6.999   0.502  1.00  0.00     0.004 C 
BRANCH  17  18
ATOM     18  C   UNL     1      15.408   5.920  -0.309  1.00  0.00     0.000 C 
BRANCH  18  19
ATOM     19  C   UNL     1      15.411   6.217  -1.816  1.00  0.00    -0.003 C 
ATOM     20  C   UNL     1      15.791   7.669  -2.089  1.00  0.00     0.004 C 
ENDBRANCH  18  19
ENDBRANCH  17  18
ENDBRANCH  16  17
ENDBRANCH  15  16
ENDBRANCH  13  14
ENDBRANCH  12  13
ENDBRANCH   1  11
TORSDOF 14
ENDMDL
MODEL 2
REMARK VINA RESULT:    -4.312      2.747      5.982
REMARK INTER + INTRA:          -9.514
REMARK INTER:                  -7.841
REMARK INTRA:                  -1.673
REMARK UNBOUND:                -1.673
REMARK SMILES CCCCCC=CCC=CCCCCCCCC(=O)[O-]
REMARK SMILES IDX 11 1 12 2 13 3 14 4 15 5 16 6 17 7 18 8 19 9 20 10 10 11
REMARK SMILES IDX 9 12 8 13 7 14 6 15 5 16 4 17 3 18 2 19 1 20
REMARK H PARENT
REMARK Flexibility Score: inf
ROOT
ATOM      1  C   UNL     1      14.212   7.267   4.895  1.00  0.00     0.027 C 
ENDROOT
BRANCH   1   2
ATOM      2  C   UNL     1      13.739   7.985   3.623  1.00  0.00     0.004 C 
BRANCH   2   3
ATOM      3  C   UNL     1      14.890   8.305   2.652  1.00  0.00     0.000 C 
BRANCH   3   4
ATOM      4  C   UNL     1      14.944   7.420   1.392  1.00  0.00     0.000 C 
BRANCH   4   5
ATOM      5  C   UNL     1      16.199   6.538   1.331  1.00  0.00     0.000 C 
BRANCH   5   6
ATOM      6  C   UNL     1      16.127   5.563   0.146  1.00  0.00     0.006 C 
BRANCH   6   7
ATOM      7  C   UNL     1      15.137   6.028  -0.930  1.00  0.00     0.053 C 
BRANCH   7   8
ATOM      8  C   UNL     1      15.834   6.677  -2.086  1.00  0.00     0.041 C 
ATOM      9  O   UNL     1      15.747   7.921  -2.261  1.00  0.00    -0.550 OA
ATOM     10  O   UNL     1      16.553   5.903  -2.989  1.00  0.00    -0.550 OA
ENDBRANCH   7   8
ENDBRANCH   6   7
ENDBRANCH   5   6
ENDBRANCH   4   5
ENDBRANCH   3   4
ENDBRANCH   2   3
ENDBRANCH   1   2
BRANCH   1  11
ATOM     11  C   UNL     1      15.680   7.493   5.132  1.00  0.00    -0.031 C 
ATOM     12  C   UNL     1      16.578   6.550   4.809  1.00  0.00    -0.027 C 
BRANCH  12  13
ATOM     13  C   UNL     1      18.047   6.752   5.046  1.00  0.00     0.054 C 
BRANCH  13  14
ATOM     14  C   UNL     1      18.298   8.118   5.633  1.00  0.00    -0.027 C 
ATOM     15  C   UNL     1      18.487   9.245   4.919  1.00  0.00    -0.031 C 
BRANCH  15  16
ATOM     16  C   UNL     1      18.433   9.330   3.415  1.00  0.00     0.027 C 
BRANCH  16  17
ATOM     17  C   UNL     1      18.027  10.739   2.959  1.00  0.00     0.004 C 
BRANCH  17  18
ATOM     18  C   UNL     1      16.774  11.255   3.685  1.00  0.00     0.000 C 
BRANCH  18  19
ATOM     19  C   UNL     1      15.703  11.770   2.713  1.00  0.00    -0.003 C 
ATOM     20  C   UNL     1      15.439  13.257   2.924  1.00  0.00     0.004 C 
ENDBRANCH  18  19
ENDBRANCH  17  18
ENDBRANCH  16  17
ENDBRANCH  15  16
ENDBRANCH  13  14
ENDBRANCH  12  13
ENDBRANCH   1  11
TORSDOF 14
ENDMDL
MODEL 3
REMARK VINA RESULT:    -4.190      3.658      7.807
REMARK INTER + INTRA:          -9.292
REMARK INTER:                  -8.517
REMARK INTRA:                  -0.775
REMARK UNBOUND:                -1.673
REMARK SMILES CCCCCC=CCC=CCCCCCCCC(=O)[O-]
REMARK SMILES IDX 11 1 12 2 13 3 14 4 15 5 16 6 17 7 18 8 19 9 20 10 10 11
REMARK SMILES IDX 9 12 8 13 7 14 6 15 5 16 4 17 3 18 2 19 1 20
REMARK H PARENT
REMARK Flexibility Score: inf
ROOT
ATOM      1  C   UNL     1      14.298   7.572   4.660  1.00  0.00     0.027 C 
ENDROOT
BRANCH   1   2
ATOM      2  C   UNL     1      14.245   8.605   3.525  1.00  0.00     0.004 C 
BRANCH   2   3
ATOM      3  C   UNL     1      15.340   8.388   2.465  1.00  0.00     0.000 C 
BRANCH   3   4
ATOM      4  C   UNL     1      15.062   7.252   1.464  1.00  0.00     0.000 C 
BRANCH   4   5
ATOM      5  C   UNL     1      16.249   6.292   1.301  1.00  0.00     0.000 C 
BRANCH   5   6
ATOM      6  C   UNL     1      16.098   5.444   0.028  1.00  0.00     0.006 C 
BRANCH   6   7
ATOM      7  C   UNL     1      15.120   6.070  -0.974  1.00  0.00     0.053 C 
BRANCH   7   8
ATOM      8  C   UNL     1      15.836   6.752  -2.100  1.00  0.00     0.041 C 
ATOM      9  O   UNL     1      15.718   7.995  -2.265  1.00  0.00    -0.550 OA
ATOM     10  O   UNL     1      16.605   6.010  -2.988  1.00  0.00    -0.550 OA
ENDBRANCH   7   8
ENDBRANCH   6   7
ENDBRANCH   5   6
ENDBRANCH   4   5
ENDBRANCH   3   4
ENDBRANCH   2   3
ENDBRANCH   1   2
BRANCH   1  11
ATOM     11  C   UNL     1      15.698   7.062   4.864  1.00  0.00    -0.031 C 
ATOM     12  C   UNL     1      16.564   7.732   5.638  1.00  0.00    -0.027 C 
BRANCH  12  13
ATOM     13  C   UNL     1      17.969   7.245   5.847  1.00  0.00     0.054 C 
BRANCH  13  14
ATOM     14  C   UNL     1      18.951   8.367   5.619  1.00  0.00    -0.027 C 
ATOM     15  C   UNL     1      19.899   8.757   6.493  1.00  0.00    -0.031 C 
BRANCH  15  16
ATOM     16  C   UNL     1      20.162   8.102   7.825  1.00  0.00     0.027 C 
BRANCH  16  17
ATOM     17  C   UNL     1      21.174   8.914   8.646  1.00  0.00     0.004 C 
BRANCH  17  18
ATOM     18  C   UNL     1      22.412   8.091   9.038  1.00  0.00     0.000 C 
BRANCH  18  19
ATOM     19  C   UNL     1      22.242   7.386  10.392  1.00  0.00    -0.003 C 
ATOM     20  C   UNL     1      21.718   5.965  10.208  1.00  0.00     0.004 C 
ENDBRANCH  18  19
ENDBRANCH  17  18
ENDBRANCH  16  17
ENDBRANCH  15  16
ENDBRANCH  13  14
ENDBRANCH  12  13
ENDBRANCH   1  11
TORSDOF 14
ENDMDL
MODEL 4
REMARK VINA RESULT:    -4.078      3.047      5.968
REMARK INTER + INTRA:          -9.089
REMARK INTER:                  -7.184
REMARK INTRA:                  -1.905
REMARK UNBOUND:                -1.673
REMARK SMILES CCCCCC=CCC=CCCCCCCCC(=O)[O-]
REMARK SMILES IDX 11 1 12 2 13 3 14 4 15 5 16 6 17 7 18 8 19 9 20 10 10 11
REMARK SMILES IDX 9 12 8 13 7 14 6 15 5 16 4 17 3 18 2 19 1 20
REMARK H PARENT
REMARK Flexibility Score: inf
ROOT
ATOM      1  C   UNL     1      18.485   8.132   4.796  1.00  0.00     0.027 C 
ENDROOT
BRANCH   1   2
ATOM      2  C   UNL     1      17.568   7.319   5.721  1.00  0.00     0.004 C 
BRANCH   2   3
ATOM      3  C   UNL     1      16.082   7.693   5.572  1.00  0.00     0.000 C 
BRANCH   3   4
ATOM      4  C   UNL     1      15.337   6.959   4.441  1.00  0.00     0.000 C 
BRANCH   4   5
ATOM      5  C   UNL     1      14.519   7.905   3.550  1.00  0.00     0.000 C 
BRANCH   5   6
ATOM      6  C   UNL     1      15.107   7.968   2.132  1.00  0.00     0.006 C 
BRANCH   6   7
ATOM      7  C   UNL     1      15.994   6.756   1.817  1.00  0.00     0.053 C 
BRANCH   7   8
ATOM      8  C   UNL     1      15.870   6.331   0.386  1.00  0.00     0.041 C 
ATOM      9  O   UNL     1      15.722   7.193  -0.520  1.00  0.00    -0.550 OA
ATOM     10  O   UNL     1      15.885   4.982   0.057  1.00  0.00    -0.550 OA
ENDBRANCH   7   8
ENDBRANCH   6   7
ENDBRANCH   5   6
ENDBRANCH   4   5
ENDBRANCH   3   4
ENDBRANCH   2   3
ENDBRANCH   1   2
BRANCH   1  11
ATOM     11  C   UNL     1      17.937   9.514   4.566  1.00  0.00    -0.031 C 
ATOM     12  C   UNL     1      17.866  10.024   3.328  1.00  0.00    -0.027 C 
BRANCH  12  13
ATOM     13  C   UNL     1      17.331  11.406   3.079  1.00  0.00     0.054 C 
BRANCH  13  14
ATOM     14  C   UNL     1      15.823  11.394   3.106  1.00  0.00    -0.027 C 
ATOM     15  C   UNL     1      15.033  12.425   2.750  1.00  0.00    -0.031 C 
BRANCH  15  16
ATOM     16  C   UNL     1      15.530  13.746   2.221  1.00  0.00     0.027 C 
BRANCH  16  17
ATOM     17  C   UNL     1      14.476  14.411   1.323  1.00  0.00     0.004 C 
BRANCH  17  18
ATOM     18  C   UNL     1      14.936  14.527  -0.139  1.00  0.00     0.000 C 
BRANCH  18  19
ATOM     19  C   UNL     1      13.761  14.493  -1.128  1.00  0.00    -0.003 C 
ATOM     20  C   UNL     1      12.747  13.422  -0.738  1.00  0.00     0.004 C 
ENDBRANCH  18  19
ENDBRANCH  17  18
ENDBRANCH  16  17
ENDBRANCH  15  16
ENDBRANCH  13  14
ENDBRANCH  12  13
ENDBRANCH   1  11
TORSDOF 14
ENDMDL
MODEL 5
REMARK VINA RESULT:    -3.899      2.899      5.706
REMARK INTER + INTRA:          -8.764
REMARK INTER:                  -7.872
REMARK INTRA:                  -0.891
REMARK UNBOUND:                -1.673
REMARK SMILES CCCCCC=CCC=CCCCCCCCC(=O)[O-]
REMARK SMILES IDX 11 1 12 2 13 3 14 4 15 5 16 6 17 7 18 8 19 9 20 10 10 11
REMARK SMILES IDX 9 12 8 13 7 14 6 15 5 16 4 17 3 18 2 19 1 20
REMARK H PARENT
REMARK Flexibility Score: inf
ROOT
ATOM      1  C   UNL     1      18.412   8.092   5.599  1.00  0.00     0.027 C 
ENDROOT
BRANCH   1   2
ATOM      2  C   UNL     1      17.720   6.800   5.143  1.00  0.00     0.004 C 
BRANCH   2   3
ATOM      3  C   UNL     1      17.872   6.539   3.634  1.00  0.00     0.000 C 
BRANCH   3   4
ATOM      4  C   UNL     1      16.584   6.718   2.809  1.00  0.00     0.000 C 
BRANCH   4   5
ATOM      5  C   UNL     1      16.697   6.147   1.388  1.00  0.00     0.000 C 
BRANCH   5   6
ATOM      6  C   UNL     1      15.694   6.826   0.443  1.00  0.00     0.006 C 
BRANCH   6   7
ATOM      7  C   UNL     1      15.376   5.962  -0.784  1.00  0.00     0.053 C 
BRANCH   7   8
ATOM      8  C   UNL     1      15.787   6.631  -2.060  1.00  0.00     0.041 C 
ATOM      9  O   UNL     1      15.431   7.816  -2.297  1.00  0.00    -0.550 OA
ATOM     10  O   UNL     1      16.534   5.936  -3.002  1.00  0.00    -0.550 OA
ENDBRANCH   7   8
ENDBRANCH   6   7
ENDBRANCH   5   6
ENDBRANCH   4   5
ENDBRANCH   3   4
ENDBRANCH   2   3
ENDBRANCH   1   2
BRANCH   1  11
ATOM     11  C   UNL     1      18.474   9.098   4.483  1.00  0.00    -0.031 C 
ATOM     12  C   UNL     1      17.448   9.931   4.255  1.00  0.00    -0.027 C 
BRANCH  12  13
ATOM     13  C   UNL     1      17.486  10.936   3.140  1.00  0.00     0.054 C 
BRANCH  13  14
ATOM     14  C   UNL     1      16.160  11.648   3.032  1.00  0.00    -0.027 C 
ATOM     15  C   UNL     1      14.962  11.042   2.928  1.00  0.00    -0.031 C 
BRANCH  15  16
ATOM     16  C   UNL     1      14.748   9.550   2.949  1.00  0.00     0.027 C 
BRANCH  16  17
ATOM     17  C   UNL     1      14.320   9.075   4.345  1.00  0.00     0.004 C 
BRANCH  17  18
ATOM     18  C   UNL     1      13.655   7.689   4.318  1.00  0.00     0.000 C 
BRANCH  18  19
ATOM     19  C   UNL     1      14.185   6.763   5.422  1.00  0.00    -0.003 C 
ATOM     20  C   UNL     1      13.086   5.840   5.939  1.00  0.00     0.004 C 
ENDBRANCH  18  19
ENDBRANCH  17  18
ENDBRANCH  16  17
ENDBRANCH  15  16
ENDBRANCH  13  14
ENDBRANCH  12  13
ENDBRANCH   1  11
TORSDOF 14
ENDMDL
MODEL 6
REMARK VINA RESULT:    -3.855      3.726      7.671
REMARK INTER + INTRA:          -8.683
REMARK INTER:                  -6.975
REMARK INTRA:                  -1.709
REMARK UNBOUND:                -1.673
REMARK SMILES CCCCCC=CCC=CCCCCCCCC(=O)[O-]
REMARK SMILES IDX 11 1 12 2 13 3 14 4 15 5 16 6 17 7 18 8 19 9 20 10 10 11
REMARK SMILES IDX 9 12 8 13 7 14 6 15 5 16 4 17 3 18 2 19 1 20
REMARK H PARENT
REMARK Flexibility Score: inf
ROOT
ATOM      1  C   UNL     1      16.045  11.144   3.221  1.00  0.00     0.027 C 
ENDROOT
BRANCH   1   2
ATOM      2  C   UNL     1      14.700  10.444   2.979  1.00  0.00     0.004 C 
BRANCH   2   3
ATOM      3  C   UNL     1      14.588   9.092   3.705  1.00  0.00     0.000 C 
BRANCH   3   4
ATOM      4  C   UNL     1      14.597   7.856   2.785  1.00  0.00     0.000 C 
BRANCH   4   5
ATOM      5  C   UNL     1      15.785   6.920   3.050  1.00  0.00     0.000 C 
BRANCH   5   6
ATOM      6  C   UNL     1      16.536   6.607   1.747  1.00  0.00     0.006 C 
BRANCH   6   7
ATOM      7  C   UNL     1      15.777   7.096   0.506  1.00  0.00     0.053 C 
BRANCH   7   8
ATOM      8  C   UNL     1      15.589   6.003  -0.500  1.00  0.00     0.041 C 
ATOM      9  O   UNL     1      15.582   4.798  -0.133  1.00  0.00    -0.550 OA
ATOM     10  O   UNL     1      15.456   6.313  -1.848  1.00  0.00    -0.550 OA
ENDBRANCH   7   8
ENDBRANCH   6   7
ENDBRANCH   5   6
ENDBRANCH   4   5
ENDBRANCH   3   4
ENDBRANCH   2   3
ENDBRANCH   1   2
BRANCH   1  11
ATOM     11  C   UNL     1      17.006  10.239   3.944  1.00  0.00    -0.031 C 
ATOM     12  C   UNL     1      18.101   9.772   3.327  1.00  0.00    -0.027 C 
BRANCH  12  13
ATOM     13  C   UNL     1      19.067   8.860   4.028  1.00  0.00     0.054 C 
BRANCH  13  14
ATOM     14  C   UNL     1      18.391   8.180   5.192  1.00  0.00    -0.027 C 
ATOM     15  C   UNL     1      18.897   8.091   6.437  1.00  0.00    -0.031 C 
BRANCH  15  16
ATOM     16  C   UNL     1      20.204   8.699   6.881  1.00  0.00     0.027 C 
BRANCH  16  17
ATOM     17  C   UNL     1      20.627   8.152   8.252  1.00  0.00     0.004 C 
BRANCH  17  18
ATOM     18  C   UNL     1      21.954   8.753   8.741  1.00  0.00     0.000 C 
BRANCH  18  19
ATOM     19  C   UNL     1      22.573   7.948   9.894  1.00  0.00    -0.003 C 
ATOM     20  C   UNL     1      21.704   6.746  10.252  1.00  0.00     0.004 C 
ENDBRANCH  18  19
ENDBRANCH  17  18
ENDBRANCH  16  17
ENDBRANCH  15  16
ENDBRANCH  13  14
ENDBRANCH  12  13
ENDBRANCH   1  11
TORSDOF 14
ENDMDL
MODEL 7
REMARK VINA RESULT:    -3.600      2.090      4.185
REMARK INTER + INTRA:          -8.219
REMARK INTER:                  -6.620
REMARK INTRA:                  -1.599
REMARK UNBOUND:                -1.673
REMARK SMILES CCCCCC=CCC=CCCCCCCCC(=O)[O-]
REMARK SMILES IDX 11 1 12 2 13 3 14 4 15 5 16 6 17 7 18 8 19 9 20 10 10 11
REMARK SMILES IDX 9 12 8 13 7 14 6 15 5 16 4 17 3 18 2 19 1 20
REMARK H PARENT
REMARK Flexibility Score: inf
ROOT
ATOM      1  C   UNL     1      14.372   8.697   3.655  1.00  0.00     0.027 C 
ENDROOT
BRANCH   1   2
ATOM      2  C   UNL     1      13.759   7.587   4.520  1.00  0.00     0.004 C 
BRANCH   2   3
ATOM      3  C   UNL     1      14.796   6.873   5.405  1.00  0.00     0.000 C 
BRANCH   3   4
ATOM      4  C   UNL     1      16.091   7.667   5.659  1.00  0.00     0.000 C 
BRANCH   4   5
ATOM      5  C   UNL     1      17.331   7.006   5.039  1.00  0.00     0.000 C 
BRANCH   5   6
ATOM      6  C   UNL     1      18.349   8.065   4.588  1.00  0.00     0.006 C 
BRANCH   6   7
ATOM      7  C   UNL     1      17.825   9.494   4.781  1.00  0.00     0.053 C 
BRANCH   7   8
ATOM      8  C   UNL     1      17.859  10.278   3.505  1.00  0.00     0.041 C 
ATOM      9  O   UNL     1      18.848  10.187   2.732  1.00  0.00    -0.550 OA
ATOM     10  O   UNL     1      16.813  11.136   3.187  1.00  0.00    -0.550 OA
ENDBRANCH   7   8
ENDBRANCH   6   7
ENDBRANCH   5   6
ENDBRANCH   4   5
ENDBRANCH   3   4
ENDBRANCH   2   3
ENDBRANCH   1   2
BRANCH   1  11
ATOM     11  C   UNL     1      14.714   8.188   2.281  1.00  0.00    -0.031 C 
ATOM     12  C   UNL     1      15.676   7.268   2.112  1.00  0.00    -0.027 C 
BRANCH  12  13
ATOM     13  C   UNL     1      16.038   6.755   0.748  1.00  0.00     0.054 C 
BRANCH  13  14
ATOM     14  C   UNL     1      15.328   5.452   0.475  1.00  0.00    -0.027 C 
ATOM     15  C   UNL     1      15.706   4.541  -0.442  1.00  0.00    -0.031 C 
BRANCH  15  16
ATOM     16  C   UNL     1      16.929   4.655  -1.315  1.00  0.00     0.027 C 
BRANCH  16  17
ATOM     17  C   UNL     1      16.546   5.044  -2.750  1.00  0.00     0.004 C 
BRANCH  17  18
ATOM     18  C   UNL     1      16.902   6.502  -3.081  1.00  0.00     0.000 C 
BRANCH  18  19
ATOM     19  C   UNL     1      15.929   7.503  -2.440  1.00  0.00    -0.003 C 
ATOM     20  C   UNL     1      14.482   7.057  -2.627  1.00  0.00     0.004 C 
ENDBRANCH  18  19
ENDBRANCH  17  18
ENDBRANCH  16  17
ENDBRANCH  15  16
ENDBRANCH  13  14
ENDBRANCH  12  13
ENDBRANCH   1  11
TORSDOF 14
ENDMDL
MODEL 8
REMARK VINA RESULT:    -3.547      4.885      6.476
REMARK INTER + INTRA:          -8.123
REMARK INTER:                  -7.635
REMARK INTRA:                  -0.489
REMARK UNBOUND:                -1.673
REMARK SMILES CCCCCC=CCC=CCCCCCCCC(=O)[O-]
REMARK SMILES IDX 11 1 12 2 13 3 14 4 15 5 16 6 17 7 18 8 19 9 20 10 10 11
REMARK SMILES IDX 9 12 8 13 7 14 6 15 5 16 4 17 3 18 2 19 1 20
REMARK H PARENT
REMARK Flexibility Score: inf
ROOT
ATOM      1  C   UNL     1      17.892   9.502   4.552  1.00  0.00     0.027 C 
ENDROOT
BRANCH   1   2
ATOM      2  C   UNL     1      18.933   8.390   4.740  1.00  0.00     0.004 C 
BRANCH   2   3
ATOM      3  C   UNL     1      19.146   8.012   6.217  1.00  0.00     0.000 C 
BRANCH   3   4
ATOM      4  C   UNL     1      20.201   8.854   6.959  1.00  0.00     0.000 C 
BRANCH   4   5
ATOM      5  C   UNL     1      20.530   8.307   8.356  1.00  0.00     0.000 C 
BRANCH   5   6
ATOM      6  C   UNL     1      21.903   8.806   8.830  1.00  0.00     0.006 C 
BRANCH   6   7
ATOM      7  C   UNL     1      22.830   7.655   9.241  1.00  0.00     0.053 C 
BRANCH   7   8
ATOM      8  C   UNL     1      22.198   6.770  10.271  1.00  0.00     0.041 C 
ATOM      9  O   UNL     1      21.831   7.247  11.377  1.00  0.00    -0.550 OA
ATOM     10  O   UNL     1      22.046   5.411  10.023  1.00  0.00    -0.550 OA
ENDBRANCH   7   8
ENDBRANCH   6   7
ENDBRANCH   5   6
ENDBRANCH   4   5
ENDBRANCH   3   4
ENDBRANCH   2   3
ENDBRANCH   1   2
BRANCH   1  11
ATOM     11  C   UNL     1      16.606   8.953   3.995  1.00  0.00    -0.031 C 
ATOM     12  C   UNL     1      15.956   7.964   4.624  1.00  0.00    -0.027 C 
BRANCH  12  13
ATOM     13  C   UNL     1      14.676   7.396   4.080  1.00  0.00     0.054 C 
BRANCH  13  14
ATOM     14  C   UNL     1      14.456   7.869   2.664  1.00  0.00    -0.027 C 
ATOM     15  C   UNL     1      15.186   7.491   1.598  1.00  0.00    -0.031 C 
BRANCH  15  16
ATOM     16  C   UNL     1      16.317   6.494   1.640  1.00  0.00     0.027 C 
BRANCH  16  17
ATOM     17  C   UNL     1      16.302   5.594   0.395  1.00  0.00     0.004 C 
BRANCH  17  18
ATOM     18  C   UNL     1      15.089   5.861  -0.510  1.00  0.00     0.000 C 
BRANCH  18  19
ATOM     19  C   UNL     1      15.496   6.192  -1.954  1.00  0.00    -0.003 C 
ATOM     20  C   UNL     1      15.932   7.649  -2.081  1.00  0.00     0.004 C 
ENDBRANCH  18  19
ENDBRANCH  17  18
ENDBRANCH  16  17
ENDBRANCH  15  16
ENDBRANCH  13  14
ENDBRANCH  12  13
ENDBRANCH   1  11
TORSDOF 14
ENDMDL
MODEL 9
REMARK VINA RESULT:    -3.343      2.426      4.443
REMARK INTER + INTRA:          -7.753
REMARK INTER:                  -6.605
REMARK INTRA:                  -1.147
REMARK UNBOUND:                -1.673
REMARK SMILES CCCCCC=CCC=CCCCCCCCC(=O)[O-]
REMARK SMILES IDX 11 1 12 2 13 3 14 4 15 5 16 6 17 7 18 8 19 9 20 10 10 11
REMARK SMILES IDX 9 12 8 13 7 14 6 15 5 16 4 17 3 18 2 19 1 20
REMARK H PARENT
REMARK Flexibility Score: inf
ROOT
ATOM      1  C   UNL     1      17.281  11.163   3.150  1.00  0.00     0.027 C 
ENDROOT
BRANCH   1   2
ATOM      2  C   UNL     1      15.843  11.666   2.960  1.00  0.00     0.004 C 
BRANCH   2   3
ATOM      3  C   UNL     1      15.772  13.163   2.606  1.00  0.00     0.000 C 
BRANCH   3   4
ATOM      4  C   UNL     1      14.680  13.540   1.588  1.00  0.00     0.000 C 
BRANCH   4   5
ATOM      5  C   UNL     1      15.113  14.661   0.632  1.00  0.00     0.000 C 
BRANCH   5   6
ATOM      6  C   UNL     1      13.939  15.114  -0.249  1.00  0.00     0.006 C 
BRANCH   6   7
ATOM      7  C   UNL     1      14.119  14.701  -1.716  1.00  0.00     0.053 C 
BRANCH   7   8
ATOM      8  C   UNL     1      12.804  14.508  -2.407  1.00  0.00     0.041 C 
ATOM      9  O   UNL     1      12.722  14.631  -3.657  1.00  0.00    -0.550 OA
ATOM     10  O   UNL     1      11.663  14.225  -1.666  1.00  0.00    -0.550 OA
ENDBRANCH   7   8
ENDBRANCH   6   7
ENDBRANCH   5   6
ENDBRANCH   4   5
ENDBRANCH   3   4
ENDBRANCH   2   3
ENDBRANCH   1   2
BRANCH   1  11
ATOM     11  C   UNL     1      17.342  10.078   4.191  1.00  0.00    -0.031 C 
ATOM     12  C   UNL     1      18.227   9.076   4.082  1.00  0.00    -0.027 C 
BRANCH  12  13
ATOM     13  C   UNL     1      18.298   7.978   5.105  1.00  0.00     0.054 C 
BRANCH  13  14
ATOM     14  C   UNL     1      17.593   6.745   4.597  1.00  0.00    -0.027 C 
ATOM     15  C   UNL     1      16.259   6.560   4.597  1.00  0.00    -0.031 C 
BRANCH  15  16
ATOM     16  C   UNL     1      15.249   7.577   5.063  1.00  0.00     0.027 C 
BRANCH  16  17
ATOM     17  C   UNL     1      14.173   7.814   3.994  1.00  0.00     0.004 C 
BRANCH  17  18
ATOM     18  C   UNL     1      14.770   8.235   2.641  1.00  0.00     0.000 C 
BRANCH  18  19
ATOM     19  C   UNL     1      14.752   7.095   1.612  1.00  0.00    -0.003 C 
ATOM     20  C   UNL     1      16.160   6.788   1.109  1.00  0.00     0.004 C 
ENDBRANCH  18  19
ENDBRANCH  17  18
ENDBRANCH  16  17
ENDBRANCH  15  16
ENDBRANCH  13  14
ENDBRANCH  12  13
ENDBRANCH   1  11
TORSDOF 14
ENDMDL
