MODEL 1
REMARK VINA RESULT:    -4.975      0.000      0.000
REMARK INTER + INTRA:          -6.939
REMARK INTER:                  -6.721
REMARK INTRA:                  -0.218
REMARK UNBOUND:                -0.218
REMARK SMILES [NH3+]CCCC[C@@H]([NH3+])C(=O)[O-]
REMARK SMILES IDX 4 1 3 2 2 3 1 4 5 8 6 9 7 10 8 14 9 15 10 16
REMARK H PARENT 1 5 1 6 1 7 7 11 7 12 7 13
REMARK Flexibility Score: inf
ROOT
ATOM      1  C   UNL     1      81.488 185.209 188.802  1.00  0.00     0.012 C 
ENDROOT
BRANCH   1   2
ATOM      2  C   UNL     1      82.207 186.561 188.951  1.00  0.00     0.061 C 
BRANCH   2   3
ATOM      3  C   UNL     1      83.234 186.622 190.097  1.00  0.00     0.258 C 
BRANCH   3   4
ATOM      4  N   UNL     1      82.745 187.392 191.243  1.00  0.00    -0.358 N 
ATOM      5  H   UNL     1      82.961 188.403 191.090  1.00  0.00     0.344 HD
ATOM      6  H   UNL     1      83.224 187.082 192.118  1.00  0.00     0.344 HD
ATOM      7  H   UNL     1      81.710 187.281 191.343  1.00  0.00     0.344 HD
ENDBRANCH   3   4
ENDBRANCH   2   3
ENDBRANCH   1   2
BRANCH   1   8
ATOM      8  C   UNL     1      79.955 185.341 188.830  1.00  0.00     0.072 C 
BRANCH   8   9
ATOM      9  C   UNL     1      79.474 186.319 189.925  1.00  0.00     0.227 C 
BRANCH   9  10
ATOM     10  N   UNL     1      78.515 187.279 189.370  1.00  0.00    -0.350 N 
ATOM     11  H   UNL     1      78.088 186.890 188.498  1.00  0.00     0.345 HD
ATOM     12  H   UNL     1      79.006 188.170 189.124  1.00  0.00     0.345 HD
ATOM     13  H   UNL     1      77.755 187.484 190.060  1.00  0.00     0.345 HD
ENDBRANCH   9  10
BRANCH   9  14
ATOM     14  C   UNL     1      78.849 185.573 191.077  1.00  0.00     0.099 C 
ATOM     15  O   UNL     1      77.783 185.993 191.599  1.00  0.00    -0.544 OA
ATOM     16  O   UNL     1      79.446 184.420 191.572  1.00  0.00    -0.544 OA
ENDBRANCH   9  14
ENDBRANCH   8   9
ENDBRANCH   1   8
TORSDOF 7
ENDMDL
MODEL 2
REMARK VINA RESULT:    -4.794     13.667     14.315
REMARK INTER + INTRA:          -6.694
REMARK INTER:                  -6.551
REMARK INTRA:                  -0.143
REMARK UNBOUND:                -0.218
REMARK SMILES [NH3+]CCCC[C@@H]([NH3+])C(=O)[O-]
REMARK SMILES IDX 4 1 3 2 2 3 1 4 5 8 6 9 7 10 8 14 9 15 10 16
REMARK H PARENT 1 5 1 6 1 7 7 11 7 12 7 13
REMARK Flexibility Score: inf
ROOT
ATOM      1  C   UNL     1      86.155 175.508 196.320  1.00  0.00     0.012 C 
ENDROOT
BRANCH   1   2
ATOM      2  C   UNL     1      86.002 177.038 196.355  1.00  0.00     0.061 C 
BRANCH   2   3
ATOM      3  C   UNL     1      87.312 177.821 196.147  1.00  0.00     0.258 C 
BRANCH   3   4
ATOM      4  N   UNL     1      87.635 178.680 197.289  1.00  0.00    -0.358 N 
ATOM      5  H   UNL     1      88.211 178.137 197.970  1.00  0.00     0.344 HD
ATOM      6  H   UNL     1      86.759 178.987 197.770  1.00  0.00     0.344 HD
ATOM      7  H   UNL     1      88.183 179.514 196.976  1.00  0.00     0.344 HD
ENDBRANCH   3   4
ENDBRANCH   2   3
ENDBRANCH   1   2
BRANCH   1   8
ATOM      8  C   UNL     1      85.221 174.791 197.312  1.00  0.00     0.072 C 
BRANCH   8   9
ATOM      9  C   UNL     1      85.257 175.435 198.715  1.00  0.00     0.227 C 
BRANCH   9  10
ATOM     10  N   UNL     1      83.926 175.925 199.089  1.00  0.00    -0.350 N 
ATOM     11  H   UNL     1      83.504 175.292 199.807  1.00  0.00     0.345 HD
ATOM     12  H   UNL     1      83.300 175.929 198.250  1.00  0.00     0.345 HD
ATOM     13  H   UNL     1      83.984 176.894 199.480  1.00  0.00     0.345 HD
ENDBRANCH   9  10
BRANCH   9  14
ATOM     14  C   UNL     1      85.754 174.454 199.746  1.00  0.00     0.099 C 
ATOM     15  O   UNL     1      86.126 174.860 200.879  1.00  0.00    -0.544 OA
ATOM     16  O   UNL     1      85.807 173.096 199.453  1.00  0.00    -0.544 OA
ENDBRANCH   9  14
ENDBRANCH   8   9
ENDBRANCH   1   8
TORSDOF 7
ENDMDL
MODEL 3
REMARK VINA RESULT:    -4.686      1.188      1.538
REMARK INTER + INTRA:          -6.548
REMARK INTER:                  -6.379
REMARK INTRA:                  -0.169
REMARK UNBOUND:                -0.218
REMARK SMILES [NH3+]CCCC[C@@H]([NH3+])C(=O)[O-]
REMARK SMILES IDX 4 1 3 2 2 3 1 4 5 8 6 9 7 10 8 14 9 15 10 16
REMARK H PARENT 1 5 1 6 1 7 7 11 7 12 7 13
REMARK Flexibility Score: inf
ROOT
ATOM      1  C   UNL     1      80.830 185.600 189.035  1.00  0.00     0.012 C 
ENDROOT
BRANCH   1   2
ATOM      2  C   UNL     1      82.137 186.321 188.663  1.00  0.00     0.061 C 
BRANCH   2   3
ATOM      3  C   UNL     1      83.314 186.056 189.622  1.00  0.00     0.258 C 
BRANCH   3   4
ATOM      4  N   UNL     1      83.706 187.255 190.366  1.00  0.00    -0.358 N 
ATOM      5  H   UNL     1      84.723 187.435 190.205  1.00  0.00     0.344 HD
ATOM      6  H   UNL     1      83.555 187.112 191.389  1.00  0.00     0.344 HD
ATOM      7  H   UNL     1      83.162 188.085 190.035  1.00  0.00     0.344 HD
ENDBRANCH   3   4
ENDBRANCH   2   3
ENDBRANCH   1   2
BRANCH   1   8
ATOM      8  C   UNL     1      80.334 185.956 190.449  1.00  0.00     0.072 C 
BRANCH   8   9
ATOM      9  C   UNL     1      78.853 186.396 190.453  1.00  0.00     0.227 C 
BRANCH   9  10
ATOM     10  N   UNL     1      78.586 187.309 189.338  1.00  0.00    -0.350 N 
ATOM     11  H   UNL     1      78.043 188.136 189.677  1.00  0.00     0.345 HD
ATOM     12  H   UNL     1      78.016 186.821 188.608  1.00  0.00     0.345 HD
ATOM     13  H   UNL     1      79.482 187.641 188.909  1.00  0.00     0.345 HD
ENDBRANCH   9  10
BRANCH   9  14
ATOM     14  C   UNL     1      77.935 185.203 190.374  1.00  0.00     0.099 C 
ATOM     15  O   UNL     1      78.157 184.185 191.082  1.00  0.00    -0.544 OA
ATOM     16  O   UNL     1      76.841 185.216 189.517  1.00  0.00    -0.544 OA
ENDBRANCH   9  14
ENDBRANCH   8   9
ENDBRANCH   1   8
TORSDOF 7
ENDMDL
MODEL 4
REMARK VINA RESULT:    -4.667      1.987      2.192
REMARK INTER + INTRA:          -6.522
REMARK INTER:                  -6.386
REMARK INTRA:                  -0.136
REMARK UNBOUND:                -0.218
REMARK SMILES [NH3+]CCCC[C@@H]([NH3+])C(=O)[O-]
REMARK SMILES IDX 4 1 3 2 2 3 1 4 5 8 6 9 7 10 8 14 9 15 10 16
REMARK H PARENT 1 5 1 6 1 7 7 11 7 12 7 13
REMARK Flexibility Score: inf
ROOT
ATOM      1  C   UNL     1      80.659 185.861 190.627  1.00  0.00     0.012 C 
ENDROOT
BRANCH   1   2
ATOM      2  C   UNL     1      81.825 185.829 189.623  1.00  0.00     0.061 C 
BRANCH   2   3
ATOM      3  C   UNL     1      83.051 186.667 190.032  1.00  0.00     0.258 C 
BRANCH   3   4
ATOM      4  N   UNL     1      82.828 187.410 191.275  1.00  0.00    -0.358 N 
ATOM      5  H   UNL     1      83.413 186.988 192.031  1.00  0.00     0.344 HD
ATOM      6  H   UNL     1      81.825 187.346 191.560  1.00  0.00     0.344 HD
ATOM      7  H   UNL     1      83.104 188.412 191.156  1.00  0.00     0.344 HD
ENDBRANCH   3   4
ENDBRANCH   2   3
ENDBRANCH   1   2
BRANCH   1   8
ATOM      8  C   UNL     1      79.943 184.504 190.754  1.00  0.00     0.072 C 
BRANCH   8   9
ATOM      9  C   UNL     1      78.717 184.577 191.691  1.00  0.00     0.227 C 
BRANCH   9  10
ATOM     10  N   UNL     1      79.144 184.784 193.078  1.00  0.00    -0.350 N 
ATOM     11  H   UNL     1      79.906 184.109 193.319  1.00  0.00     0.345 HD
ATOM     12  H   UNL     1      78.340 184.614 193.726  1.00  0.00     0.345 HD
ATOM     13  H   UNL     1      79.496 185.760 193.216  1.00  0.00     0.345 HD
ENDBRANCH   9  10
BRANCH   9  14
ATOM     14  C   UNL     1      77.781 185.682 191.269  1.00  0.00     0.099 C 
ATOM     15  O   UNL     1      77.535 186.636 192.053  1.00  0.00    -0.544 OA
ATOM     16  O   UNL     1      77.183 185.653 190.015  1.00  0.00    -0.544 OA
ENDBRANCH   9  14
ENDBRANCH   8   9
ENDBRANCH   1   8
TORSDOF 7
ENDMDL
MODEL 5
REMARK VINA RESULT:    -4.665      1.718      1.779
REMARK INTER + INTRA:          -6.519
REMARK INTER:                  -6.016
REMARK INTRA:                  -0.503
REMARK UNBOUND:                -0.218
REMARK SMILES [NH3+]CCCC[C@@H]([NH3+])C(=O)[O-]
REMARK SMILES IDX 4 1 3 2 2 3 1 4 5 8 6 9 7 10 8 14 9 15 10 16
REMARK H PARENT 1 5 1 6 1 7 7 11 7 12 7 13
REMARK Flexibility Score: inf
ROOT
ATOM      1  C   UNL     1      81.790 185.082 188.562  1.00  0.00     0.012 C 
ENDROOT
BRANCH   1   2
ATOM      2  C   UNL     1      82.343 186.489 188.847  1.00  0.00     0.061 C 
BRANCH   2   3
ATOM      3  C   UNL     1      83.194 186.600 190.126  1.00  0.00     0.258 C 
BRANCH   3   4
ATOM      4  N   UNL     1      82.500 187.319 191.196  1.00  0.00    -0.358 N 
ATOM      5  H   UNL     1      83.209 187.787 191.805  1.00  0.00     0.344 HD
ATOM      6  H   UNL     1      81.952 186.651 191.784  1.00  0.00     0.344 HD
ATOM      7  H   UNL     1      81.867 188.049 190.796  1.00  0.00     0.344 HD
ENDBRANCH   3   4
ENDBRANCH   2   3
ENDBRANCH   1   2
BRANCH   1   8
ATOM      8  C   UNL     1      80.253 185.019 188.634  1.00  0.00     0.072 C 
BRANCH   8   9
ATOM      9  C   UNL     1      79.759 184.256 189.882  1.00  0.00     0.227 C 
BRANCH   9  10
ATOM     10  N   UNL     1      80.754 183.266 190.305  1.00  0.00    -0.350 N 
ATOM     11  H   UNL     1      80.614 182.374 189.776  1.00  0.00     0.345 HD
ATOM     12  H   UNL     1      80.641 183.061 191.325  1.00  0.00     0.345 HD
ATOM     13  H   UNL     1      81.724 183.618 190.131  1.00  0.00     0.345 HD
ENDBRANCH   9  10
BRANCH   9  14
ATOM     14  C   UNL     1      79.465 185.207 191.014  1.00  0.00     0.099 C 
ATOM     15  O   UNL     1      79.456 186.450 190.811  1.00  0.00    -0.544 OA
ATOM     16  O   UNL     1      79.205 184.720 192.290  1.00  0.00    -0.544 OA
ENDBRANCH   9  14
ENDBRANCH   8   9
ENDBRANCH   1   8
TORSDOF 7
ENDMDL
MODEL 6
REMARK VINA RESULT:    -4.496     13.818     14.568
REMARK INTER + INTRA:          -6.292
REMARK INTER:                  -6.173
REMARK INTRA:                  -0.119
REMARK UNBOUND:                -0.218
REMARK SMILES [NH3+]CCCC[C@@H]([NH3+])C(=O)[O-]
REMARK SMILES IDX 4 1 3 2 2 3 1 4 5 8 6 9 7 10 8 14 9 15 10 16
REMARK H PARENT 1 5 1 6 1 7 7 11 7 12 7 13
REMARK Flexibility Score: inf
ROOT
ATOM      1  C   UNL     1      85.820 175.817 197.212  1.00  0.00     0.012 C 
ENDROOT
BRANCH   1   2
ATOM      2  C   UNL     1      85.855 177.139 196.426  1.00  0.00     0.061 C 
BRANCH   2   3
ATOM      3  C   UNL     1      87.266 177.713 196.194  1.00  0.00     0.258 C 
BRANCH   3   4
ATOM      4  N   UNL     1      87.684 178.614 197.270  1.00  0.00    -0.358 N 
ATOM      5  H   UNL     1      88.570 178.251 197.691  1.00  0.00     0.344 HD
ATOM      6  H   UNL     1      86.955 178.648 198.018  1.00  0.00     0.344 HD
ATOM      7  H   UNL     1      87.860 179.575 196.896  1.00  0.00     0.344 HD
ENDBRANCH   3   4
ENDBRANCH   2   3
ENDBRANCH   1   2
BRANCH   1   8
ATOM      8  C   UNL     1      85.164 175.964 198.597  1.00  0.00     0.072 C 
BRANCH   8   9
ATOM      9  C   UNL     1      85.518 174.790 199.537  1.00  0.00     0.227 C 
BRANCH   9  10
ATOM     10  N   UNL     1      86.240 175.277 200.717  1.00  0.00    -0.350 N 
ATOM     11  H   UNL     1      85.798 176.160 201.063  1.00  0.00     0.345 HD
ATOM     12  H   UNL     1      87.234 175.487 200.464  1.00  0.00     0.345 HD
ATOM     13  H   UNL     1      86.223 174.563 201.482  1.00  0.00     0.345 HD
ENDBRANCH   9  10
BRANCH   9  14
ATOM     14  C   UNL     1      84.277 174.046 199.962  1.00  0.00     0.099 C 
ATOM     15  O   UNL     1      83.570 173.453 199.105  1.00  0.00    -0.544 OA
ATOM     16  O   UNL     1      83.905 174.013 201.301  1.00  0.00    -0.544 OA
ENDBRANCH   9  14
ENDBRANCH   8   9
ENDBRANCH   1   8
TORSDOF 7
ENDMDL
MODEL 7
REMARK VINA RESULT:    -4.448      2.688      4.619
REMARK INTER + INTRA:          -6.226
REMARK INTER:                  -6.085
REMARK INTRA:                  -0.141
REMARK UNBOUND:                -0.218
REMARK SMILES [NH3+]CCCC[C@@H]([NH3+])C(=O)[O-]
REMARK SMILES IDX 4 1 3 2 2 3 1 4 5 8 6 9 7 10 8 14 9 15 10 16
REMARK H PARENT 1 5 1 6 1 7 7 11 7 12 7 13
REMARK Flexibility Score: inf
ROOT
ATOM      1  C   UNL     1      80.829 185.964 190.531  1.00  0.00     0.012 C 
ENDROOT
BRANCH   1   2
ATOM      2  C   UNL     1      79.395 185.425 190.388  1.00  0.00     0.061 C 
BRANCH   2   3
ATOM      3  C   UNL     1      78.649 185.903 189.128  1.00  0.00     0.258 C 
BRANCH   3   4
ATOM      4  N   UNL     1      78.097 187.250 189.284  1.00  0.00    -0.358 N 
ATOM      5  H   UNL     1      78.188 187.761 188.377  1.00  0.00     0.344 HD
ATOM      6  H   UNL     1      78.629 187.777 190.013  1.00  0.00     0.344 HD
ATOM      7  H   UNL     1      77.085 187.203 189.543  1.00  0.00     0.344 HD
ENDBRANCH   3   4
ENDBRANCH   2   3
ENDBRANCH   1   2
BRANCH   1   8
ATOM      8  C   UNL     1      81.589 186.002 189.193  1.00  0.00     0.072 C 
BRANCH   8   9
ATOM      9  C   UNL     1      83.057 186.446 189.369  1.00  0.00     0.227 C 
BRANCH   9  10
ATOM     10  N   UNL     1      83.206 187.257 190.581  1.00  0.00    -0.350 N 
ATOM     11  H   UNL     1      82.971 186.683 191.423  1.00  0.00     0.345 HD
ATOM     12  H   UNL     1      82.549 188.071 190.548  1.00  0.00     0.345 HD
ATOM     13  H   UNL     1      84.187 187.610 190.672  1.00  0.00     0.345 HD
ENDBRANCH   9  10
BRANCH   9  14
ATOM     14  C   UNL     1      83.978 185.254 189.429  1.00  0.00     0.099 C 
ATOM     15  O   UNL     1      85.187 185.404 189.746  1.00  0.00    -0.544 OA
ATOM     16  O   UNL     1      83.499 183.983 189.134  1.00  0.00    -0.544 OA
ENDBRANCH   9  14
ENDBRANCH   8   9
ENDBRANCH   1   8
TORSDOF 7
ENDMDL
MODEL 8
REMARK VINA RESULT:    -4.377     13.788     14.459
REMARK INTER + INTRA:          -6.130
REMARK INTER:                  -6.027
REMARK INTRA:                  -0.104
REMARK UNBOUND:                -0.218
REMARK SMILES [NH3+]CCCC[C@@H]([NH3+])C(=O)[O-]
REMARK SMILES IDX 4 1 3 2 2 3 1 4 5 8 6 9 7 10 8 14 9 15 10 16
REMARK H PARENT 1 5 1 6 1 7 7 11 7 12 7 13
REMARK Flexibility Score: inf
ROOT
ATOM      1  C   UNL     1      85.811 176.383 196.233  1.00  0.00     0.012 C 
ENDROOT
BRANCH   1   2
ATOM      2  C   UNL     1      87.264 176.627 195.789  1.00  0.00     0.061 C 
BRANCH   2   3
ATOM      3  C   UNL     1      87.668 175.911 194.486  1.00  0.00     0.258 C 
BRANCH   3   4
ATOM      4  N   UNL     1      88.424 174.682 194.738  1.00  0.00    -0.358 N 
ATOM      5  H   UNL     1      88.191 173.983 193.997  1.00  0.00     0.344 HD
ATOM      6  H   UNL     1      88.160 174.278 195.665  1.00  0.00     0.344 HD
ATOM      7  H   UNL     1      89.452 174.872 194.709  1.00  0.00     0.344 HD
ENDBRANCH   3   4
ENDBRANCH   2   3
ENDBRANCH   1   2
BRANCH   1   8
ATOM      8  C   UNL     1      85.683 175.235 197.250  1.00  0.00     0.072 C 
BRANCH   8   9
ATOM      9  C   UNL     1      85.491 175.753 198.693  1.00  0.00     0.227 C 
BRANCH   9  10
ATOM     10  N   UNL     1      84.179 176.391 198.838  1.00  0.00    -0.350 N 
ATOM     11  H   UNL     1      83.433 175.757 198.470  1.00  0.00     0.345 HD
ATOM     12  H   UNL     1      84.153 177.280 198.286  1.00  0.00     0.345 HD
ATOM     13  H   UNL     1      83.980 176.605 199.843  1.00  0.00     0.345 HD
ENDBRANCH   9  10
BRANCH   9  14
ATOM     14  C   UNL     1      85.632 174.632 199.692  1.00  0.00     0.099 C 
ATOM     15  O   UNL     1      85.186 173.485 199.423  1.00  0.00    -0.544 OA
ATOM     16  O   UNL     1      86.252 174.858 200.915  1.00  0.00    -0.544 OA
ENDBRANCH   9  14
ENDBRANCH   8   9
ENDBRANCH   1   8
TORSDOF 7
ENDMDL
MODEL 9
REMARK VINA RESULT:    -4.109      4.050      5.013
REMARK INTER + INTRA:          -5.769
REMARK INTER:                  -5.323
REMARK INTRA:                  -0.446
REMARK UNBOUND:                -0.218
REMARK SMILES [NH3+]CCCC[C@@H]([NH3+])C(=O)[O-]
REMARK SMILES IDX 4 1 3 2 2 3 1 4 5 8 6 9 7 10 8 14 9 15 10 16
REMARK H PARENT 1 5 1 6 1 7 7 11 7 12 7 13
REMARK Flexibility Score: inf
ROOT
ATOM      1  C   UNL     1      81.450 184.838 188.578  1.00  0.00     0.012 C 
ENDROOT
BRANCH   1   2
ATOM      2  C   UNL     1      82.241 186.156 188.652  1.00  0.00     0.061 C 
BRANCH   2   3
ATOM      3  C   UNL     1      82.591 186.618 190.079  1.00  0.00     0.258 C 
BRANCH   3   4
ATOM      4  N   UNL     1      83.979 187.071 190.194  1.00  0.00    -0.358 N 
ATOM      5  H   UNL     1      84.591 186.245 190.382  1.00  0.00     0.344 HD
ATOM      6  H   UNL     1      84.077 187.740 190.990  1.00  0.00     0.344 HD
ATOM      7  H   UNL     1      84.290 187.524 189.304  1.00  0.00     0.344 HD
ENDBRANCH   3   4
ENDBRANCH   2   3
ENDBRANCH   1   2
BRANCH   1   8
ATOM      8  C   UNL     1      82.322 183.640 188.161  1.00  0.00     0.072 C 
BRANCH   8   9
ATOM      9  C   UNL     1      83.227 183.149 189.313  1.00  0.00     0.227 C 
BRANCH   9  10
ATOM     10  N   UNL     1      82.926 181.753 189.642  1.00  0.00    -0.350 N 
ATOM     11  H   UNL     1      83.753 181.151 189.426  1.00  0.00     0.345 HD
ATOM     12  H   UNL     1      82.119 181.417 189.064  1.00  0.00     0.345 HD
ATOM     13  H   UNL     1      82.686 181.655 190.656  1.00  0.00     0.345 HD
ENDBRANCH   9  10
BRANCH   9  14
ATOM     14  C   UNL     1      84.684 183.291 188.952  1.00  0.00     0.099 C 
ATOM     15  O   UNL     1      85.278 182.362 188.344  1.00  0.00    -0.544 OA
ATOM     16  O   UNL     1      85.381 184.445 189.290  1.00  0.00    -0.544 OA
ENDBRANCH   9  14
ENDBRANCH   8   9
ENDBRANCH   1   8
TORSDOF 7
ENDMDL
