MODEL 1
REMARK VINA RESULT:    -4.029      0.000      0.000
REMARK INTER + INTRA:         -10.111
REMARK INTER:                  -7.798
REMARK INTRA:                  -2.313
REMARK UNBOUND:                -2.313
REMARK SMILES CCCCCCCCCCCCCCCCCC(=O)[O-]
REMARK SMILES IDX 10 1 11 2 12 3 13 4 14 5 15 6 16 7 17 8 18 9 19 10 20 11
REMARK SMILES IDX 9 12 8 13 7 14 6 15 5 16 4 17 3 18 2 19 1 20
REMARK H PARENT
REMARK Flexibility Score: inf
ROOT
ATOM      1  C   UNL     1       0.070  -6.964  -6.804  1.00  0.00     0.000 C 
ENDROOT
BRANCH   1   2
ATOM      2  C   UNL     1      -0.702  -7.521  -8.012  1.00  0.00     0.000 C 
BRANCH   2   3
ATOM      3  C   UNL     1      -1.696  -6.505  -8.607  1.00  0.00     0.000 C 
BRANCH   3   4
ATOM      4  C   UNL     1      -3.131  -7.032  -8.786  1.00  0.00     0.000 C 
BRANCH   4   5
ATOM      5  C   UNL     1      -4.195  -5.931  -8.657  1.00  0.00     0.000 C 
BRANCH   5   6
ATOM      6  C   UNL     1      -3.588  -4.645  -8.082  1.00  0.00     0.000 C 
BRANCH   6   7
ATOM      7  C   UNL     1      -4.445  -4.101  -6.929  1.00  0.00     0.006 C 
BRANCH   7   8
ATOM      8  C   UNL     1      -5.736  -4.909  -6.733  1.00  0.00     0.053 C 
BRANCH   8   9
ATOM      9  C   UNL     1      -6.612  -4.309  -5.677  1.00  0.00     0.041 C 
ATOM     10  O   UNL     1      -6.479  -3.099  -5.357  1.00  0.00    -0.550 OA
ATOM     11  O   UNL     1      -7.598  -5.076  -5.072  1.00  0.00    -0.550 OA
ENDBRANCH   8   9
ENDBRANCH   7   8
ENDBRANCH   6   7
ENDBRANCH   5   6
ENDBRANCH   4   5
ENDBRANCH   3   4
ENDBRANCH   2   3
ENDBRANCH   1   2
BRANCH   1  12
ATOM     12  C   UNL     1      -0.278  -5.498  -6.504  1.00  0.00     0.000 C 
BRANCH  12  13
ATOM     13  C   UNL     1       0.965  -4.597  -6.445  1.00  0.00    -0.000 C 
BRANCH  13  14
ATOM     14  C   UNL     1       2.120  -5.201  -7.254  1.00  0.00    -0.000 C 
BRANCH  14  15
ATOM     15  C   UNL     1       2.014  -4.816  -8.737  1.00  0.00    -0.000 C 
BRANCH  15  16
ATOM     16  C   UNL     1       1.307  -3.467  -8.958  1.00  0.00    -0.000 C 
BRANCH  16  17
ATOM     17  C   UNL     1       0.142  -3.498  -9.964  1.00  0.00    -0.000 C 
BRANCH  17  18
ATOM     18  C   UNL     1      -1.092  -2.724  -9.476  1.00  0.00    -0.000 C 
BRANCH  18  19
ATOM     19  C   UNL     1      -0.752  -1.865  -8.252  1.00  0.00    -0.003 C 
ATOM     20  C   UNL     1      -1.315  -0.454  -8.395  1.00  0.00     0.004 C 
ENDBRANCH  18  19
ENDBRANCH  17  18
ENDBRANCH  16  17
ENDBRANCH  15  16
ENDBRANCH  14  15
ENDBRANCH  13  14
ENDBRANCH  12  13
ENDBRANCH   1  12
TORSDOF 16
ENDMDL
MODEL 2
REMARK VINA RESULT:    -4.025      1.628      2.303
REMARK INTER + INTRA:         -10.103
REMARK INTER:                  -7.592
REMARK INTRA:                  -2.511
REMARK UNBOUND:                -2.313
REMARK SMILES CCCCCCCCCCCCCCCCCC(=O)[O-]
REMARK SMILES IDX 10 1 11 2 12 3 13 4 14 5 15 6 16 7 17 8 18 9 19 10 20 11
REMARK SMILES IDX 9 12 8 13 7 14 6 15 5 16 4 17 3 18 2 19 1 20
REMARK H PARENT
REMARK Flexibility Score: inf
ROOT
ATOM      1  C   UNL     1      -2.022  -3.759  -7.016  1.00  0.00     0.000 C 
ENDROOT
BRANCH   1   2
ATOM      2  C   UNL     1      -2.265  -4.776  -8.144  1.00  0.00     0.000 C 
BRANCH   2   3
ATOM      3  C   UNL     1      -3.283  -4.280  -9.188  1.00  0.00     0.000 C 
BRANCH   3   4
ATOM      4  C   UNL     1      -4.746  -4.266  -8.709  1.00  0.00     0.000 C 
BRANCH   4   5
ATOM      5  C   UNL     1      -5.225  -5.635  -8.203  1.00  0.00     0.000 C 
BRANCH   5   6
ATOM      6  C   UNL     1      -6.065  -5.488  -6.929  1.00  0.00     0.000 C 
BRANCH   6   7
ATOM      7  C   UNL     1      -5.692  -4.206  -6.170  1.00  0.00     0.006 C 
BRANCH   7   8
ATOM      8  C   UNL     1      -6.896  -3.587  -5.447  1.00  0.00     0.053 C 
BRANCH   8   9
ATOM      9  C   UNL     1      -7.118  -2.163  -5.856  1.00  0.00     0.041 C 
ATOM     10  O   UNL     1      -7.191  -1.258  -4.985  1.00  0.00    -0.550 OA
ATOM     11  O   UNL     1      -7.208  -1.831  -7.202  1.00  0.00    -0.550 OA
ENDBRANCH   8   9
ENDBRANCH   7   8
ENDBRANCH   6   7
ENDBRANCH   5   6
ENDBRANCH   4   5
ENDBRANCH   3   4
ENDBRANCH   2   3
ENDBRANCH   1   2
BRANCH   1  12
ATOM     12  C   UNL     1      -0.640  -3.919  -6.364  1.00  0.00     0.000 C 
BRANCH  12  13
ATOM     13  C   UNL     1      -0.081  -5.342  -6.508  1.00  0.00    -0.000 C 
BRANCH  13  14
ATOM     14  C   UNL     1       1.445  -5.352  -6.353  1.00  0.00    -0.000 C 
BRANCH  14  15
ATOM     15  C   UNL     1       2.136  -5.005  -7.681  1.00  0.00    -0.000 C 
BRANCH  15  16
ATOM     16  C   UNL     1       1.383  -5.550  -8.908  1.00  0.00    -0.000 C 
BRANCH  16  17
ATOM     17  C   UNL     1       1.000  -4.493  -9.959  1.00  0.00    -0.000 C 
BRANCH  17  18
ATOM     18  C   UNL     1       1.160  -3.053  -9.447  1.00  0.00    -0.000 C 
BRANCH  18  19
ATOM     19  C   UNL     1      -0.049  -2.194  -9.837  1.00  0.00    -0.003 C 
ATOM     20  C   UNL     1      -0.303  -1.099  -8.807  1.00  0.00     0.004 C 
ENDBRANCH  18  19
ENDBRANCH  17  18
ENDBRANCH  16  17
ENDBRANCH  15  16
ENDBRANCH  14  15
ENDBRANCH  13  14
ENDBRANCH  12  13
ENDBRANCH   1  12
TORSDOF 16
ENDMDL
MODEL 3
REMARK VINA RESULT:    -3.976      1.234      1.773
REMARK INTER + INTRA:         -10.008
REMARK INTER:                  -7.615
REMARK INTRA:                  -2.394
REMARK UNBOUND:                -2.313
REMARK SMILES CCCCCCCCCCCCCCCCCC(=O)[O-]
REMARK SMILES IDX 10 1 11 2 12 3 13 4 14 5 15 6 16 7 17 8 18 9 19 10 20 11
REMARK SMILES IDX 9 12 8 13 7 14 6 15 5 16 4 17 3 18 2 19 1 20
REMARK H PARENT
REMARK Flexibility Score: inf
ROOT
ATOM      1  C   UNL     1       0.253  -4.656  -5.939  1.00  0.00     0.000 C 
ENDROOT
BRANCH   1   2
ATOM      2  C   UNL     1      -0.874  -4.064  -6.802  1.00  0.00     0.000 C 
BRANCH   2   3
ATOM      3  C   UNL     1      -1.475  -5.086  -7.785  1.00  0.00     0.000 C 
BRANCH   3   4
ATOM      4  C   UNL     1      -2.400  -4.485  -8.858  1.00  0.00     0.000 C 
BRANCH   4   5
ATOM      5  C   UNL     1      -3.812  -4.184  -8.332  1.00  0.00     0.000 C 
BRANCH   5   6
ATOM      6  C   UNL     1      -4.637  -5.471  -8.206  1.00  0.00     0.000 C 
BRANCH   6   7
ATOM      7  C   UNL     1      -5.819  -5.274  -7.245  1.00  0.00     0.006 C 
BRANCH   7   8
ATOM      8  C   UNL     1      -5.554  -4.165  -6.218  1.00  0.00     0.053 C 
BRANCH   8   9
ATOM      9  C   UNL     1      -6.816  -3.717  -5.546  1.00  0.00     0.041 C 
ATOM     10  O   UNL     1      -7.124  -2.496  -5.528  1.00  0.00    -0.550 OA
ATOM     11  O   UNL     1      -7.668  -4.650  -4.971  1.00  0.00    -0.550 OA
ENDBRANCH   8   9
ENDBRANCH   7   8
ENDBRANCH   6   7
ENDBRANCH   5   6
ENDBRANCH   4   5
ENDBRANCH   3   4
ENDBRANCH   2   3
ENDBRANCH   1   2
BRANCH   1  12
ATOM     12  C   UNL     1       1.093  -5.696  -6.696  1.00  0.00     0.000 C 
BRANCH  12  13
ATOM     13  C   UNL     1       2.086  -5.052  -7.675  1.00  0.00    -0.000 C 
BRANCH  13  14
ATOM     14  C   UNL     1       1.888  -5.596  -9.095  1.00  0.00    -0.000 C 
BRANCH  14  15
ATOM     15  C   UNL     1       1.475  -4.475 -10.062  1.00  0.00    -0.000 C 
BRANCH  15  16
ATOM     16  C   UNL     1       1.408  -3.094  -9.386  1.00  0.00    -0.000 C 
BRANCH  16  17
ATOM     17  C   UNL     1       0.236  -2.204  -9.839  1.00  0.00    -0.000 C 
BRANCH  17  18
ATOM     18  C   UNL     1      -0.125  -1.121  -8.811  1.00  0.00    -0.000 C 
BRANCH  18  19
ATOM     19  C   UNL     1      -1.644  -0.919  -8.738  1.00  0.00    -0.003 C 
ATOM     20  C   UNL     1      -2.276  -0.988 -10.125  1.00  0.00     0.004 C 
ENDBRANCH  18  19
ENDBRANCH  17  18
ENDBRANCH  16  17
ENDBRANCH  15  16
ENDBRANCH  14  15
ENDBRANCH  13  14
ENDBRANCH  12  13
ENDBRANCH   1  12
TORSDOF 16
ENDMDL
MODEL 4
REMARK VINA RESULT:    -3.939     14.622     17.135
REMARK INTER + INTRA:          -9.936
REMARK INTER:                  -7.941
REMARK INTRA:                  -1.995
REMARK UNBOUND:                -2.313
REMARK SMILES CCCCCCCCCCCCCCCCCC(=O)[O-]
REMARK SMILES IDX 10 1 11 2 12 3 13 4 14 5 15 6 16 7 17 8 18 9 19 10 20 11
REMARK SMILES IDX 9 12 8 13 7 14 6 15 5 16 4 17 3 18 2 19 1 20
REMARK H PARENT
REMARK Flexibility Score: inf
ROOT
ATOM      1  C   UNL     1       9.169   4.760  -0.678  1.00  0.00     0.000 C 
ENDROOT
BRANCH   1   2
ATOM      2  C   UNL     1       7.755   4.385  -1.156  1.00  0.00     0.000 C 
BRANCH   2   3
ATOM      3  C   UNL     1       7.382   5.043  -2.497  1.00  0.00     0.000 C 
BRANCH   3   4
ATOM      4  C   UNL     1       7.079   6.550  -2.416  1.00  0.00     0.000 C 
BRANCH   4   5
ATOM      5  C   UNL     1       8.020   7.399  -3.285  1.00  0.00     0.000 C 
BRANCH   5   6
ATOM      6  C   UNL     1       8.926   6.509  -4.144  1.00  0.00     0.000 C 
BRANCH   6   7
ATOM      7  C   UNL     1       8.749   6.823  -5.638  1.00  0.00     0.006 C 
BRANCH   7   8
ATOM      8  C   UNL     1       7.730   5.893  -6.310  1.00  0.00     0.053 C 
BRANCH   8   9
ATOM      9  C   UNL     1       8.210   5.414  -7.645  1.00  0.00     0.041 C 
ATOM     10  O   UNL     1       8.111   4.198  -7.955  1.00  0.00    -0.550 OA
ATOM     11  O   UNL     1       8.736   6.317  -8.560  1.00  0.00    -0.550 OA
ENDBRANCH   8   9
ENDBRANCH   7   8
ENDBRANCH   6   7
ENDBRANCH   5   6
ENDBRANCH   4   5
ENDBRANCH   3   4
ENDBRANCH   2   3
ENDBRANCH   1   2
BRANCH   1  12
ATOM     12  C   UNL     1       9.153   5.655   0.570  1.00  0.00     0.000 C 
BRANCH  12  13
ATOM     13  C   UNL     1       9.474   7.122   0.248  1.00  0.00    -0.000 C 
BRANCH  13  14
ATOM     14  C   UNL     1       9.139   8.032   1.436  1.00  0.00    -0.000 C 
BRANCH  14  15
ATOM     15  C   UNL     1       8.800   9.454   0.963  1.00  0.00    -0.000 C 
BRANCH  15  16
ATOM     16  C   UNL     1       8.953   9.631  -0.559  1.00  0.00    -0.000 C 
BRANCH  16  17
ATOM     17  C   UNL     1       8.025  10.686  -1.187  1.00  0.00    -0.000 C 
BRANCH  17  18
ATOM     18  C   UNL     1       6.569  10.562  -0.713  1.00  0.00    -0.000 C 
BRANCH  18  19
ATOM     19  C   UNL     1       5.697   9.901  -1.787  1.00  0.00    -0.003 C 
ATOM     20  C   UNL     1       4.214  10.120  -1.505  1.00  0.00     0.004 C 
ENDBRANCH  18  19
ENDBRANCH  17  18
ENDBRANCH  16  17
ENDBRANCH  15  16
ENDBRANCH  14  15
ENDBRANCH  13  14
ENDBRANCH  12  13
ENDBRANCH   1  12
TORSDOF 16
ENDMDL
MODEL 5
REMARK VINA RESULT:    -3.930      0.950      2.339
REMARK INTER + INTRA:          -9.919
REMARK INTER:                  -7.723
REMARK INTRA:                  -2.196
REMARK UNBOUND:                -2.313
REMARK SMILES CCCCCCCCCCCCCCCCCC(=O)[O-]
REMARK SMILES IDX 10 1 11 2 12 3 13 4 14 5 15 6 16 7 17 8 18 9 19 10 20 11
REMARK SMILES IDX 9 12 8 13 7 14 6 15 5 16 4 17 3 18 2 19 1 20
REMARK H PARENT
REMARK Flexibility Score: inf
ROOT
ATOM      1  C   UNL     1       1.132  -4.776  -6.678  1.00  0.00     0.000 C 
ENDROOT
BRANCH   1   2
ATOM      2  C   UNL     1      -0.097  -5.646  -6.363  1.00  0.00     0.000 C 
BRANCH   2   3
ATOM      3  C   UNL     1      -0.220  -6.867  -7.294  1.00  0.00     0.000 C 
BRANCH   3   4
ATOM      4  C   UNL     1      -1.400  -6.813  -8.280  1.00  0.00     0.000 C 
BRANCH   4   5
ATOM      5  C   UNL     1      -1.926  -5.387  -8.509  1.00  0.00     0.000 C 
BRANCH   5   6
ATOM      6  C   UNL     1      -3.438  -5.314  -8.268  1.00  0.00     0.000 C 
BRANCH   6   7
ATOM      7  C   UNL     1      -3.779  -4.220  -7.245  1.00  0.00     0.006 C 
BRANCH   7   8
ATOM      8  C   UNL     1      -5.239  -3.757  -7.355  1.00  0.00     0.053 C 
BRANCH   8   9
ATOM      9  C   UNL     1      -5.988  -3.974  -6.076  1.00  0.00     0.041 C 
ATOM     10  O   UNL     1      -6.116  -5.135  -5.607  1.00  0.00    -0.550 OA
ATOM     11  O   UNL     1      -6.513  -2.890  -5.384  1.00  0.00    -0.550 OA
ENDBRANCH   8   9
ENDBRANCH   7   8
ENDBRANCH   6   7
ENDBRANCH   5   6
ENDBRANCH   4   5
ENDBRANCH   3   4
ENDBRANCH   2   3
ENDBRANCH   1   2
BRANCH   1  12
ATOM     12  C   UNL     1       2.000  -5.364  -7.801  1.00  0.00     0.000 C 
BRANCH  12  13
ATOM     13  C   UNL     1       1.840  -4.605  -9.127  1.00  0.00    -0.000 C 
BRANCH  13  14
ATOM     14  C   UNL     1       1.177  -3.241  -8.904  1.00  0.00    -0.000 C 
BRANCH  14  15
ATOM     15  C   UNL     1       0.249  -2.882 -10.074  1.00  0.00    -0.000 C 
BRANCH  15  16
ATOM     16  C   UNL     1      -0.979  -2.063  -9.636  1.00  0.00    -0.000 C 
BRANCH  16  17
ATOM     17  C   UNL     1      -1.028  -1.714  -8.137  1.00  0.00    -0.000 C 
BRANCH  17  18
ATOM     18  C   UNL     1      -1.290  -0.223  -7.877  1.00  0.00    -0.000 C 
BRANCH  18  19
ATOM     19  C   UNL     1      -2.306   0.338  -8.880  1.00  0.00    -0.003 C 
ATOM     20  C   UNL     1      -2.912   1.646  -8.378  1.00  0.00     0.004 C 
ENDBRANCH  18  19
ENDBRANCH  17  18
ENDBRANCH  16  17
ENDBRANCH  15  16
ENDBRANCH  14  15
ENDBRANCH  13  14
ENDBRANCH  12  13
ENDBRANCH   1  12
TORSDOF 16
ENDMDL
MODEL 6
REMARK VINA RESULT:    -3.898     15.380     17.859
REMARK INTER + INTRA:          -9.857
REMARK INTER:                  -7.355
REMARK INTRA:                  -2.503
REMARK UNBOUND:                -2.313
REMARK SMILES CCCCCCCCCCCCCCCCCC(=O)[O-]
REMARK SMILES IDX 10 1 11 2 12 3 13 4 14 5 15 6 16 7 17 8 18 9 19 10 20 11
REMARK SMILES IDX 9 12 8 13 7 14 6 15 5 16 4 17 3 18 2 19 1 20
REMARK H PARENT
REMARK Flexibility Score: inf
ROOT
ATOM      1  C   UNL     1       7.746   5.036  -0.777  1.00  0.00     0.000 C 
ENDROOT
BRANCH   1   2
ATOM      2  C   UNL     1       8.255   4.776  -2.205  1.00  0.00     0.000 C 
BRANCH   2   3
ATOM      3  C   UNL     1       7.194   5.073  -3.281  1.00  0.00     0.000 C 
BRANCH   3   4
ATOM      4  C   UNL     1       7.605   6.132  -4.320  1.00  0.00     0.000 C 
BRANCH   4   5
ATOM      5  C   UNL     1       8.691   7.089  -3.804  1.00  0.00     0.000 C 
BRANCH   5   6
ATOM      6  C   UNL     1       8.151   8.519  -3.686  1.00  0.00     0.000 C 
BRANCH   6   7
ATOM      7  C   UNL     1       7.788   8.850  -2.230  1.00  0.00     0.006 C 
BRANCH   7   8
ATOM      8  C   UNL     1       6.359   8.417  -1.875  1.00  0.00     0.053 C 
BRANCH   8   9
ATOM      9  C   UNL     1       5.426   9.586  -1.799  1.00  0.00     0.041 C 
ATOM     10  O   UNL     1       4.206   9.442  -2.073  1.00  0.00    -0.550 OA
ATOM     11  O   UNL     1       5.898  10.828  -1.391  1.00  0.00    -0.550 OA
ENDBRANCH   8   9
ENDBRANCH   7   8
ENDBRANCH   6   7
ENDBRANCH   5   6
ENDBRANCH   4   5
ENDBRANCH   3   4
ENDBRANCH   2   3
ENDBRANCH   1   2
BRANCH   1  12
ATOM     12  C   UNL     1       8.868   5.468   0.181  1.00  0.00     0.000 C 
BRANCH  12  13
ATOM     13  C   UNL     1       9.934   6.331  -0.512  1.00  0.00    -0.000 C 
BRANCH  13  14
ATOM     14  C   UNL     1      10.260   7.576   0.322  1.00  0.00    -0.000 C 
BRANCH  14  15
ATOM     15  C   UNL     1       9.021   8.067   1.087  1.00  0.00    -0.000 C 
BRANCH  15  16
ATOM     16  C   UNL     1       9.365   8.665   2.463  1.00  0.00    -0.000 C 
BRANCH  16  17
ATOM     17  C   UNL     1      10.174   7.742   3.391  1.00  0.00    -0.000 C 
BRANCH  17  18
ATOM     18  C   UNL     1       9.339   7.172   4.548  1.00  0.00    -0.000 C 
BRANCH  18  19
ATOM     19  C   UNL     1       9.417   5.641   4.579  1.00  0.00    -0.003 C 
ATOM     20  C   UNL     1      10.309   5.112   3.461  1.00  0.00     0.004 C 
ENDBRANCH  18  19
ENDBRANCH  17  18
ENDBRANCH  16  17
ENDBRANCH  15  16
ENDBRANCH  14  15
ENDBRANCH  13  14
ENDBRANCH  12  13
ENDBRANCH   1  12
TORSDOF 16
ENDMDL
MODEL 7
REMARK VINA RESULT:    -3.892     14.512     16.775
REMARK INTER + INTRA:          -9.846
REMARK INTER:                  -8.532
REMARK INTRA:                  -1.314
REMARK UNBOUND:                -2.313
REMARK SMILES CCCCCCCCCCCCCCCCCC(=O)[O-]
REMARK SMILES IDX 10 1 11 2 12 3 13 4 14 5 15 6 16 7 17 8 18 9 19 10 20 11
REMARK SMILES IDX 9 12 8 13 7 14 6 15 5 16 4 17 3 18 2 19 1 20
REMARK H PARENT
REMARK Flexibility Score: inf
ROOT
ATOM      1  C   UNL     1       8.558   5.382   0.277  1.00  0.00     0.000 C 
ENDROOT
BRANCH   1   2
ATOM      2  C   UNL     1       9.473   6.613   0.163  1.00  0.00     0.000 C 
BRANCH   2   3
ATOM      3  C   UNL     1       9.236   7.641   1.286  1.00  0.00     0.000 C 
BRANCH   3   4
ATOM      4  C   UNL     1       9.035   9.089   0.805  1.00  0.00     0.000 C 
BRANCH   4   5
ATOM      5  C   UNL     1       8.537   9.176  -0.646  1.00  0.00     0.000 C 
BRANCH   5   6
ATOM      6  C   UNL     1       7.379  10.173  -0.772  1.00  0.00     0.000 C 
BRANCH   6   7
ATOM      7  C   UNL     1       6.281   9.626  -1.696  1.00  0.00     0.006 C 
BRANCH   7   8
ATOM      8  C   UNL     1       5.388  10.740  -2.259  1.00  0.00     0.053 C 
BRANCH   8   9
ATOM      9  C   UNL     1       3.946  10.524  -1.915  1.00  0.00     0.041 C 
ATOM     10  O   UNL     1       3.625  10.089  -0.778  1.00  0.00    -0.550 OA
ATOM     11  O   UNL     1       2.956  10.836  -2.837  1.00  0.00    -0.550 OA
ENDBRANCH   8   9
ENDBRANCH   7   8
ENDBRANCH   6   7
ENDBRANCH   5   6
ENDBRANCH   4   5
ENDBRANCH   3   4
ENDBRANCH   2   3
ENDBRANCH   1   2
BRANCH   1  12
ATOM     12  C   UNL     1       7.978   4.949  -1.078  1.00  0.00     0.000 C 
BRANCH  12  13
ATOM     13  C   UNL     1       8.712   5.589  -2.265  1.00  0.00    -0.000 C 
BRANCH  13  14
ATOM     14  C   UNL     1       7.739   6.374  -3.154  1.00  0.00    -0.000 C 
BRANCH  14  15
ATOM     15  C   UNL     1       7.244   5.510  -4.324  1.00  0.00    -0.000 C 
BRANCH  15  16
ATOM     16  C   UNL     1       8.231   5.476  -5.505  1.00  0.00    -0.000 C 
BRANCH  16  17
ATOM     17  C   UNL     1       7.976   6.530  -6.597  1.00  0.00    -0.000 C 
BRANCH  17  18
ATOM     18  C   UNL     1       7.148   5.987  -7.773  1.00  0.00    -0.000 C 
BRANCH  18  19
ATOM     19  C   UNL     1       7.371   6.828  -9.035  1.00  0.00    -0.003 C 
ATOM     20  C   UNL     1       8.857   7.071  -9.281  1.00  0.00     0.004 C 
ENDBRANCH  18  19
ENDBRANCH  17  18
ENDBRANCH  16  17
ENDBRANCH  15  16
ENDBRANCH  14  15
ENDBRANCH  13  14
ENDBRANCH  12  13
ENDBRANCH   1  12
TORSDOF 16
ENDMDL
MODEL 8
REMARK VINA RESULT:    -3.857     14.387     16.278
REMARK INTER + INTRA:          -9.777
REMARK INTER:                  -7.787
REMARK INTRA:                  -1.990
REMARK UNBOUND:                -2.313
REMARK SMILES CCCCCCCCCCCCCCCCCC(=O)[O-]
REMARK SMILES IDX 10 1 11 2 12 3 13 4 14 5 15 6 16 7 17 8 18 9 19 10 20 11
REMARK SMILES IDX 9 12 8 13 7 14 6 15 5 16 4 17 3 18 2 19 1 20
REMARK H PARENT
REMARK Flexibility Score: inf
ROOT
ATOM      1  C   UNL     1       8.571   6.791  -4.997  1.00  0.00     0.000 C 
ENDROOT
BRANCH   1   2
ATOM      2  C   UNL     1       9.992   6.533  -5.526  1.00  0.00     0.000 C 
BRANCH   2   3
ATOM      3  C   UNL     1      10.401   5.050  -5.444  1.00  0.00     0.000 C 
BRANCH   3   4
ATOM      4  C   UNL     1      10.810   4.417  -6.785  1.00  0.00     0.000 C 
BRANCH   4   5
ATOM      5  C   UNL     1       9.657   3.665  -7.470  1.00  0.00     0.000 C 
BRANCH   5   6
ATOM      6  C   UNL     1       9.501   4.110  -8.929  1.00  0.00     0.000 C 
BRANCH   6   7
ATOM      7  C   UNL     1       9.868   5.592  -9.094  1.00  0.00     0.006 C 
BRANCH   7   8
ATOM      8  C   UNL     1       8.722   6.411  -9.704  1.00  0.00     0.053 C 
BRANCH   8   9
ATOM      9  C   UNL     1       7.810   6.960  -8.650  1.00  0.00     0.041 C 
ATOM     10  O   UNL     1       6.858   6.264  -8.211  1.00  0.00    -0.550 OA
ATOM     11  O   UNL     1       8.034   8.228  -8.129  1.00  0.00    -0.550 OA
ENDBRANCH   8   9
ENDBRANCH   7   8
ENDBRANCH   6   7
ENDBRANCH   5   6
ENDBRANCH   4   5
ENDBRANCH   3   4
ENDBRANCH   2   3
ENDBRANCH   1   2
BRANCH   1  12
ATOM     12  C   UNL     1       7.721   5.513  -4.935  1.00  0.00     0.000 C 
BRANCH  12  13
ATOM     13  C   UNL     1       6.871   5.432  -3.659  1.00  0.00    -0.000 C 
BRANCH  13  14
ATOM     14  C   UNL     1       7.736   5.080  -2.442  1.00  0.00    -0.000 C 
BRANCH  14  15
ATOM     15  C   UNL     1       7.711   6.212  -1.404  1.00  0.00    -0.000 C 
BRANCH  15  16
ATOM     16  C   UNL     1       6.812   7.389  -1.821  1.00  0.00    -0.000 C 
BRANCH  16  17
ATOM     17  C   UNL     1       7.424   8.785  -1.601  1.00  0.00    -0.000 C 
BRANCH  17  18
ATOM     18  C   UNL     1       6.584   9.912  -2.223  1.00  0.00    -0.000 C 
BRANCH  18  19
ATOM     19  C   UNL     1       5.504  10.393  -1.247  1.00  0.00    -0.003 C 
ATOM     20  C   UNL     1       4.108  10.036  -1.749  1.00  0.00     0.004 C 
ENDBRANCH  18  19
ENDBRANCH  17  18
ENDBRANCH  16  17
ENDBRANCH  15  16
ENDBRANCH  14  15
ENDBRANCH  13  14
ENDBRANCH  12  13
ENDBRANCH   1  12
TORSDOF 16
ENDMDL
MODEL 9
REMARK VINA RESULT:    -3.795      1.788      3.295
REMARK INTER + INTRA:          -9.657
REMARK INTER:                  -7.269
REMARK INTRA:                  -2.389
REMARK UNBOUND:                -2.313
REMARK SMILES CCCCCCCCCCCCCCCCCC(=O)[O-]
REMARK SMILES IDX 10 1 11 2 12 3 13 4 14 5 15 6 16 7 17 8 18 9 19 10 20 11
REMARK SMILES IDX 9 12 8 13 7 14 6 15 5 16 4 17 3 18 2 19 1 20
REMARK H PARENT
REMARK Flexibility Score: inf
ROOT
ATOM      1  C   UNL     1      -1.803  -4.221  -7.135  1.00  0.00     0.000 C 
ENDROOT
BRANCH   1   2
ATOM      2  C   UNL     1      -2.287  -3.641  -8.475  1.00  0.00     0.000 C 
BRANCH   2   3
ATOM      3  C   UNL     1      -3.347  -4.523  -9.161  1.00  0.00     0.000 C 
BRANCH   3   4
ATOM      4  C   UNL     1      -4.215  -5.356  -8.202  1.00  0.00     0.000 C 
BRANCH   4   5
ATOM      5  C   UNL     1      -5.629  -4.782  -8.021  1.00  0.00     0.000 C 
BRANCH   5   6
ATOM      6  C   UNL     1      -5.634  -3.648  -6.990  1.00  0.00     0.000 C 
BRANCH   6   7
ATOM      7  C   UNL     1      -6.340  -4.084  -5.697  1.00  0.00     0.006 C 
BRANCH   7   8
ATOM      8  C   UNL     1      -7.760  -3.512  -5.589  1.00  0.00     0.053 C 
BRANCH   8   9
ATOM      9  C   UNL     1      -7.778  -2.028  -5.792  1.00  0.00     0.041 C 
ATOM     10  O   UNL     1      -7.217  -1.269  -4.960  1.00  0.00    -0.550 OA
ATOM     11  O   UNL     1      -8.386  -1.486  -6.917  1.00  0.00    -0.550 OA
ENDBRANCH   8   9
ENDBRANCH   7   8
ENDBRANCH   6   7
ENDBRANCH   5   6
ENDBRANCH   4   5
ENDBRANCH   3   4
ENDBRANCH   2   3
ENDBRANCH   1   2
BRANCH   1  12
ATOM     12  C   UNL     1      -0.370  -3.789  -6.787  1.00  0.00     0.000 C 
BRANCH  12  13
ATOM     13  C   UNL     1       0.402  -4.872  -6.019  1.00  0.00    -0.000 C 
BRANCH  13  14
ATOM     14  C   UNL     1       1.736  -5.188  -6.706  1.00  0.00    -0.000 C 
BRANCH  14  15
ATOM     15  C   UNL     1       1.774  -4.609  -8.128  1.00  0.00    -0.000 C 
BRANCH  15  16
ATOM     16  C   UNL     1       2.288  -5.616  -9.173  1.00  0.00    -0.000 C 
BRANCH  16  17
ATOM     17  C   UNL     1       1.359  -6.817  -9.432  1.00  0.00    -0.000 C 
BRANCH  17  18
ATOM     18  C   UNL     1      -0.095  -6.402  -9.705  1.00  0.00    -0.000 C 
BRANCH  18  19
ATOM     19  C   UNL     1      -1.076  -7.372  -9.037  1.00  0.00    -0.003 C 
ATOM     20  C   UNL     1      -0.459  -8.018  -7.801  1.00  0.00     0.004 C 
ENDBRANCH  18  19
ENDBRANCH  17  18
ENDBRANCH  16  17
ENDBRANCH  15  16
ENDBRANCH  14  15
ENDBRANCH  13  14
ENDBRANCH  12  13
ENDBRANCH   1  12
TORSDOF 16
ENDMDL
