MODEL 1
REMARK VINA RESULT:    -4.472      0.000      0.000
REMARK INTER + INTRA:          -5.184
REMARK INTER:                  -5.126
REMARK INTRA:                  -0.058
REMARK UNBOUND:                -0.058
REMARK SMILES COc1cc(C=O)ccc1O
REMARK SMILES IDX 3 1 10 2 9 3 8 4 5 5 4 6 2 7 1 8 11 9 6 11 7 12
REMARK H PARENT 11 10
REMARK Flexibility Score: inf
ROOT
ATOM      1  C   UNL     1     -23.452 -20.993   6.852  1.00  0.00     0.161 A 
ATOM      2  C   UNL     1     -22.329 -21.353   6.093  1.00  0.00     0.157 A 
ATOM      3  C   UNL     1     -22.121 -20.780   4.831  1.00  0.00     0.051 A 
ATOM      4  C   UNL     1     -23.027 -19.850   4.320  1.00  0.00     0.015 A 
ATOM      5  C   UNL     1     -24.157 -19.478   5.069  1.00  0.00     0.018 A 
ATOM      6  C   UNL     1     -24.364 -20.053   6.332  1.00  0.00     0.062 A 
ENDROOT
BRANCH   1   7
ATOM      7  O   UNL     1     -23.625 -21.588   8.111  1.00  0.00    -0.493 OA
ATOM      8  C   UNL     1     -24.784 -21.430   8.924  1.00  0.00     0.278 C 
ENDBRANCH   1   7
BRANCH   2   9
ATOM      9  O   UNL     1     -21.423 -22.282   6.600  1.00  0.00    -0.504 OA
ATOM     10  H   UNL     1     -21.623 -22.816   7.438  1.00  0.00     0.293 HD
ENDBRANCH   2   9
BRANCH   5  11
ATOM     11  C   UNL     1     -25.125 -18.496   4.546  1.00  0.00     0.260 C 
ATOM     12  O   UNL     1     -24.845 -17.770   3.555  1.00  0.00    -0.298 OA
ENDBRANCH   5  11
TORSDOF 3
ENDMDL
MODEL 2
REMARK VINA RESULT:    -4.381      2.378      5.648
REMARK INTER + INTRA:          -5.079
REMARK INTER:                  -5.019
REMARK INTRA:                  -0.060
REMARK UNBOUND:                -0.058
REMARK SMILES COc1cc(C=O)ccc1O
REMARK SMILES IDX 3 1 10 2 9 3 8 4 5 5 4 6 2 7 1 8 11 9 6 11 7 12
REMARK H PARENT 11 10
REMARK Flexibility Score: inf
ROOT
ATOM      1  C   UNL     1     -24.730 -20.861   8.238  1.00  0.00     0.161 A 
ATOM      2  C   UNL     1     -24.951 -20.369   9.532  1.00  0.00     0.157 A 
ATOM      3  C   UNL     1     -24.997 -21.250  10.620  1.00  0.00     0.051 A 
ATOM      4  C   UNL     1     -24.824 -22.622  10.425  1.00  0.00     0.015 A 
ATOM      5  C   UNL     1     -24.601 -23.130   9.134  1.00  0.00     0.018 A 
ATOM      6  C   UNL     1     -24.556 -22.246   8.045  1.00  0.00     0.062 A 
ENDROOT
BRANCH   1   7
ATOM      7  O   UNL     1     -24.691 -19.946   7.174  1.00  0.00    -0.493 OA
ATOM      8  C   UNL     1     -23.803 -20.038   6.064  1.00  0.00     0.278 C 
ENDBRANCH   1   7
BRANCH   2   9
ATOM      9  O   UNL     1     -25.124 -19.001   9.730  1.00  0.00    -0.504 OA
ATOM     10  H   UNL     1     -25.856 -18.484   9.256  1.00  0.00     0.293 HD
ENDBRANCH   2   9
BRANCH   5  11
ATOM     11  C   UNL     1     -24.416 -24.576   8.909  1.00  0.00     0.260 C 
ATOM     12  O   UNL     1     -23.537 -25.225   9.535  1.00  0.00    -0.298 OA
ENDBRANCH   5  11
TORSDOF 3
ENDMDL
MODEL 3
REMARK VINA RESULT:    -4.338      1.773      3.820
REMARK INTER + INTRA:          -5.030
REMARK INTER:                  -4.973
REMARK INTRA:                  -0.057
REMARK UNBOUND:                -0.058
REMARK SMILES COc1cc(C=O)ccc1O
REMARK SMILES IDX 3 1 10 2 9 3 8 4 5 5 4 6 2 7 1 8 11 9 6 11 7 12
REMARK H PARENT 11 10
REMARK Flexibility Score: inf
ROOT
ATOM      1  C   UNL     1     -23.368 -20.682   5.518  1.00  0.00     0.161 A 
ATOM      2  C   UNL     1     -22.923 -21.981   5.798  1.00  0.00     0.157 A 
ATOM      3  C   UNL     1     -23.198 -22.565   7.042  1.00  0.00     0.051 A 
ATOM      4  C   UNL     1     -23.914 -21.859   8.010  1.00  0.00     0.015 A 
ATOM      5  C   UNL     1     -24.366 -20.555   7.744  1.00  0.00     0.018 A 
ATOM      6  C   UNL     1     -24.090 -19.972   6.498  1.00  0.00     0.062 A 
ENDROOT
BRANCH   1   7
ATOM      7  O   UNL     1     -23.074 -20.132   4.260  1.00  0.00    -0.493 OA
ATOM      8  C   UNL     1     -23.354 -18.788   3.883  1.00  0.00     0.278 C 
ENDBRANCH   1   7
BRANCH   2   9
ATOM      9  O   UNL     1     -22.209 -22.688   4.834  1.00  0.00    -0.504 OA
ATOM     10  H   UNL     1     -21.362 -23.196   5.065  1.00  0.00     0.293 HD
ENDBRANCH   2   9
BRANCH   5  11
ATOM     11  C   UNL     1     -25.124 -19.794   8.755  1.00  0.00     0.260 C 
ATOM     12  O   UNL     1     -25.035 -20.071   9.980  1.00  0.00    -0.298 OA
ENDBRANCH   5  11
TORSDOF 3
ENDMDL
MODEL 4
REMARK VINA RESULT:    -4.323     19.195     20.330
REMARK INTER + INTRA:          -5.013
REMARK INTER:                  -4.939
REMARK INTRA:                  -0.074
REMARK UNBOUND:                -0.058
REMARK SMILES COc1cc(C=O)ccc1O
REMARK SMILES IDX 3 1 10 2 9 3 8 4 5 5 4 6 2 7 1 8 11 9 6 11 7 12
REMARK H PARENT 11 10
REMARK Flexibility Score: inf
ROOT
ATOM      1  C   UNL     1      -9.559 -28.078  16.874  1.00  0.00     0.161 A 
ATOM      2  C   UNL     1      -8.925 -26.840  16.695  1.00  0.00     0.157 A 
ATOM      3  C   UNL     1      -7.597 -26.789  16.252  1.00  0.00     0.051 A 
ATOM      4  C   UNL     1      -6.896 -27.966  15.987  1.00  0.00     0.015 A 
ATOM      5  C   UNL     1      -7.517 -29.214  16.162  1.00  0.00     0.018 A 
ATOM      6  C   UNL     1      -8.847 -29.264  16.606  1.00  0.00     0.062 A 
ENDROOT
BRANCH   1   7
ATOM      7  O   UNL     1     -10.891 -28.088  17.319  1.00  0.00    -0.493 OA
ATOM      8  C   UNL     1     -11.288 -28.302  18.669  1.00  0.00     0.278 C 
ENDBRANCH   1   7
BRANCH   2   9
ATOM      9  O   UNL     1      -9.623 -25.664  16.958  1.00  0.00    -0.504 OA
ATOM     10  H   UNL     1     -10.567 -25.518  16.619  1.00  0.00     0.293 HD
ENDBRANCH   2   9
BRANCH   5  11
ATOM     11  C   UNL     1      -6.791 -30.468  15.887  1.00  0.00     0.260 C 
ATOM     12  O   UNL     1      -7.401 -31.503  15.506  1.00  0.00    -0.298 OA
ENDBRANCH   5  11
TORSDOF 3
ENDMDL
MODEL 5
REMARK VINA RESULT:    -4.119      9.084     10.976
REMARK INTER + INTRA:          -4.779
REMARK INTER:                  -4.712
REMARK INTRA:                  -0.068
REMARK UNBOUND:                -0.058
REMARK SMILES COc1cc(C=O)ccc1O
REMARK SMILES IDX 3 1 10 2 9 3 8 4 5 5 4 6 2 7 1 8 11 9 6 11 7 12
REMARK H PARENT 11 10
REMARK Flexibility Score: inf
ROOT
ATOM      1  C   UNL     1     -15.582 -19.208   1.306  1.00  0.00     0.161 A 
ATOM      2  C   UNL     1     -15.148 -18.331   2.310  1.00  0.00     0.157 A 
ATOM      3  C   UNL     1     -13.779 -18.122   2.518  1.00  0.00     0.051 A 
ATOM      4  C   UNL     1     -12.836 -18.785   1.729  1.00  0.00     0.015 A 
ATOM      5  C   UNL     1     -13.254 -19.666   0.719  1.00  0.00     0.018 A 
ATOM      6  C   UNL     1     -14.627 -19.875   0.512  1.00  0.00     0.062 A 
ENDROOT
BRANCH   1   7
ATOM      7  O   UNL     1     -16.962 -19.391   1.128  1.00  0.00    -0.493 OA
ATOM      8  C   UNL     1     -17.641 -19.248  -0.115  1.00  0.00     0.278 C 
ENDBRANCH   1   7
BRANCH   2   9
ATOM      9  O   UNL     1     -16.086 -17.669   3.099  1.00  0.00    -0.504 OA
ATOM     10  H   UNL     1     -16.352 -16.708   2.916  1.00  0.00     0.293 HD
ENDBRANCH   2   9
BRANCH   5  11
ATOM     11  C   UNL     1     -12.274 -20.375  -0.125  1.00  0.00     0.260 C 
ATOM     12  O   UNL     1     -11.188 -20.797   0.355  1.00  0.00    -0.298 OA
ENDBRANCH   5  11
TORSDOF 3
ENDMDL
MODEL 6
REMARK VINA RESULT:    -4.087      2.297      5.206
REMARK INTER + INTRA:          -4.743
REMARK INTER:                  -4.682
REMARK INTRA:                  -0.061
REMARK UNBOUND:                -0.058
REMARK SMILES COc1cc(C=O)ccc1O
REMARK SMILES IDX 3 1 10 2 9 3 8 4 5 5 4 6 2 7 1 8 11 9 6 11 7 12
REMARK H PARENT 11 10
REMARK Flexibility Score: inf
ROOT
ATOM      1  C   UNL     1     -24.085 -21.867   6.819  1.00  0.00     0.161 A 
ATOM      2  C   UNL     1     -24.327 -20.617   7.407  1.00  0.00     0.157 A 
ATOM      3  C   UNL     1     -24.621 -20.528   8.774  1.00  0.00     0.051 A 
ATOM      4  C   UNL     1     -24.677 -21.681   9.560  1.00  0.00     0.015 A 
ATOM      5  C   UNL     1     -24.437 -22.940   8.986  1.00  0.00     0.018 A 
ATOM      6  C   UNL     1     -24.142 -23.028   7.617  1.00  0.00     0.062 A 
ENDROOT
BRANCH   1   7
ATOM      7  O   UNL     1     -23.793 -21.915   5.447  1.00  0.00    -0.493 OA
ATOM      8  C   UNL     1     -22.478 -21.897   4.902  1.00  0.00     0.278 C 
ENDBRANCH   1   7
BRANCH   2   9
ATOM      9  O   UNL     1     -24.272 -19.466   6.625  1.00  0.00    -0.504 OA
ATOM     10  H   UNL     1     -25.110 -18.955   6.371  1.00  0.00     0.293 HD
ENDBRANCH   2   9
BRANCH   5  11
ATOM     11  C   UNL     1     -24.491 -24.169   9.801  1.00  0.00     0.260 C 
ATOM     12  O   UNL     1     -23.648 -25.091   9.645  1.00  0.00    -0.298 OA
ENDBRANCH   5  11
TORSDOF 3
ENDMDL
MODEL 7
REMARK VINA RESULT:    -4.004     18.798     20.722
REMARK INTER + INTRA:          -4.647
REMARK INTER:                  -4.593
REMARK INTRA:                  -0.055
REMARK UNBOUND:                -0.058
REMARK SMILES COc1cc(C=O)ccc1O
REMARK SMILES IDX 3 1 10 2 9 3 8 4 5 5 4 6 2 7 1 8 11 9 6 11 7 12
REMARK H PARENT 11 10
REMARK Flexibility Score: inf
ROOT
ATOM      1  C   UNL     1      -8.047 -26.930  17.528  1.00  0.00     0.161 A 
ATOM      2  C   UNL     1      -9.233 -26.511  16.909  1.00  0.00     0.157 A 
ATOM      3  C   UNL     1      -9.889 -27.355  16.004  1.00  0.00     0.051 A 
ATOM      4  C   UNL     1      -9.368 -28.617  15.710  1.00  0.00     0.015 A 
ATOM      5  C   UNL     1      -8.180 -29.051  16.322  1.00  0.00     0.018 A 
ATOM      6  C   UNL     1      -7.524 -28.205  17.229  1.00  0.00     0.062 A 
ENDROOT
BRANCH   1   7
ATOM      7  O   UNL     1      -7.419 -26.057  18.430  1.00  0.00    -0.493 OA
ATOM      8  C   UNL     1      -6.229 -26.360  19.150  1.00  0.00     0.278 C 
ENDBRANCH   1   7
BRANCH   2   9
ATOM      9  O   UNL     1      -9.754 -25.253  17.200  1.00  0.00    -0.504 OA
ATOM     10  H   UNL     1      -9.201 -24.410  17.095  1.00  0.00     0.293 HD
ENDBRANCH   2   9
BRANCH   5  11
ATOM     11  C   UNL     1      -7.615 -30.381  16.024  1.00  0.00     0.260 C 
ATOM     12  O   UNL     1      -6.441 -30.680  16.368  1.00  0.00    -0.298 OA
ENDBRANCH   5  11
TORSDOF 3
ENDMDL
MODEL 8
REMARK VINA RESULT:    -3.993     19.338     20.186
REMARK INTER + INTRA:          -4.635
REMARK INTER:                  -4.558
REMARK INTRA:                  -0.077
REMARK UNBOUND:                -0.058
REMARK SMILES COc1cc(C=O)ccc1O
REMARK SMILES IDX 3 1 10 2 9 3 8 4 5 5 4 6 2 7 1 8 11 9 6 11 7 12
REMARK H PARENT 11 10
REMARK Flexibility Score: inf
ROOT
ATOM      1  C   UNL     1      -9.187 -26.814  17.583  1.00  0.00     0.161 A 
ATOM      2  C   UNL     1      -9.933 -27.968  17.305  1.00  0.00     0.157 A 
ATOM      3  C   UNL     1      -9.406 -28.962  16.470  1.00  0.00     0.051 A 
ATOM      4  C   UNL     1      -8.137 -28.812  15.909  1.00  0.00     0.015 A 
ATOM      5  C   UNL     1      -7.376 -27.662  16.178  1.00  0.00     0.018 A 
ATOM      6  C   UNL     1      -7.905 -26.667  17.015  1.00  0.00     0.062 A 
ENDROOT
BRANCH   1   7
ATOM      7  O   UNL     1      -9.748 -25.841  18.425  1.00  0.00    -0.493 OA
ATOM      8  C   UNL     1      -9.401 -25.662  19.794  1.00  0.00     0.278 C 
ENDBRANCH   1   7
BRANCH   2   9
ATOM      9  O   UNL     1     -11.200 -28.120  17.863  1.00  0.00    -0.504 OA
ATOM     10  H   UNL     1     -11.654 -29.025  17.914  1.00  0.00     0.293 HD
ENDBRANCH   2   9
BRANCH   5  11
ATOM     11  C   UNL     1      -6.033 -27.486  15.594  1.00  0.00     0.260 C 
ATOM     12  O   UNL     1      -5.784 -27.848  14.414  1.00  0.00    -0.298 OA
ENDBRANCH   5  11
TORSDOF 3
ENDMDL
MODEL 9
REMARK VINA RESULT:    -3.904      1.997      3.186
REMARK INTER + INTRA:          -4.533
REMARK INTER:                  -4.457
REMARK INTRA:                  -0.076
REMARK UNBOUND:                -0.058
REMARK SMILES COc1cc(C=O)ccc1O
REMARK SMILES IDX 3 1 10 2 9 3 8 4 5 5 4 6 2 7 1 8 11 9 6 11 7 12
REMARK H PARENT 11 10
REMARK Flexibility Score: inf
ROOT
ATOM      1  C   UNL     1     -24.041 -22.455   8.114  1.00  0.00     0.161 A 
ATOM      2  C   UNL     1     -24.608 -21.328   8.726  1.00  0.00     0.157 A 
ATOM      3  C   UNL     1     -24.765 -20.139   8.002  1.00  0.00     0.051 A 
ATOM      4  C   UNL     1     -24.358 -20.066   6.669  1.00  0.00     0.015 A 
ATOM      5  C   UNL     1     -23.788 -21.186   6.041  1.00  0.00     0.018 A 
ATOM      6  C   UNL     1     -23.631 -22.377   6.768  1.00  0.00     0.062 A 
ENDROOT
BRANCH   1   7
ATOM      7  O   UNL     1     -23.901 -23.628   8.872  1.00  0.00    -0.493 OA
ATOM      8  C   UNL     1     -24.732 -24.777   8.740  1.00  0.00     0.278 C 
ENDBRANCH   1   7
BRANCH   2   9
ATOM      9  O   UNL     1     -25.016 -21.398  10.056  1.00  0.00    -0.504 OA
ATOM     10  H   UNL     1     -25.247 -22.282  10.496  1.00  0.00     0.293 HD
ENDBRANCH   2   9
BRANCH   5  11
ATOM     11  C   UNL     1     -23.352 -21.128   4.633  1.00  0.00     0.260 C 
ATOM     12  O   UNL     1     -24.087 -20.622   3.745  1.00  0.00    -0.298 OA
ENDBRANCH   5  11
TORSDOF 3
ENDMDL
