MODEL 1
REMARK VINA RESULT:    -3.507      0.000      0.000
REMARK INTER + INTRA:          -7.748
REMARK INTER:                  -6.172
REMARK INTRA:                  -1.576
REMARK UNBOUND:                -1.576
REMARK SMILES CCCCCCCCCCCCCCC(=O)[O-]
REMARK SMILES IDX 9 1 10 2 11 3 12 4 13 5 14 6 15 7 16 8 17 9 8 10 7 11 6 12
REMARK SMILES IDX 5 13 4 14 3 15 2 16 1 17
REMARK H PARENT
REMARK Flexibility Score: inf
ROOT
ATOM      1  C   UNL     1     -18.447 -20.982   5.218  1.00  0.00     0.000 C 
ENDROOT
BRANCH   1   2
ATOM      2  C   UNL     1     -18.954 -21.989   4.164  1.00  0.00     0.000 C 
BRANCH   2   3
ATOM      3  C   UNL     1     -20.010 -21.382   3.229  1.00  0.00     0.000 C 
BRANCH   3   4
ATOM      4  C   UNL     1     -21.197 -22.336   3.045  1.00  0.00     0.000 C 
BRANCH   4   5
ATOM      5  C   UNL     1     -22.222 -21.755   2.060  1.00  0.00     0.006 C 
BRANCH   5   6
ATOM      6  C   UNL     1     -21.552 -21.041   0.878  1.00  0.00     0.053 C 
BRANCH   6   7
ATOM      7  C   UNL     1     -22.034 -21.570  -0.437  1.00  0.00     0.041 C 
ATOM      8  O   UNL     1     -22.812 -22.559  -0.475  1.00  0.00    -0.550 OA
ATOM      9  O   UNL     1     -21.651 -20.950  -1.620  1.00  0.00    -0.550 OA
ENDBRANCH   6   7
ENDBRANCH   5   6
ENDBRANCH   4   5
ENDBRANCH   3   4
ENDBRANCH   2   3
ENDBRANCH   1   2
BRANCH   1  10
ATOM     10  C   UNL     1     -17.146 -21.418   5.918  1.00  0.00     0.000 C 
BRANCH  10  11
ATOM     11  C   UNL     1     -15.877 -20.674   5.462  1.00  0.00    -0.000 C 
BRANCH  11  12
ATOM     12  C   UNL     1     -16.099 -19.630   4.350  1.00  0.00    -0.000 C 
BRANCH  12  13
ATOM     13  C   UNL     1     -15.648 -20.124   2.968  1.00  0.00    -0.000 C 
BRANCH  13  14
ATOM     14  C   UNL     1     -16.739 -19.888   1.915  1.00  0.00    -0.000 C 
BRANCH  14  15
ATOM     15  C   UNL     1     -17.522 -18.584   2.145  1.00  0.00    -0.000 C 
BRANCH  15  16
ATOM     16  C   UNL     1     -18.945 -18.604   1.549  1.00  0.00    -0.003 C 
ATOM     17  C   UNL     1     -19.886 -17.630   2.260  1.00  0.00     0.004 C 
ENDBRANCH  15  16
ENDBRANCH  14  15
ENDBRANCH  13  14
ENDBRANCH  12  13
ENDBRANCH  11  12
ENDBRANCH  10  11
ENDBRANCH   1  10
TORSDOF 13
ENDMDL
MODEL 2
REMARK VINA RESULT:    -3.506      7.932     10.885
REMARK INTER + INTRA:          -7.747
REMARK INTER:                  -6.043
REMARK INTRA:                  -1.704
REMARK UNBOUND:                -1.576
REMARK SMILES CCCCCCCCCCCCCCC(=O)[O-]
REMARK SMILES IDX 9 1 10 2 11 3 12 4 13 5 14 6 15 7 16 8 17 9 8 10 7 11 6 12
REMARK SMILES IDX 5 13 4 14 3 15 2 16 1 17
REMARK H PARENT
REMARK Flexibility Score: inf
ROOT
ATOM      1  C   UNL     1     -15.562 -11.156  -1.142  1.00  0.00     0.000 C 
ENDROOT
BRANCH   1   2
ATOM      2  C   UNL     1     -16.355 -11.091   0.182  1.00  0.00     0.000 C 
BRANCH   2   3
ATOM      3  C   UNL     1     -15.762 -12.001   1.268  1.00  0.00     0.000 C 
BRANCH   3   4
ATOM      4  C   UNL     1     -14.784 -13.015   0.663  1.00  0.00     0.000 C 
BRANCH   4   5
ATOM      5  C   UNL     1     -13.554 -13.197   1.563  1.00  0.00     0.006 C 
BRANCH   5   6
ATOM      6  C   UNL     1     -12.256 -12.758   0.871  1.00  0.00     0.053 C 
BRANCH   6   7
ATOM      7  C   UNL     1     -11.977 -11.302   1.084  1.00  0.00     0.041 C 
ATOM      8  O   UNL     1     -11.210 -10.935   2.013  1.00  0.00    -0.550 OA
ATOM      9  O   UNL     1     -12.534 -10.354   0.237  1.00  0.00    -0.550 OA
ENDBRANCH   6   7
ENDBRANCH   5   6
ENDBRANCH   4   5
ENDBRANCH   3   4
ENDBRANCH   2   3
ENDBRANCH   1   2
BRANCH   1  10
ATOM     10  C   UNL     1     -16.448 -11.355  -2.386  1.00  0.00     0.000 C 
BRANCH  10  11
ATOM     11  C   UNL     1     -17.558 -12.412  -2.235  1.00  0.00    -0.000 C 
BRANCH  11  12
ATOM     12  C   UNL     1     -17.203 -13.811  -2.773  1.00  0.00    -0.000 C 
BRANCH  12  13
ATOM     13  C   UNL     1     -17.011 -14.850  -1.658  1.00  0.00    -0.000 C 
BRANCH  13  14
ATOM     14  C   UNL     1     -18.040 -14.652  -0.537  1.00  0.00    -0.000 C 
BRANCH  14  15
ATOM     15  C   UNL     1     -17.557 -15.188   0.821  1.00  0.00    -0.000 C 
BRANCH  15  16
ATOM     16  C   UNL     1     -18.533 -16.189   1.474  1.00  0.00    -0.003 C 
ATOM     17  C   UNL     1     -17.873 -17.535   1.774  1.00  0.00     0.004 C 
ENDBRANCH  15  16
ENDBRANCH  14  15
ENDBRANCH  13  14
ENDBRANCH  12  13
ENDBRANCH  11  12
ENDBRANCH  10  11
ENDBRANCH   1  10
TORSDOF 13
ENDMDL
MODEL 3
REMARK VINA RESULT:    -3.506      3.746      6.260
REMARK INTER + INTRA:          -7.746
REMARK INTER:                  -6.511
REMARK INTRA:                  -1.235
REMARK UNBOUND:                -1.576
REMARK SMILES CCCCCCCCCCCCCCC(=O)[O-]
REMARK SMILES IDX 9 1 10 2 11 3 12 4 13 5 14 6 15 7 16 8 17 9 8 10 7 11 6 12
REMARK SMILES IDX 5 13 4 14 3 15 2 16 1 17
REMARK H PARENT
REMARK Flexibility Score: inf
ROOT
ATOM      1  C   UNL     1     -17.010 -19.386   1.830  1.00  0.00     0.000 C 
ENDROOT
BRANCH   1   2
ATOM      2  C   UNL     1     -16.872 -20.647   2.710  1.00  0.00     0.000 C 
BRANCH   2   3
ATOM      3  C   UNL     1     -18.230 -21.184   3.185  1.00  0.00     0.000 C 
BRANCH   3   4
ATOM      4  C   UNL     1     -18.165 -21.628   4.652  1.00  0.00     0.000 C 
BRANCH   4   5
ATOM      5  C   UNL     1     -17.943 -20.425   5.581  1.00  0.00     0.006 C 
BRANCH   5   6
ATOM      6  C   UNL     1     -16.895 -20.714   6.665  1.00  0.00     0.053 C 
BRANCH   6   7
ATOM      7  C   UNL     1     -15.499 -20.536   6.152  1.00  0.00     0.041 C 
ATOM      8  O   UNL     1     -15.165 -19.461   5.588  1.00  0.00    -0.550 OA
ATOM      9  O   UNL     1     -14.559 -21.542   6.327  1.00  0.00    -0.550 OA
ENDBRANCH   6   7
ENDBRANCH   5   6
ENDBRANCH   4   5
ENDBRANCH   3   4
ENDBRANCH   2   3
ENDBRANCH   1   2
BRANCH   1  10
ATOM     10  C   UNL     1     -17.744 -18.223   2.523  1.00  0.00     0.000 C 
BRANCH  10  11
ATOM     11  C   UNL     1     -18.881 -17.587   1.701  1.00  0.00    -0.000 C 
BRANCH  11  12
ATOM     12  C   UNL     1     -20.282 -18.169   1.968  1.00  0.00    -0.000 C 
BRANCH  12  13
ATOM     13  C   UNL     1     -20.742 -19.145   0.875  1.00  0.00    -0.000 C 
BRANCH  13  14
ATOM     14  C   UNL     1     -21.894 -18.549   0.054  1.00  0.00    -0.000 C 
BRANCH  14  15
ATOM     15  C   UNL     1     -22.537 -19.567  -0.903  1.00  0.00    -0.000 C 
BRANCH  15  16
ATOM     16  C   UNL     1     -21.658 -20.808  -1.165  1.00  0.00    -0.003 C 
ATOM     17  C   UNL     1     -22.320 -22.101  -0.687  1.00  0.00     0.004 C 
ENDBRANCH  15  16
ENDBRANCH  14  15
ENDBRANCH  13  14
ENDBRANCH  12  13
ENDBRANCH  11  12
ENDBRANCH  10  11
ENDBRANCH   1  10
TORSDOF 13
ENDMDL
MODEL 4
REMARK VINA RESULT:    -3.495      4.130      6.886
REMARK INTER + INTRA:          -7.728
REMARK INTER:                  -6.521
REMARK INTRA:                  -1.207
REMARK UNBOUND:                -1.576
REMARK SMILES CCCCCCCCCCCCCCC(=O)[O-]
REMARK SMILES IDX 9 1 10 2 11 3 12 4 13 5 14 6 15 7 16 8 17 9 8 10 7 11 6 12
REMARK SMILES IDX 5 13 4 14 3 15 2 16 1 17
REMARK H PARENT
REMARK Flexibility Score: inf
ROOT
ATOM      1  C   UNL     1     -19.373 -17.109   2.365  1.00  0.00     0.000 C 
ENDROOT
BRANCH   1   2
ATOM      2  C   UNL     1     -18.046 -16.800   1.640  1.00  0.00     0.000 C 
BRANCH   2   3
ATOM      3  C   UNL     1     -18.189 -15.673   0.607  1.00  0.00     0.000 C 
BRANCH   3   4
ATOM      4  C   UNL     1     -16.963 -14.752   0.624  1.00  0.00     0.000 C 
BRANCH   4   5
ATOM      5  C   UNL     1     -16.924 -13.866  -0.630  1.00  0.00     0.006 C 
BRANCH   5   6
ATOM      6  C   UNL     1     -17.254 -14.651  -1.907  1.00  0.00     0.053 C 
BRANCH   6   7
ATOM      7  C   UNL     1     -17.932 -13.791  -2.929  1.00  0.00     0.041 C 
ATOM      8  O   UNL     1     -17.793 -12.540  -2.897  1.00  0.00    -0.550 OA
ATOM      9  O   UNL     1     -18.690 -14.373  -3.937  1.00  0.00    -0.550 OA
ENDBRANCH   6   7
ENDBRANCH   5   6
ENDBRANCH   4   5
ENDBRANCH   3   4
ENDBRANCH   2   3
ENDBRANCH   1   2
BRANCH   1  10
ATOM     10  C   UNL     1     -20.406 -17.839   1.485  1.00  0.00     0.000 C 
BRANCH  10  11
ATOM     11  C   UNL     1     -20.013 -19.268   1.066  1.00  0.00    -0.000 C 
BRANCH  11  12
ATOM     12  C   UNL     1     -21.023 -20.363   1.459  1.00  0.00    -0.000 C 
BRANCH  12  13
ATOM     13  C   UNL     1     -20.474 -21.332   2.516  1.00  0.00    -0.000 C 
BRANCH  13  14
ATOM     14  C   UNL     1     -19.450 -20.635   3.423  1.00  0.00    -0.000 C 
BRANCH  14  15
ATOM     15  C   UNL     1     -18.050 -21.266   3.340  1.00  0.00    -0.000 C 
BRANCH  15  16
ATOM     16  C   UNL     1     -16.910 -20.230   3.241  1.00  0.00    -0.003 C 
ATOM     17  C   UNL     1     -16.378 -20.086   1.814  1.00  0.00     0.004 C 
ENDBRANCH  15  16
ENDBRANCH  14  15
ENDBRANCH  13  14
ENDBRANCH  12  13
ENDBRANCH  11  12
ENDBRANCH  10  11
ENDBRANCH   1  10
TORSDOF 13
ENDMDL
MODEL 5
REMARK VINA RESULT:    -3.463      2.002      3.724
REMARK INTER + INTRA:          -7.670
REMARK INTER:                  -5.510
REMARK INTRA:                  -2.160
REMARK UNBOUND:                -1.576
REMARK SMILES CCCCCCCCCCCCCCC(=O)[O-]
REMARK SMILES IDX 9 1 10 2 11 3 12 4 13 5 14 6 15 7 16 8 17 9 8 10 7 11 6 12
REMARK SMILES IDX 5 13 4 14 3 15 2 16 1 17
REMARK H PARENT
REMARK Flexibility Score: inf
ROOT
ATOM      1  C   UNL     1     -21.258 -19.014   1.983  1.00  0.00     0.000 C 
ENDROOT
BRANCH   1   2
ATOM      2  C   UNL     1     -20.648 -19.713   0.748  1.00  0.00     0.000 C 
BRANCH   2   3
ATOM      3  C   UNL     1     -21.491 -19.510  -0.519  1.00  0.00     0.000 C 
BRANCH   3   4
ATOM      4  C   UNL     1     -21.720 -20.841  -1.246  1.00  0.00     0.000 C 
BRANCH   4   5
ATOM      5  C   UNL     1     -22.334 -21.885  -0.302  1.00  0.00     0.006 C 
BRANCH   5   6
ATOM      6  C   UNL     1     -23.846 -21.690  -0.124  1.00  0.00     0.053 C 
BRANCH   6   7
ATOM      7  C   UNL     1     -24.201 -21.347   1.290  1.00  0.00     0.041 C 
ATOM      8  O   UNL     1     -24.503 -20.164   1.597  1.00  0.00    -0.550 OA
ATOM      9  O   UNL     1     -24.232 -22.339   2.262  1.00  0.00    -0.550 OA
ENDBRANCH   6   7
ENDBRANCH   5   6
ENDBRANCH   4   5
ENDBRANCH   3   4
ENDBRANCH   2   3
ENDBRANCH   1   2
BRANCH   1  10
ATOM     10  C   UNL     1     -21.086 -19.807   3.292  1.00  0.00     0.000 C 
BRANCH  10  11
ATOM     11  C   UNL     1     -20.955 -21.333   3.119  1.00  0.00    -0.000 C 
BRANCH  11  12
ATOM     12  C   UNL     1     -19.612 -21.927   3.584  1.00  0.00    -0.000 C 
BRANCH  12  13
ATOM     13  C   UNL     1     -18.541 -20.858   3.839  1.00  0.00    -0.000 C 
BRANCH  13  14
ATOM     14  C   UNL     1     -17.475 -20.870   2.734  1.00  0.00    -0.000 C 
BRANCH  14  15
ATOM     15  C   UNL     1     -16.746 -19.524   2.591  1.00  0.00    -0.000 C 
BRANCH  15  16
ATOM     16  C   UNL     1     -17.614 -18.306   2.971  1.00  0.00    -0.003 C 
ATOM     17  C   UNL     1     -17.904 -17.401   1.773  1.00  0.00     0.004 C 
ENDBRANCH  15  16
ENDBRANCH  14  15
ENDBRANCH  13  14
ENDBRANCH  12  13
ENDBRANCH  11  12
ENDBRANCH  10  11
ENDBRANCH   1  10
TORSDOF 13
ENDMDL
MODEL 6
REMARK VINA RESULT:    -3.458      1.295      3.011
REMARK INTER + INTRA:          -7.662
REMARK INTER:                  -5.463
REMARK INTRA:                  -2.199
REMARK UNBOUND:                -1.576
REMARK SMILES CCCCCCCCCCCCCCC(=O)[O-]
REMARK SMILES IDX 9 1 10 2 11 3 12 4 13 5 14 6 15 7 16 8 17 9 8 10 7 11 6 12
REMARK SMILES IDX 5 13 4 14 3 15 2 16 1 17
REMARK H PARENT
REMARK Flexibility Score: inf
ROOT
ATOM      1  C   UNL     1     -17.760 -16.847   3.211  1.00  0.00     0.000 C 
ENDROOT
BRANCH   1   2
ATOM      2  C   UNL     1     -18.305 -17.369   1.865  1.00  0.00     0.000 C 
BRANCH   2   3
ATOM      3  C   UNL     1     -19.706 -17.985   1.996  1.00  0.00     0.000 C 
BRANCH   3   4
ATOM      4  C   UNL     1     -19.985 -18.968   0.853  1.00  0.00     0.000 C 
BRANCH   4   5
ATOM      5  C   UNL     1     -21.443 -19.447   0.883  1.00  0.00     0.006 C 
BRANCH   5   6
ATOM      6  C   UNL     1     -21.551 -20.978   0.937  1.00  0.00     0.053 C 
BRANCH   6   7
ATOM      7  C   UNL     1     -22.035 -21.547  -0.361  1.00  0.00     0.041 C 
ATOM      8  O   UNL     1     -22.804 -22.544  -0.367  1.00  0.00    -0.550 OA
ATOM      9  O   UNL     1     -21.665 -20.958  -1.563  1.00  0.00    -0.550 OA
ENDBRANCH   6   7
ENDBRANCH   5   6
ENDBRANCH   4   5
ENDBRANCH   3   4
ENDBRANCH   2   3
ENDBRANCH   1   2
BRANCH   1  10
ATOM     10  C   UNL     1     -18.355 -17.560   4.440  1.00  0.00     0.000 C 
BRANCH  10  11
ATOM     11  C   UNL     1     -17.320 -18.108   5.442  1.00  0.00    -0.000 C 
BRANCH  11  12
ATOM     12  C   UNL     1     -15.943 -18.442   4.837  1.00  0.00    -0.000 C 
BRANCH  12  13
ATOM     13  C   UNL     1     -15.791 -19.929   4.483  1.00  0.00    -0.000 C 
BRANCH  13  14
ATOM     14  C   UNL     1     -15.943 -20.155   2.972  1.00  0.00    -0.000 C 
BRANCH  14  15
ATOM     15  C   UNL     1     -17.299 -20.774   2.593  1.00  0.00    -0.000 C 
BRANCH  15  16
ATOM     16  C   UNL     1     -17.988 -21.515   3.758  1.00  0.00    -0.003 C 
ATOM     17  C   UNL     1     -19.447 -21.093   3.935  1.00  0.00     0.004 C 
ENDBRANCH  15  16
ENDBRANCH  14  15
ENDBRANCH  13  14
ENDBRANCH  12  13
ENDBRANCH  11  12
ENDBRANCH  10  11
ENDBRANCH   1  10
TORSDOF 13
ENDMDL
MODEL 7
REMARK VINA RESULT:    -3.455      1.547      3.672
REMARK INTER + INTRA:          -7.657
REMARK INTER:                  -6.077
REMARK INTRA:                  -1.580
REMARK UNBOUND:                -1.576
REMARK SMILES CCCCCCCCCCCCCCC(=O)[O-]
REMARK SMILES IDX 9 1 10 2 11 3 12 4 13 5 14 6 15 7 16 8 17 9 8 10 7 11 6 12
REMARK SMILES IDX 5 13 4 14 3 15 2 16 1 17
REMARK H PARENT
REMARK Flexibility Score: inf
ROOT
ATOM      1  C   UNL     1     -19.355 -17.807   2.546  1.00  0.00     0.000 C 
ENDROOT
BRANCH   1   2
ATOM      2  C   UNL     1     -20.017 -17.618   1.164  1.00  0.00     0.000 C 
BRANCH   2   3
ATOM      3  C   UNL     1     -21.127 -18.646   0.899  1.00  0.00     0.000 C 
BRANCH   3   4
ATOM      4  C   UNL     1     -20.590 -19.846   0.109  1.00  0.00     0.000 C 
BRANCH   4   5
ATOM      5  C   UNL     1     -21.597 -20.297  -0.959  1.00  0.00     0.006 C 
BRANCH   5   6
ATOM      6  C   UNL     1     -22.171 -21.689  -0.664  1.00  0.00     0.053 C 
BRANCH   6   7
ATOM      7  C   UNL     1     -23.582 -21.617  -0.167  1.00  0.00     0.041 C 
ATOM      8  O   UNL     1     -24.306 -22.647  -0.165  1.00  0.00    -0.550 OA
ATOM      9  O   UNL     1     -24.087 -20.421   0.326  1.00  0.00    -0.550 OA
ENDBRANCH   6   7
ENDBRANCH   5   6
ENDBRANCH   4   5
ENDBRANCH   3   4
ENDBRANCH   2   3
ENDBRANCH   1   2
BRANCH   1  10
ATOM     10  C   UNL     1     -17.819 -17.904   2.489  1.00  0.00     0.000 C 
BRANCH  10  11
ATOM     11  C   UNL     1     -17.270 -19.129   1.733  1.00  0.00    -0.000 C 
BRANCH  11  12
ATOM     12  C   UNL     1     -16.505 -20.143   2.605  1.00  0.00    -0.000 C 
BRANCH  12  13
ATOM     13  C   UNL     1     -17.330 -20.648   3.797  1.00  0.00    -0.000 C 
BRANCH  13  14
ATOM     14  C   UNL     1     -18.321 -21.736   3.361  1.00  0.00    -0.000 C 
BRANCH  14  15
ATOM     15  C   UNL     1     -19.664 -21.658   4.107  1.00  0.00    -0.000 C 
BRANCH  15  16
ATOM     16  C   UNL     1     -20.890 -21.626   3.171  1.00  0.00    -0.003 C 
ATOM     17  C   UNL     1     -21.926 -22.692   3.533  1.00  0.00     0.004 C 
ENDBRANCH  15  16
ENDBRANCH  14  15
ENDBRANCH  13  14
ENDBRANCH  12  13
ENDBRANCH  11  12
ENDBRANCH  10  11
ENDBRANCH   1  10
TORSDOF 13
ENDMDL
MODEL 8
REMARK VINA RESULT:    -3.428      7.860      9.447
REMARK INTER + INTRA:          -7.609
REMARK INTER:                  -6.207
REMARK INTRA:                  -1.402
REMARK UNBOUND:                -1.576
REMARK SMILES CCCCCCCCCCCCCCC(=O)[O-]
REMARK SMILES IDX 9 1 10 2 11 3 12 4 13 5 14 6 15 7 16 8 17 9 8 10 7 11 6 12
REMARK SMILES IDX 5 13 4 14 3 15 2 16 1 17
REMARK H PARENT
REMARK Flexibility Score: inf
ROOT
ATOM      1  C   UNL     1     -17.694 -14.459  -0.276  1.00  0.00     0.000 C 
ENDROOT
BRANCH   1   2
ATOM      2  C   UNL     1     -16.908 -14.968  -1.503  1.00  0.00     0.000 C 
BRANCH   2   3
ATOM      3  C   UNL     1     -17.326 -14.264  -2.803  1.00  0.00     0.000 C 
BRANCH   3   4
ATOM      4  C   UNL     1     -16.991 -12.769  -2.751  1.00  0.00     0.000 C 
BRANCH   4   5
ATOM      5  C   UNL     1     -18.268 -11.917  -2.798  1.00  0.00     0.006 C 
BRANCH   5   6
ATOM      6  C   UNL     1     -19.464 -12.695  -3.364  1.00  0.00     0.053 C 
BRANCH   6   7
ATOM      7  C   UNL     1     -20.138 -11.949  -4.475  1.00  0.00     0.041 C 
ATOM      8  O   UNL     1     -21.038 -11.108  -4.217  1.00  0.00    -0.550 OA
ATOM      9  O   UNL     1     -19.749 -12.158  -5.791  1.00  0.00    -0.550 OA
ENDBRANCH   6   7
ENDBRANCH   5   6
ENDBRANCH   4   5
ENDBRANCH   3   4
ENDBRANCH   2   3
ENDBRANCH   1   2
BRANCH   1  10
ATOM     10  C   UNL     1     -16.815 -14.207   0.964  1.00  0.00     0.000 C 
BRANCH  10  11
ATOM     11  C   UNL     1     -15.344 -13.863   0.662  1.00  0.00    -0.000 C 
BRANCH  11  12
ATOM     12  C   UNL     1     -15.048 -12.360   0.500  1.00  0.00    -0.000 C 
BRANCH  12  13
ATOM     13  C   UNL     1     -13.554 -12.028   0.627  1.00  0.00    -0.000 C 
BRANCH  13  14
ATOM     14  C   UNL     1     -12.732 -13.290   0.923  1.00  0.00    -0.000 C 
BRANCH  14  15
ATOM     15  C   UNL     1     -11.916 -13.181   2.221  1.00  0.00    -0.000 C 
BRANCH  15  16
ATOM     16  C   UNL     1     -12.327 -14.207   3.298  1.00  0.00    -0.003 C 
ATOM     17  C   UNL     1     -13.647 -13.841   3.977  1.00  0.00     0.004 C 
ENDBRANCH  15  16
ENDBRANCH  14  15
ENDBRANCH  13  14
ENDBRANCH  12  13
ENDBRANCH  11  12
ENDBRANCH  10  11
ENDBRANCH   1  10
TORSDOF 13
ENDMDL
MODEL 9
REMARK VINA RESULT:    -3.422      7.764     10.289
REMARK INTER + INTRA:          -7.599
REMARK INTER:                  -5.773
REMARK INTRA:                  -1.826
REMARK UNBOUND:                -1.576
REMARK SMILES CCCCCCCCCCCCCCC(=O)[O-]
REMARK SMILES IDX 9 1 10 2 11 3 12 4 13 5 14 6 15 7 16 8 17 9 8 10 7 11 6 12
REMARK SMILES IDX 5 13 4 14 3 15 2 16 1 17
REMARK H PARENT
REMARK Flexibility Score: inf
ROOT
ATOM      1  C   UNL     1     -15.867 -13.219   2.055  1.00  0.00     0.000 C 
ENDROOT
BRANCH   1   2
ATOM      2  C   UNL     1     -14.827 -13.443   0.937  1.00  0.00     0.000 C 
BRANCH   2   3
ATOM      3  C   UNL     1     -14.044 -12.166   0.597  1.00  0.00     0.000 C 
BRANCH   3   4
ATOM      4  C   UNL     1     -12.534 -12.391   0.744  1.00  0.00     0.000 C 
BRANCH   4   5
ATOM      5  C   UNL     1     -12.241 -13.756   1.382  1.00  0.00     0.006 C 
BRANCH   5   6
ATOM      6  C   UNL     1     -11.638 -13.624   2.787  1.00  0.00     0.053 C 
BRANCH   6   7
ATOM      7  C   UNL     1     -12.119 -14.705   3.704  1.00  0.00     0.041 C 
ATOM      8  O   UNL     1     -11.379 -15.691   3.963  1.00  0.00    -0.550 OA
ATOM      9  O   UNL     1     -13.369 -14.608   4.301  1.00  0.00    -0.550 OA
ENDBRANCH   6   7
ENDBRANCH   5   6
ENDBRANCH   4   5
ENDBRANCH   3   4
ENDBRANCH   2   3
ENDBRANCH   1   2
BRANCH   1  10
ATOM     10  C   UNL     1     -17.212 -13.927   1.803  1.00  0.00     0.000 C 
BRANCH  10  11
ATOM     11  C   UNL     1     -17.180 -15.022   0.719  1.00  0.00    -0.000 C 
BRANCH  11  12
ATOM     12  C   UNL     1     -17.959 -14.686  -0.567  1.00  0.00    -0.000 C 
BRANCH  12  13
ATOM     13  C   UNL     1     -17.065 -14.647  -1.814  1.00  0.00    -0.000 C 
BRANCH  13  14
ATOM     14  C   UNL     1     -17.351 -13.397  -2.659  1.00  0.00    -0.000 C 
BRANCH  14  15
ATOM     15  C   UNL     1     -16.465 -12.200  -2.276  1.00  0.00    -0.000 C 
BRANCH  15  16
ATOM     16  C   UNL     1     -17.264 -10.939  -1.883  1.00  0.00    -0.003 C 
ATOM     17  C   UNL     1     -17.711 -10.966  -0.421  1.00  0.00     0.004 C 
ENDBRANCH  15  16
ENDBRANCH  14  15
ENDBRANCH  13  14
ENDBRANCH  12  13
ENDBRANCH  11  12
ENDBRANCH  10  11
ENDBRANCH   1  10
TORSDOF 13
ENDMDL
