MODEL 1
REMARK VINA RESULT:    -2.097      0.000      0.000
REMARK INTER + INTRA:          -1.073
REMARK INTER:                  -2.833
REMARK INTRA:                   1.760
REMARK UNBOUND:                 1.760
REMARK SMILES C=C1CCC=C(C)CC[C@@H]2[C@@H]1CC2(C)C
REMARK SMILES IDX 11 1 12 2 13 3 10 4 14 5 15 6 9 7 8 8 6 9 7 10 5 11 2 13
REMARK SMILES IDX 1 14 3 15 4 16
REMARK H PARENT
REMARK Flexibility Score: 70.00
ROOT
ATOM      1  C   UNL     1     146.481 144.375 132.318  1.00  0.00     0.018 C 
ATOM      2  C   UNL     1     145.708 143.088 132.634  1.00  0.00     0.015 C 
ATOM      3  C   UNL     1     144.481 143.626 131.882  1.00  0.00    -0.031 C 
ATOM      4  C   UNL     1     145.233 144.957 131.629  1.00  0.00     0.002 C 
ATOM      5  C   UNL     1     143.257 143.801 132.799  1.00  0.00     0.011 C 
ATOM      6  C   UNL     1     144.131 142.781 130.639  1.00  0.00     0.011 C 
ENDROOT
BRANCH   4   7
ATOM      7  C   UNL     1     145.483 145.377 130.165  1.00  0.00     0.009 C 
BRANCH   7   8
ATOM      8  C   UNL     1     145.357 146.897 129.970  1.00  0.00     0.030 C 
BRANCH   8   9
ATOM      9  C   UNL     1     146.460 147.661 130.680  1.00  0.00    -0.077 C 
ATOM     10  C   UNL     1     147.477 148.387 129.837  1.00  0.00     0.039 C 
ATOM     11  C   UNL     1     146.555 147.773 132.027  1.00  0.00    -0.028 CG0
ATOM     12  G   UNL     1     145.617 147.162 133.045  1.00  0.00     0.000 G0
ENDBRANCH   8   9
ENDBRANCH   7   8
ENDBRANCH   4   7
BRANCH   1  13
ATOM     13  C   UNL     1     147.007 145.096 133.554  1.00  0.00    -0.074 C 
ATOM     14  C   UNL     1     148.177 144.681 134.071  1.00  0.00     0.008 C 
BRANCH  13  15
ATOM     15  C   UNL     1     146.352 146.342 134.125  1.00  0.00     0.035 C 
BRANCH  15  16
ATOM     16  C   UNL     1     145.619 147.165 133.045  1.00  0.00     0.032 CG0
ATOM     17  G   UNL     1     146.571 147.775 132.040  1.00  0.00     0.000 G0
ENDBRANCH  15  16
ENDBRANCH  13  15
ENDBRANCH   1  13
TORSDOF 0
ENDMDL
MODEL 2
REMARK VINA RESULT:    -2.083      1.475      2.389
REMARK INTER + INTRA:          -1.054
REMARK INTER:                  -2.007
REMARK INTRA:                   0.953
REMARK UNBOUND:                 1.760
REMARK SMILES C=C1CCC=C(C)CC[C@@H]2[C@@H]1CC2(C)C
REMARK SMILES IDX 11 1 12 2 13 3 10 4 14 5 15 6 9 7 8 8 6 9 7 10 5 11 2 13
REMARK SMILES IDX 1 14 3 15 4 16
REMARK H PARENT
REMARK Flexibility Score: 70.00
ROOT
ATOM      1  C   UNL     1     146.254 145.057 131.553  1.00  0.00     0.018 C 
ATOM      2  C   UNL     1     146.445 143.542 131.403  1.00  0.00     0.015 C 
ATOM      3  C   UNL     1     144.944 143.317 131.645  1.00  0.00    -0.031 C 
ATOM      4  C   UNL     1     144.763 144.839 131.873  1.00  0.00     0.002 C 
ATOM      5  C   UNL     1     144.669 142.490 132.914  1.00  0.00     0.011 C 
ATOM      6  C   UNL     1     144.231 142.711 130.418  1.00  0.00     0.011 C 
ENDROOT
BRANCH   4   7
ATOM      7  C   UNL     1     143.815 145.602 130.925  1.00  0.00     0.009 C 
BRANCH   7   8
ATOM      8  C   UNL     1     143.149 146.803 131.616  1.00  0.00     0.030 C 
BRANCH   8   9
ATOM      9  C   UNL     1     143.557 146.927 133.074  1.00  0.00    -0.077 C 
ATOM     10  C   UNL     1     142.599 146.430 134.124  1.00  0.00     0.039 C 
ATOM     11  C   UNL     1     144.755 147.412 133.483  1.00  0.00    -0.028 CG0
ATOM     12  G   UNL     1     145.869 147.919 132.593  1.00  0.00     0.000 G0
ENDBRANCH   8   9
ENDBRANCH   7   8
ENDBRANCH   4   7
BRANCH   1  13
ATOM     13  C   UNL     1     147.126 145.683 132.635  1.00  0.00    -0.074 C 
ATOM     14  C   UNL     1     147.932 144.870 133.339  1.00  0.00     0.008 C 
BRANCH  13  15
ATOM     15  C   UNL     1     147.232 147.185 132.844  1.00  0.00     0.035 C 
BRANCH  15  16
ATOM     16  C   UNL     1     145.894 147.907 132.590  1.00  0.00     0.032 CG0
ATOM     17  G   UNL     1     144.784 147.395 133.481  1.00  0.00     0.000 G0
ENDBRANCH  15  16
ENDBRANCH  13  15
ENDBRANCH   1  13
TORSDOF 0
ENDMDL
MODEL 3
REMARK VINA RESULT:    -2.065      1.903      4.366
REMARK INTER + INTRA:          -1.029
REMARK INTER:                  -2.065
REMARK INTRA:                   1.036
REMARK UNBOUND:                 1.760
REMARK SMILES C=C1CCC=C(C)CC[C@@H]2[C@@H]1CC2(C)C
REMARK SMILES IDX 11 1 12 2 13 3 10 4 14 5 15 6 9 7 8 8 6 9 7 10 5 11 2 13
REMARK SMILES IDX 1 14 3 15 4 16
REMARK H PARENT
REMARK Flexibility Score: 70.00
ROOT
ATOM      1  C   UNL     1     144.524 145.780 131.525  1.00  0.00     0.018 C 
ATOM      2  C   UNL     1     144.365 147.298 131.376  1.00  0.00     0.015 C 
ATOM      3  C   UNL     1     145.871 147.491 131.608  1.00  0.00    -0.031 C 
ATOM      4  C   UNL     1     146.021 145.966 131.836  1.00  0.00     0.002 C 
ATOM      5  C   UNL     1     146.173 148.313 132.876  1.00  0.00     0.011 C 
ATOM      6  C   UNL     1     146.589 148.082 130.377  1.00  0.00     0.011 C 
ENDROOT
BRANCH   4   7
ATOM      7  C   UNL     1     146.946 145.182 130.881  1.00  0.00     0.009 C 
BRANCH   7   8
ATOM      8  C   UNL     1     147.602 143.976 131.573  1.00  0.00     0.030 C 
BRANCH   8   9
ATOM      9  C   UNL     1     147.186 143.850 133.028  1.00  0.00    -0.077 C 
ATOM     10  C   UNL     1     148.151 144.319 134.086  1.00  0.00     0.039 C 
ATOM     11  C   UNL     1     145.976 143.388 133.429  1.00  0.00    -0.028 CG0
ATOM     12  G   UNL     1     144.855 142.912 132.531  1.00  0.00     0.000 G0
ENDBRANCH   8   9
ENDBRANCH   7   8
ENDBRANCH   4   7
BRANCH   1  13
ATOM     13  C   UNL     1     143.646 145.173 132.614  1.00  0.00    -0.074 C 
ATOM     14  C   UNL     1     142.839 145.999 133.302  1.00  0.00     0.008 C 
BRANCH  13  15
ATOM     15  C   UNL     1     143.535 143.675 132.845  1.00  0.00     0.035 C 
BRANCH  15  16
ATOM     16  C   UNL     1     144.851 142.935 132.531  1.00  0.00     0.032 CG0
ATOM     17  G   UNL     1     145.992 143.387 133.416  1.00  0.00     0.000 G0
ENDBRANCH  15  16
ENDBRANCH  13  15
ENDBRANCH   1  13
TORSDOF 0
ENDMDL
MODEL 4
REMARK VINA RESULT:    -2.032      1.893      4.433
REMARK INTER + INTRA:          -0.984
REMARK INTER:                  -2.722
REMARK INTRA:                   1.738
REMARK UNBOUND:                 1.760
REMARK SMILES C=C1CCC=C(C)CC[C@@H]2[C@@H]1CC2(C)C
REMARK SMILES IDX 11 1 12 2 13 3 10 4 14 5 15 6 9 7 8 8 6 9 7 10 5 11 2 13
REMARK SMILES IDX 1 14 3 15 4 16
REMARK H PARENT
REMARK Flexibility Score: 70.00
ROOT
ATOM      1  C   UNL     1     144.166 146.453 132.251  1.00  0.00     0.018 C 
ATOM      2  C   UNL     1     144.935 147.744 132.558  1.00  0.00     0.015 C 
ATOM      3  C   UNL     1     146.180 147.186 131.853  1.00  0.00    -0.031 C 
ATOM      4  C   UNL     1     145.432 145.851 131.611  1.00  0.00     0.002 C 
ATOM      5  C   UNL     1     147.378 147.029 132.808  1.00  0.00     0.011 C 
ATOM      6  C   UNL     1     146.568 148.000 130.601  1.00  0.00     0.011 C 
ENDROOT
BRANCH   4   7
ATOM      7  C   UNL     1     145.221 145.397 130.151  1.00  0.00     0.009 C 
BRANCH   7   8
ATOM      8  C   UNL     1     145.352 143.873 129.995  1.00  0.00     0.030 C 
BRANCH   8   9
ATOM      9  C   UNL     1     144.241 143.124 130.709  1.00  0.00    -0.077 C 
ATOM     10  C   UNL     1     143.243 142.367 129.871  1.00  0.00     0.039 C 
ATOM     11  C   UNL     1     144.125 143.052 132.057  1.00  0.00    -0.028 CG0
ATOM     12  G   UNL     1     145.043 143.698 133.072  1.00  0.00     0.000 G0
ENDBRANCH   8   9
ENDBRANCH   7   8
ENDBRANCH   4   7
BRANCH   1  13
ATOM     13  C   UNL     1     143.604 145.763 133.488  1.00  0.00    -0.074 C 
ATOM     14  C   UNL     1     142.409 146.173 133.947  1.00  0.00     0.008 C 
BRANCH  13  15
ATOM     15  C   UNL     1     144.256 144.546 134.124  1.00  0.00     0.035 C 
BRANCH  15  16
ATOM     16  C   UNL     1     145.036 143.698 133.099  1.00  0.00     0.032 CG0
ATOM     17  G   UNL     1     144.130 143.065 132.067  1.00  0.00     0.000 G0
ENDBRANCH  15  16
ENDBRANCH  13  15
ENDBRANCH   1  13
TORSDOF 0
ENDMDL
MODEL 5
REMARK VINA RESULT:    -1.920      1.436      3.320
REMARK INTER + INTRA:          -0.833
REMARK INTER:                  -1.859
REMARK INTRA:                   1.026
REMARK UNBOUND:                 1.760
REMARK SMILES C=C1CCC=C(C)CC[C@@H]2[C@@H]1CC2(C)C
REMARK SMILES IDX 11 1 12 2 13 3 10 4 14 5 15 6 9 7 8 8 6 9 7 10 5 11 2 13
REMARK SMILES IDX 1 14 3 15 4 16
REMARK H PARENT
REMARK Flexibility Score: 70.00
ROOT
ATOM      1  C   UNL     1     145.158 144.292 133.519  1.00  0.00     0.018 C 
ATOM      2  C   UNL     1     146.171 143.141 133.474  1.00  0.00     0.015 C 
ATOM      3  C   UNL     1     147.282 144.118 133.059  1.00  0.00    -0.031 C 
ATOM      4  C   UNL     1     146.245 145.268 133.029  1.00  0.00     0.002 C 
ATOM      5  C   UNL     1     147.857 143.801 131.666  1.00  0.00     0.011 C 
ATOM      6  C   UNL     1     148.402 144.223 134.115  1.00  0.00     0.011 C 
ENDROOT
BRANCH   4   7
ATOM      7  C   UNL     1     146.466 146.464 133.979  1.00  0.00     0.009 C 
BRANCH   7   8
ATOM      8  C   UNL     1     145.948 147.782 133.380  1.00  0.00     0.030 C 
BRANCH   8   9
ATOM      9  C   UNL     1     145.333 147.588 132.005  1.00  0.00    -0.077 C 
ATOM     10  C   UNL     1     146.144 147.994 130.802  1.00  0.00     0.039 C 
ATOM     11  C   UNL     1     144.120 147.022 131.795  1.00  0.00    -0.028 CG0
ATOM     12  G   UNL     1     143.173 146.509 132.857  1.00  0.00     0.000 G0
ENDBRANCH   8   9
ENDBRANCH   7   8
ENDBRANCH   4   7
BRANCH   1  13
ATOM     13  C   UNL     1     143.943 144.079 132.624  1.00  0.00    -0.074 C 
ATOM     14  C   UNL     1     143.867 142.928 131.934  1.00  0.00     0.008 C 
BRANCH  13  15
ATOM     15  C   UNL     1     142.759 145.032 132.597  1.00  0.00     0.035 C 
BRANCH  15  16
ATOM     16  C   UNL     1     143.178 146.493 132.860  1.00  0.00     0.032 CG0
ATOM     17  G   UNL     1     144.119 147.023 131.800  1.00  0.00     0.000 G0
ENDBRANCH  15  16
ENDBRANCH  13  15
ENDBRANCH   1  13
TORSDOF 0
ENDMDL
MODEL 6
REMARK VINA RESULT:    -1.876      2.002      4.096
REMARK INTER + INTRA:          -0.774
REMARK INTER:                  -1.623
REMARK INTRA:                   0.849
REMARK UNBOUND:                 1.760
REMARK SMILES C=C1CCC=C(C)CC[C@@H]2[C@@H]1CC2(C)C
REMARK SMILES IDX 11 1 12 2 13 3 10 4 14 5 15 6 9 7 8 8 6 9 7 10 5 11 2 13
REMARK SMILES IDX 1 14 3 15 4 16
REMARK H PARENT
REMARK Flexibility Score: 70.00
ROOT
ATOM      1  C   UNL     1     145.650 146.666 133.058  1.00  0.00     0.018 C 
ATOM      2  C   UNL     1     144.536 147.716 133.165  1.00  0.00     0.015 C 
ATOM      3  C   UNL     1     143.475 146.634 132.916  1.00  0.00    -0.031 C 
ATOM      4  C   UNL     1     144.601 145.587 132.730  1.00  0.00     0.002 C 
ATOM      5  C   UNL     1     142.674 146.880 131.624  1.00  0.00     0.011 C 
ATOM      6  C   UNL     1     142.537 146.436 134.125  1.00  0.00     0.011 C 
ENDROOT
BRANCH   4   7
ATOM      7  C   UNL     1     144.636 144.386 133.699  1.00  0.00     0.009 C 
BRANCH   7   8
ATOM      8  C   UNL     1     145.004 143.076 132.984  1.00  0.00     0.030 C 
BRANCH   8   9
ATOM      9  C   UNL     1     144.858 143.182 131.476  1.00  0.00    -0.077 C 
ATOM     10  C   UNL     1     143.651 142.549 130.834  1.00  0.00     0.039 C 
ATOM     11  C   UNL     1     145.722 143.858 130.680  1.00  0.00    -0.028 CG0
ATOM     12  G   UNL     1     146.964 144.596 131.129  1.00  0.00     0.000 G0
ENDBRANCH   8   9
ENDBRANCH   7   8
ENDBRANCH   4   7
BRANCH   1  13
ATOM     13  C   UNL     1     146.694 146.983 131.994  1.00  0.00    -0.074 C 
ATOM     14  C   UNL     1     147.534 148.007 132.224  1.00  0.00     0.008 C 
BRANCH  13  15
ATOM     15  C   UNL     1     146.921 146.108 130.772  1.00  0.00     0.035 C 
BRANCH  15  16
ATOM     16  C   UNL     1     146.977 144.608 131.129  1.00  0.00     0.032 CG0
ATOM     17  G   UNL     1     145.731 143.866 130.699  1.00  0.00     0.000 G0
ENDBRANCH  15  16
ENDBRANCH  13  15
ENDBRANCH   1  13
TORSDOF 0
ENDMDL
MODEL 7
REMARK VINA RESULT:    -1.653      1.868      3.552
REMARK INTER + INTRA:          -0.473
REMARK INTER:                  -1.471
REMARK INTRA:                   0.998
REMARK UNBOUND:                 1.760
REMARK SMILES C=C1CCC=C(C)CC[C@@H]2[C@@H]1CC2(C)C
REMARK SMILES IDX 11 1 12 2 13 3 10 4 14 5 15 6 9 7 8 8 6 9 7 10 5 11 2 13
REMARK SMILES IDX 1 14 3 15 4 16
REMARK H PARENT
REMARK Flexibility Score: 70.00
ROOT
ATOM      1  C   UNL     1     146.441 146.432 132.832  1.00  0.00     0.018 C 
ATOM      2  C   UNL     1     147.221 145.744 133.959  1.00  0.00     0.015 C 
ATOM      3  C   UNL     1     147.039 144.382 133.270  1.00  0.00    -0.031 C 
ATOM      4  C   UNL     1     146.186 145.064 132.172  1.00  0.00     0.002 C 
ATOM      5  C   UNL     1     146.226 143.392 134.125  1.00  0.00     0.011 C 
ATOM      6  C   UNL     1     148.379 143.762 132.822  1.00  0.00     0.011 C 
ENDROOT
BRANCH   4   7
ATOM      7  C   UNL     1     146.689 144.984 130.715  1.00  0.00     0.009 C 
BRANCH   7   8
ATOM      8  C   UNL     1     145.560 144.633 129.732  1.00  0.00     0.030 C 
BRANCH   8   9
ATOM      9  C   UNL     1     144.287 144.209 130.444  1.00  0.00    -0.077 C 
ATOM     10  C   UNL     1     143.909 142.751 130.412  1.00  0.00     0.039 C 
ATOM     11  C   UNL     1     143.500 145.056 131.150  1.00  0.00    -0.028 CG0
ATOM     12  G   UNL     1     143.725 146.539 131.342  1.00  0.00     0.000 G0
ENDBRANCH   8   9
ENDBRANCH   7   8
ENDBRANCH   4   7
BRANCH   1  13
ATOM     13  C   UNL     1     145.230 147.221 133.314  1.00  0.00    -0.074 C 
ATOM     14  C   UNL     1     145.452 148.321 134.055  1.00  0.00     0.008 C 
BRANCH  13  15
ATOM     15  C   UNL     1     143.810 146.909 132.871  1.00  0.00     0.035 C 
BRANCH  15  16
ATOM     16  C   UNL     1     143.731 146.543 131.374  1.00  0.00     0.032 CG0
ATOM     17  G   UNL     1     143.495 145.065 131.154  1.00  0.00     0.000 G0
ENDBRANCH  15  16
ENDBRANCH  13  15
ENDBRANCH   1  13
TORSDOF 0
ENDMDL
MODEL 8
REMARK VINA RESULT:    -1.638      1.773      2.785
REMARK INTER + INTRA:          -0.453
REMARK INTER:                  -1.484
REMARK INTRA:                   1.031
REMARK UNBOUND:                 1.760
REMARK SMILES C=C1CCC=C(C)CC[C@@H]2[C@@H]1CC2(C)C
REMARK SMILES IDX 11 1 12 2 13 3 10 4 14 5 15 6 9 7 8 8 6 9 7 10 5 11 2 13
REMARK SMILES IDX 1 14 3 15 4 16
REMARK H PARENT
REMARK Flexibility Score: 70.00
ROOT
ATOM      1  C   UNL     1     144.410 144.262 132.773  1.00  0.00     0.018 C 
ATOM      2  C   UNL     1     143.569 144.909 133.882  1.00  0.00     0.015 C 
ATOM      3  C   UNL     1     143.738 146.287 133.223  1.00  0.00    -0.031 C 
ATOM      4  C   UNL     1     144.651 145.648 132.147  1.00  0.00     0.002 C 
ATOM      5  C   UNL     1     144.491 147.283 134.125  1.00  0.00     0.011 C 
ATOM      6  C   UNL     1     142.400 146.877 132.735  1.00  0.00     0.011 C 
ENDROOT
BRANCH   4   7
ATOM      7  C   UNL     1     144.202 145.740 130.673  1.00  0.00     0.009 C 
BRANCH   7   8
ATOM      8  C   UNL     1     145.348 146.174 129.745  1.00  0.00     0.030 C 
BRANCH   8   9
ATOM      9  C   UNL     1     146.582 146.606 130.516  1.00  0.00    -0.077 C 
ATOM     10  C   UNL     1     146.941 148.069 130.521  1.00  0.00     0.039 C 
ATOM     11  C   UNL     1     147.351 145.760 131.245  1.00  0.00    -0.028 CG0
ATOM     12  G   UNL     1     147.140 144.271 131.407  1.00  0.00     0.000 G0
ENDBRANCH   8   9
ENDBRANCH   7   8
ENDBRANCH   4   7
BRANCH   1  13
ATOM     13  C   UNL     1     145.624 143.498 133.288  1.00  0.00    -0.074 C 
ATOM     14  C   UNL     1     145.405 142.376 133.996  1.00  0.00     0.008 C 
BRANCH  13  15
ATOM     15  C   UNL     1     147.050 143.861 132.909  1.00  0.00     0.035 C 
BRANCH  15  16
ATOM     16  C   UNL     1     147.179 144.258 131.425  1.00  0.00     0.032 CG0
ATOM     17  G   UNL     1     147.363 145.748 131.240  1.00  0.00     0.000 G0
ENDBRANCH  15  16
ENDBRANCH  13  15
ENDBRANCH   1  13
TORSDOF 0
ENDMDL
MODEL 9
REMARK VINA RESULT:    -1.310      2.000      3.955
REMARK INTER + INTRA:          -0.009
REMARK INTER:                  -1.026
REMARK INTRA:                   1.017
REMARK UNBOUND:                 1.760
REMARK SMILES C=C1CCC=C(C)CC[C@@H]2[C@@H]1CC2(C)C
REMARK SMILES IDX 11 1 12 2 13 3 10 4 14 5 15 6 9 7 8 8 6 9 7 10 5 11 2 13
REMARK SMILES IDX 1 14 3 15 4 16
REMARK H PARENT
REMARK Flexibility Score: 70.00
ROOT
ATOM      1  C   UNL     1     145.456 145.516 133.414  1.00  0.00     0.018 C 
ATOM      2  C   UNL     1     146.387 146.507 134.125  1.00  0.00     0.015 C 
ATOM      3  C   UNL     1     146.264 147.486 132.948  1.00  0.00    -0.031 C 
ATOM      4  C   UNL     1     145.387 146.455 132.195  1.00  0.00     0.002 C 
ATOM      5  C   UNL     1     147.612 147.741 132.248  1.00  0.00     0.011 C 
ATOM      6  C   UNL     1     145.585 148.812 133.349  1.00  0.00     0.011 C 
ENDROOT
BRANCH   4   7
ATOM      7  C   UNL     1     143.947 146.868 131.822  1.00  0.00     0.009 C 
BRANCH   7   8
ATOM      8  C   UNL     1     143.259 145.824 130.928  1.00  0.00     0.030 C 
BRANCH   8   9
ATOM      9  C   UNL     1     144.256 144.916 130.231  1.00  0.00    -0.077 C 
ATOM     10  C   UNL     1     144.920 145.421 128.976  1.00  0.00     0.039 C 
ATOM     11  C   UNL     1     144.624 143.698 130.700  1.00  0.00    -0.028 CG0
ATOM     12  G   UNL     1     144.113 143.031 131.958  1.00  0.00     0.000 G0
ENDBRANCH   8   9
ENDBRANCH   7   8
ENDBRANCH   4   7
BRANCH   1  13
ATOM     13  C   UNL     1     146.067 144.135 133.210  1.00  0.00    -0.074 C 
ATOM     14  C   UNL     1     147.402 144.018 133.316  1.00  0.00     0.008 C 
BRANCH  13  15
ATOM     15  C   UNL     1     145.230 142.877 133.045  1.00  0.00     0.035 C 
BRANCH  15  16
ATOM     16  C   UNL     1     144.120 143.048 131.988  1.00  0.00     0.032 CG0
ATOM     17  G   UNL     1     144.630 143.686 130.715  1.00  0.00     0.000 G0
ENDBRANCH  15  16
ENDBRANCH  13  15
ENDBRANCH   1  13
TORSDOF 0
ENDMDL
