MODEL 1
REMARK VINA RESULT:     4.670      0.000      0.000
REMARK INTER + INTRA:           6.511
REMARK INTER:                   7.400
REMARK INTRA:                  -0.889
REMARK UNBOUND:                -0.889
REMARK SMILES C[C@H]1O[C@H](O[C@H]2[C@H](Oc3cc(O)c4c(c3)O[C@@H](c3ccc(O)cc3)CC4=O)O[C@@H](CO)[C@H](O)[C@@H]2O)[C@H](O)[C@@H](O)[C@H]1O
REMARK SMILES IDX 6 1 34 2 32 3 29 4 28 5 7 6 5 7 4 8 1 9 2 10 40 11 3 12
REMARK SMILES IDX 38 13 36 14 41 15 39 17 37 19 35 21 8 23 9 24 10 25 15 26
REMARK SMILES IDX 11 27 14 28 13 29 16 30 26 31 17 32 27 33 25 34 12 35 18 37
REMARK SMILES IDX 19 38 24 39 20 40 23 41 21 42 22 43 33 45 30 47 31 48
REMARK H PARENT 41 16 39 18 37 20 35 22 12 36 22 44 33 46 31 49
REMARK Flexibility Score: inf
ROOT
ATOM      1  C   UNL     1       4.426  49.317 283.195  1.00  0.00     0.221 C 
ATOM      2  C   UNL     1       5.686  50.087 283.654  1.00  0.00     0.181 C 
ATOM      3  C   UNL     1       5.720  50.168 285.195  1.00  0.00     0.177 C 
ATOM      4  C   UNL     1       4.375  50.720 285.725  1.00  0.00     0.179 C 
ATOM      5  O   UNL     1       3.297  49.911 285.279  1.00  0.00    -0.332 OA
ATOM      6  C   UNL     1       3.171  49.923 283.865  1.00  0.00     0.339 C 
ENDROOT
BRANCH   1   7
ATOM      7  O   UNL     1       4.501  47.949 283.564  1.00  0.00    -0.337 OA
BRANCH   7   8
ATOM      8  C   UNL     1       3.272  47.258 283.363  1.00  0.00     0.282 C 
ATOM      9  C   UNL     1       4.472  44.791 280.906  1.00  0.00     0.041 C 
ATOM     10  C   UNL     1       4.359  45.492 282.259  1.00  0.00     0.150 C 
ATOM     11  C   UNL     1       4.073  44.476 283.388  1.00  0.00     0.174 C 
ATOM     12  O   UNL     1       3.333  46.470 282.182  1.00  0.00    -0.344 OA
ATOM     13  C   UNL     1       3.961  45.228 284.725  1.00  0.00     0.179 C 
ATOM     14  C   UNL     1       2.942  46.382 284.589  1.00  0.00     0.202 C 
BRANCH  11  15
ATOM     15  O   UNL     1       2.876  43.788 283.116  1.00  0.00    -0.388 OA
ATOM     16  H   UNL     1       3.073  43.141 282.389  1.00  0.00     0.211 HD
ENDBRANCH  11  15
BRANCH  13  17
ATOM     17  O   UNL     1       3.561  44.337 285.736  1.00  0.00    -0.387 OA
ATOM     18  H   UNL     1       3.655  43.422 285.365  1.00  0.00     0.211 HD
ENDBRANCH  13  17
BRANCH  14  19
ATOM     19  O   UNL     1       2.878  47.162 285.759  1.00  0.00    -0.385 OA
ATOM     20  H   UNL     1       1.941  47.473 285.867  1.00  0.00     0.211 HD
ENDBRANCH  14  19
ENDBRANCH   7   8
ENDBRANCH   1   7
BRANCH   2  21
ATOM     21  O   UNL     1       5.678  51.371 283.079  1.00  0.00    -0.387 OA
ATOM     22  H   UNL     1       6.364  51.376 282.359  1.00  0.00     0.211 HD
ENDBRANCH   2  21
BRANCH   6  23
ATOM     23  O   UNL     1       2.915  51.254 283.397  1.00  0.00    -0.462 OA
BRANCH  23  24
ATOM     24  C   UNL     1       2.983  51.674 282.060  1.00  0.00     0.130 A 
ATOM     25  C   UNL     1       3.150  50.701 281.071  1.00  0.00     0.093 A 
ATOM     26  C   UNL     1       2.914  53.026 281.687  1.00  0.00     0.094 A 
ATOM     27  C   UNL     1       3.208  51.053 279.715  1.00  0.00     0.133 A 
ATOM     28  C   UNL     1       3.028  53.395 280.342  1.00  0.00     0.138 A 
ATOM     29  C   UNL     1       3.130  52.410 279.342  1.00  0.00     0.102 A 
ATOM     30  O   UNL     1       3.076  54.756 280.005  1.00  0.00    -0.484 OA
ATOM     31  C   UNL     1       3.164  52.855 277.932  1.00  0.00     0.174 C 
ATOM     32  C   UNL     1       3.419  55.233 278.697  1.00  0.00     0.211 C 
ATOM     33  O   UNL     1       3.364  52.036 276.996  1.00  0.00    -0.294 OA
ATOM     34  C   UNL     1       2.877  54.292 277.604  1.00  0.00     0.131 C 
BRANCH  27  35
ATOM     35  O   UNL     1       3.346  50.056 278.750  1.00  0.00    -0.507 OA
ATOM     36  H   UNL     1       3.899  50.200 277.916  1.00  0.00     0.293 HD
ENDBRANCH  27  35
BRANCH  32  37
ATOM     37  C   UNL     1       4.918  55.449 278.550  1.00  0.00    -0.007 A 
ATOM     38  C   UNL     1       5.512  55.290 277.285  1.00  0.00     0.011 A 
ATOM     39  C   UNL     1       5.747  55.720 279.659  1.00  0.00     0.011 A 
ATOM     40  C   UNL     1       6.896  55.418 277.127  1.00  0.00     0.046 A 
ATOM     41  C   UNL     1       7.131  55.846 279.496  1.00  0.00     0.046 A 
ATOM     42  C   UNL     1       7.709  55.696 278.231  1.00  0.00     0.115 A 
BRANCH  42  43
ATOM     43  O   UNL     1       9.087  55.812 278.060  1.00  0.00    -0.508 OA
ATOM     44  H   UNL     1       9.676  54.997 277.937  1.00  0.00     0.293 HD
ENDBRANCH  42  43
ENDBRANCH  32  37
ENDBRANCH  23  24
ENDBRANCH   6  23
BRANCH   3  45
ATOM     45  O   UNL     1       6.780  50.988 285.616  1.00  0.00    -0.387 OA
ATOM     46  H   UNL     1       6.818  50.920 286.607  1.00  0.00     0.211 HD
ENDBRANCH   3  45
BRANCH   4  47
ATOM     47  C   UNL     1       4.342  50.734 287.264  1.00  0.00     0.191 C 
BRANCH  47  48
ATOM     48  O   UNL     1       5.478  50.112 287.803  1.00  0.00    -0.394 OA
ATOM     49  H   UNL     1       5.451  49.164 287.508  1.00  0.00     0.210 HD
ENDBRANCH  47  48
ENDBRANCH   4  47
TORSDOF 14
ENDMDL
MODEL 2
REMARK VINA RESULT:     5.395      1.007      1.100
REMARK INTER + INTRA:           7.660
REMARK INTER:                   9.030
REMARK INTRA:                  -1.369
REMARK UNBOUND:                -0.889
REMARK SMILES C[C@H]1O[C@H](O[C@H]2[C@H](Oc3cc(O)c4c(c3)O[C@@H](c3ccc(O)cc3)CC4=O)O[C@@H](CO)[C@H](O)[C@@H]2O)[C@H](O)[C@@H](O)[C@H]1O
REMARK SMILES IDX 6 1 34 2 32 3 29 4 28 5 7 6 5 7 4 8 1 9 2 10 40 11 3 12
REMARK SMILES IDX 38 13 36 14 41 15 39 17 37 19 35 21 8 23 9 24 10 25 15 26
REMARK SMILES IDX 11 27 14 28 13 29 16 30 26 31 17 32 27 33 25 34 12 35 18 37
REMARK SMILES IDX 19 38 24 39 20 40 23 41 21 42 22 43 33 45 30 47 31 48
REMARK H PARENT 41 16 39 18 37 20 35 22 12 36 22 44 33 46 31 49
REMARK Flexibility Score: inf
ROOT
ATOM      1  C   UNL     1       5.269  49.672 282.914  1.00  0.00     0.221 C 
ATOM      2  C   UNL     1       6.378  50.316 283.777  1.00  0.00     0.181 C 
ATOM      3  C   UNL     1       5.928  50.374 285.253  1.00  0.00     0.177 C 
ATOM      4  C   UNL     1       4.536  51.041 285.355  1.00  0.00     0.179 C 
ATOM      5  O   UNL     1       3.591  50.342 284.559  1.00  0.00    -0.332 OA
ATOM      6  C   UNL     1       3.922  50.384 283.179  1.00  0.00     0.339 C 
ENDROOT
BRANCH   1   7
ATOM      7  O   UNL     1       5.107  48.299 283.230  1.00  0.00    -0.337 OA
BRANCH   7   8
ATOM      8  C   UNL     1       3.850  47.782 282.804  1.00  0.00     0.282 C 
ATOM      9  C   UNL     1       5.114  44.927 280.849  1.00  0.00     0.041 C 
ATOM     10  C   UNL     1       4.835  45.770 282.092  1.00  0.00     0.150 C 
ATOM     11  C   UNL     1       4.151  44.928 283.192  1.00  0.00     0.174 C 
ATOM     12  O   UNL     1       4.028  46.878 281.721  1.00  0.00    -0.344 OA
ATOM     13  C   UNL     1       3.886  45.820 284.417  1.00  0.00     0.179 C 
ATOM     14  C   UNL     1       3.127  47.093 283.980  1.00  0.00     0.202 C 
BRANCH  11  15
ATOM     15  O   UNL     1       2.941  44.401 282.703  1.00  0.00    -0.388 OA
ATOM     16  H   UNL     1       2.315  44.354 283.471  1.00  0.00     0.211 HD
ENDBRANCH  11  15
BRANCH  13  17
ATOM     17  O   UNL     1       3.138  45.106 285.369  1.00  0.00    -0.387 OA
ATOM     18  H   UNL     1       2.244  45.533 285.410  1.00  0.00     0.211 HD
ENDBRANCH  13  17
BRANCH  14  19
ATOM     19  O   UNL     1       2.948  47.988 285.050  1.00  0.00    -0.385 OA
ATOM     20  H   UNL     1       3.619  47.768 285.748  1.00  0.00     0.211 HD
ENDBRANCH  14  19
ENDBRANCH   7   8
ENDBRANCH   1   7
BRANCH   2  21
ATOM     21  O   UNL     1       6.662  51.602 283.283  1.00  0.00    -0.387 OA
ATOM     22  H   UNL     1       7.532  51.882 283.675  1.00  0.00     0.211 HD
ENDBRANCH   2  21
BRANCH   6  23
ATOM     23  O   UNL     1       3.941  51.739 282.710  1.00  0.00    -0.462 OA
BRANCH  23  24
ATOM     24  C   UNL     1       3.729  52.144 281.384  1.00  0.00     0.130 A 
ATOM     25  C   UNL     1       3.505  51.156 280.420  1.00  0.00     0.093 A 
ATOM     26  C   UNL     1       3.758  53.492 280.990  1.00  0.00     0.094 A 
ATOM     27  C   UNL     1       3.270  51.496 279.080  1.00  0.00     0.133 A 
ATOM     28  C   UNL     1       3.582  53.839 279.646  1.00  0.00     0.138 A 
ATOM     29  C   UNL     1       3.291  52.849 278.688  1.00  0.00     0.102 A 
ATOM     30  O   UNL     1       3.733  55.180 279.258  1.00  0.00    -0.484 OA
ATOM     31  C   UNL     1       3.032  53.284 277.298  1.00  0.00     0.174 C 
ATOM     32  C   UNL     1       3.801  55.601 277.889  1.00  0.00     0.211 C 
ATOM     33  O   UNL     1       2.875  52.445 276.373  1.00  0.00    -0.294 OA
ATOM     34  C   UNL     1       2.876  54.748 277.000  1.00  0.00     0.131 C 
BRANCH  27  35
ATOM     35  O   UNL     1       3.021  50.489 278.149  1.00  0.00    -0.507 OA
ATOM     36  H   UNL     1       3.176  49.514 278.369  1.00  0.00     0.293 HD
ENDBRANCH  27  35
BRANCH  32  37
ATOM     37  C   UNL     1       5.229  55.598 277.367  1.00  0.00    -0.007 A 
ATOM     38  C   UNL     1       5.467  55.262 276.021  1.00  0.00     0.011 A 
ATOM     39  C   UNL     1       6.334  55.839 278.210  1.00  0.00     0.011 A 
ATOM     40  C   UNL     1       6.773  55.187 275.526  1.00  0.00     0.046 A 
ATOM     41  C   UNL     1       7.639  55.762 277.710  1.00  0.00     0.046 A 
ATOM     42  C   UNL     1       7.861  55.437 276.368  1.00  0.00     0.115 A 
BRANCH  42  43
ATOM     43  O   UNL     1       9.158  55.350 275.863  1.00  0.00    -0.508 OA
ATOM     44  H   UNL     1       9.773  54.585 276.111  1.00  0.00     0.293 HD
ENDBRANCH  42  43
ENDBRANCH  32  37
ENDBRANCH  23  24
ENDBRANCH   6  23
BRANCH   3  45
ATOM     45  O   UNL     1       6.865  51.086 286.020  1.00  0.00    -0.387 OA
ATOM     46  H   UNL     1       7.764  50.837 285.677  1.00  0.00     0.211 HD
ENDBRANCH   3  45
BRANCH   4  47
ATOM     47  C   UNL     1       4.017  51.039 286.804  1.00  0.00     0.191 C 
BRANCH  47  48
ATOM     48  O   UNL     1       3.533  49.774 287.169  1.00  0.00    -0.394 OA
ATOM     49  H   UNL     1       3.308  49.823 288.135  1.00  0.00     0.210 HD
ENDBRANCH  47  48
ENDBRANCH   4  47
TORSDOF 14
ENDMDL
MODEL 3
REMARK VINA RESULT:     5.892      1.984      3.912
REMARK INTER + INTRA:           8.448
REMARK INTER:                   4.274
REMARK INTRA:                   4.174
REMARK UNBOUND:                -0.889
REMARK SMILES C[C@H]1O[C@H](O[C@H]2[C@H](Oc3cc(O)c4c(c3)O[C@@H](c3ccc(O)cc3)CC4=O)O[C@@H](CO)[C@H](O)[C@@H]2O)[C@H](O)[C@@H](O)[C@H]1O
REMARK SMILES IDX 6 1 34 2 32 3 29 4 28 5 7 6 5 7 4 8 1 9 2 10 40 11 3 12
REMARK SMILES IDX 38 13 36 14 41 15 39 17 37 19 35 21 8 23 9 24 10 25 15 26
REMARK SMILES IDX 11 27 14 28 13 29 16 30 26 31 17 32 27 33 25 34 12 35 18 37
REMARK SMILES IDX 19 38 24 39 20 40 23 41 21 42 22 43 33 45 30 47 31 48
REMARK H PARENT 41 16 39 18 37 20 35 22 12 36 22 44 33 46 31 49
REMARK Flexibility Score: inf
ROOT
ATOM      1  C   UNL     1       4.635  50.534 282.184  1.00  0.00     0.221 C 
ATOM      2  C   UNL     1       5.958  51.024 281.551  1.00  0.00     0.181 C 
ATOM      3  C   UNL     1       5.941  52.562 281.422  1.00  0.00     0.177 C 
ATOM      4  C   UNL     1       4.651  53.018 280.700  1.00  0.00     0.179 C 
ATOM      5  O   UNL     1       3.503  52.550 281.392  1.00  0.00    -0.332 OA
ATOM      6  C   UNL     1       3.435  51.132 281.413  1.00  0.00     0.339 C 
ENDROOT
BRANCH   1   7
ATOM      7  O   UNL     1       4.533  50.946 283.538  1.00  0.00    -0.337 OA
BRANCH   7   8
ATOM      8  C   UNL     1       3.348  50.471 284.169  1.00  0.00     0.282 C 
ATOM      9  C   UNL     1       3.891  46.869 283.623  1.00  0.00     0.041 C 
ATOM     10  C   UNL     1       4.154  48.264 284.189  1.00  0.00     0.150 C 
ATOM     11  C   UNL     1       4.292  48.221 285.728  1.00  0.00     0.174 C 
ATOM     12  O   UNL     1       3.094  49.123 283.797  1.00  0.00    -0.344 OA
ATOM     13  C   UNL     1       4.549  49.646 286.249  1.00  0.00     0.179 C 
ATOM     14  C   UNL     1       3.467  50.603 285.701  1.00  0.00     0.202 C 
BRANCH  11  15
ATOM     15  O   UNL     1       3.116  47.699 286.297  1.00  0.00    -0.388 OA
ATOM     16  H   UNL     1       2.361  48.237 285.944  1.00  0.00     0.211 HD
ENDBRANCH  11  15
BRANCH  13  17
ATOM     17  O   UNL     1       4.536  49.644 287.655  1.00  0.00    -0.387 OA
ATOM     18  H   UNL     1       5.312  50.186 287.950  1.00  0.00     0.211 HD
ENDBRANCH  13  17
BRANCH  14  19
ATOM     19  O   UNL     1       3.715  51.938 286.071  1.00  0.00    -0.385 OA
ATOM     20  H   UNL     1       2.875  52.312 286.446  1.00  0.00     0.211 HD
ENDBRANCH  14  19
ENDBRANCH   7   8
ENDBRANCH   1   7
BRANCH   2  21
ATOM     21  O   UNL     1       6.124  50.412 280.295  1.00  0.00    -0.387 OA
ATOM     22  H   UNL     1       7.101  50.295 280.152  1.00  0.00     0.211 HD
ENDBRANCH   2  21
BRANCH   6  23
ATOM     23  O   UNL     1       3.356  50.615 280.078  1.00  0.00    -0.462 OA
BRANCH  23  24
ATOM     24  C   UNL     1       3.278  51.388 278.910  1.00  0.00     0.130 A 
ATOM     25  C   UNL     1       3.145  50.723 277.687  1.00  0.00     0.093 A 
ATOM     26  C   UNL     1       3.354  52.791 278.923  1.00  0.00     0.094 A 
ATOM     27  C   UNL     1       3.046  51.438 276.485  1.00  0.00     0.133 A 
ATOM     28  C   UNL     1       3.313  53.512 277.725  1.00  0.00     0.138 A 
ATOM     29  C   UNL     1       3.113  52.846 276.501  1.00  0.00     0.102 A 
ATOM     30  O   UNL     1       3.510  54.901 277.753  1.00  0.00    -0.484 OA
ATOM     31  C   UNL     1       2.995  53.667 275.277  1.00  0.00     0.174 C 
ATOM     32  C   UNL     1       3.715  55.692 276.575  1.00  0.00     0.211 C 
ATOM     33  O   UNL     1       2.926  53.131 274.139  1.00  0.00    -0.294 OA
ATOM     34  C   UNL     1       2.878  55.159 275.397  1.00  0.00     0.131 C 
BRANCH  27  35
ATOM     35  O   UNL     1       2.884  50.747 275.285  1.00  0.00    -0.507 OA
ATOM     36  H   UNL     1       3.464  50.942 274.479  1.00  0.00     0.293 HD
ENDBRANCH  27  35
BRANCH  32  37
ATOM     37  C   UNL     1       5.188  55.790 276.210  1.00  0.00    -0.007 A 
ATOM     38  C   UNL     1       5.550  55.966 274.861  1.00  0.00     0.011 A 
ATOM     39  C   UNL     1       6.209  55.624 277.168  1.00  0.00     0.011 A 
ATOM     40  C   UNL     1       6.896  55.995 274.483  1.00  0.00     0.046 A 
ATOM     41  C   UNL     1       7.554  55.653 276.785  1.00  0.00     0.046 A 
ATOM     42  C   UNL     1       7.901  55.839 275.442  1.00  0.00     0.115 A 
BRANCH  42  43
ATOM     43  O   UNL     1       9.238  55.862 275.050  1.00  0.00    -0.508 OA
ATOM     44  H   UNL     1       9.923  56.429 275.536  1.00  0.00     0.293 HD
ENDBRANCH  42  43
ENDBRANCH  32  37
ENDBRANCH  23  24
ENDBRANCH   6  23
BRANCH   3  45
ATOM     45  O   UNL     1       7.073  53.004 280.717  1.00  0.00    -0.387 OA
ATOM     46  H   UNL     1       6.756  53.686 280.067  1.00  0.00     0.211 HD
ENDBRANCH   3  45
BRANCH   4  47
ATOM     47  C   UNL     1       4.559  54.553 280.630  1.00  0.00     0.191 C 
BRANCH  47  48
ATOM     48  O   UNL     1       5.720  55.107 280.071  1.00  0.00    -0.394 OA
ATOM     49  H   UNL     1       5.599  55.088 279.085  1.00  0.00     0.210 HD
ENDBRANCH  47  48
ENDBRANCH   4  47
TORSDOF 14
ENDMDL
