MODEL 1
REMARK VINA RESULT:    -3.490      0.000      0.000
REMARK INTER + INTRA:          -4.826
REMARK INTER:                  -4.511
REMARK INTRA:                  -0.315
REMARK UNBOUND:                -0.315
REMARK SMILES CCCCCCC(=O)[O-]
REMARK SMILES IDX 5 1 6 2 7 3 8 4 9 5 4 6 3 7 2 8 1 9
REMARK H PARENT
REMARK Flexibility Score: inf
ROOT
ATOM      1  C   UNL     1     161.850 179.080 180.932  1.00  0.00     0.006 C 
ENDROOT
BRANCH   1   2
ATOM      2  C   UNL     1     161.712 180.125 179.821  1.00  0.00     0.053 C 
BRANCH   2   3
ATOM      3  C   UNL     1     161.747 179.468 178.477  1.00  0.00     0.041 C 
ATOM      4  O   UNL     1     161.087 178.416 178.269  1.00  0.00    -0.550 OA
ATOM      5  O   UNL     1     162.467 180.045 177.439  1.00  0.00    -0.550 OA
ENDBRANCH   2   3
ENDBRANCH   1   2
BRANCH   1   6
ATOM      6  C   UNL     1     163.112 179.329 181.766  1.00  0.00     0.000 C 
BRANCH   6   7
ATOM      7  C   UNL     1     164.116 178.181 181.600  1.00  0.00    -0.000 C 
BRANCH   7   8
ATOM      8  C   UNL     1     165.064 178.447 180.424  1.00  0.00    -0.003 C 
ATOM      9  C   UNL     1     165.618 179.868 180.474  1.00  0.00     0.004 C 
ENDBRANCH   7   8
ENDBRANCH   6   7
ENDBRANCH   1   6
TORSDOF 5
ENDMDL
MODEL 2
REMARK VINA RESULT:    -3.355      1.091      2.102
REMARK INTER + INTRA:          -4.651
REMARK INTER:                  -4.351
REMARK INTRA:                  -0.299
REMARK UNBOUND:                -0.315
REMARK SMILES CCCCCCC(=O)[O-]
REMARK SMILES IDX 5 1 6 2 7 3 8 4 9 5 4 6 3 7 2 8 1 9
REMARK H PARENT
REMARK Flexibility Score: inf
ROOT
ATOM      1  C   UNL     1     161.979 179.883 180.721  1.00  0.00     0.006 C 
ENDROOT
BRANCH   1   2
ATOM      2  C   UNL     1     162.921 179.908 179.514  1.00  0.00     0.053 C 
BRANCH   2   3
ATOM      3  C   UNL     1     162.174 179.582 178.260  1.00  0.00     0.041 C 
ATOM      4  O   UNL     1     162.497 180.125 177.171  1.00  0.00    -0.550 OA
ATOM      5  O   UNL     1     161.153 178.640 178.283  1.00  0.00    -0.550 OA
ENDBRANCH   2   3
ENDBRANCH   1   2
BRANCH   1   6
ATOM      6  C   UNL     1     162.542 178.999 181.840  1.00  0.00     0.000 C 
BRANCH   6   7
ATOM      7  C   UNL     1     163.944 178.489 181.485  1.00  0.00    -0.000 C 
BRANCH   7   8
ATOM      8  C   UNL     1     163.992 176.957 181.502  1.00  0.00    -0.003 C 
ATOM      9  C   UNL     1     162.644 176.359 181.107  1.00  0.00     0.004 C 
ENDBRANCH   7   8
ENDBRANCH   6   7
ENDBRANCH   1   6
TORSDOF 5
ENDMDL
MODEL 3
REMARK VINA RESULT:    -3.351     11.619     13.012
REMARK INTER + INTRA:          -4.645
REMARK INTER:                  -4.279
REMARK INTRA:                  -0.367
REMARK UNBOUND:                -0.315
REMARK SMILES CCCCCCC(=O)[O-]
REMARK SMILES IDX 5 1 6 2 7 3 8 4 9 5 4 6 3 7 2 8 1 9
REMARK H PARENT
REMARK Flexibility Score: inf
ROOT
ATOM      1  C   UNL     1     176.982 179.416 178.931  1.00  0.00     0.006 C 
ENDROOT
BRANCH   1   2
ATOM      2  C   UNL     1     175.719 180.063 178.356  1.00  0.00     0.053 C 
BRANCH   2   3
ATOM      3  C   UNL     1     174.526 179.194 178.603  1.00  0.00     0.041 C 
ATOM      4  O   UNL     1     174.454 178.053 178.077  1.00  0.00    -0.550 OA
ATOM      5  O   UNL     1     173.516 179.624 179.454  1.00  0.00    -0.550 OA
ENDBRANCH   2   3
ENDBRANCH   1   2
BRANCH   1   6
ATOM      6  C   UNL     1     177.424 180.123 180.218  1.00  0.00     0.000 C 
BRANCH   6   7
ATOM      7  C   UNL     1     176.732 179.516 181.444  1.00  0.00    -0.000 C 
BRANCH   7   8
ATOM      8  C   UNL     1     177.021 178.015 181.552  1.00  0.00    -0.003 C 
ATOM      9  C   UNL     1     175.727 177.205 181.581  1.00  0.00     0.004 C 
ENDBRANCH   7   8
ENDBRANCH   6   7
ENDBRANCH   1   6
TORSDOF 5
ENDMDL
MODEL 4
REMARK VINA RESULT:    -3.349      2.032      3.330
REMARK INTER + INTRA:          -4.644
REMARK INTER:                  -4.247
REMARK INTRA:                  -0.397
REMARK UNBOUND:                -0.315
REMARK SMILES CCCCCCC(=O)[O-]
REMARK SMILES IDX 5 1 6 2 7 3 8 4 9 5 4 6 3 7 2 8 1 9
REMARK H PARENT
REMARK Flexibility Score: inf
ROOT
ATOM      1  C   UNL     1     163.230 177.549 181.228  1.00  0.00     0.006 C 
ENDROOT
BRANCH   1   2
ATOM      2  C   UNL     1     161.918 176.765 181.126  1.00  0.00     0.053 C 
BRANCH   2   3
ATOM      3  C   UNL     1     161.712 176.266 179.730  1.00  0.00     0.041 C 
ATOM      4  O   UNL     1     162.513 176.596 178.816  1.00  0.00    -0.550 OA
ATOM      5  O   UNL     1     160.667 175.397 179.449  1.00  0.00    -0.550 OA
ENDBRANCH   2   3
ENDBRANCH   1   2
BRANCH   1   6
ATOM      6  C   UNL     1     163.013 178.893 181.930  1.00  0.00     0.000 C 
BRANCH   6   7
ATOM      7  C   UNL     1     162.094 179.803 181.106  1.00  0.00    -0.000 C 
BRANCH   7   8
ATOM      8  C   UNL     1     162.647 180.006 179.691  1.00  0.00    -0.003 C 
ATOM      9  C   UNL     1     161.524 180.011 178.656  1.00  0.00     0.004 C 
ENDBRANCH   7   8
ENDBRANCH   6   7
ENDBRANCH   1   6
TORSDOF 5
ENDMDL
MODEL 5
REMARK VINA RESULT:    -3.347     10.215     12.044
REMARK INTER + INTRA:          -4.641
REMARK INTER:                  -4.278
REMARK INTRA:                  -0.363
REMARK UNBOUND:                -0.315
REMARK SMILES CCCCCCC(=O)[O-]
REMARK SMILES IDX 5 1 6 2 7 3 8 4 9 5 4 6 3 7 2 8 1 9
REMARK H PARENT
REMARK Flexibility Score: inf
ROOT
ATOM      1  C   UNL     1     174.481 177.798 181.102  1.00  0.00     0.006 C 
ENDROOT
BRANCH   1   2
ATOM      2  C   UNL     1     173.801 179.165 181.214  1.00  0.00     0.053 C 
BRANCH   2   3
ATOM      3  C   UNL     1     173.094 179.505 179.940  1.00  0.00     0.041 C 
ATOM      4  O   UNL     1     171.876 179.824 179.957  1.00  0.00    -0.550 OA
ATOM      5  O   UNL     1     173.792 179.517 178.739  1.00  0.00    -0.550 OA
ENDBRANCH   2   3
ENDBRANCH   1   2
BRANCH   1   6
ATOM      6  C   UNL     1     176.005 177.945 181.037  1.00  0.00     0.000 C 
BRANCH   6   7
ATOM      7  C   UNL     1     176.473 179.174 181.826  1.00  0.00    -0.000 C 
BRANCH   7   8
ATOM      8  C   UNL     1     177.384 180.062 180.971  1.00  0.00    -0.003 C 
ATOM      9  C   UNL     1     177.228 179.744 179.486  1.00  0.00     0.004 C 
ENDBRANCH   7   8
ENDBRANCH   6   7
ENDBRANCH   1   6
TORSDOF 5
ENDMDL
MODEL 6
REMARK VINA RESULT:    -3.336      3.150      4.080
REMARK INTER + INTRA:          -4.627
REMARK INTER:                  -4.404
REMARK INTRA:                  -0.223
REMARK UNBOUND:                -0.315
REMARK SMILES CCCCCCC(=O)[O-]
REMARK SMILES IDX 5 1 6 2 7 3 8 4 9 5 4 6 3 7 2 8 1 9
REMARK H PARENT
REMARK Flexibility Score: inf
ROOT
ATOM      1  C   UNL     1     161.584 176.813 181.147  1.00  0.00     0.006 C 
ENDROOT
BRANCH   1   2
ATOM      2  C   UNL     1     161.409 176.009 179.855  1.00  0.00     0.053 C 
BRANCH   2   3
ATOM      3  C   UNL     1     160.745 174.699 180.140  1.00  0.00     0.041 C 
ATOM      4  O   UNL     1     160.938 174.118 181.240  1.00  0.00    -0.550 OA
ATOM      5  O   UNL     1     159.875 174.143 179.211  1.00  0.00    -0.550 OA
ENDBRANCH   2   3
ENDBRANCH   1   2
BRANCH   1   6
ATOM      6  C   UNL     1     162.879 177.633 181.112  1.00  0.00     0.000 C 
BRANCH   6   7
ATOM      7  C   UNL     1     162.663 179.028 181.712  1.00  0.00    -0.000 C 
BRANCH   7   8
ATOM      8  C   UNL     1     161.974 179.958 180.706  1.00  0.00    -0.003 C 
ATOM      9  C   UNL     1     162.537 179.764 179.301  1.00  0.00     0.004 C 
ENDBRANCH   7   8
ENDBRANCH   6   7
ENDBRANCH   1   6
TORSDOF 5
ENDMDL
MODEL 7
REMARK VINA RESULT:    -3.285      2.026      2.999
REMARK INTER + INTRA:          -4.560
REMARK INTER:                  -4.124
REMARK INTRA:                  -0.437
REMARK UNBOUND:                -0.315
REMARK SMILES CCCCCCC(=O)[O-]
REMARK SMILES IDX 5 1 6 2 7 3 8 4 9 5 4 6 3 7 2 8 1 9
REMARK H PARENT
REMARK Flexibility Score: inf
ROOT
ATOM      1  C   UNL     1     161.391 179.007 178.485  1.00  0.00     0.006 C 
ENDROOT
BRANCH   1   2
ATOM      2  C   UNL     1     162.053 177.729 177.963  1.00  0.00     0.053 C 
BRANCH   2   3
ATOM      3  C   UNL     1     162.107 176.690 179.037  1.00  0.00     0.041 C 
ATOM      4  O   UNL     1     161.061 176.371 179.663  1.00  0.00    -0.550 OA
ATOM      5  O   UNL     1     163.301 176.036 179.315  1.00  0.00    -0.550 OA
ENDBRANCH   2   3
ENDBRANCH   1   2
BRANCH   1   6
ATOM      6  C   UNL     1     162.359 179.809 179.363  1.00  0.00     0.000 C 
BRANCH   6   7
ATOM      7  C   UNL     1     161.732 180.125 180.726  1.00  0.00    -0.000 C 
BRANCH   7   8
ATOM      8  C   UNL     1     162.511 179.447 181.859  1.00  0.00    -0.003 C 
ATOM      9  C   UNL     1     163.904 179.028 181.397  1.00  0.00     0.004 C 
ENDBRANCH   7   8
ENDBRANCH   6   7
ENDBRANCH   1   6
TORSDOF 5
ENDMDL
MODEL 8
REMARK VINA RESULT:    -3.281      8.997     10.771
REMARK INTER + INTRA:          -4.556
REMARK INTER:                  -4.425
REMARK INTRA:                  -0.131
REMARK UNBOUND:                -0.315
REMARK SMILES CCCCCCC(=O)[O-]
REMARK SMILES IDX 5 1 6 2 7 3 8 4 9 5 4 6 3 7 2 8 1 9
REMARK H PARENT
REMARK Flexibility Score: inf
ROOT
ATOM      1  C   UNL     1     173.214 178.606 180.584  1.00  0.00     0.006 C 
ENDROOT
BRANCH   1   2
ATOM      2  C   UNL     1     171.948 179.459 180.708  1.00  0.00     0.053 C 
BRANCH   2   3
ATOM      3  C   UNL     1     171.250 179.556 179.388  1.00  0.00     0.041 C 
ATOM      4  O   UNL     1     171.912 179.740 178.333  1.00  0.00    -0.550 OA
ATOM      5  O   UNL     1     169.873 179.392 179.316  1.00  0.00    -0.550 OA
ENDBRANCH   2   3
ENDBRANCH   1   2
BRANCH   1   6
ATOM      6  C   UNL     1     174.432 179.346 181.148  1.00  0.00     0.000 C 
BRANCH   6   7
ATOM      7  C   UNL     1     175.624 178.396 181.314  1.00  0.00    -0.000 C 
BRANCH   7   8
ATOM      8  C   UNL     1     176.911 179.176 181.609  1.00  0.00    -0.003 C 
ATOM      9  C   UNL     1     177.292 180.074 180.435  1.00  0.00     0.004 C 
ENDBRANCH   7   8
ENDBRANCH   6   7
ENDBRANCH   1   6
TORSDOF 5
ENDMDL
