MODEL 1
REMARK VINA RESULT:    -4.774      0.000      0.000
REMARK INTER + INTRA:          -9.055
REMARK INTER:                  -8.123
REMARK INTRA:                  -0.931
REMARK UNBOUND:                -0.931
REMARK SMILES CCCCCCCCCCCCCC(=O)[O-]
REMARK SMILES IDX 8 1 9 2 10 3 11 4 12 5 13 6 14 7 15 8 16 9 7 10 6 11 5 12
REMARK SMILES IDX 4 13 3 14 2 15 1 16
REMARK H PARENT
REMARK Flexibility Score: inf
ROOT
ATOM      1  C   UNL     1       2.245  25.520  48.829  1.00  0.00     0.000 C 
ENDROOT
BRANCH   1   2
ATOM      2  C   UNL     1       2.056  25.503  50.358  1.00  0.00     0.000 C 
BRANCH   2   3
ATOM      3  C   UNL     1       0.963  24.547  50.871  1.00  0.00     0.000 C 
BRANCH   3   4
ATOM      4  C   UNL     1       1.477  23.575  51.947  1.00  0.00     0.000 C 
BRANCH   4   5
ATOM      5  C   UNL     1       1.671  22.144  51.411  1.00  0.00     0.006 C 
BRANCH   5   6
ATOM      6  C   UNL     1       3.004  21.491  51.810  1.00  0.00     0.053 C 
BRANCH   6   7
ATOM      7  C   UNL     1       4.151  22.450  51.711  1.00  0.00     0.041 C 
ATOM      8  O   UNL     1       4.530  22.870  50.587  1.00  0.00    -0.550 OA
ATOM      9  O   UNL     1       4.780  22.902  52.864  1.00  0.00    -0.550 OA
ENDBRANCH   6   7
ENDBRANCH   5   6
ENDBRANCH   4   5
ENDBRANCH   3   4
ENDBRANCH   2   3
ENDBRANCH   1   2
BRANCH   1  10
ATOM     10  C   UNL     1       1.802  24.236  48.101  1.00  0.00     0.000 C 
BRANCH  10  11
ATOM     11  C   UNL     1       0.887  24.494  46.885  1.00  0.00    -0.000 C 
BRANCH  11  12
ATOM     12  C   UNL     1       1.550  24.093  45.555  1.00  0.00    -0.000 C 
BRANCH  12  13
ATOM     13  C   UNL     1       2.462  22.864  45.696  1.00  0.00    -0.000 C 
BRANCH  13  14
ATOM     14  C   UNL     1       3.343  22.639  44.455  1.00  0.00    -0.000 C 
BRANCH  14  15
ATOM     15  C   UNL     1       2.519  22.505  43.165  1.00  0.00    -0.003 C 
ATOM     16  C   UNL     1       1.573  21.306  43.191  1.00  0.00     0.004 C 
ENDBRANCH  14  15
ENDBRANCH  13  14
ENDBRANCH  12  13
ENDBRANCH  11  12
ENDBRANCH  10  11
ENDBRANCH   1  10
TORSDOF 12
ENDMDL
MODEL 2
REMARK VINA RESULT:    -4.735      3.326      7.014
REMARK INTER + INTRA:          -8.988
REMARK INTER:                  -8.055
REMARK INTRA:                  -0.933
REMARK UNBOUND:                -0.931
REMARK SMILES CCCCCCCCCCCCCC(=O)[O-]
REMARK SMILES IDX 8 1 9 2 10 3 11 4 12 5 13 6 14 7 15 8 16 9 7 10 6 11 5 12
REMARK SMILES IDX 4 13 3 14 2 15 1 16
REMARK H PARENT
REMARK Flexibility Score: inf
ROOT
ATOM      1  C   UNL     1       1.967  24.128  49.050  1.00  0.00     0.000 C 
ENDROOT
BRANCH   1   2
ATOM      2  C   UNL     1       1.711  25.051  47.843  1.00  0.00     0.000 C 
BRANCH   2   3
ATOM      3  C   UNL     1       0.865  24.432  46.714  1.00  0.00     0.000 C 
BRANCH   3   4
ATOM      4  C   UNL     1       1.649  24.271  45.401  1.00  0.00     0.000 C 
BRANCH   4   5
ATOM      5  C   UNL     1       2.387  22.921  45.311  1.00  0.00     0.006 C 
BRANCH   5   6
ATOM      6  C   UNL     1       3.143  22.697  43.992  1.00  0.00     0.053 C 
BRANCH   6   7
ATOM      7  C   UNL     1       2.331  21.917  43.004  1.00  0.00     0.041 C 
ATOM      8  O   UNL     1       1.392  21.178  43.399  1.00  0.00    -0.550 OA
ATOM      9  O   UNL     1       2.590  22.034  41.644  1.00  0.00    -0.550 OA
ENDBRANCH   6   7
ENDBRANCH   5   6
ENDBRANCH   4   5
ENDBRANCH   3   4
ENDBRANCH   2   3
ENDBRANCH   1   2
BRANCH   1  10
ATOM     10  C   UNL     1       1.277  24.557  50.360  1.00  0.00     0.000 C 
BRANCH  10  11
ATOM     11  C   UNL     1       0.899  23.377  51.279  1.00  0.00    -0.000 C 
BRANCH  11  12
ATOM     12  C   UNL     1       1.851  22.178  51.120  1.00  0.00    -0.000 C 
BRANCH  12  13
ATOM     13  C   UNL     1       2.634  21.870  52.405  1.00  0.00    -0.000 C 
BRANCH  13  14
ATOM     14  C   UNL     1       3.618  22.992  52.779  1.00  0.00    -0.000 C 
BRANCH  14  15
ATOM     15  C   UNL     1       5.006  22.789  52.152  1.00  0.00    -0.003 C 
ATOM     16  C   UNL     1       5.220  23.642  50.902  1.00  0.00     0.004 C 
ENDBRANCH  14  15
ENDBRANCH  13  14
ENDBRANCH  12  13
ENDBRANCH  11  12
ENDBRANCH  10  11
ENDBRANCH   1  10
TORSDOF 12
ENDMDL
MODEL 3
REMARK VINA RESULT:    -4.693      1.412      1.813
REMARK INTER + INTRA:          -8.917
REMARK INTER:                  -8.272
REMARK INTRA:                  -0.645
REMARK UNBOUND:                -0.931
REMARK SMILES CCCCCCCCCCCCCC(=O)[O-]
REMARK SMILES IDX 8 1 9 2 10 3 11 4 12 5 13 6 14 7 15 8 16 9 7 10 6 11 5 12
REMARK SMILES IDX 4 13 3 14 2 15 1 16
REMARK H PARENT
REMARK Flexibility Score: inf
ROOT
ATOM      1  C   UNL     1       2.207  25.361  49.099  1.00  0.00     0.000 C 
ENDROOT
BRANCH   1   2
ATOM      2  C   UNL     1       1.796  24.012  49.719  1.00  0.00     0.000 C 
BRANCH   2   3
ATOM      3  C   UNL     1       2.963  23.057  50.039  1.00  0.00     0.000 C 
BRANCH   3   4
ATOM      4  C   UNL     1       2.525  21.837  50.867  1.00  0.00     0.000 C 
BRANCH   4   5
ATOM      5  C   UNL     1       3.438  21.585  52.082  1.00  0.00     0.006 C 
BRANCH   5   6
ATOM      6  C   UNL     1       4.593  22.588  52.228  1.00  0.00     0.053 C 
BRANCH   6   7
ATOM      7  C   UNL     1       4.637  23.200  53.595  1.00  0.00     0.041 C 
ATOM      8  O   UNL     1       5.727  23.279  54.219  1.00  0.00    -0.550 OA
ATOM      9  O   UNL     1       3.478  23.712  54.165  1.00  0.00    -0.550 OA
ENDBRANCH   6   7
ENDBRANCH   5   6
ENDBRANCH   4   5
ENDBRANCH   3   4
ENDBRANCH   2   3
ENDBRANCH   1   2
BRANCH   1  10
ATOM     10  C   UNL     1       1.879  25.520  47.602  1.00  0.00     0.000 C 
BRANCH  10  11
ATOM     11  C   UNL     1       1.146  24.305  46.994  1.00  0.00    -0.000 C 
BRANCH  11  12
ATOM     12  C   UNL     1       1.547  24.050  45.529  1.00  0.00    -0.000 C 
BRANCH  12  13
ATOM     13  C   UNL     1       2.443  22.812  45.369  1.00  0.00    -0.000 C 
BRANCH  13  14
ATOM     14  C   UNL     1       2.733  22.481  43.895  1.00  0.00    -0.000 C 
BRANCH  14  15
ATOM     15  C   UNL     1       1.756  21.443  43.323  1.00  0.00    -0.003 C 
ATOM     16  C   UNL     1       2.053  21.094  41.865  1.00  0.00     0.004 C 
ENDBRANCH  14  15
ENDBRANCH  13  14
ENDBRANCH  12  13
ENDBRANCH  11  12
ENDBRANCH  10  11
ENDBRANCH   1  10
TORSDOF 12
ENDMDL
MODEL 4
REMARK VINA RESULT:    -4.688      0.974      2.031
REMARK INTER + INTRA:          -8.908
REMARK INTER:                  -7.942
REMARK INTRA:                  -0.966
REMARK UNBOUND:                -0.931
REMARK SMILES CCCCCCCCCCCCCC(=O)[O-]
REMARK SMILES IDX 8 1 9 2 10 3 11 4 12 5 13 6 14 7 15 8 16 9 7 10 6 11 5 12
REMARK SMILES IDX 4 13 3 14 2 15 1 16
REMARK H PARENT
REMARK Flexibility Score: inf
ROOT
ATOM      1  C   UNL     1       1.791  24.619  50.684  1.00  0.00     0.000 C 
ENDROOT
BRANCH   1   2
ATOM      2  C   UNL     1       0.727  23.827  51.467  1.00  0.00     0.000 C 
BRANCH   2   3
ATOM      3  C   UNL     1       1.114  22.377  51.814  1.00  0.00     0.000 C 
BRANCH   3   4
ATOM      4  C   UNL     1       2.303  21.863  50.986  1.00  0.00     0.000 C 
BRANCH   4   5
ATOM      5  C   UNL     1       3.432  21.285  51.861  1.00  0.00     0.006 C 
BRANCH   5   6
ATOM      6  C   UNL     1       3.930  22.233  52.963  1.00  0.00     0.053 C 
BRANCH   6   7
ATOM      7  C   UNL     1       4.859  23.280  52.427  1.00  0.00     0.041 C 
ATOM      8  O   UNL     1       4.879  24.430  52.938  1.00  0.00    -0.550 OA
ATOM      9  O   UNL     1       5.724  22.973  51.385  1.00  0.00    -0.550 OA
ENDBRANCH   6   7
ENDBRANCH   5   6
ENDBRANCH   4   5
ENDBRANCH   3   4
ENDBRANCH   2   3
ENDBRANCH   1   2
BRANCH   1  10
ATOM     10  C   UNL     1       1.235  25.674  49.709  1.00  0.00     0.000 C 
BRANCH  10  11
ATOM     11  C   UNL     1       1.797  25.555  48.276  1.00  0.00    -0.000 C 
BRANCH  11  12
ATOM     12  C   UNL     1       1.562  24.162  47.666  1.00  0.00    -0.000 C 
BRANCH  12  13
ATOM     13  C   UNL     1       1.042  24.229  46.222  1.00  0.00    -0.000 C 
BRANCH  13  14
ATOM     14  C   UNL     1       2.164  24.057  45.183  1.00  0.00    -0.000 C 
BRANCH  14  15
ATOM     15  C   UNL     1       2.624  22.597  45.051  1.00  0.00    -0.003 C 
ATOM     16  C   UNL     1       1.986  21.883  43.860  1.00  0.00     0.004 C 
ENDBRANCH  14  15
ENDBRANCH  13  14
ENDBRANCH  12  13
ENDBRANCH  11  12
ENDBRANCH  10  11
ENDBRANCH   1  10
TORSDOF 12
ENDMDL
MODEL 5
REMARK VINA RESULT:    -4.647      1.771      2.715
REMARK INTER + INTRA:          -8.839
REMARK INTER:                  -7.818
REMARK INTRA:                  -1.021
REMARK UNBOUND:                -0.931
REMARK SMILES CCCCCCCCCCCCCC(=O)[O-]
REMARK SMILES IDX 8 1 9 2 10 3 11 4 12 5 13 6 14 7 15 8 16 9 7 10 6 11 5 12
REMARK SMILES IDX 4 13 3 14 2 15 1 16
REMARK H PARENT
REMARK Flexibility Score: inf
ROOT
ATOM      1  C   UNL     1       0.869  24.572  46.981  1.00  0.00     0.000 C 
ENDROOT
BRANCH   1   2
ATOM      2  C   UNL     1       1.886  24.414  48.128  1.00  0.00     0.000 C 
BRANCH   2   3
ATOM      3  C   UNL     1       1.345  24.744  49.532  1.00  0.00     0.000 C 
BRANCH   3   4
ATOM      4  C   UNL     1       1.573  23.607  50.542  1.00  0.00     0.000 C 
BRANCH   4   5
ATOM      5  C   UNL     1       2.760  22.703  50.159  1.00  0.00     0.006 C 
BRANCH   5   6
ATOM      6  C   UNL     1       3.783  22.485  51.286  1.00  0.00     0.053 C 
BRANCH   6   7
ATOM      7  C   UNL     1       3.257  21.576  52.354  1.00  0.00     0.041 C 
ATOM      8  O   UNL     1       2.680  22.055  53.365  1.00  0.00    -0.550 OA
ATOM      9  O   UNL     1       3.376  20.200  52.217  1.00  0.00    -0.550 OA
ENDBRANCH   6   7
ENDBRANCH   5   6
ENDBRANCH   4   5
ENDBRANCH   3   4
ENDBRANCH   2   3
ENDBRANCH   1   2
BRANCH   1  10
ATOM     10  C   UNL     1       1.287  23.929  45.644  1.00  0.00     0.000 C 
BRANCH  10  11
ATOM     11  C   UNL     1       2.448  22.921  45.774  1.00  0.00    -0.000 C 
BRANCH  11  12
ATOM     12  C   UNL     1       2.828  22.284  44.426  1.00  0.00    -0.000 C 
BRANCH  12  13
ATOM     13  C   UNL     1       2.685  23.262  43.249  1.00  0.00    -0.000 C 
BRANCH  13  14
ATOM     14  C   UNL     1       3.903  24.190  43.102  1.00  0.00    -0.000 C 
BRANCH  14  15
ATOM     15  C   UNL     1       3.536  25.672  43.274  1.00  0.00    -0.003 C 
ATOM     16  C   UNL     1       4.049  26.258  44.589  1.00  0.00     0.004 C 
ENDBRANCH  14  15
ENDBRANCH  13  14
ENDBRANCH  12  13
ENDBRANCH  11  12
ENDBRANCH  10  11
ENDBRANCH   1  10
TORSDOF 12
ENDMDL
MODEL 6
REMARK VINA RESULT:    -4.600      3.394      7.060
REMARK INTER + INTRA:          -8.759
REMARK INTER:                  -7.945
REMARK INTRA:                  -0.814
REMARK UNBOUND:                -0.931
REMARK SMILES CCCCCCCCCCCCCC(=O)[O-]
REMARK SMILES IDX 8 1 9 2 10 3 11 4 12 5 13 6 14 7 15 8 16 9 7 10 6 11 5 12
REMARK SMILES IDX 4 13 3 14 2 15 1 16
REMARK H PARENT
REMARK Flexibility Score: inf
ROOT
ATOM      1  C   UNL     1       1.433  25.726  47.886  1.00  0.00     0.000 C 
ENDROOT
BRANCH   1   2
ATOM      2  C   UNL     1       1.267  24.284  47.369  1.00  0.00     0.000 C 
BRANCH   2   3
ATOM      3  C   UNL     1       1.155  24.147  45.838  1.00  0.00     0.000 C 
BRANCH   3   4
ATOM      4  C   UNL     1       2.525  24.149  45.138  1.00  0.00     0.000 C 
BRANCH   4   5
ATOM      5  C   UNL     1       2.913  22.762  44.590  1.00  0.00     0.006 C 
BRANCH   5   6
ATOM      6  C   UNL     1       2.959  22.675  43.056  1.00  0.00     0.053 C 
BRANCH   6   7
ATOM      7  C   UNL     1       2.145  21.532  42.533  1.00  0.00     0.041 C 
ATOM      8  O   UNL     1       1.291  20.973  43.271  1.00  0.00    -0.550 OA
ATOM      9  O   UNL     1       2.306  21.106  41.221  1.00  0.00    -0.550 OA
ENDBRANCH   6   7
ENDBRANCH   5   6
ENDBRANCH   4   5
ENDBRANCH   3   4
ENDBRANCH   2   3
ENDBRANCH   1   2
BRANCH   1  10
ATOM     10  C   UNL     1       1.116  25.925  49.381  1.00  0.00     0.000 C 
BRANCH  10  11
ATOM     11  C   UNL     1       1.926  25.004  50.317  1.00  0.00    -0.000 C 
BRANCH  11  12
ATOM     12  C   UNL     1       1.061  24.391  51.434  1.00  0.00    -0.000 C 
BRANCH  12  13
ATOM     13  C   UNL     1       1.022  22.856  51.376  1.00  0.00    -0.000 C 
BRANCH  13  14
ATOM     14  C   UNL     1       2.268  22.260  50.699  1.00  0.00    -0.000 C 
BRANCH  14  15
ATOM     15  C   UNL     1       3.312  21.772  51.714  1.00  0.00    -0.003 C 
ATOM     16  C   UNL     1       4.638  22.525  51.605  1.00  0.00     0.004 C 
ENDBRANCH  14  15
ENDBRANCH  13  14
ENDBRANCH  12  13
ENDBRANCH  11  12
ENDBRANCH  10  11
ENDBRANCH   1  10
TORSDOF 12
ENDMDL
MODEL 7
REMARK VINA RESULT:    -4.476      1.460      2.055
REMARK INTER + INTRA:          -8.548
REMARK INTER:                  -7.730
REMARK INTRA:                  -0.818
REMARK UNBOUND:                -0.931
REMARK SMILES CCCCCCCCCCCCCC(=O)[O-]
REMARK SMILES IDX 8 1 9 2 10 3 11 4 12 5 13 6 14 7 15 8 16 9 7 10 6 11 5 12
REMARK SMILES IDX 4 13 3 14 2 15 1 16
REMARK H PARENT
REMARK Flexibility Score: inf
ROOT
ATOM      1  C   UNL     1       1.981  25.569  47.502  1.00  0.00     0.000 C 
ENDROOT
BRANCH   1   2
ATOM      2  C   UNL     1       1.368  24.521  48.451  1.00  0.00     0.000 C 
BRANCH   2   3
ATOM      3  C   UNL     1       1.629  24.765  49.950  1.00  0.00     0.000 C 
BRANCH   3   4
ATOM      4  C   UNL     1       3.097  25.106  50.252  1.00  0.00     0.000 C 
BRANCH   4   5
ATOM      5  C   UNL     1       3.810  24.004  51.058  1.00  0.00     0.006 C 
BRANCH   5   6
ATOM      6  C   UNL     1       3.307  22.581  50.772  1.00  0.00     0.053 C 
BRANCH   6   7
ATOM      7  C   UNL     1       2.824  21.895  52.014  1.00  0.00     0.041 C 
ATOM      8  O   UNL     1       3.186  20.717  52.268  1.00  0.00    -0.550 OA
ATOM      9  O   UNL     1       2.001  22.570  52.906  1.00  0.00    -0.550 OA
ENDBRANCH   6   7
ENDBRANCH   5   6
ENDBRANCH   4   5
ENDBRANCH   3   4
ENDBRANCH   2   3
ENDBRANCH   1   2
BRANCH   1  10
ATOM     10  C   UNL     1       2.162  25.103  46.044  1.00  0.00     0.000 C 
BRANCH  10  11
ATOM     11  C   UNL     1       1.466  23.763  45.727  1.00  0.00    -0.000 C 
BRANCH  11  12
ATOM     12  C   UNL     1       2.453  22.688  45.239  1.00  0.00    -0.000 C 
BRANCH  12  13
ATOM     13  C   UNL     1       3.472  23.236  44.228  1.00  0.00    -0.000 C 
BRANCH  13  14
ATOM     14  C   UNL     1       3.106  22.889  42.775  1.00  0.00    -0.000 C 
BRANCH  14  15
ATOM     15  C   UNL     1       2.203  21.650  42.676  1.00  0.00    -0.003 C 
ATOM     16  C   UNL     1       2.295  20.960  41.315  1.00  0.00     0.004 C 
ENDBRANCH  14  15
ENDBRANCH  13  14
ENDBRANCH  12  13
ENDBRANCH  11  12
ENDBRANCH  10  11
ENDBRANCH   1  10
TORSDOF 12
ENDMDL
MODEL 8
REMARK VINA RESULT:    -4.394      4.508      7.997
REMARK INTER + INTRA:          -8.408
REMARK INTER:                  -6.825
REMARK INTRA:                  -1.583
REMARK UNBOUND:                -0.931
REMARK SMILES CCCCCCCCCCCCCC(=O)[O-]
REMARK SMILES IDX 8 1 9 2 10 3 11 4 12 5 13 6 14 7 15 8 16 9 7 10 6 11 5 12
REMARK SMILES IDX 4 13 3 14 2 15 1 16
REMARK H PARENT
REMARK Flexibility Score: inf
ROOT
ATOM      1  C   UNL     1       0.159  25.448  54.247  1.00  0.00     0.000 C 
ENDROOT
BRANCH   1   2
ATOM      2  C   UNL     1       0.106  24.196  53.352  1.00  0.00     0.000 C 
BRANCH   2   3
ATOM      3  C   UNL     1       0.816  24.334  51.991  1.00  0.00     0.000 C 
BRANCH   3   4
ATOM      4  C   UNL     1       1.336  22.991  51.451  1.00  0.00     0.000 C 
BRANCH   4   5
ATOM      5  C   UNL     1       1.762  22.025  52.572  1.00  0.00     0.006 C 
BRANCH   5   6
ATOM      6  C   UNL     1       3.157  21.408  52.386  1.00  0.00     0.053 C 
BRANCH   6   7
ATOM      7  C   UNL     1       4.228  22.453  52.311  1.00  0.00     0.041 C 
ATOM      8  O   UNL     1       4.970  22.529  51.298  1.00  0.00    -0.550 OA
ATOM      9  O   UNL     1       4.383  23.364  53.348  1.00  0.00    -0.550 OA
ENDBRANCH   6   7
ENDBRANCH   5   6
ENDBRANCH   4   5
ENDBRANCH   3   4
ENDBRANCH   2   3
ENDBRANCH   1   2
BRANCH   1  10
ATOM     10  C   UNL     1      -1.102  25.697  55.098  1.00  0.00     0.000 C 
BRANCH  10  11
ATOM     11  C   UNL     1      -2.112  24.532  55.069  1.00  0.00    -0.000 C 
BRANCH  11  12
ATOM     12  C   UNL     1      -2.087  23.699  56.363  1.00  0.00    -0.000 C 
BRANCH  12  13
ATOM     13  C   UNL     1      -1.094  24.247  57.400  1.00  0.00    -0.000 C 
BRANCH  13  14
ATOM     14  C   UNL     1      -0.053  23.199  57.829  1.00  0.00    -0.000 C 
BRANCH  14  15
ATOM     15  C   UNL     1       0.614  22.506  56.631  1.00  0.00    -0.003 C 
ATOM     16  C   UNL     1       2.027  23.022  56.362  1.00  0.00     0.004 C 
ENDBRANCH  14  15
ENDBRANCH  13  14
ENDBRANCH  12  13
ENDBRANCH  11  12
ENDBRANCH  10  11
ENDBRANCH   1  10
TORSDOF 12
ENDMDL
MODEL 9
REMARK VINA RESULT:    -4.385      5.134      7.129
REMARK INTER + INTRA:          -8.392
REMARK INTER:                  -6.646
REMARK INTRA:                  -1.746
REMARK UNBOUND:                -0.931
REMARK SMILES CCCCCCCCCCCCCC(=O)[O-]
REMARK SMILES IDX 8 1 9 2 10 3 11 4 12 5 13 6 14 7 15 8 16 9 7 10 6 11 5 12
REMARK SMILES IDX 4 13 3 14 2 15 1 16
REMARK H PARENT
REMARK Flexibility Score: inf
ROOT
ATOM      1  C   UNL     1       1.346  25.213  54.541  1.00  0.00     0.000 C 
ENDROOT
BRANCH   1   2
ATOM      2  C   UNL     1       1.820  24.282  55.674  1.00  0.00     0.000 C 
BRANCH   2   3
ATOM      3  C   UNL     1       1.248  22.852  55.628  1.00  0.00     0.000 C 
BRANCH   3   4
ATOM      4  C   UNL     1       0.530  22.456  56.929  1.00  0.00     0.000 C 
BRANCH   4   5
ATOM      5  C   UNL     1      -0.295  23.611  57.528  1.00  0.00     0.006 C 
BRANCH   5   6
ATOM      6  C   UNL     1      -1.782  23.600  57.138  1.00  0.00     0.053 C 
BRANCH   6   7
ATOM      7  C   UNL     1      -2.159  24.800  56.324  1.00  0.00     0.041 C 
ATOM      8  O   UNL     1      -2.232  25.934  56.865  1.00  0.00    -0.550 OA
ATOM      9  O   UNL     1      -2.397  24.670  54.962  1.00  0.00    -0.550 OA
ENDBRANCH   6   7
ENDBRANCH   5   6
ENDBRANCH   4   5
ENDBRANCH   3   4
ENDBRANCH   2   3
ENDBRANCH   1   2
BRANCH   1  10
ATOM     10  C   UNL     1       0.536  24.524  53.426  1.00  0.00     0.000 C 
BRANCH  10  11
ATOM     11  C   UNL     1       1.005  24.887  52.001  1.00  0.00    -0.000 C 
BRANCH  11  12
ATOM     12  C   UNL     1       0.883  23.705  51.022  1.00  0.00    -0.000 C 
BRANCH  12  13
ATOM     13  C   UNL     1       1.115  22.347  51.703  1.00  0.00    -0.000 C 
BRANCH  13  14
ATOM     14  C   UNL     1       2.541  21.814  51.482  1.00  0.00    -0.000 C 
BRANCH  14  15
ATOM     15  C   UNL     1       3.312  21.633  52.799  1.00  0.00    -0.003 C 
ATOM     16  C   UNL     1       4.212  22.824  53.123  1.00  0.00     0.004 C 
ENDBRANCH  14  15
ENDBRANCH  13  14
ENDBRANCH  12  13
ENDBRANCH  11  12
ENDBRANCH  10  11
ENDBRANCH   1  10
TORSDOF 12
ENDMDL
