MODEL 1
REMARK VINA RESULT:    -7.436      0.000      0.000
REMARK INTER + INTRA:         -12.387
REMARK INTER:                 -10.914
REMARK INTRA:                  -1.474
REMARK UNBOUND:                -1.474
REMARK SMILES O=c1c(O[C@H]2O[C@H](CO)[C@H](O)[C@@H](O)[C@@H]2O)c(-c2ccc(O)c(O)c2)oc2cc(O)cc(O)c12
REMARK SMILES IDX 4 1 3 2 16 3 25 4 2 5 26 6 1 7 33 8 27 9 31 10 28 11 30 12
REMARK SMILES IDX 17 13 18 14 19 15 20 16 24 17 22 18 21 19 23 21 32 23 29 25
REMARK SMILES IDX 5 27 14 28 6 29 12 30 7 31 10 32 15 33 13 35 8 37 9 38 11 40
REMARK H PARENT 21 20 23 22 32 24 29 26 15 34 13 36 9 39 11 41
REMARK Flexibility Score: inf
ROOT
ATOM      1  O   UNL     1      12.984  44.373   6.458  1.00  0.00    -0.454 OA
ENDROOT
BRANCH   1   2
ATOM      2  C   UNL     1      12.229  44.248   7.629  1.00  0.00     0.214 A 
ATOM      3  C   UNL     1      12.799  43.767   8.820  1.00  0.00     0.180 A 
ATOM      4  O   UNL     1      12.078  43.755   9.935  1.00  0.00    -0.452 OA
ATOM      5  C   UNL     1      10.881  44.629   7.623  1.00  0.00     0.239 A 
ATOM      6  C   UNL     1      10.803  44.125   9.985  1.00  0.00     0.146 A 
ATOM      7  O   UNL     1      10.395  45.084   6.555  1.00  0.00    -0.285 OA
ATOM      8  C   UNL     1      10.118  44.541   8.812  1.00  0.00     0.111 A 
ATOM      9  C   UNL     1      10.146  44.092  11.216  1.00  0.00     0.094 A 
ATOM     10  C   UNL     1       8.734  44.876   8.915  1.00  0.00     0.134 A 
ATOM     11  C   UNL     1       8.811  44.472  11.315  1.00  0.00     0.123 A 
ATOM     12  C   UNL     1       8.114  44.866  10.169  1.00  0.00     0.093 A 
BRANCH   3  13
ATOM     13  C   UNL     1      14.186  43.259   8.876  1.00  0.00     0.025 A 
ATOM     14  C   UNL     1      15.229  44.121   9.244  1.00  0.00     0.016 A 
ATOM     15  C   UNL     1      16.540  43.646   9.332  1.00  0.00     0.051 A 
ATOM     16  C   UNL     1      16.822  42.298   9.073  1.00  0.00     0.157 A 
ATOM     17  C   UNL     1      14.470  41.904   8.629  1.00  0.00     0.062 A 
ATOM     18  C   UNL     1      15.780  41.422   8.728  1.00  0.00     0.158 A 
BRANCH  16  19
ATOM     19  O   UNL     1      18.131  41.826   9.164  1.00  0.00    -0.504 OA
ATOM     20  H   UNL     1      18.924  42.416   8.936  1.00  0.00     0.293 HD
ENDBRANCH  16  19
BRANCH  18  21
ATOM     21  O   UNL     1      16.024  40.070   8.490  1.00  0.00    -0.504 OA
ATOM     22  H   UNL     1      16.490  39.480   9.169  1.00  0.00     0.293 HD
ENDBRANCH  18  21
ENDBRANCH   3  13
BRANCH  10  23
ATOM     23  O   UNL     1       7.924  45.198   7.822  1.00  0.00    -0.507 OA
ATOM     24  H   UNL     1       8.056  44.848   6.886  1.00  0.00     0.293 HD
ENDBRANCH  10  23
BRANCH  11  25
ATOM     25  O   UNL     1       8.180  44.447  12.556  1.00  0.00    -0.508 OA
ATOM     26  H   UNL     1       8.207  45.245  13.180  1.00  0.00     0.293 HD
ENDBRANCH  11  25
ENDBRANCH   1   2
BRANCH   1  27
ATOM     27  C   UNL     1      13.843  45.491   6.211  1.00  0.00     0.339 C 
ATOM     28  C   UNL     1      13.451  46.186   4.887  1.00  0.00     0.214 C 
ATOM     29  O   UNL     1      15.204  45.089   6.203  1.00  0.00    -0.332 OA
ATOM     30  C   UNL     1      13.815  45.314   3.663  1.00  0.00     0.180 C 
ATOM     31  C   UNL     1      15.460  44.134   5.187  1.00  0.00     0.179 C 
ATOM     32  C   UNL     1      15.243  44.747   3.779  1.00  0.00     0.177 C 
BRANCH  28  33
ATOM     33  O   UNL     1      14.030  47.466   4.784  1.00  0.00    -0.384 OA
ATOM     34  H   UNL     1      13.710  48.018   5.544  1.00  0.00     0.211 HD
ENDBRANCH  28  33
BRANCH  30  35
ATOM     35  O   UNL     1      12.907  44.247   3.547  1.00  0.00    -0.387 OA
ATOM     36  H   UNL     1      13.439  43.408   3.573  1.00  0.00     0.211 HD
ENDBRANCH  30  35
BRANCH  31  37
ATOM     37  C   UNL     1      16.891  43.606   5.367  1.00  0.00     0.191 C 
BRANCH  37  38
ATOM     38  O   UNL     1      17.491  43.354   4.125  1.00  0.00    -0.394 OA
ATOM     39  H   UNL     1      17.134  44.034   3.495  1.00  0.00     0.210 HD
ENDBRANCH  37  38
ENDBRANCH  31  37
BRANCH  32  40
ATOM     40  O   UNL     1      16.174  45.769   3.524  1.00  0.00    -0.387 OA
ATOM     41  H   UNL     1      16.561  46.039   4.399  1.00  0.00     0.211 HD
ENDBRANCH  32  40
ENDBRANCH   1  27
TORSDOF 12
ENDMDL
MODEL 2
REMARK VINA RESULT:    -7.429      1.581      2.585
REMARK INTER + INTRA:         -12.377
REMARK INTER:                 -11.854
REMARK INTRA:                  -0.523
REMARK UNBOUND:                -1.474
REMARK SMILES O=c1c(O[C@H]2O[C@H](CO)[C@H](O)[C@@H](O)[C@@H]2O)c(-c2ccc(O)c(O)c2)oc2cc(O)cc(O)c12
REMARK SMILES IDX 4 1 3 2 16 3 25 4 2 5 26 6 1 7 33 8 27 9 31 10 28 11 30 12
REMARK SMILES IDX 17 13 18 14 19 15 20 16 24 17 22 18 21 19 23 21 32 23 29 25
REMARK SMILES IDX 5 27 14 28 6 29 12 30 7 31 10 32 15 33 13 35 8 37 9 38 11 40
REMARK H PARENT 21 20 23 22 32 24 29 26 15 34 13 36 9 39 11 41
REMARK Flexibility Score: inf
ROOT
ATOM      1  O   UNL     1      14.192  44.841   6.370  1.00  0.00    -0.454 OA
ENDROOT
BRANCH   1   2
ATOM      2  C   UNL     1      13.181  44.707   7.328  1.00  0.00     0.214 A 
ATOM      3  C   UNL     1      13.404  44.024   8.536  1.00  0.00     0.180 A 
ATOM      4  O   UNL     1      12.453  44.001   9.462  1.00  0.00    -0.452 OA
ATOM      5  C   UNL     1      11.928  45.283   7.091  1.00  0.00     0.239 A 
ATOM      6  C   UNL     1      11.255  44.550   9.293  1.00  0.00     0.146 A 
ATOM      7  O   UNL     1      11.755  45.916   6.016  1.00  0.00    -0.285 OA
ATOM      8  C   UNL     1      10.910  45.185   8.070  1.00  0.00     0.111 A 
ATOM      9  C   UNL     1      10.337  44.486  10.343  1.00  0.00     0.094 A 
ATOM     10  C   UNL     1       9.590  45.710   7.924  1.00  0.00     0.134 A 
ATOM     11  C   UNL     1       9.071  45.048  10.210  1.00  0.00     0.123 A 
ATOM     12  C   UNL     1       8.705  45.660   9.007  1.00  0.00     0.093 A 
BRANCH   3  13
ATOM     13  C   UNL     1      14.670  43.311   8.813  1.00  0.00     0.025 A 
ATOM     14  C   UNL     1      14.691  41.909   8.819  1.00  0.00     0.016 A 
ATOM     15  C   UNL     1      15.887  41.223   9.048  1.00  0.00     0.051 A 
ATOM     16  C   UNL     1      17.079  41.930   9.254  1.00  0.00     0.157 A 
ATOM     17  C   UNL     1      15.869  44.018   9.008  1.00  0.00     0.062 A 
ATOM     18  C   UNL     1      17.071  43.335   9.225  1.00  0.00     0.158 A 
BRANCH  16  19
ATOM     19  O   UNL     1      18.271  41.243   9.480  1.00  0.00    -0.504 OA
ATOM     20  H   UNL     1      18.328  40.234   9.387  1.00  0.00     0.293 HD
ENDBRANCH  16  19
BRANCH  18  21
ATOM     21  O   UNL     1      18.244  44.066   9.399  1.00  0.00    -0.504 OA
ATOM     22  H   UNL     1      18.284  44.886   9.994  1.00  0.00     0.293 HD
ENDBRANCH  18  21
ENDBRANCH   3  13
BRANCH  10  23
ATOM     23  O   UNL     1       9.095  46.262   6.740  1.00  0.00    -0.507 OA
ATOM     24  H   UNL     1       8.153  46.145   6.401  1.00  0.00     0.293 HD
ENDBRANCH  10  23
BRANCH  11  25
ATOM     25  O   UNL     1       8.176  44.986  11.276  1.00  0.00    -0.508 OA
ATOM     26  H   UNL     1       7.532  44.210  11.382  1.00  0.00     0.293 HD
ENDBRANCH  11  25
ENDBRANCH   1   2
BRANCH   1  27
ATOM     27  C   UNL     1      14.763  43.718   5.689  1.00  0.00     0.339 C 
ATOM     28  C   UNL     1      15.304  44.147   4.307  1.00  0.00     0.214 C 
ATOM     29  O   UNL     1      13.819  42.665   5.573  1.00  0.00    -0.332 OA
ATOM     30  C   UNL     1      14.152  44.476   3.328  1.00  0.00     0.180 C 
ATOM     31  C   UNL     1      12.679  43.067   4.832  1.00  0.00     0.179 C 
ATOM     32  C   UNL     1      13.056  43.394   3.364  1.00  0.00     0.177 C 
BRANCH  28  33
ATOM     33  O   UNL     1      16.165  43.174   3.764  1.00  0.00    -0.384 OA
ATOM     34  H   UNL     1      15.788  42.277   3.960  1.00  0.00     0.211 HD
ENDBRANCH  28  33
BRANCH  30  35
ATOM     35  O   UNL     1      13.582  45.717   3.658  1.00  0.00    -0.387 OA
ATOM     36  H   UNL     1      13.723  46.318   2.879  1.00  0.00     0.211 HD
ENDBRANCH  30  35
BRANCH  31  37
ATOM     37  C   UNL     1      11.627  41.951   4.917  1.00  0.00     0.191 C 
BRANCH  37  38
ATOM     38  O   UNL     1      12.239  40.695   5.046  1.00  0.00    -0.394 OA
ATOM     39  H   UNL     1      12.193  40.266   4.152  1.00  0.00     0.210 HD
ENDBRANCH  37  38
ENDBRANCH  31  37
BRANCH  32  40
ATOM     40  O   UNL     1      13.510  42.245   2.691  1.00  0.00    -0.387 OA
ATOM     41  H   UNL     1      13.401  41.478   3.313  1.00  0.00     0.211 HD
ENDBRANCH  32  40
ENDBRANCH   1  27
TORSDOF 12
ENDMDL
MODEL 3
REMARK VINA RESULT:    -7.172      2.563      9.111
REMARK INTER + INTRA:         -12.000
REMARK INTER:                 -10.415
REMARK INTRA:                  -1.586
REMARK UNBOUND:                -1.474
REMARK SMILES O=c1c(O[C@H]2O[C@H](CO)[C@H](O)[C@@H](O)[C@@H]2O)c(-c2ccc(O)c(O)c2)oc2cc(O)cc(O)c12
REMARK SMILES IDX 4 1 3 2 16 3 25 4 2 5 26 6 1 7 33 8 27 9 31 10 28 11 30 12
REMARK SMILES IDX 17 13 18 14 19 15 20 16 24 17 22 18 21 19 23 21 32 23 29 25
REMARK SMILES IDX 5 27 14 28 6 29 12 30 7 31 10 32 15 33 13 35 8 37 9 38 11 40
REMARK H PARENT 21 20 23 22 32 24 29 26 15 34 13 36 9 39 11 41
REMARK Flexibility Score: inf
ROOT
ATOM      1  O   UNL     1       8.834  45.097   9.765  1.00  0.00    -0.454 OA
ENDROOT
BRANCH   1   2
ATOM      2  C   UNL     1       9.928  45.309   8.919  1.00  0.00     0.214 A 
ATOM      3  C   UNL     1       9.844  46.181   7.820  1.00  0.00     0.180 A 
ATOM      4  O   UNL     1      10.929  46.434   7.098  1.00  0.00    -0.452 OA
ATOM      5  C   UNL     1      11.139  44.658   9.183  1.00  0.00     0.239 A 
ATOM      6  C   UNL     1      12.105  45.857   7.320  1.00  0.00     0.146 A 
ATOM      7  O   UNL     1      11.204  43.903  10.187  1.00  0.00    -0.285 OA
ATOM      8  C   UNL     1      12.262  44.895   8.354  1.00  0.00     0.111 A 
ATOM      9  C   UNL     1      13.187  46.212   6.511  1.00  0.00     0.094 A 
ATOM     10  C   UNL     1      13.535  44.268   8.513  1.00  0.00     0.134 A 
ATOM     11  C   UNL     1      14.437  45.633   6.709  1.00  0.00     0.123 A 
ATOM     12  C   UNL     1      14.606  44.671   7.708  1.00  0.00     0.093 A 
BRANCH   3  13
ATOM     13  C   UNL     1       8.574  46.829   7.427  1.00  0.00     0.025 A 
ATOM     14  C   UNL     1       8.481  48.228   7.414  1.00  0.00     0.016 A 
ATOM     15  C   UNL     1       7.297  48.853   7.014  1.00  0.00     0.051 A 
ATOM     16  C   UNL     1       6.198  48.087   6.603  1.00  0.00     0.157 A 
ATOM     17  C   UNL     1       7.474  46.063   7.002  1.00  0.00     0.062 A 
ATOM     18  C   UNL     1       6.291  46.685   6.589  1.00  0.00     0.158 A 
BRANCH  16  19
ATOM     19  O   UNL     1       5.018  48.714   6.202  1.00  0.00    -0.504 OA
ATOM     20  H   UNL     1       5.031  49.572   5.662  1.00  0.00     0.293 HD
ENDBRANCH  16  19
BRANCH  18  21
ATOM     21  O   UNL     1       5.225  45.897   6.160  1.00  0.00    -0.504 OA
ATOM     22  H   UNL     1       4.287  46.013   6.527  1.00  0.00     0.293 HD
ENDBRANCH  18  21
ENDBRANCH   3  13
BRANCH  10  23
ATOM     23  O   UNL     1      13.789  43.235   9.419  1.00  0.00    -0.507 OA
ATOM     24  H   UNL     1      13.998  43.366  10.396  1.00  0.00     0.293 HD
ENDBRANCH  10  23
BRANCH  11  25
ATOM     25  O   UNL     1      15.505  46.014   5.901  1.00  0.00    -0.508 OA
ATOM     26  H   UNL     1      15.782  45.464   5.096  1.00  0.00     0.293 HD
ENDBRANCH  11  25
ENDBRANCH   1   2
BRANCH   1  27
ATOM     27  C   UNL     1       8.499  45.992  10.831  1.00  0.00     0.339 C 
ATOM     28  C   UNL     1       8.506  45.243  12.183  1.00  0.00     0.214 C 
ATOM     29  O   UNL     1       7.247  46.617  10.590  1.00  0.00    -0.332 OA
ATOM     30  C   UNL     1       7.313  44.264  12.292  1.00  0.00     0.180 C 
ATOM     31  C   UNL     1       6.200  45.666  10.498  1.00  0.00     0.179 C 
ATOM     32  C   UNL     1       5.996  44.929  11.848  1.00  0.00     0.177 C 
BRANCH  28  33
ATOM     33  O   UNL     1       8.524  46.138  13.270  1.00  0.00    -0.384 OA
ATOM     34  H   UNL     1       8.206  47.023  12.953  1.00  0.00     0.211 HD
ENDBRANCH  28  33
BRANCH  30  35
ATOM     35  O   UNL     1       7.547  43.133  11.492  1.00  0.00    -0.387 OA
ATOM     36  H   UNL     1       7.152  42.354  11.967  1.00  0.00     0.211 HD
ENDBRANCH  30  35
BRANCH  31  37
ATOM     37  C   UNL     1       4.924  46.392  10.046  1.00  0.00     0.191 C 
BRANCH  37  38
ATOM     38  O   UNL     1       4.198  45.609   9.138  1.00  0.00    -0.394 OA
ATOM     39  H   UNL     1       4.275  44.669   9.450  1.00  0.00     0.210 HD
ENDBRANCH  37  38
ENDBRANCH  31  37
BRANCH  32  40
ATOM     40  O   UNL     1       5.561  45.817  12.848  1.00  0.00    -0.387 OA
ATOM     41  H   UNL     1       4.815  45.372  13.332  1.00  0.00     0.211 HD
ENDBRANCH  32  40
ENDBRANCH   1  27
TORSDOF 12
ENDMDL
MODEL 4
REMARK VINA RESULT:    -7.027      2.825      8.474
REMARK INTER + INTRA:         -11.787
REMARK INTER:                 -10.149
REMARK INTRA:                  -1.638
REMARK UNBOUND:                -1.474
REMARK SMILES O=c1c(O[C@H]2O[C@H](CO)[C@H](O)[C@@H](O)[C@@H]2O)c(-c2ccc(O)c(O)c2)oc2cc(O)cc(O)c12
REMARK SMILES IDX 4 1 3 2 16 3 25 4 2 5 26 6 1 7 33 8 27 9 31 10 28 11 30 12
REMARK SMILES IDX 17 13 18 14 19 15 20 16 24 17 22 18 21 19 23 21 32 23 29 25
REMARK SMILES IDX 5 27 14 28 6 29 12 30 7 31 10 32 15 33 13 35 8 37 9 38 11 40
REMARK H PARENT 21 20 23 22 32 24 29 26 15 34 13 36 9 39 11 41
REMARK Flexibility Score: inf
ROOT
ATOM      1  O   UNL     1       7.559  46.161   8.484  1.00  0.00    -0.454 OA
ENDROOT
BRANCH   1   2
ATOM      2  C   UNL     1       8.933  45.899   8.500  1.00  0.00     0.214 A 
ATOM      3  C   UNL     1       9.524  45.156   9.536  1.00  0.00     0.180 A 
ATOM      4  O   UNL     1      10.813  44.844   9.468  1.00  0.00    -0.452 OA
ATOM      5  C   UNL     1       9.735  46.366   7.452  1.00  0.00     0.239 A 
ATOM      6  C   UNL     1      11.611  45.246   8.485  1.00  0.00     0.146 A 
ATOM      7  O   UNL     1       9.184  47.005   6.518  1.00  0.00    -0.285 OA
ATOM      8  C   UNL     1      11.120  46.075   7.440  1.00  0.00     0.111 A 
ATOM      9  C   UNL     1      12.947  44.841   8.501  1.00  0.00     0.094 A 
ATOM     10  C   UNL     1      12.035  46.521   6.439  1.00  0.00     0.134 A 
ATOM     11  C   UNL     1      13.818  45.238   7.491  1.00  0.00     0.123 A 
ATOM     12  C   UNL     1      13.359  46.069   6.465  1.00  0.00     0.093 A 
BRANCH   3  13
ATOM     13  C   UNL     1       8.757  44.713  10.720  1.00  0.00     0.025 A 
ATOM     14  C   UNL     1       8.344  43.377  10.821  1.00  0.00     0.016 A 
ATOM     15  C   UNL     1       7.646  42.937  11.949  1.00  0.00     0.051 A 
ATOM     16  C   UNL     1       7.370  43.823  12.999  1.00  0.00     0.157 A 
ATOM     17  C   UNL     1       8.490  45.596  11.781  1.00  0.00     0.062 A 
ATOM     18  C   UNL     1       7.803  45.157  12.918  1.00  0.00     0.158 A 
BRANCH  16  19
ATOM     19  O   UNL     1       6.676  43.381  14.125  1.00  0.00    -0.504 OA
ATOM     20  H   UNL     1       5.934  42.693  14.053  1.00  0.00     0.293 HD
ENDBRANCH  16  19
BRANCH  18  21
ATOM     21  O   UNL     1       7.568  46.056  13.957  1.00  0.00    -0.504 OA
ATOM     22  H   UNL     1       7.575  47.059  13.813  1.00  0.00     0.293 HD
ENDBRANCH  18  21
ENDBRANCH   3  13
BRANCH  10  23
ATOM     23  O   UNL     1      11.704  47.420   5.422  1.00  0.00    -0.507 OA
ATOM     24  H   UNL     1      11.694  47.198   4.439  1.00  0.00     0.293 HD
ENDBRANCH  10  23
BRANCH  11  25
ATOM     25  O   UNL     1      15.143  44.809   7.520  1.00  0.00    -0.508 OA
ATOM     26  H   UNL     1      15.414  43.904   7.153  1.00  0.00     0.293 HD
ENDBRANCH  11  25
ENDBRANCH   1   2
BRANCH   1  27
ATOM     27  C   UNL     1       6.589  45.169   8.131  1.00  0.00     0.339 C 
ATOM     28  C   UNL     1       6.304  45.214   6.613  1.00  0.00     0.214 C 
ATOM     29  O   UNL     1       5.400  45.334   8.887  1.00  0.00    -0.332 OA
ATOM     30  C   UNL     1       5.515  46.486   6.224  1.00  0.00     0.180 C 
ATOM     31  C   UNL     1       4.806  46.601   8.654  1.00  0.00     0.179 C 
ATOM     32  C   UNL     1       4.334  46.732   7.182  1.00  0.00     0.177 C 
BRANCH  28  33
ATOM     33  O   UNL     1       5.635  44.053   6.178  1.00  0.00    -0.384 OA
ATOM     34  H   UNL     1       5.053  43.732   6.915  1.00  0.00     0.211 HD
ENDBRANCH  28  33
BRANCH  30  35
ATOM     35  O   UNL     1       6.366  47.604   6.250  1.00  0.00    -0.387 OA
ATOM     36  H   UNL     1       5.797  48.406   6.102  1.00  0.00     0.211 HD
ENDBRANCH  30  35
BRANCH  31  37
ATOM     37  C   UNL     1       3.646  46.782   9.645  1.00  0.00     0.191 C 
BRANCH  37  38
ATOM     38  O   UNL     1       2.732  45.723   9.544  1.00  0.00    -0.394 OA
ATOM     39  H   UNL     1       2.051  46.000   8.877  1.00  0.00     0.210 HD
ENDBRANCH  37  38
ENDBRANCH  31  37
BRANCH  32  40
ATOM     40  O   UNL     1       3.304  45.817   6.899  1.00  0.00    -0.387 OA
ATOM     41  H   UNL     1       3.355  45.609   5.928  1.00  0.00     0.211 HD
ENDBRANCH  32  40
ENDBRANCH   1  27
TORSDOF 12
ENDMDL
MODEL 5
REMARK VINA RESULT:    -6.985      2.182      7.340
REMARK INTER + INTRA:         -11.725
REMARK INTER:                 -11.237
REMARK INTRA:                  -0.489
REMARK UNBOUND:                -1.474
REMARK SMILES O=c1c(O[C@H]2O[C@H](CO)[C@H](O)[C@@H](O)[C@@H]2O)c(-c2ccc(O)c(O)c2)oc2cc(O)cc(O)c12
REMARK SMILES IDX 4 1 3 2 16 3 25 4 2 5 26 6 1 7 33 8 27 9 31 10 28 11 30 12
REMARK SMILES IDX 17 13 18 14 19 15 20 16 24 17 22 18 21 19 23 21 32 23 29 25
REMARK SMILES IDX 5 27 14 28 6 29 12 30 7 31 10 32 15 33 13 35 8 37 9 38 11 40
REMARK H PARENT 21 20 23 22 32 24 29 26 15 34 13 36 9 39 11 41
REMARK Flexibility Score: inf
ROOT
ATOM      1  O   UNL     1       9.762  46.332   8.408  1.00  0.00    -0.454 OA
ENDROOT
BRANCH   1   2
ATOM      2  C   UNL     1      10.962  45.616   8.463  1.00  0.00     0.214 A 
ATOM      3  C   UNL     1      11.126  44.529   9.340  1.00  0.00     0.180 A 
ATOM      4  O   UNL     1      12.243  43.812   9.296  1.00  0.00    -0.452 OA
ATOM      5  C   UNL     1      12.016  45.972   7.614  1.00  0.00     0.239 A 
ATOM      6  C   UNL     1      13.263  44.098   8.494  1.00  0.00     0.146 A 
ATOM      7  O   UNL     1      11.842  46.929   6.815  1.00  0.00    -0.285 OA
ATOM      8  C   UNL     1      13.222  45.230   7.636  1.00  0.00     0.111 A 
ATOM      9  C   UNL     1      14.382  43.263   8.514  1.00  0.00     0.094 A 
ATOM     10  C   UNL     1      14.368  45.519   6.835  1.00  0.00     0.134 A 
ATOM     11  C   UNL     1      15.473  43.524   7.690  1.00  0.00     0.123 A 
ATOM     12  C   UNL     1      15.460  44.644   6.854  1.00  0.00     0.093 A 
BRANCH   3  13
ATOM     13  C   UNL     1      10.092  44.157  10.330  1.00  0.00     0.025 A 
ATOM     14  C   UNL     1       8.822  43.757   9.891  1.00  0.00     0.016 A 
ATOM     15  C   UNL     1       7.846  43.372  10.815  1.00  0.00     0.051 A 
ATOM     16  C   UNL     1       8.135  43.362  12.186  1.00  0.00     0.157 A 
ATOM     17  C   UNL     1      10.383  44.135  11.705  1.00  0.00     0.062 A 
ATOM     18  C   UNL     1       9.414  43.737  12.631  1.00  0.00     0.158 A 
BRANCH  16  19
ATOM     19  O   UNL     1       7.160  42.975  13.105  1.00  0.00    -0.504 OA
ATOM     20  H   UNL     1       6.754  42.046  13.087  1.00  0.00     0.293 HD
ENDBRANCH  16  19
BRANCH  18  21
ATOM     21  O   UNL     1       9.740  43.713  13.986  1.00  0.00    -0.504 OA
ATOM     22  H   UNL     1      10.637  44.036  14.330  1.00  0.00     0.293 HD
ENDBRANCH  18  21
ENDBRANCH   3  13
BRANCH  10  23
ATOM     23  O   UNL     1      14.494  46.656   6.033  1.00  0.00    -0.507 OA
ATOM     24  H   UNL     1      15.312  46.891   5.493  1.00  0.00     0.293 HD
ENDBRANCH  10  23
BRANCH  11  25
ATOM     25  O   UNL     1      16.572  42.669   7.715  1.00  0.00    -0.508 OA
ATOM     26  H   UNL     1      17.491  42.980   7.422  1.00  0.00     0.293 HD
ENDBRANCH  11  25
ENDBRANCH   1   2
BRANCH   1  27
ATOM     27  C   UNL     1       9.227  46.847   7.183  1.00  0.00     0.339 C 
ATOM     28  C   UNL     1       8.471  48.170   7.443  1.00  0.00     0.214 C 
ATOM     29  O   UNL     1       8.392  45.887   6.554  1.00  0.00    -0.332 OA
ATOM     30  C   UNL     1       7.151  47.924   8.210  1.00  0.00     0.180 C 
ATOM     31  C   UNL     1       7.291  45.535   7.375  1.00  0.00     0.179 C 
ATOM     32  C   UNL     1       6.356  46.752   7.603  1.00  0.00     0.177 C 
BRANCH  28  33
ATOM     33  O   UNL     1       8.235  48.873   6.246  1.00  0.00    -0.384 OA
ATOM     34  H   UNL     1       7.256  48.991   6.138  1.00  0.00     0.211 HD
ENDBRANCH  28  33
BRANCH  30  35
ATOM     35  O   UNL     1       7.426  47.641   9.559  1.00  0.00    -0.387 OA
ATOM     36  H   UNL     1       7.088  48.409  10.091  1.00  0.00     0.211 HD
ENDBRANCH  30  35
BRANCH  31  37
ATOM     37  C   UNL     1       6.552  44.361   6.718  1.00  0.00     0.191 C 
BRANCH  37  38
ATOM     38  O   UNL     1       5.168  44.463   6.921  1.00  0.00    -0.394 OA
ATOM     39  H   UNL     1       4.865  45.258   6.408  1.00  0.00     0.210 HD
ENDBRANCH  37  38
ENDBRANCH  31  37
BRANCH  32  40
ATOM     40  O   UNL     1       5.761  47.165   6.398  1.00  0.00    -0.387 OA
ATOM     41  H   UNL     1       6.356  46.867   5.659  1.00  0.00     0.211 HD
ENDBRANCH  32  40
ENDBRANCH   1  27
TORSDOF 12
ENDMDL
MODEL 6
REMARK VINA RESULT:    -6.816      1.177      2.359
REMARK INTER + INTRA:         -11.478
REMARK INTER:                 -10.412
REMARK INTRA:                  -1.066
REMARK UNBOUND:                -1.474
REMARK SMILES O=c1c(O[C@H]2O[C@H](CO)[C@H](O)[C@@H](O)[C@@H]2O)c(-c2ccc(O)c(O)c2)oc2cc(O)cc(O)c12
REMARK SMILES IDX 4 1 3 2 16 3 25 4 2 5 26 6 1 7 33 8 27 9 31 10 28 11 30 12
REMARK SMILES IDX 17 13 18 14 19 15 20 16 24 17 22 18 21 19 23 21 32 23 29 25
REMARK SMILES IDX 5 27 14 28 6 29 12 30 7 31 10 32 15 33 13 35 8 37 9 38 11 40
REMARK H PARENT 21 20 23 22 32 24 29 26 15 34 13 36 9 39 11 41
REMARK Flexibility Score: inf
ROOT
ATOM      1  O   UNL     1      12.578  45.143   6.690  1.00  0.00    -0.454 OA
ENDROOT
BRANCH   1   2
ATOM      2  C   UNL     1      11.908  44.746   7.852  1.00  0.00     0.214 A 
ATOM      3  C   UNL     1      12.588  44.120   8.911  1.00  0.00     0.180 A 
ATOM      4  O   UNL     1      11.940  43.847  10.037  1.00  0.00    -0.452 OA
ATOM      5  C   UNL     1      10.536  44.996   7.975  1.00  0.00     0.239 A 
ATOM      6  C   UNL     1      10.644  44.082  10.210  1.00  0.00     0.146 A 
ATOM      7  O   UNL     1       9.949  45.583   7.029  1.00  0.00    -0.285 OA
ATOM      8  C   UNL     1       9.856  44.631   9.162  1.00  0.00     0.111 A 
ATOM      9  C   UNL     1      10.068  43.774  11.444  1.00  0.00     0.094 A 
ATOM     10  C   UNL     1       8.458  44.813   9.386  1.00  0.00     0.134 A 
ATOM     11  C   UNL     1       8.714  44.005  11.669  1.00  0.00     0.123 A 
ATOM     12  C   UNL     1       7.919  44.526  10.645  1.00  0.00     0.093 A 
BRANCH   3  13
ATOM     13  C   UNL     1      14.014  43.741   8.812  1.00  0.00     0.025 A 
ATOM     14  C   UNL     1      15.005  44.723   8.948  1.00  0.00     0.016 A 
ATOM     15  C   UNL     1      16.358  44.373   8.888  1.00  0.00     0.051 A 
ATOM     16  C   UNL     1      16.734  43.035   8.714  1.00  0.00     0.157 A 
ATOM     17  C   UNL     1      14.395  42.398   8.649  1.00  0.00     0.062 A 
ATOM     18  C   UNL     1      15.747  42.042   8.602  1.00  0.00     0.158 A 
BRANCH  16  19
ATOM     19  O   UNL     1      18.084  42.689   8.657  1.00  0.00    -0.504 OA
ATOM     20  H   UNL     1      18.736  43.194   8.067  1.00  0.00     0.293 HD
ENDBRANCH  16  19
BRANCH  18  21
ATOM     21  O   UNL     1      16.089  40.699   8.454  1.00  0.00    -0.504 OA
ATOM     22  H   UNL     1      15.793  40.153   7.654  1.00  0.00     0.293 HD
ENDBRANCH  18  21
ENDBRANCH   3  13
BRANCH  10  23
ATOM     23  O   UNL     1       7.559  45.244   8.407  1.00  0.00    -0.507 OA
ATOM     24  H   UNL     1       6.661  45.660   8.593  1.00  0.00     0.293 HD
ENDBRANCH  10  23
BRANCH  11  25
ATOM     25  O   UNL     1       8.164  43.705  12.913  1.00  0.00    -0.508 OA
ATOM     26  H   UNL     1       8.110  44.399  13.649  1.00  0.00     0.293 HD
ENDBRANCH  11  25
ENDBRANCH   1   2
BRANCH   1  27
ATOM     27  C   UNL     1      12.772  44.267   5.574  1.00  0.00     0.339 C 
ATOM     28  C   UNL     1      14.265  43.893   5.441  1.00  0.00     0.214 C 
ATOM     29  O   UNL     1      12.274  44.852   4.381  1.00  0.00    -0.332 OA
ATOM     30  C   UNL     1      15.109  45.098   4.963  1.00  0.00     0.180 C 
ATOM     31  C   UNL     1      12.940  46.067   4.079  1.00  0.00     0.179 C 
ATOM     32  C   UNL     1      14.441  45.818   3.775  1.00  0.00     0.177 C 
BRANCH  28  33
ATOM     33  O   UNL     1      14.446  42.784   4.591  1.00  0.00    -0.384 OA
ATOM     34  H   UNL     1      13.609  42.642   4.077  1.00  0.00     0.211 HD
ENDBRANCH  28  33
BRANCH  30  35
ATOM     35  O   UNL     1      15.277  46.013   6.017  1.00  0.00    -0.387 OA
ATOM     36  H   UNL     1      14.850  45.613   6.820  1.00  0.00     0.211 HD
ENDBRANCH  30  35
BRANCH  31  37
ATOM     37  C   UNL     1      12.221  46.732   2.897  1.00  0.00     0.191 C 
BRANCH  37  38
ATOM     38  O   UNL     1      10.920  47.115   3.254  1.00  0.00    -0.394 OA
ATOM     39  H   UNL     1      10.376  47.080   2.423  1.00  0.00     0.210 HD
ENDBRANCH  37  38
ENDBRANCH  31  37
BRANCH  32  40
ATOM     40  O   UNL     1      14.600  45.046   2.611  1.00  0.00    -0.387 OA
ATOM     41  H   UNL     1      15.529  45.191   2.287  1.00  0.00     0.211 HD
ENDBRANCH  32  40
ENDBRANCH   1  27
TORSDOF 12
ENDMDL
MODEL 7
REMARK VINA RESULT:    -6.674      1.597      4.650
REMARK INTER + INTRA:         -11.269
REMARK INTER:                 -10.151
REMARK INTRA:                  -1.118
REMARK UNBOUND:                -1.474
REMARK SMILES O=c1c(O[C@H]2O[C@H](CO)[C@H](O)[C@@H](O)[C@@H]2O)c(-c2ccc(O)c(O)c2)oc2cc(O)cc(O)c12
REMARK SMILES IDX 4 1 3 2 16 3 25 4 2 5 26 6 1 7 33 8 27 9 31 10 28 11 30 12
REMARK SMILES IDX 17 13 18 14 19 15 20 16 24 17 22 18 21 19 23 21 32 23 29 25
REMARK SMILES IDX 5 27 14 28 6 29 12 30 7 31 10 32 15 33 13 35 8 37 9 38 11 40
REMARK H PARENT 21 20 23 22 32 24 29 26 15 34 13 36 9 39 11 41
REMARK Flexibility Score: inf
ROOT
ATOM      1  O   UNL     1      12.936  43.544   8.088  1.00  0.00    -0.454 OA
ENDROOT
BRANCH   1   2
ATOM      2  C   UNL     1      11.854  44.427   8.004  1.00  0.00     0.214 A 
ATOM      3  C   UNL     1      11.657  45.235   6.871  1.00  0.00     0.180 A 
ATOM      4  O   UNL     1      10.566  45.988   6.784  1.00  0.00    -0.452 OA
ATOM      5  C   UNL     1      10.936  44.493   9.058  1.00  0.00     0.239 A 
ATOM      6  C   UNL     1       9.656  46.070   7.749  1.00  0.00     0.146 A 
ATOM      7  O   UNL     1      11.113  43.741  10.052  1.00  0.00    -0.285 OA
ATOM      8  C   UNL     1       9.818  45.357   8.967  1.00  0.00     0.111 A 
ATOM      9  C   UNL     1       8.536  46.878   7.543  1.00  0.00     0.094 A 
ATOM     10  C   UNL     1       8.835  45.524   9.989  1.00  0.00     0.134 A 
ATOM     11  C   UNL     1       7.557  46.992   8.526  1.00  0.00     0.123 A 
ATOM     12  C   UNL     1       7.707  46.314   9.738  1.00  0.00     0.093 A 
BRANCH   3  13
ATOM     13  C   UNL     1      12.634  45.287   5.763  1.00  0.00     0.025 A 
ATOM     14  C   UNL     1      13.610  46.294   5.744  1.00  0.00     0.016 A 
ATOM     15  C   UNL     1      14.560  46.337   4.719  1.00  0.00     0.051 A 
ATOM     16  C   UNL     1      14.558  45.361   3.713  1.00  0.00     0.157 A 
ATOM     17  C   UNL     1      12.642  44.303   4.760  1.00  0.00     0.062 A 
ATOM     18  C   UNL     1      13.599  44.334   3.740  1.00  0.00     0.158 A 
BRANCH  16  19
ATOM     19  O   UNL     1      15.508  45.404   2.694  1.00  0.00    -0.504 OA
ATOM     20  H   UNL     1      15.412  44.841   1.855  1.00  0.00     0.293 HD
ENDBRANCH  16  19
BRANCH  18  21
ATOM     21  O   UNL     1      13.588  43.334   2.769  1.00  0.00    -0.504 OA
ATOM     22  H   UNL     1      13.940  43.489   1.832  1.00  0.00     0.293 HD
ENDBRANCH  18  21
ENDBRANCH   3  13
BRANCH  10  23
ATOM     23  O   UNL     1       8.932  44.963  11.265  1.00  0.00    -0.507 OA
ATOM     24  H   UNL     1       8.148  44.654  11.818  1.00  0.00     0.293 HD
ENDBRANCH  10  23
BRANCH  11  25
ATOM     25  O   UNL     1       6.440  47.791   8.293  1.00  0.00    -0.508 OA
ATOM     26  H   UNL     1       6.361  48.359   7.457  1.00  0.00     0.293 HD
ENDBRANCH  11  25
ENDBRANCH   1   2
BRANCH   1  27
ATOM     27  C   UNL     1      14.039  43.758   8.976  1.00  0.00     0.339 C 
ATOM     28  C   UNL     1      15.266  44.273   8.191  1.00  0.00     0.214 C 
ATOM     29  O   UNL     1      14.343  42.574   9.697  1.00  0.00    -0.332 OA
ATOM     30  C   UNL     1      15.873  43.164   7.300  1.00  0.00     0.180 C 
ATOM     31  C   UNL     1      14.706  41.514   8.828  1.00  0.00     0.179 C 
ATOM     32  C   UNL     1      16.020  41.838   8.072  1.00  0.00     0.177 C 
BRANCH  28  33
ATOM     33  O   UNL     1      16.239  44.816   9.053  1.00  0.00    -0.384 OA
ATOM     34  H   UNL     1      16.932  44.125   9.220  1.00  0.00     0.211 HD
ENDBRANCH  28  33
BRANCH  30  35
ATOM     35  O   UNL     1      15.056  42.951   6.177  1.00  0.00    -0.387 OA
ATOM     36  H   UNL     1      14.665  43.831   5.931  1.00  0.00     0.211 HD
ENDBRANCH  30  35
BRANCH  31  37
ATOM     37  C   UNL     1      14.827  40.227   9.658  1.00  0.00     0.191 C 
BRANCH  37  38
ATOM     38  O   UNL     1      15.615  39.276   8.995  1.00  0.00    -0.394 OA
ATOM     39  H   UNL     1      14.991  38.705   8.475  1.00  0.00     0.210 HD
ENDBRANCH  37  38
ENDBRANCH  31  37
BRANCH  32  40
ATOM     40  O   UNL     1      17.105  41.934   8.962  1.00  0.00    -0.387 OA
ATOM     41  H   UNL     1      17.218  42.896   9.185  1.00  0.00     0.211 HD
ENDBRANCH  32  40
ENDBRANCH   1  27
TORSDOF 12
ENDMDL
MODEL 8
REMARK VINA RESULT:    -6.556      2.748      7.742
REMARK INTER + INTRA:         -11.095
REMARK INTER:                 -10.860
REMARK INTRA:                  -0.235
REMARK UNBOUND:                -1.474
REMARK SMILES O=c1c(O[C@H]2O[C@H](CO)[C@H](O)[C@@H](O)[C@@H]2O)c(-c2ccc(O)c(O)c2)oc2cc(O)cc(O)c12
REMARK SMILES IDX 4 1 3 2 16 3 25 4 2 5 26 6 1 7 33 8 27 9 31 10 28 11 30 12
REMARK SMILES IDX 17 13 18 14 19 15 20 16 24 17 22 18 21 19 23 21 32 23 29 25
REMARK SMILES IDX 5 27 14 28 6 29 12 30 7 31 10 32 15 33 13 35 8 37 9 38 11 40
REMARK H PARENT 21 20 23 22 32 24 29 26 15 34 13 36 9 39 11 41
REMARK Flexibility Score: inf
ROOT
ATOM      1  O   UNL     1       8.985  46.805   7.782  1.00  0.00    -0.454 OA
ENDROOT
BRANCH   1   2
ATOM      2  C   UNL     1      10.058  46.010   7.363  1.00  0.00     0.214 A 
ATOM      3  C   UNL     1      10.411  44.837   8.051  1.00  0.00     0.180 A 
ATOM      4  O   UNL     1      11.371  44.057   7.568  1.00  0.00    -0.452 OA
ATOM      5  C   UNL     1      10.783  46.378   6.223  1.00  0.00     0.239 A 
ATOM      6  C   UNL     1      12.074  44.351   6.481  1.00  0.00     0.146 A 
ATOM      7  O   UNL     1      10.435  47.416   5.604  1.00  0.00    -0.285 OA
ATOM      8  C   UNL     1      11.847  45.561   5.771  1.00  0.00     0.111 A 
ATOM      9  C   UNL     1      13.048  43.448   6.049  1.00  0.00     0.094 A 
ATOM     10  C   UNL     1      12.668  45.851   4.639  1.00  0.00     0.134 A 
ATOM     11  C   UNL     1      13.807  43.716   4.914  1.00  0.00     0.123 A 
ATOM     12  C   UNL     1      13.611  44.909   4.213  1.00  0.00     0.093 A 
BRANCH   3  13
ATOM     13  C   UNL     1       9.752  44.438   9.313  1.00  0.00     0.025 A 
ATOM     14  C   UNL     1      10.531  44.132  10.438  1.00  0.00     0.016 A 
ATOM     15  C   UNL     1       9.920  43.784  11.646  1.00  0.00     0.051 A 
ATOM     16  C   UNL     1       8.523  43.758  11.750  1.00  0.00     0.157 A 
ATOM     17  C   UNL     1       8.350  44.422   9.423  1.00  0.00     0.062 A 
ATOM     18  C   UNL     1       7.735  44.087  10.634  1.00  0.00     0.158 A 
BRANCH  16  19
ATOM     19  O   UNL     1       7.917  43.413  12.957  1.00  0.00    -0.504 OA
ATOM     20  H   UNL     1       7.795  42.444  13.231  1.00  0.00     0.293 HD
ENDBRANCH  16  19
BRANCH  18  21
ATOM     21  O   UNL     1       6.344  44.096  10.712  1.00  0.00    -0.504 OA
ATOM     22  H   UNL     1       5.808  44.956  10.691  1.00  0.00     0.293 HD
ENDBRANCH  18  21
ENDBRANCH   3  13
BRANCH  10  23
ATOM     23  O   UNL     1      12.616  47.049   3.922  1.00  0.00    -0.507 OA
ATOM     24  H   UNL     1      13.065  47.907   4.202  1.00  0.00     0.293 HD
ENDBRANCH  10  23
BRANCH  11  25
ATOM     25  O   UNL     1      14.762  42.793   4.493  1.00  0.00    -0.508 OA
ATOM     26  H   UNL     1      14.664  41.804   4.691  1.00  0.00     0.293 HD
ENDBRANCH  11  25
ENDBRANCH   1   2
BRANCH   1  27
ATOM     27  C   UNL     1       8.120  47.479   6.862  1.00  0.00     0.339 C 
ATOM     28  C   UNL     1       7.445  48.688   7.548  1.00  0.00     0.214 C 
ATOM     29  O   UNL     1       7.159  46.584   6.324  1.00  0.00    -0.332 OA
ATOM     30  C   UNL     1       6.397  48.232   8.590  1.00  0.00     0.180 C 
ATOM     31  C   UNL     1       6.338  46.030   7.339  1.00  0.00     0.179 C 
ATOM     32  C   UNL     1       5.484  47.127   8.026  1.00  0.00     0.177 C 
BRANCH  28  33
ATOM     33  O   UNL     1       6.871  49.563   6.606  1.00  0.00    -0.384 OA
ATOM     34  H   UNL     1       6.044  49.948   6.996  1.00  0.00     0.211 HD
ENDBRANCH  28  33
BRANCH  30  35
ATOM     35  O   UNL     1       7.044  47.749   9.741  1.00  0.00    -0.387 OA
ATOM     36  H   UNL     1       7.591  48.495  10.102  1.00  0.00     0.211 HD
ENDBRANCH  30  35
BRANCH  31  37
ATOM     37  C   UNL     1       5.464  44.935   6.711  1.00  0.00     0.191 C 
BRANCH  37  38
ATOM     38  O   UNL     1       6.255  43.900   6.191  1.00  0.00    -0.394 OA
ATOM     39  H   UNL     1       6.813  43.566   6.942  1.00  0.00     0.210 HD
ENDBRANCH  37  38
ENDBRANCH  31  37
BRANCH  32  40
ATOM     40  O   UNL     1       4.568  47.695   7.121  1.00  0.00    -0.387 OA
ATOM     41  H   UNL     1       4.133  48.459   7.584  1.00  0.00     0.211 HD
ENDBRANCH  32  40
ENDBRANCH   1  27
TORSDOF 12
ENDMDL
MODEL 9
REMARK VINA RESULT:    -6.535      2.490      8.842
REMARK INTER + INTRA:         -11.065
REMARK INTER:                  -9.640
REMARK INTRA:                  -1.426
REMARK UNBOUND:                -1.474
REMARK SMILES O=c1c(O[C@H]2O[C@H](CO)[C@H](O)[C@@H](O)[C@@H]2O)c(-c2ccc(O)c(O)c2)oc2cc(O)cc(O)c12
REMARK SMILES IDX 4 1 3 2 16 3 25 4 2 5 26 6 1 7 33 8 27 9 31 10 28 11 30 12
REMARK SMILES IDX 17 13 18 14 19 15 20 16 24 17 22 18 21 19 23 21 32 23 29 25
REMARK SMILES IDX 5 27 14 28 6 29 12 30 7 31 10 32 15 33 13 35 8 37 9 38 11 40
REMARK H PARENT 21 20 23 22 32 24 29 26 15 34 13 36 9 39 11 41
REMARK Flexibility Score: inf
ROOT
ATOM      1  O   UNL     1       9.201  45.615   9.809  1.00  0.00    -0.454 OA
ENDROOT
BRANCH   1   2
ATOM      2  C   UNL     1      10.089  45.479   8.737  1.00  0.00     0.214 A 
ATOM      3  C   UNL     1       9.831  46.080   7.493  1.00  0.00     0.180 A 
ATOM      4  O   UNL     1      10.742  46.012   6.529  1.00  0.00    -0.452 OA
ATOM      5  C   UNL     1      11.271  44.749   8.910  1.00  0.00     0.239 A 
ATOM      6  C   UNL     1      11.886  45.348   6.651  1.00  0.00     0.146 A 
ATOM      7  O   UNL     1      11.500  44.242  10.039  1.00  0.00    -0.285 OA
ATOM      8  C   UNL     1      12.193  44.636   7.842  1.00  0.00     0.111 A 
ATOM      9  C   UNL     1      12.783  45.360   5.581  1.00  0.00     0.094 A 
ATOM     10  C   UNL     1      13.414  43.897   7.897  1.00  0.00     0.134 A 
ATOM     11  C   UNL     1      13.994  44.680   5.665  1.00  0.00     0.123 A 
ATOM     12  C   UNL     1      14.305  43.958   6.821  1.00  0.00     0.093 A 
BRANCH   3  13
ATOM     13  C   UNL     1       8.562  46.784   7.210  1.00  0.00     0.025 A 
ATOM     14  C   UNL     1       8.505  48.182   7.312  1.00  0.00     0.016 A 
ATOM     15  C   UNL     1       7.321  48.863   7.016  1.00  0.00     0.051 A 
ATOM     16  C   UNL     1       6.185  48.157   6.596  1.00  0.00     0.157 A 
ATOM     17  C   UNL     1       7.425  46.080   6.777  1.00  0.00     0.062 A 
ATOM     18  C   UNL     1       6.242  46.759   6.468  1.00  0.00     0.158 A 
BRANCH  16  19
ATOM     19  O   UNL     1       5.006  48.839   6.300  1.00  0.00    -0.504 OA
ATOM     20  H   UNL     1       5.017  49.734   5.823  1.00  0.00     0.293 HD
ENDBRANCH  16  19
BRANCH  18  21
ATOM     21  O   UNL     1       5.138  46.031   6.027  1.00  0.00    -0.504 OA
ATOM     22  H   UNL     1       4.568  46.336   5.246  1.00  0.00     0.293 HD
ENDBRANCH  18  21
ENDBRANCH   3  13
BRANCH  10  23
ATOM     23  O   UNL     1      13.781  43.075   8.965  1.00  0.00    -0.507 OA
ATOM     24  H   UNL     1      13.396  43.132   9.895  1.00  0.00     0.293 HD
ENDBRANCH  10  23
BRANCH  11  25
ATOM     25  O   UNL     1      14.879  44.718   4.591  1.00  0.00    -0.508 OA
ATOM     26  H   UNL     1      15.065  45.579   4.089  1.00  0.00     0.293 HD
ENDBRANCH  11  25
ENDBRANCH   1   2
BRANCH   1  27
ATOM     27  C   UNL     1       8.151  44.676  10.065  1.00  0.00     0.339 C 
ATOM     28  C   UNL     1       6.849  45.417  10.444  1.00  0.00     0.214 C 
ATOM     29  O   UNL     1       8.535  43.752  11.071  1.00  0.00    -0.332 OA
ATOM     30  C   UNL     1       6.955  46.062  11.845  1.00  0.00     0.180 C 
ATOM     31  C   UNL     1       8.818  44.405  12.298  1.00  0.00     0.179 C 
ATOM     32  C   UNL     1       7.547  45.081  12.875  1.00  0.00     0.177 C 
BRANCH  28  33
ATOM     33  O   UNL     1       5.729  44.567  10.364  1.00  0.00    -0.384 OA
ATOM     34  H   UNL     1       5.137  44.753  11.138  1.00  0.00     0.211 HD
ENDBRANCH  28  33
BRANCH  30  35
ATOM     35  O   UNL     1       7.767  47.208  11.785  1.00  0.00    -0.387 OA
ATOM     36  H   UNL     1       8.709  46.900  11.859  1.00  0.00     0.211 HD
ENDBRANCH  30  35
BRANCH  31  37
ATOM     37  C   UNL     1       9.409  43.375  13.271  1.00  0.00     0.191 C 
BRANCH  37  38
ATOM     38  O   UNL     1      10.665  42.933  12.829  1.00  0.00    -0.394 OA
ATOM     39  H   UNL     1      11.342  43.447  13.344  1.00  0.00     0.210 HD
ENDBRANCH  37  38
ENDBRANCH  31  37
BRANCH  32  40
ATOM     40  O   UNL     1       6.576  44.122  13.218  1.00  0.00    -0.387 OA
ATOM     41  H   UNL     1       6.732  43.873  14.168  1.00  0.00     0.211 HD
ENDBRANCH  32  40
ENDBRANCH   1  27
TORSDOF 12
ENDMDL
