MODEL 1
REMARK VINA RESULT:    -4.131      0.000      0.000
REMARK INTER + INTRA:          -6.300
REMARK INTER:                  -6.063
REMARK INTRA:                  -0.237
REMARK UNBOUND:                -0.237
REMARK SMILES O=C([O-])CCCCCCCC(=O)[O-]
REMARK SMILES IDX 7 1 6 2 5 3 4 4 2 5 1 6 3 7 8 8 9 9 10 10 11 11 12 12 13 13
REMARK H PARENT
REMARK Flexibility Score: inf
ROOT
ATOM      1  C   UNL     1       4.767 -36.777  19.486  1.00  0.00     0.000 C 
ENDROOT
BRANCH   1   2
ATOM      2  C   UNL     1       3.239 -36.900  19.595  1.00  0.00     0.000 C 
BRANCH   2   3
ATOM      3  C   UNL     1       2.543 -36.855  18.226  1.00  0.00     0.006 C 
BRANCH   3   4
ATOM      4  C   UNL     1       3.554 -36.588  17.107  1.00  0.00     0.053 C 
BRANCH   4   5
ATOM      5  C   UNL     1       2.879 -35.955  15.931  1.00  0.00     0.041 C 
ATOM      6  O   UNL     1       1.666 -35.623  16.001  1.00  0.00    -0.550 OA
ATOM      7  O   UNL     1       3.574 -35.778  14.743  1.00  0.00    -0.550 OA
ENDBRANCH   4   5
ENDBRANCH   3   4
ENDBRANCH   2   3
ENDBRANCH   1   2
BRANCH   1   8
ATOM      8  C   UNL     1       5.276 -35.372  19.854  1.00  0.00     0.000 C 
BRANCH   8   9
ATOM      9  C   UNL     1       4.956 -34.990  21.308  1.00  0.00     0.006 C 
BRANCH   9  10
ATOM     10  C   UNL     1       6.051 -35.434  22.287  1.00  0.00     0.053 C 
BRANCH  10  11
ATOM     11  C   UNL     1       5.723 -34.984  23.675  1.00  0.00     0.041 C 
ATOM     12  O   UNL     1       5.370 -33.794  23.888  1.00  0.00    -0.550 OA
ATOM     13  O   UNL     1       5.760 -35.890  24.727  1.00  0.00    -0.550 OA
ENDBRANCH  10  11
ENDBRANCH   9  10
ENDBRANCH   8   9
ENDBRANCH   1   8
TORSDOF 8
ENDMDL
MODEL 2
REMARK VINA RESULT:    -4.087      0.912      7.217
REMARK INTER + INTRA:          -6.236
REMARK INTER:                  -5.954
REMARK INTRA:                  -0.281
REMARK UNBOUND:                -0.237
REMARK SMILES O=C([O-])CCCCCCCC(=O)[O-]
REMARK SMILES IDX 7 1 6 2 5 3 4 4 2 5 1 6 3 7 8 8 9 9 10 10 11 11 12 12 13 13
REMARK H PARENT
REMARK Flexibility Score: inf
ROOT
ATOM      1  C   UNL     1       4.462 -35.777  20.272  1.00  0.00     0.000 C 
ENDROOT
BRANCH   1   2
ATOM      2  C   UNL     1       5.773 -34.987  20.410  1.00  0.00     0.000 C 
BRANCH   2   3
ATOM      3  C   UNL     1       6.125 -34.679  21.873  1.00  0.00     0.006 C 
BRANCH   3   4
ATOM      4  C   UNL     1       5.807 -35.874  22.776  1.00  0.00     0.053 C 
BRANCH   4   5
ATOM      5  C   UNL     1       5.810 -35.460  24.214  1.00  0.00     0.041 C 
ATOM      6  O   UNL     1       5.927 -34.244  24.522  1.00  0.00    -0.550 OA
ATOM      7  O   UNL     1       5.735 -36.420  25.214  1.00  0.00    -0.550 OA
ENDBRANCH   4   5
ENDBRANCH   3   4
ENDBRANCH   2   3
ENDBRANCH   1   2
BRANCH   1   8
ATOM      8  C   UNL     1       4.544 -36.877  19.198  1.00  0.00     0.000 C 
BRANCH   8   9
ATOM      9  C   UNL     1       3.417 -36.772  18.159  1.00  0.00     0.006 C 
BRANCH   9  10
ATOM     10  C   UNL     1       3.735 -35.765  17.046  1.00  0.00     0.053 C 
BRANCH  10  11
ATOM     11  C   UNL     1       3.153 -36.223  15.746  1.00  0.00     0.041 C 
ATOM     12  O   UNL     1       2.050 -35.764  15.350  1.00  0.00    -0.550 OA
ATOM     13  O   UNL     1       3.852 -37.119  14.949  1.00  0.00    -0.550 OA
ENDBRANCH  10  11
ENDBRANCH   9  10
ENDBRANCH   8   9
ENDBRANCH   1   8
TORSDOF 8
ENDMDL
MODEL 3
REMARK VINA RESULT:    -4.040      1.984      7.081
REMARK INTER + INTRA:          -6.166
REMARK INTER:                  -5.872
REMARK INTRA:                  -0.294
REMARK UNBOUND:                -0.237
REMARK SMILES O=C([O-])CCCCCCCC(=O)[O-]
REMARK SMILES IDX 7 1 6 2 5 3 4 4 2 5 1 6 3 7 8 8 9 9 10 10 11 11 12 12 13 13
REMARK H PARENT
REMARK Flexibility Score: inf
ROOT
ATOM      1  C   UNL     1       4.706 -34.614  21.847  1.00  0.00     0.000 C 
ENDROOT
BRANCH   1   2
ATOM      2  C   UNL     1       5.347 -34.245  23.194  1.00  0.00     0.000 C 
BRANCH   2   3
ATOM      3  C   UNL     1       6.104 -35.420  23.830  1.00  0.00     0.006 C 
BRANCH   3   4
ATOM      4  C   UNL     1       5.595 -35.695  25.248  1.00  0.00     0.053 C 
BRANCH   4   5
ATOM      5  C   UNL     1       5.541 -37.168  25.509  1.00  0.00     0.041 C 
ATOM      6  O   UNL     1       5.763 -37.615  26.666  1.00  0.00    -0.550 OA
ATOM      7  O   UNL     1       5.294 -38.050  24.466  1.00  0.00    -0.550 OA
ENDBRANCH   4   5
ENDBRANCH   3   4
ENDBRANCH   2   3
ENDBRANCH   1   2
BRANCH   1   8
ATOM      8  C   UNL     1       5.694 -35.304  20.890  1.00  0.00     0.000 C 
BRANCH   8   9
ATOM      9  C   UNL     1       5.056 -35.657  19.537  1.00  0.00     0.006 C 
BRANCH   9  10
ATOM     10  C   UNL     1       4.115 -36.865  19.626  1.00  0.00     0.053 C 
BRANCH  10  11
ATOM     11  C   UNL     1       3.144 -36.855  18.489  1.00  0.00     0.041 C 
ATOM     12  O   UNL     1       3.527 -36.542  17.331  1.00  0.00    -0.550 OA
ATOM     13  O   UNL     1       1.826 -37.238  18.698  1.00  0.00    -0.550 OA
ENDBRANCH  10  11
ENDBRANCH   9  10
ENDBRANCH   8   9
ENDBRANCH   1   8
TORSDOF 8
ENDMDL
MODEL 4
REMARK VINA RESULT:    -4.012      1.998      3.143
REMARK INTER + INTRA:          -6.125
REMARK INTER:                  -5.763
REMARK INTRA:                  -0.362
REMARK UNBOUND:                -0.237
REMARK SMILES O=C([O-])CCCCCCCC(=O)[O-]
REMARK SMILES IDX 7 1 6 2 5 3 4 4 2 5 1 6 3 7 8 8 9 9 10 10 11 11 12 12 13 13
REMARK H PARENT
REMARK Flexibility Score: inf
ROOT
ATOM      1  C   UNL     1       4.700 -34.552  21.668  1.00  0.00     0.000 C 
ENDROOT
BRANCH   1   2
ATOM      2  C   UNL     1       5.850 -35.067  20.789  1.00  0.00     0.000 C 
BRANCH   2   3
ATOM      3  C   UNL     1       5.354 -35.732  19.497  1.00  0.00     0.006 C 
BRANCH   3   4
ATOM      4  C   UNL     1       4.292 -36.794  19.800  1.00  0.00     0.053 C 
BRANCH   4   5
ATOM      5  C   UNL     1       3.257 -36.822  18.721  1.00  0.00     0.041 C 
ATOM      6  O   UNL     1       2.089 -37.220  18.975  1.00  0.00    -0.550 OA
ATOM      7  O   UNL     1       3.593 -36.456  17.425  1.00  0.00    -0.550 OA
ENDBRANCH   4   5
ENDBRANCH   3   4
ENDBRANCH   2   3
ENDBRANCH   1   2
BRANCH   1   8
ATOM      8  C   UNL     1       5.142 -34.260  23.113  1.00  0.00     0.000 C 
BRANCH   8   9
ATOM      9  C   UNL     1       6.046 -35.361  23.688  1.00  0.00     0.006 C 
BRANCH   9  10
ATOM     10  C   UNL     1       5.848 -35.558  25.196  1.00  0.00     0.053 C 
BRANCH  10  11
ATOM     11  C   UNL     1       5.722 -37.013  25.520  1.00  0.00     0.041 C 
ATOM     12  O   UNL     1       5.968 -37.426  26.684  1.00  0.00    -0.550 OA
ATOM     13  O   UNL     1       5.286 -37.905  24.550  1.00  0.00    -0.550 OA
ENDBRANCH  10  11
ENDBRANCH   9  10
ENDBRANCH   8   9
ENDBRANCH   1   8
TORSDOF 8
ENDMDL
MODEL 5
REMARK VINA RESULT:    -3.969      1.115      1.831
REMARK INTER + INTRA:          -6.062
REMARK INTER:                  -5.799
REMARK INTRA:                  -0.263
REMARK UNBOUND:                -0.237
REMARK SMILES O=C([O-])CCCCCCCC(=O)[O-]
REMARK SMILES IDX 7 1 6 2 5 3 4 4 2 5 1 6 3 7 8 8 9 9 10 10 11 11 12 12 13 13
REMARK H PARENT
REMARK Flexibility Score: inf
ROOT
ATOM      1  C   UNL     1       3.282 -36.826  19.615  1.00  0.00     0.000 C 
ENDROOT
BRANCH   1   2
ATOM      2  C   UNL     1       2.593 -36.872  18.242  1.00  0.00     0.000 C 
BRANCH   2   3
ATOM      3  C   UNL     1       3.536 -36.481  17.094  1.00  0.00     0.006 C 
BRANCH   3   4
ATOM      4  C   UNL     1       2.779 -36.411  15.764  1.00  0.00     0.053 C 
BRANCH   4   5
ATOM      5  C   UNL     1       3.728 -36.538  14.614  1.00  0.00     0.041 C 
ATOM      6  O   UNL     1       3.964 -35.546  13.875  1.00  0.00    -0.550 OA
ATOM      7  O   UNL     1       4.314 -37.764  14.329  1.00  0.00    -0.550 OA
ENDBRANCH   4   5
ENDBRANCH   3   4
ENDBRANCH   2   3
ENDBRANCH   1   2
BRANCH   1   8
ATOM      8  C   UNL     1       4.783 -36.499  19.514  1.00  0.00     0.000 C 
BRANCH   8   9
ATOM      9  C   UNL     1       5.456 -36.385  20.890  1.00  0.00     0.006 C 
BRANCH   9  10
ATOM     10  C   UNL     1       5.492 -34.942  21.411  1.00  0.00     0.053 C 
BRANCH  10  11
ATOM     11  C   UNL     1       5.604 -34.929  22.902  1.00  0.00     0.041 C 
ATOM     12  O   UNL     1       6.068 -35.928  23.512  1.00  0.00    -0.550 OA
ATOM     13  O   UNL     1       5.244 -33.793  23.616  1.00  0.00    -0.550 OA
ENDBRANCH  10  11
ENDBRANCH   9  10
ENDBRANCH   8   9
ENDBRANCH   1   8
TORSDOF 8
ENDMDL
MODEL 6
REMARK VINA RESULT:    -3.960      1.061      7.102
REMARK INTER + INTRA:          -6.049
REMARK INTER:                  -5.778
REMARK INTRA:                  -0.271
REMARK UNBOUND:                -0.237
REMARK SMILES O=C([O-])CCCCCCCC(=O)[O-]
REMARK SMILES IDX 7 1 6 2 5 3 4 4 2 5 1 6 3 7 8 8 9 9 10 10 11 11 12 12 13 13
REMARK H PARENT
REMARK Flexibility Score: inf
ROOT
ATOM      1  C   UNL     1       3.444 -36.850  19.711  1.00  0.00     0.000 C 
ENDROOT
BRANCH   1   2
ATOM      2  C   UNL     1       4.862 -36.274  19.584  1.00  0.00     0.000 C 
BRANCH   2   3
ATOM      3  C   UNL     1       5.645 -36.335  20.904  1.00  0.00     0.006 C 
BRANCH   3   4
ATOM      4  C   UNL     1       5.782 -34.942  21.525  1.00  0.00     0.053 C 
BRANCH   4   5
ATOM      5  C   UNL     1       5.692 -35.022  23.017  1.00  0.00     0.041 C 
ATOM      6  O   UNL     1       5.847 -36.127  23.602  1.00  0.00    -0.550 OA
ATOM      7  O   UNL     1       5.389 -33.888  23.757  1.00  0.00    -0.550 OA
ENDBRANCH   4   5
ENDBRANCH   3   4
ENDBRANCH   2   3
ENDBRANCH   1   2
BRANCH   1   8
ATOM      8  C   UNL     1       2.701 -36.899  18.364  1.00  0.00     0.000 C 
BRANCH   8   9
ATOM      9  C   UNL     1       3.497 -36.241  17.227  1.00  0.00     0.006 C 
BRANCH   9  10
ATOM     10  C   UNL     1       2.677 -36.102  15.938  1.00  0.00     0.053 C 
BRANCH  10  11
ATOM     11  C   UNL     1       3.529 -36.395  14.743  1.00  0.00     0.041 C 
ATOM     12  O   UNL     1       3.730 -35.505  13.875  1.00  0.00    -0.550 OA
ATOM     13  O   UNL     1       4.142 -37.634  14.614  1.00  0.00    -0.550 OA
ENDBRANCH  10  11
ENDBRANCH   9  10
ENDBRANCH   8   9
ENDBRANCH   1   8
TORSDOF 8
ENDMDL
MODEL 7
REMARK VINA RESULT:    -2.658      3.691      5.948
REMARK INTER + INTRA:          -4.138
REMARK INTER:                  -3.873
REMARK INTRA:                  -0.266
REMARK UNBOUND:                -0.237
REMARK SMILES O=C([O-])CCCCCCCC(=O)[O-]
REMARK SMILES IDX 7 1 6 2 5 3 4 4 2 5 1 6 3 7 8 8 9 9 10 10 11 11 12 12 13 13
REMARK H PARENT
REMARK Flexibility Score: inf
ROOT
ATOM      1  C   UNL     1       5.162 -35.688  25.626  1.00  0.00     0.000 C 
ENDROOT
BRANCH   1   2
ATOM      2  C   UNL     1       5.252 -37.217  25.511  1.00  0.00     0.000 C 
BRANCH   2   3
ATOM      3  C   UNL     1       5.687 -37.680  24.112  1.00  0.00     0.006 C 
BRANCH   3   4
ATOM      4  C   UNL     1       5.368 -39.164  23.903  1.00  0.00     0.053 C 
BRANCH   4   5
ATOM      5  C   UNL     1       5.722 -39.585  22.512  1.00  0.00     0.041 C 
ATOM      6  O   UNL     1       5.617 -38.768  21.558  1.00  0.00    -0.550 OA
ATOM      7  O   UNL     1       6.119 -40.890  22.260  1.00  0.00    -0.550 OA
ENDBRANCH   4   5
ENDBRANCH   3   4
ENDBRANCH   2   3
ENDBRANCH   1   2
BRANCH   1   8
ATOM      8  C   UNL     1       6.108 -34.963  24.651  1.00  0.00     0.000 C 
BRANCH   8   9
ATOM      9  C   UNL     1       5.378 -34.429  23.408  1.00  0.00     0.006 C 
BRANCH   9  10
ATOM     10  C   UNL     1       6.125 -34.746  22.106  1.00  0.00     0.053 C 
BRANCH  10  11
ATOM     11  C   UNL     1       5.156 -35.094  21.021  1.00  0.00     0.041 C 
ATOM     12  O   UNL     1       3.975 -34.661  21.064  1.00  0.00    -0.550 OA
ATOM     13  O   UNL     1       5.571 -35.857  19.937  1.00  0.00    -0.550 OA
ENDBRANCH  10  11
ENDBRANCH   9  10
ENDBRANCH   8   9
ENDBRANCH   1   8
TORSDOF 8
ENDMDL
MODEL 8
REMARK VINA RESULT:    -2.285      3.525      5.318
REMARK INTER + INTRA:          -3.591
REMARK INTER:                  -3.422
REMARK INTRA:                  -0.168
REMARK UNBOUND:                -0.237
REMARK SMILES O=C([O-])CCCCCCCC(=O)[O-]
REMARK SMILES IDX 7 1 6 2 5 3 4 4 2 5 1 6 3 7 8 8 9 9 10 10 11 11 12 12 13 13
REMARK H PARENT
REMARK Flexibility Score: inf
ROOT
ATOM      1  C   UNL     1       5.018 -35.828  24.817  1.00  0.00     0.000 C 
ENDROOT
BRANCH   1   2
ATOM      2  C   UNL     1       5.972 -34.863  24.096  1.00  0.00     0.000 C 
BRANCH   2   3
ATOM      3  C   UNL     1       6.118 -35.183  22.600  1.00  0.00     0.006 C 
BRANCH   3   4
ATOM      4  C   UNL     1       4.935 -34.624  21.804  1.00  0.00     0.053 C 
BRANCH   4   5
ATOM      5  C   UNL     1       5.018 -35.052  20.373  1.00  0.00     0.041 C 
ATOM      6  O   UNL     1       5.678 -34.369  19.545  1.00  0.00    -0.550 OA
ATOM      7  O   UNL     1       4.328 -36.177  19.942  1.00  0.00    -0.550 OA
ENDBRANCH   4   5
ENDBRANCH   3   4
ENDBRANCH   2   3
ENDBRANCH   1   2
BRANCH   1   8
ATOM      8  C   UNL     1       5.686 -37.169  25.169  1.00  0.00     0.000 C 
BRANCH   8   9
ATOM      9  C   UNL     1       5.111 -38.344  24.362  1.00  0.00     0.006 C 
BRANCH   9  10
ATOM     10  C   UNL     1       5.441 -38.250  22.867  1.00  0.00     0.053 C 
BRANCH  10  11
ATOM     11  C   UNL     1       5.709 -39.611  22.306  1.00  0.00     0.041 C 
ATOM     12  O   UNL     1       5.515 -40.636  23.011  1.00  0.00    -0.550 OA
ATOM     13  O   UNL     1       6.125 -39.749  20.989  1.00  0.00    -0.550 OA
ENDBRANCH  10  11
ENDBRANCH   9  10
ENDBRANCH   8   9
ENDBRANCH   1   8
TORSDOF 8
ENDMDL
