MODEL 1
REMARK VINA RESULT:    -6.153      0.000      0.000
REMARK INTER + INTRA:          -7.097
REMARK INTER:                  -7.052
REMARK INTRA:                  -0.045
REMARK UNBOUND:                -0.045
REMARK SMILES O=C([O-])c1cc(O)c(O)c(O)c1
REMARK SMILES IDX 4 1 5 2 12 3 6 4 10 5 8 6 2 7 1 8 3 9 7 10 11 12 9 14
REMARK H PARENT 7 11 11 13 9 15
REMARK Flexibility Score: inf
ROOT
ATOM      1  C   UNL     1      -2.088   5.259 -10.493  1.00  0.00     0.005 A 
ATOM      2  C   UNL     1      -2.698   4.902  -9.278  1.00  0.00     0.060 A 
ATOM      3  C   UNL     1      -0.927   6.050 -10.465  1.00  0.00     0.060 A 
ATOM      4  C   UNL     1      -2.161   5.326  -8.058  1.00  0.00     0.162 A 
ATOM      5  C   UNL     1      -0.383   6.479  -9.247  1.00  0.00     0.162 A 
ATOM      6  C   UNL     1      -1.000   6.117  -8.038  1.00  0.00     0.200 A 
ENDROOT
BRANCH   1   7
ATOM      7  C   UNL     1      -2.663   4.807 -11.778  1.00  0.00     0.072 C 
ATOM      8  O   UNL     1      -2.105   3.896 -12.446  1.00  0.00    -0.545 OA
ATOM      9  O   UNL     1      -3.831   5.380 -12.269  1.00  0.00    -0.545 OA
ENDBRANCH   1   7
BRANCH   4  10
ATOM     10  O   UNL     1      -2.797   4.950  -6.875  1.00  0.00    -0.504 OA
ATOM     11  H   UNL     1      -3.672   5.364  -6.577  1.00  0.00     0.293 HD
ENDBRANCH   4  10
BRANCH   5  12
ATOM     12  O   UNL     1       0.770   7.264  -9.234  1.00  0.00    -0.504 OA
ATOM     13  H   UNL     1       0.803   8.150  -8.744  1.00  0.00     0.293 HD
ENDBRANCH   5  12
BRANCH   6  14
ATOM     14  O   UNL     1      -0.472   6.535  -6.815  1.00  0.00    -0.502 OA
ATOM     15  H   UNL     1       0.014   7.417  -6.711  1.00  0.00     0.293 HD
ENDBRANCH   6  14
TORSDOF 4
ENDMDL
MODEL 2
REMARK VINA RESULT:    -6.125     17.537     18.419
REMARK INTER + INTRA:          -7.065
REMARK INTER:                  -7.015
REMARK INTRA:                  -0.050
REMARK UNBOUND:                -0.045
REMARK SMILES O=C([O-])c1cc(O)c(O)c(O)c1
REMARK SMILES IDX 4 1 5 2 12 3 6 4 10 5 8 6 2 7 1 8 3 9 7 10 11 12 9 14
REMARK H PARENT 7 11 11 13 9 15
REMARK Flexibility Score: inf
ROOT
ATOM      1  C   UNL     1      13.712  -4.394 -13.413  1.00  0.00     0.005 A 
ATOM      2  C   UNL     1      13.162  -3.689 -12.329  1.00  0.00     0.060 A 
ATOM      3  C   UNL     1      13.018  -5.501 -13.929  1.00  0.00     0.060 A 
ATOM      4  C   UNL     1      11.941  -4.081 -11.769  1.00  0.00     0.162 A 
ATOM      5  C   UNL     1      11.795  -5.900 -13.374  1.00  0.00     0.162 A 
ATOM      6  C   UNL     1      11.252  -5.189 -12.290  1.00  0.00     0.200 A 
ENDROOT
BRANCH   1   7
ATOM      7  C   UNL     1      15.004  -3.972 -13.998  1.00  0.00     0.072 C 
ATOM      8  O   UNL     1      15.806  -4.824 -14.464  1.00  0.00    -0.545 OA
ATOM      9  O   UNL     1      15.352  -2.627 -14.043  1.00  0.00    -0.545 OA
ENDBRANCH   1   7
BRANCH   4  10
ATOM     10  O   UNL     1      11.429  -3.356 -10.694  1.00  0.00    -0.504 OA
ATOM     11  H   UNL     1      10.475  -3.468 -10.372  1.00  0.00     0.293 HD
ENDBRANCH   4  10
BRANCH   5  12
ATOM     12  O   UNL     1      11.116  -7.001 -13.896  1.00  0.00    -0.504 OA
ATOM     13  H   UNL     1      11.411  -7.949 -13.697  1.00  0.00     0.293 HD
ENDBRANCH   5  12
BRANCH   6  14
ATOM     14  O   UNL     1      10.035  -5.572 -11.725  1.00  0.00    -0.502 OA
ATOM     15  H   UNL     1       9.979  -6.238 -10.964  1.00  0.00     0.293 HD
ENDBRANCH   6  14
TORSDOF 4
ENDMDL
MODEL 3
REMARK VINA RESULT:    -6.122     17.545     18.415
REMARK INTER + INTRA:          -7.062
REMARK INTER:                  -7.011
REMARK INTRA:                  -0.050
REMARK UNBOUND:                -0.045
REMARK SMILES O=C([O-])c1cc(O)c(O)c(O)c1
REMARK SMILES IDX 4 1 5 2 12 3 6 4 10 5 8 6 2 7 1 8 3 9 7 10 11 12 9 14
REMARK H PARENT 7 11 11 13 9 15
REMARK Flexibility Score: inf
ROOT
ATOM      1  C   UNL     1      13.718  -4.365 -13.429  1.00  0.00     0.005 A 
ATOM      2  C   UNL     1      13.042  -5.487 -13.938  1.00  0.00     0.060 A 
ATOM      3  C   UNL     1      13.159  -3.666 -12.346  1.00  0.00     0.060 A 
ATOM      4  C   UNL     1      11.830  -5.905 -13.378  1.00  0.00     0.162 A 
ATOM      5  C   UNL     1      11.945  -4.078 -11.779  1.00  0.00     0.162 A 
ATOM      6  C   UNL     1      11.277  -5.202 -12.295  1.00  0.00     0.200 A 
ENDROOT
BRANCH   1   7
ATOM      7  C   UNL     1      14.999  -3.931 -14.028  1.00  0.00     0.072 C 
ATOM      8  O   UNL     1      15.806  -4.775 -14.500  1.00  0.00    -0.545 OA
ATOM      9  O   UNL     1      15.332  -2.581 -14.079  1.00  0.00    -0.545 OA
ENDBRANCH   1   7
BRANCH   4  10
ATOM     10  O   UNL     1      11.191  -7.023 -13.912  1.00  0.00    -0.504 OA
ATOM     11  H   UNL     1      11.654  -7.653 -14.557  1.00  0.00     0.293 HD
ENDBRANCH   4  10
BRANCH   5  12
ATOM     12  O   UNL     1      11.401  -3.375 -10.705  1.00  0.00    -0.504 OA
ATOM     13  H   UNL     1      11.957  -2.730 -10.156  1.00  0.00     0.293 HD
ENDBRANCH   5  12
BRANCH   6  14
ATOM     14  O   UNL     1      10.067  -5.626 -11.743  1.00  0.00    -0.502 OA
ATOM     15  H   UNL     1       9.934  -5.722 -10.744  1.00  0.00     0.293 HD
ENDBRANCH   6  14
TORSDOF 4
ENDMDL
MODEL 4
REMARK VINA RESULT:    -6.120      0.195      2.433
REMARK INTER + INTRA:          -7.059
REMARK INTER:                  -7.014
REMARK INTRA:                  -0.045
REMARK UNBOUND:                -0.045
REMARK SMILES O=C([O-])c1cc(O)c(O)c(O)c1
REMARK SMILES IDX 4 1 5 2 12 3 6 4 10 5 8 6 2 7 1 8 3 9 7 10 11 12 9 14
REMARK H PARENT 7 11 11 13 9 15
REMARK Flexibility Score: inf
ROOT
ATOM      1  C   UNL     1      -2.131   5.352 -10.503  1.00  0.00     0.005 A 
ATOM      2  C   UNL     1      -1.051   6.250 -10.467  1.00  0.00     0.060 A 
ATOM      3  C   UNL     1      -2.704   4.926  -9.293  1.00  0.00     0.060 A 
ATOM      4  C   UNL     1      -0.548   6.713  -9.246  1.00  0.00     0.162 A 
ATOM      5  C   UNL     1      -2.206   5.386  -8.066  1.00  0.00     0.162 A 
ATOM      6  C   UNL     1      -1.125   6.283  -8.040  1.00  0.00     0.200 A 
ENDROOT
BRANCH   1   7
ATOM      7  C   UNL     1      -2.656   4.867 -11.799  1.00  0.00     0.072 C 
ATOM      8  O   UNL     1      -2.077   3.934 -12.416  1.00  0.00    -0.545 OA
ATOM      9  O   UNL     1      -3.796   5.435 -12.355  1.00  0.00    -0.545 OA
ENDBRANCH   1   7
BRANCH   4  10
ATOM     10  O   UNL     1       0.526   7.602  -9.253  1.00  0.00    -0.504 OA
ATOM     11  H   UNL     1       1.005   7.863 -10.107  1.00  0.00     0.293 HD
ENDBRANCH   4  10
BRANCH   5  12
ATOM     12  O   UNL     1      -2.784   4.954  -6.871  1.00  0.00    -0.504 OA
ATOM     13  H   UNL     1      -3.751   5.155  -6.647  1.00  0.00     0.293 HD
ENDBRANCH   5  12
BRANCH   6  14
ATOM     14  O   UNL     1      -0.617   6.751  -6.827  1.00  0.00    -0.502 OA
ATOM     15  H   UNL     1      -0.063   6.166  -6.212  1.00  0.00     0.293 HD
ENDBRANCH   6  14
TORSDOF 4
ENDMDL
MODEL 5
REMARK VINA RESULT:    -6.005     17.739     18.625
REMARK INTER + INTRA:          -6.927
REMARK INTER:                  -6.881
REMARK INTRA:                  -0.046
REMARK UNBOUND:                -0.045
REMARK SMILES O=C([O-])c1cc(O)c(O)c(O)c1
REMARK SMILES IDX 4 1 5 2 12 3 6 4 10 5 8 6 2 7 1 8 3 9 7 10 11 12 9 14
REMARK H PARENT 7 11 11 13 9 15
REMARK Flexibility Score: inf
ROOT
ATOM      1  C   UNL     1      12.143  -4.732 -12.561  1.00  0.00     0.005 A 
ATOM      2  C   UNL     1      12.337  -5.790 -13.465  1.00  0.00     0.060 A 
ATOM      3  C   UNL     1      13.065  -3.672 -12.547  1.00  0.00     0.060 A 
ATOM      4  C   UNL     1      13.430  -5.793 -14.338  1.00  0.00     0.162 A 
ATOM      5  C   UNL     1      14.163  -3.667 -13.418  1.00  0.00     0.162 A 
ATOM      6  C   UNL     1      14.348  -4.730 -14.318  1.00  0.00     0.200 A 
ENDROOT
BRANCH   1   7
ATOM      7  C   UNL     1      10.985  -4.738 -11.641  1.00  0.00     0.072 C 
ATOM      8  O   UNL     1       9.808  -4.761 -12.091  1.00  0.00    -0.545 OA
ATOM      9  O   UNL     1      11.177  -4.719 -10.265  1.00  0.00    -0.545 OA
ENDBRANCH   1   7
BRANCH   4  10
ATOM     10  O   UNL     1      13.586  -6.863 -15.219  1.00  0.00    -0.504 OA
ATOM     11  H   UNL     1      13.324  -6.800 -16.196  1.00  0.00     0.293 HD
ENDBRANCH   4  10
BRANCH   5  12
ATOM     12  O   UNL     1      15.071  -2.608 -13.393  1.00  0.00    -0.504 OA
ATOM     13  H   UNL     1      15.981  -2.679 -13.832  1.00  0.00     0.293 HD
ENDBRANCH   5  12
BRANCH   6  14
ATOM     14  O   UNL     1      15.435  -4.741 -15.193  1.00  0.00    -0.502 OA
ATOM     15  H   UNL     1      15.724  -3.917 -15.705  1.00  0.00     0.293 HD
ENDBRANCH   6  14
TORSDOF 4
ENDMDL
MODEL 6
REMARK VINA RESULT:    -5.991     17.740     18.699
REMARK INTER + INTRA:          -6.912
REMARK INTER:                  -6.866
REMARK INTRA:                  -0.046
REMARK UNBOUND:                -0.045
REMARK SMILES O=C([O-])c1cc(O)c(O)c(O)c1
REMARK SMILES IDX 4 1 5 2 12 3 6 4 10 5 8 6 2 7 1 8 3 9 7 10 11 12 9 14
REMARK H PARENT 7 11 11 13 9 15
REMARK Flexibility Score: inf
ROOT
ATOM      1  C   UNL     1      12.137  -4.763 -12.553  1.00  0.00     0.005 A 
ATOM      2  C   UNL     1      13.059  -3.703 -12.542  1.00  0.00     0.060 A 
ATOM      3  C   UNL     1      12.319  -5.815 -13.467  1.00  0.00     0.060 A 
ATOM      4  C   UNL     1      14.143  -3.690 -13.426  1.00  0.00     0.162 A 
ATOM      5  C   UNL     1      13.403  -5.809 -14.356  1.00  0.00     0.162 A 
ATOM      6  C   UNL     1      14.319  -4.744 -14.337  1.00  0.00     0.200 A 
ENDROOT
BRANCH   1   7
ATOM      7  C   UNL     1      10.993  -4.768 -11.615  1.00  0.00     0.072 C 
ATOM      8  O   UNL     1       9.809  -4.789 -12.046  1.00  0.00    -0.545 OA
ATOM      9  O   UNL     1      11.207  -4.749 -10.242  1.00  0.00    -0.545 OA
ENDBRANCH   1   7
BRANCH   4  10
ATOM     10  O   UNL     1      15.035  -2.619 -13.382  1.00  0.00    -0.504 OA
ATOM     11  H   UNL     1      15.959  -2.670 -13.794  1.00  0.00     0.293 HD
ENDBRANCH   4  10
BRANCH   5  12
ATOM     12  O   UNL     1      13.572  -6.859 -15.259  1.00  0.00    -0.504 OA
ATOM     13  H   UNL     1      12.784  -7.394 -15.604  1.00  0.00     0.293 HD
ENDBRANCH   5  12
BRANCH   6  14
ATOM     14  O   UNL     1      15.404  -4.723 -15.215  1.00  0.00    -0.502 OA
ATOM     15  H   UNL     1      16.337  -4.995 -14.927  1.00  0.00     0.293 HD
ENDBRANCH   6  14
TORSDOF 4
ENDMDL
MODEL 7
REMARK VINA RESULT:    -5.863     17.551     18.557
REMARK INTER + INTRA:          -6.765
REMARK INTER:                  -6.712
REMARK INTRA:                  -0.053
REMARK UNBOUND:                -0.045
REMARK SMILES O=C([O-])c1cc(O)c(O)c(O)c1
REMARK SMILES IDX 4 1 5 2 12 3 6 4 10 5 8 6 2 7 1 8 3 9 7 10 11 12 9 14
REMARK H PARENT 7 11 11 13 9 15
REMARK Flexibility Score: inf
ROOT
ATOM      1  C   UNL     1      11.489  -5.586 -11.485  1.00  0.00     0.005 A 
ATOM      2  C   UNL     1      12.152  -5.857 -12.694  1.00  0.00     0.060 A 
ATOM      3  C   UNL     1      10.735  -6.605 -10.879  1.00  0.00     0.060 A 
ATOM      4  C   UNL     1      12.065  -7.120 -13.289  1.00  0.00     0.162 A 
ATOM      5  C   UNL     1      10.643  -7.873 -11.468  1.00  0.00     0.162 A 
ATOM      6  C   UNL     1      11.309  -8.134 -12.677  1.00  0.00     0.200 A 
ENDROOT
BRANCH   1   7
ATOM      7  C   UNL     1      11.586  -4.247 -10.864  1.00  0.00     0.072 C 
ATOM      8  O   UNL     1      11.052  -4.018  -9.746  1.00  0.00    -0.545 OA
ATOM      9  O   UNL     1      12.270  -3.220 -11.505  1.00  0.00    -0.545 OA
ENDBRANCH   1   7
BRANCH   4  10
ATOM     10  O   UNL     1      12.738  -7.347 -14.489  1.00  0.00    -0.504 OA
ATOM     11  H   UNL     1      13.249  -6.616 -14.968  1.00  0.00     0.293 HD
ENDBRANCH   4  10
BRANCH   5  12
ATOM     12  O   UNL     1       9.891  -8.876 -10.856  1.00  0.00    -0.504 OA
ATOM     13  H   UNL     1       8.946  -8.707 -10.532  1.00  0.00     0.293 HD
ENDBRANCH   5  12
BRANCH   6  14
ATOM     14  O   UNL     1      11.229  -9.391 -13.278  1.00  0.00    -0.502 OA
ATOM     15  H   UNL     1      11.108 -10.240 -12.739  1.00  0.00     0.293 HD
ENDBRANCH   6  14
TORSDOF 4
ENDMDL
MODEL 8
REMARK VINA RESULT:    -5.730      1.830      4.279
REMARK INTER + INTRA:          -6.613
REMARK INTER:                  -6.568
REMARK INTRA:                  -0.045
REMARK UNBOUND:                -0.045
REMARK SMILES O=C([O-])c1cc(O)c(O)c(O)c1
REMARK SMILES IDX 4 1 5 2 12 3 6 4 10 5 8 6 2 7 1 8 3 9 7 10 11 12 9 14
REMARK H PARENT 7 11 11 13 9 15
REMARK Flexibility Score: inf
ROOT
ATOM      1  C   UNL     1      -1.461   6.753  -9.844  1.00  0.00     0.005 A 
ATOM      2  C   UNL     1      -2.518   6.617 -10.759  1.00  0.00     0.060 A 
ATOM      3  C   UNL     1      -0.517   5.718  -9.734  1.00  0.00     0.060 A 
ATOM      4  C   UNL     1      -2.635   5.470 -11.550  1.00  0.00     0.162 A 
ATOM      5  C   UNL     1      -0.627   4.565 -10.524  1.00  0.00     0.162 A 
ATOM      6  C   UNL     1      -1.688   4.438 -11.436  1.00  0.00     0.200 A 
ENDROOT
BRANCH   1   7
ATOM      7  C   UNL     1      -1.346   7.971  -9.011  1.00  0.00     0.072 C 
ATOM      8  O   UNL     1      -1.887   8.023  -7.874  1.00  0.00    -0.545 OA
ATOM      9  O   UNL     1      -0.639   9.076  -9.471  1.00  0.00    -0.545 OA
ENDBRANCH   1   7
BRANCH   4  10
ATOM     10  O   UNL     1      -3.699   5.374 -12.446  1.00  0.00    -0.504 OA
ATOM     11  H   UNL     1      -4.630   5.697 -12.214  1.00  0.00     0.293 HD
ENDBRANCH   4  10
BRANCH   5  12
ATOM     12  O   UNL     1       0.317   3.544 -10.405  1.00  0.00    -0.504 OA
ATOM     13  H   UNL     1       0.328   2.922  -9.605  1.00  0.00     0.293 HD
ENDBRANCH   5  12
BRANCH   6  14
ATOM     14  O   UNL     1      -1.812   3.297 -12.230  1.00  0.00    -0.502 OA
ATOM     15  H   UNL     1      -1.409   3.238 -13.157  1.00  0.00     0.293 HD
ENDBRANCH   6  14
TORSDOF 4
ENDMDL
MODEL 9
REMARK VINA RESULT:    -5.678      1.810      4.416
REMARK INTER + INTRA:          -6.553
REMARK INTER:                  -6.509
REMARK INTRA:                  -0.045
REMARK UNBOUND:                -0.045
REMARK SMILES O=C([O-])c1cc(O)c(O)c(O)c1
REMARK SMILES IDX 4 1 5 2 12 3 6 4 10 5 8 6 2 7 1 8 3 9 7 10 11 12 9 14
REMARK H PARENT 7 11 11 13 9 15
REMARK Flexibility Score: inf
ROOT
ATOM      1  C   UNL     1      -1.455   6.732  -9.858  1.00  0.00     0.005 A 
ATOM      2  C   UNL     1      -0.522   5.687  -9.751  1.00  0.00     0.060 A 
ATOM      3  C   UNL     1      -2.514   6.609 -10.774  1.00  0.00     0.060 A 
ATOM      4  C   UNL     1      -0.641   4.539 -10.542  1.00  0.00     0.162 A 
ATOM      5  C   UNL     1      -2.641   5.462 -11.570  1.00  0.00     0.162 A 
ATOM      6  C   UNL     1      -1.702   4.422 -11.455  1.00  0.00     0.200 A 
ENDROOT
BRANCH   1   7
ATOM      7  C   UNL     1      -1.321   7.942  -9.018  1.00  0.00     0.072 C 
ATOM      8  O   UNL     1      -0.676   8.942  -9.432  1.00  0.00    -0.545 OA
ATOM      9  O   UNL     1      -1.904   7.993  -7.757  1.00  0.00    -0.545 OA
ENDBRANCH   1   7
BRANCH   4  10
ATOM     10  O   UNL     1       0.305   3.525 -10.405  1.00  0.00    -0.504 OA
ATOM     11  H   UNL     1       1.102   3.442 -11.026  1.00  0.00     0.293 HD
ENDBRANCH   4  10
BRANCH   5  12
ATOM     12  O   UNL     1      -3.696   5.353 -12.475  1.00  0.00    -0.504 OA
ATOM     13  H   UNL     1      -4.492   4.753 -12.293  1.00  0.00     0.293 HD
ENDBRANCH   5  12
BRANCH   6  14
ATOM     14  O   UNL     1      -1.813   3.274 -12.241  1.00  0.00    -0.502 OA
ATOM     15  H   UNL     1      -2.007   2.364 -11.841  1.00  0.00     0.293 HD
ENDBRANCH   6  14
TORSDOF 4
ENDMDL
