MODEL 1
REMARK VINA RESULT:    -4.877      0.000      0.000
REMARK INTER + INTRA:         -11.267
REMARK INTER:                  -9.153
REMARK INTRA:                  -2.113
REMARK UNBOUND:                -2.113
REMARK SMILES CCCCCC=CCC=CCCCCCCCC(=O)OC
REMARK SMILES IDX 11 1 10 2 9 3 8 4 7 5 6 6 5 7 4 8 3 9 2 10 1 11 12 12 13 13
REMARK SMILES IDX 14 14 15 15 16 16 17 17 18 18 19 19 20 20 21 21
REMARK H PARENT
REMARK Flexibility Score: inf
ROOT
ATOM      1  C   UNL     1       9.817 -23.103  30.088  1.00  0.00     0.027 C 
ENDROOT
BRANCH   1   2
ATOM      2  C   UNL     1       8.487 -22.475  30.407  1.00  0.00    -0.031 C 
ATOM      3  C   UNL     1       8.312 -21.705  31.492  1.00  0.00    -0.027 C 
BRANCH   3   4
ATOM      4  C   UNL     1       6.981 -21.086  31.816  1.00  0.00     0.054 C 
BRANCH   4   5
ATOM      5  C   UNL     1       7.083 -20.266  33.070  1.00  0.00    -0.027 C 
ATOM      6  C   UNL     1       8.174 -20.313  33.849  1.00  0.00    -0.031 C 
BRANCH   6   7
ATOM      7  C   UNL     1       8.287 -19.485  35.099  1.00  0.00     0.027 C 
BRANCH   7   8
ATOM      8  C   UNL     1       9.730 -19.457  35.617  1.00  0.00     0.004 C 
BRANCH   8   9
ATOM      9  C   UNL     1      10.732 -19.579  34.460  1.00  0.00     0.000 C 
BRANCH   9  10
ATOM     10  C   UNL     1      11.645 -18.350  34.339  1.00  0.00    -0.003 C 
ATOM     11  C   UNL     1      11.168 -17.173  35.190  1.00  0.00     0.004 C 
ENDBRANCH   9  10
ENDBRANCH   8   9
ENDBRANCH   7   8
ENDBRANCH   6   7
ENDBRANCH   4   5
ENDBRANCH   3   4
ENDBRANCH   1   2
BRANCH   1  12
ATOM     12  C   UNL     1      10.973 -22.393  30.810  1.00  0.00     0.004 C 
BRANCH  12  13
ATOM     13  C   UNL     1      11.651 -23.237  31.907  1.00  0.00     0.000 C 
BRANCH  13  14
ATOM     14  C   UNL     1      11.032 -23.102  33.314  1.00  0.00     0.000 C 
BRANCH  14  15
ATOM     15  C   UNL     1      10.197 -24.310  33.782  1.00  0.00     0.001 C 
BRANCH  15  16
ATOM     16  C   UNL     1      10.352 -25.575  32.921  1.00  0.00     0.012 C 
BRANCH  16  17
ATOM     17  C   UNL     1       9.053 -25.966  32.204  1.00  0.00     0.123 C 
BRANCH  17  18
ATOM     18  C   UNL     1       9.223 -27.268  31.489  1.00  0.00     0.305 C 
ATOM     19  O   UNL     1       9.551 -27.275  30.272  1.00  0.00    -0.252 OA
BRANCH  18  20
ATOM     20  O   UNL     1       9.051 -28.467  32.188  1.00  0.00    -0.469 OA
ATOM     21  C   UNL     1       8.722 -29.690  31.541  1.00  0.00     0.282 C 
ENDBRANCH  18  20
ENDBRANCH  17  18
ENDBRANCH  16  17
ENDBRANCH  15  16
ENDBRANCH  14  15
ENDBRANCH  13  14
ENDBRANCH  12  13
ENDBRANCH   1  12
TORSDOF 15
ENDMDL
MODEL 2
REMARK VINA RESULT:    -4.645      4.447      8.335
REMARK INTER + INTRA:         -10.832
REMARK INTER:                  -9.003
REMARK INTRA:                  -1.829
REMARK UNBOUND:                -2.113
REMARK SMILES CCCCCC=CCC=CCCCCCCCC(=O)OC
REMARK SMILES IDX 11 1 10 2 9 3 8 4 7 5 6 6 5 7 4 8 3 9 2 10 1 11 12 12 13 13
REMARK SMILES IDX 14 14 15 15 16 16 17 17 18 18 19 19 20 20 21 21
REMARK H PARENT
REMARK Flexibility Score: inf
ROOT
ATOM      1  C   UNL     1      11.006 -28.816  29.191  1.00  0.00     0.027 C 
ENDROOT
BRANCH   1   2
ATOM      2  C   UNL     1       9.939 -27.955  28.572  1.00  0.00    -0.031 C 
ATOM      3  C   UNL     1      10.156 -27.264  27.443  1.00  0.00    -0.027 C 
BRANCH   3   4
ATOM      4  C   UNL     1       9.093 -26.395  26.830  1.00  0.00     0.054 C 
BRANCH   4   5
ATOM      5  C   UNL     1       9.524 -25.932  25.468  1.00  0.00    -0.027 C 
ATOM      6  C   UNL     1      10.801 -26.032  25.068  1.00  0.00    -0.031 C 
BRANCH   6   7
ATOM      7  C   UNL     1      11.236 -25.581  23.700  1.00  0.00     0.027 C 
BRANCH   7   8
ATOM      8  C   UNL     1      11.560 -24.082  23.689  1.00  0.00     0.004 C 
BRANCH   8   9
ATOM      9  C   UNL     1      10.659 -23.332  22.697  1.00  0.00     0.000 C 
BRANCH   9  10
ATOM     10  C   UNL     1       9.924 -22.150  23.346  1.00  0.00    -0.003 C 
ATOM     11  C   UNL     1       8.670 -22.579  24.106  1.00  0.00     0.004 C 
ENDBRANCH   9  10
ENDBRANCH   8   9
ENDBRANCH   7   8
ENDBRANCH   6   7
ENDBRANCH   4   5
ENDBRANCH   3   4
ENDBRANCH   1   2
BRANCH   1  12
ATOM     12  C   UNL     1      10.588 -29.337  30.576  1.00  0.00     0.004 C 
BRANCH  12  13
ATOM     13  C   UNL     1       9.154 -28.956  30.992  1.00  0.00     0.000 C 
BRANCH  13  14
ATOM     14  C   UNL     1       9.056 -27.998  32.198  1.00  0.00     0.000 C 
BRANCH  14  15
ATOM     15  C   UNL     1       8.500 -26.596  31.880  1.00  0.00     0.001 C 
BRANCH  15  16
ATOM     16  C   UNL     1       9.533 -25.604  31.318  1.00  0.00     0.012 C 
BRANCH  16  17
ATOM     17  C   UNL     1       8.975 -24.756  30.168  1.00  0.00     0.123 C 
BRANCH  17  18
ATOM     18  C   UNL     1       9.181 -23.301  30.445  1.00  0.00     0.305 C 
ATOM     19  O   UNL     1       8.203 -22.586  30.792  1.00  0.00    -0.252 OA
BRANCH  18  20
ATOM     20  O   UNL     1      10.464 -22.755  30.349  1.00  0.00    -0.469 OA
ATOM     21  C   UNL     1      11.236 -22.407  31.491  1.00  0.00     0.282 C 
ENDBRANCH  18  20
ENDBRANCH  17  18
ENDBRANCH  16  17
ENDBRANCH  15  16
ENDBRANCH  14  15
ENDBRANCH  13  14
ENDBRANCH  12  13
ENDBRANCH   1  12
TORSDOF 15
ENDMDL
MODEL 3
REMARK VINA RESULT:    -4.624      2.815      3.706
REMARK INTER + INTRA:         -10.792
REMARK INTER:                  -8.556
REMARK INTRA:                  -2.236
REMARK UNBOUND:                -2.113
REMARK SMILES CCCCCC=CCC=CCCCCCCCC(=O)OC
REMARK SMILES IDX 11 1 10 2 9 3 8 4 7 5 6 6 5 7 4 8 3 9 2 10 1 11 12 12 13 13
REMARK SMILES IDX 14 14 15 15 16 16 17 17 18 18 19 19 20 20 21 21
REMARK H PARENT
REMARK Flexibility Score: inf
ROOT
ATOM      1  C   UNL     1       9.739 -22.795  29.940  1.00  0.00     0.027 C 
ENDROOT
BRANCH   1   2
ATOM      2  C   UNL     1       8.567 -21.908  30.261  1.00  0.00    -0.031 C 
ATOM      3  C   UNL     1       8.138 -21.732  31.520  1.00  0.00    -0.027 C 
BRANCH   3   4
ATOM      4  C   UNL     1       6.960 -20.854  31.839  1.00  0.00     0.054 C 
BRANCH   4   5
ATOM      5  C   UNL     1       7.186 -20.140  33.141  1.00  0.00    -0.027 C 
ATOM      6  C   UNL     1       8.151 -20.522  33.990  1.00  0.00    -0.031 C 
BRANCH   6   7
ATOM      7  C   UNL     1       8.389 -19.802  35.289  1.00  0.00     0.027 C 
BRANCH   7   8
ATOM      8  C   UNL     1       9.408 -18.669  35.116  1.00  0.00     0.004 C 
BRANCH   8   9
ATOM      9  C   UNL     1      10.701 -19.186  34.472  1.00  0.00     0.000 C 
BRANCH   9  10
ATOM     10  C   UNL     1      11.894 -18.248  34.711  1.00  0.00    -0.003 C 
ATOM     11  C   UNL     1      11.466 -16.813  35.018  1.00  0.00     0.004 C 
ENDBRANCH   9  10
ENDBRANCH   8   9
ENDBRANCH   7   8
ENDBRANCH   6   7
ENDBRANCH   4   5
ENDBRANCH   3   4
ENDBRANCH   1   2
BRANCH   1  12
ATOM     12  C   UNL     1      10.637 -23.023  31.167  1.00  0.00     0.004 C 
BRANCH  12  13
ATOM     13  C   UNL     1      10.391 -24.359  31.895  1.00  0.00     0.000 C 
BRANCH  13  14
ATOM     14  C   UNL     1      10.584 -24.315  33.426  1.00  0.00     0.000 C 
BRANCH  14  15
ATOM     15  C   UNL     1      10.887 -22.922  34.011  1.00  0.00     0.001 C 
BRANCH  15  16
ATOM     16  C   UNL     1      10.623 -22.784  35.520  1.00  0.00     0.012 C 
BRANCH  16  17
ATOM     17  C   UNL     1      11.849 -22.276  36.291  1.00  0.00     0.123 C 
BRANCH  17  18
ATOM     18  C   UNL     1      13.031 -23.153  36.027  1.00  0.00     0.305 C 
ATOM     19  O   UNL     1      14.051 -22.674  35.462  1.00  0.00    -0.252 OA
BRANCH  18  20
ATOM     20  O   UNL     1      13.007 -24.488  36.441  1.00  0.00    -0.469 OA
ATOM     21  C   UNL     1      13.432 -25.557  35.606  1.00  0.00     0.282 C 
ENDBRANCH  18  20
ENDBRANCH  17  18
ENDBRANCH  16  17
ENDBRANCH  15  16
ENDBRANCH  14  15
ENDBRANCH  13  14
ENDBRANCH  12  13
ENDBRANCH   1  12
TORSDOF 15
ENDMDL
MODEL 4
REMARK VINA RESULT:    -4.503      3.473      8.233
REMARK INTER + INTRA:         -10.566
REMARK INTER:                  -8.991
REMARK INTRA:                  -1.574
REMARK UNBOUND:                -2.113
REMARK SMILES CCCCCC=CCC=CCCCCCCCC(=O)OC
REMARK SMILES IDX 11 1 10 2 9 3 8 4 7 5 6 6 5 7 4 8 3 9 2 10 1 11 12 12 13 13
REMARK SMILES IDX 14 14 15 15 16 16 17 17 18 18 19 19 20 20 21 21
REMARK H PARENT
REMARK Flexibility Score: inf
ROOT
ATOM      1  C   UNL     1       9.290 -25.803  32.007  1.00  0.00     0.027 C 
ENDROOT
BRANCH   1   2
ATOM      2  C   UNL     1       8.847 -27.234  31.867  1.00  0.00    -0.031 C 
ATOM      3  C   UNL     1       9.714 -28.217  31.580  1.00  0.00    -0.027 C 
BRANCH   3   4
ATOM      4  C   UNL     1       9.270 -29.645  31.430  1.00  0.00     0.054 C 
BRANCH   4   5
ATOM      5  C   UNL     1       8.528 -29.823  30.136  1.00  0.00    -0.027 C 
ATOM      6  C   UNL     1       9.002 -29.323  28.984  1.00  0.00    -0.031 C 
BRANCH   6   7
ATOM      7  C   UNL     1       8.270 -29.509  27.684  1.00  0.00     0.027 C 
BRANCH   7   8
ATOM      8  C   UNL     1       8.140 -28.181  26.928  1.00  0.00     0.004 C 
BRANCH   8   9
ATOM      9  C   UNL     1       8.547 -26.999  27.818  1.00  0.00     0.000 C 
BRANCH   9  10
ATOM     10  C   UNL     1       9.495 -26.023  27.104  1.00  0.00    -0.003 C 
ATOM     11  C   UNL     1      10.019 -26.572  25.778  1.00  0.00     0.004 C 
ENDBRANCH   9  10
ENDBRANCH   8   9
ENDBRANCH   7   8
ENDBRANCH   6   7
ENDBRANCH   4   5
ENDBRANCH   3   4
ENDBRANCH   1   2
BRANCH   1  12
ATOM     12  C   UNL     1       9.777 -25.221  30.670  1.00  0.00     0.004 C 
BRANCH  12  13
ATOM     13  C   UNL     1       9.173 -23.847  30.318  1.00  0.00     0.000 C 
BRANCH  13  14
ATOM     14  C   UNL     1      10.159 -22.662  30.388  1.00  0.00     0.000 C 
BRANCH  14  15
ATOM     15  C   UNL     1      11.117 -22.674  31.595  1.00  0.00     0.001 C 
BRANCH  15  16
ATOM     16  C   UNL     1      10.432 -22.522  32.964  1.00  0.00     0.012 C 
BRANCH  16  17
ATOM     17  C   UNL     1      10.174 -21.056  33.336  1.00  0.00     0.123 C 
BRANCH  17  18
ATOM     18  C   UNL     1       9.325 -20.972  34.565  1.00  0.00     0.305 C 
ATOM     19  O   UNL     1       9.772 -21.395  35.664  1.00  0.00    -0.252 OA
BRANCH  18  20
ATOM     20  O   UNL     1       8.055 -20.392  34.488  1.00  0.00    -0.469 OA
ATOM     21  C   UNL     1       7.307 -20.343  33.280  1.00  0.00     0.282 C 
ENDBRANCH  18  20
ENDBRANCH  17  18
ENDBRANCH  16  17
ENDBRANCH  15  16
ENDBRANCH  14  15
ENDBRANCH  13  14
ENDBRANCH  12  13
ENDBRANCH   1  12
TORSDOF 15
ENDMDL
MODEL 5
REMARK VINA RESULT:    -4.497      3.031      8.220
REMARK INTER + INTRA:         -10.553
REMARK INTER:                  -8.541
REMARK INTRA:                  -2.012
REMARK UNBOUND:                -2.113
REMARK SMILES CCCCCC=CCC=CCCCCCCCC(=O)OC
REMARK SMILES IDX 11 1 10 2 9 3 8 4 7 5 6 6 5 7 4 8 3 9 2 10 1 11 12 12 13 13
REMARK SMILES IDX 14 14 15 15 16 16 17 17 18 18 19 19 20 20 21 21
REMARK H PARENT
REMARK Flexibility Score: inf
ROOT
ATOM      1  C   UNL     1       9.534 -26.303  31.905  1.00  0.00     0.027 C 
ENDROOT
BRANCH   1   2
ATOM      2  C   UNL     1       9.064 -27.640  31.402  1.00  0.00    -0.031 C 
ATOM      3  C   UNL     1       8.822 -28.663  32.236  1.00  0.00    -0.027 C 
BRANCH   3   4
ATOM      4  C   UNL     1       8.362 -30.003  31.732  1.00  0.00     0.054 C 
BRANCH   4   5
ATOM      5  C   UNL     1       8.321 -30.005  30.231  1.00  0.00    -0.027 C 
ATOM      6  C   UNL     1       7.293 -30.547  29.560  1.00  0.00    -0.031 C 
BRANCH   6   7
ATOM      7  C   UNL     1       7.240 -30.541  28.057  1.00  0.00     0.027 C 
BRANCH   7   8
ATOM      8  C   UNL     1       8.467 -29.837  27.464  1.00  0.00     0.004 C 
BRANCH   8   9
ATOM      9  C   UNL     1       8.097 -28.446  26.929  1.00  0.00     0.000 C 
BRANCH   9  10
ATOM     10  C   UNL     1       8.772 -27.313  27.716  1.00  0.00    -0.003 C 
ATOM     11  C   UNL     1      10.278 -27.519  27.874  1.00  0.00     0.004 C 
ENDBRANCH   9  10
ENDBRANCH   8   9
ENDBRANCH   7   8
ENDBRANCH   6   7
ENDBRANCH   4   5
ENDBRANCH   3   4
ENDBRANCH   1   2
BRANCH   1  12
ATOM     12  C   UNL     1       9.821 -25.327  30.753  1.00  0.00     0.004 C 
BRANCH  12  13
ATOM     13  C   UNL     1       8.683 -24.328  30.469  1.00  0.00     0.000 C 
BRANCH  13  14
ATOM     14  C   UNL     1       9.000 -22.858  30.815  1.00  0.00     0.000 C 
BRANCH  14  15
ATOM     15  C   UNL     1      10.499 -22.507  30.881  1.00  0.00     0.001 C 
BRANCH  15  16
ATOM     16  C   UNL     1      10.963 -21.901  32.217  1.00  0.00     0.012 C 
BRANCH  16  17
ATOM     17  C   UNL     1       9.836 -21.826  33.255  1.00  0.00     0.123 C 
BRANCH  17  18
ATOM     18  C   UNL     1      10.196 -22.614  34.474  1.00  0.00     0.305 C 
ATOM     19  O   UNL     1      10.440 -22.015  35.556  1.00  0.00    -0.252 OA
BRANCH  18  20
ATOM     20  O   UNL     1      10.224 -24.010  34.410  1.00  0.00    -0.469 OA
ATOM     21  C   UNL     1      11.354 -24.773  34.815  1.00  0.00     0.282 C 
ENDBRANCH  18  20
ENDBRANCH  17  18
ENDBRANCH  16  17
ENDBRANCH  15  16
ENDBRANCH  14  15
ENDBRANCH  13  14
ENDBRANCH  12  13
ENDBRANCH   1  12
TORSDOF 15
ENDMDL
MODEL 6
REMARK VINA RESULT:    -4.470      7.344      9.714
REMARK INTER + INTRA:         -10.503
REMARK INTER:                  -8.822
REMARK INTRA:                  -1.681
REMARK UNBOUND:                -2.113
REMARK SMILES CCCCCC=CCC=CCCCCCCCC(=O)OC
REMARK SMILES IDX 11 1 10 2 9 3 8 4 7 5 6 6 5 7 4 8 3 9 2 10 1 11 12 12 13 13
REMARK SMILES IDX 14 14 15 15 16 16 17 17 18 18 19 19 20 20 21 21
REMARK H PARENT
REMARK Flexibility Score: inf
ROOT
ATOM      1  C   UNL     1       8.782 -22.960  24.566  1.00  0.00     0.027 C 
ENDROOT
BRANCH   1   2
ATOM      2  C   UNL     1       8.981 -24.440  24.389  1.00  0.00    -0.031 C 
ATOM      3  C   UNL     1       9.504 -25.205  25.360  1.00  0.00    -0.027 C 
BRANCH   3   4
ATOM      4  C   UNL     1       9.712 -26.682  25.178  1.00  0.00     0.054 C 
BRANCH   4   5
ATOM      5  C   UNL     1       9.734 -27.369  26.513  1.00  0.00    -0.027 C 
ATOM      6  C   UNL     1       9.444 -26.709  27.644  1.00  0.00    -0.031 C 
BRANCH   6   7
ATOM      7  C   UNL     1       9.453 -27.395  28.983  1.00  0.00     0.027 C 
BRANCH   7   8
ATOM      8  C   UNL     1      10.187 -28.740  28.910  1.00  0.00     0.004 C 
BRANCH   8   9
ATOM      9  C   UNL     1      10.597 -29.220  30.309  1.00  0.00     0.000 C 
BRANCH   9  10
ATOM     10  C   UNL     1       9.612 -28.769  31.399  1.00  0.00    -0.003 C 
ATOM     11  C   UNL     1       9.145 -29.922  32.287  1.00  0.00     0.004 C 
ENDBRANCH   9  10
ENDBRANCH   8   9
ENDBRANCH   7   8
ENDBRANCH   6   7
ENDBRANCH   4   5
ENDBRANCH   3   4
ENDBRANCH   1   2
BRANCH   1  12
ATOM     12  C   UNL     1       9.298 -22.164  23.356  1.00  0.00     0.004 C 
BRANCH  12  13
ATOM     13  C   UNL     1       9.622 -23.026  22.121  1.00  0.00     0.000 C 
BRANCH  13  14
ATOM     14  C   UNL     1      11.092 -22.973  21.653  1.00  0.00     0.000 C 
BRANCH  14  15
ATOM     15  C   UNL     1      11.962 -24.170  22.086  1.00  0.00     0.001 C 
BRANCH  15  16
ATOM     16  C   UNL     1      12.534 -24.071  23.511  1.00  0.00     0.012 C 
BRANCH  16  17
ATOM     17  C   UNL     1      13.900 -24.754  23.649  1.00  0.00     0.123 C 
BRANCH  17  18
ATOM     18  C   UNL     1      13.803 -26.197  23.270  1.00  0.00     0.305 C 
ATOM     19  O   UNL     1      14.332 -26.599  22.198  1.00  0.00    -0.252 OA
BRANCH  18  20
ATOM     20  O   UNL     1      13.157 -27.094  24.126  1.00  0.00    -0.469 OA
ATOM     21  C   UNL     1      13.420 -27.144  25.522  1.00  0.00     0.282 C 
ENDBRANCH  18  20
ENDBRANCH  17  18
ENDBRANCH  16  17
ENDBRANCH  15  16
ENDBRANCH  14  15
ENDBRANCH  13  14
ENDBRANCH  12  13
ENDBRANCH   1  12
TORSDOF 15
ENDMDL
MODEL 7
REMARK VINA RESULT:    -4.387      4.993      8.676
REMARK INTER + INTRA:         -10.347
REMARK INTER:                  -9.015
REMARK INTRA:                  -1.332
REMARK UNBOUND:                -2.113
REMARK SMILES CCCCCC=CCC=CCCCCCCCC(=O)OC
REMARK SMILES IDX 11 1 10 2 9 3 8 4 7 5 6 6 5 7 4 8 3 9 2 10 1 11 12 12 13 13
REMARK SMILES IDX 14 14 15 15 16 16 17 17 18 18 19 19 20 20 21 21
REMARK H PARENT
REMARK Flexibility Score: inf
ROOT
ATOM      1  C   UNL     1       9.547 -28.515  28.628  1.00  0.00     0.027 C 
ENDROOT
BRANCH   1   2
ATOM      2  C   UNL     1      10.201 -27.770  27.495  1.00  0.00    -0.031 C 
ATOM      3  C   UNL     1       9.518 -26.904  26.732  1.00  0.00    -0.027 C 
BRANCH   3   4
ATOM      4  C   UNL     1      10.169 -26.168  25.594  1.00  0.00     0.054 C 
BRANCH   4   5
ATOM      5  C   UNL     1       9.170 -25.274  24.917  1.00  0.00    -0.027 C 
ATOM      6  C   UNL     1       9.405 -23.964  24.750  1.00  0.00    -0.031 C 
BRANCH   6   7
ATOM      7  C   UNL     1       8.413 -23.066  24.062  1.00  0.00     0.027 C 
BRANCH   7   8
ATOM      8  C   UNL     1       9.111 -22.128  23.070  1.00  0.00     0.004 C 
BRANCH   8   9
ATOM      9  C   UNL     1      10.171 -22.880  22.254  1.00  0.00     0.000 C 
BRANCH   9  10
ATOM     10  C   UNL     1       9.560 -23.693  21.102  1.00  0.00    -0.003 C 
ATOM     11  C   UNL     1       8.428 -22.953  20.392  1.00  0.00     0.004 C 
ENDBRANCH   9  10
ENDBRANCH   8   9
ENDBRANCH   7   8
ENDBRANCH   6   7
ENDBRANCH   4   5
ENDBRANCH   3   4
ENDBRANCH   1   2
BRANCH   1  12
ATOM     12  C   UNL     1      10.545 -28.841  29.750  1.00  0.00     0.004 C 
BRANCH  12  13
ATOM     13  C   UNL     1       9.903 -29.432  31.020  1.00  0.00     0.000 C 
BRANCH  13  14
ATOM     14  C   UNL     1       9.697 -28.432  32.176  1.00  0.00     0.000 C 
BRANCH  14  15
ATOM     15  C   UNL     1       8.801 -27.221  31.846  1.00  0.00     0.001 C 
BRANCH  15  16
ATOM     16  C   UNL     1       9.541 -25.874  31.765  1.00  0.00     0.012 C 
BRANCH  16  17
ATOM     17  C   UNL     1       9.468 -25.242  30.370  1.00  0.00     0.123 C 
BRANCH  17  18
ATOM     18  C   UNL     1       9.241 -23.768  30.476  1.00  0.00     0.305 C 
ATOM     19  O   UNL     1       8.084 -23.328  30.710  1.00  0.00    -0.252 OA
BRANCH  18  20
ATOM     20  O   UNL     1      10.324 -22.892  30.348  1.00  0.00    -0.469 OA
ATOM     21  C   UNL     1      11.061 -22.417  31.467  1.00  0.00     0.282 C 
ENDBRANCH  18  20
ENDBRANCH  17  18
ENDBRANCH  16  17
ENDBRANCH  15  16
ENDBRANCH  14  15
ENDBRANCH  13  14
ENDBRANCH  12  13
ENDBRANCH   1  12
TORSDOF 15
ENDMDL
MODEL 8
REMARK VINA RESULT:    -4.353      3.314      5.831
REMARK INTER + INTRA:         -10.283
REMARK INTER:                  -8.224
REMARK INTRA:                  -2.060
REMARK UNBOUND:                -2.113
REMARK SMILES CCCCCC=CCC=CCCCCCCCC(=O)OC
REMARK SMILES IDX 11 1 10 2 9 3 8 4 7 5 6 6 5 7 4 8 3 9 2 10 1 11 12 12 13 13
REMARK SMILES IDX 14 14 15 15 16 16 17 17 18 18 19 19 20 20 21 21
REMARK H PARENT
REMARK Flexibility Score: inf
ROOT
ATOM      1  C   UNL     1       9.287 -27.857  32.205  1.00  0.00     0.027 C 
ENDROOT
BRANCH   1   2
ATOM      2  C   UNL     1       9.644 -26.521  31.612  1.00  0.00    -0.031 C 
ATOM      3  C   UNL     1       8.928 -25.976  30.616  1.00  0.00    -0.027 C 
BRANCH   3   4
ATOM      4  C   UNL     1       9.291 -24.646  30.016  1.00  0.00     0.054 C 
BRANCH   4   5
ATOM      5  C   UNL     1      10.148 -23.865  30.971  1.00  0.00    -0.027 C 
ATOM      6  C   UNL     1       9.750 -22.680  31.458  1.00  0.00    -0.031 C 
BRANCH   6   7
ATOM      7  C   UNL     1      10.598 -21.899  32.423  1.00  0.00     0.027 C 
BRANCH   7   8
ATOM      8  C   UNL     1       9.952 -21.847  33.813  1.00  0.00     0.004 C 
BRANCH   8   9
ATOM      9  C   UNL     1      10.714 -22.733  34.807  1.00  0.00     0.000 C 
BRANCH   9  10
ATOM     10  C   UNL     1      10.324 -24.215  34.697  1.00  0.00    -0.003 C 
ATOM     11  C   UNL     1      11.527 -25.127  34.463  1.00  0.00     0.004 C 
ENDBRANCH   9  10
ENDBRANCH   8   9
ENDBRANCH   7   8
ENDBRANCH   6   7
ENDBRANCH   4   5
ENDBRANCH   3   4
ENDBRANCH   1   2
BRANCH   1  12
ATOM     12  C   UNL     1       9.276 -28.969  31.144  1.00  0.00     0.004 C 
BRANCH  12  13
ATOM     13  C   UNL     1      10.663 -29.305  30.562  1.00  0.00     0.000 C 
BRANCH  13  14
ATOM     14  C   UNL     1      10.845 -28.964  29.068  1.00  0.00     0.000 C 
BRANCH  14  15
ATOM     15  C   UNL     1       9.660 -29.340  28.158  1.00  0.00     0.001 C 
BRANCH  15  16
ATOM     16  C   UNL     1       9.421 -28.380  26.979  1.00  0.00     0.012 C 
BRANCH  16  17
ATOM     17  C   UNL     1      10.047 -26.998  27.206  1.00  0.00     0.123 C 
BRANCH  17  18
ATOM     18  C   UNL     1      10.274 -26.308  25.899  1.00  0.00     0.305 C 
ATOM     19  O   UNL     1       9.335 -25.664  25.360  1.00  0.00    -0.252 OA
BRANCH  18  20
ATOM     20  O   UNL     1      11.539 -26.355  25.305  1.00  0.00    -0.469 OA
ATOM     21  C   UNL     1      12.005 -27.487  24.582  1.00  0.00     0.282 C 
ENDBRANCH  18  20
ENDBRANCH  17  18
ENDBRANCH  16  17
ENDBRANCH  15  16
ENDBRANCH  14  15
ENDBRANCH  13  14
ENDBRANCH  12  13
ENDBRANCH   1  12
TORSDOF 15
ENDMDL
MODEL 9
REMARK VINA RESULT:    -4.348      7.363     10.352
REMARK INTER + INTRA:         -10.275
REMARK INTER:                  -8.628
REMARK INTRA:                  -1.647
REMARK UNBOUND:                -2.113
REMARK SMILES CCCCCC=CCC=CCCCCCCCC(=O)OC
REMARK SMILES IDX 11 1 10 2 9 3 8 4 7 5 6 6 5 7 4 8 3 9 2 10 1 11 12 12 13 13
REMARK SMILES IDX 14 14 15 15 16 16 17 17 18 18 19 19 20 20 21 21
REMARK H PARENT
REMARK Flexibility Score: inf
ROOT
ATOM      1  C   UNL     1       8.583 -24.678  23.985  1.00  0.00     0.027 C 
ENDROOT
BRANCH   1   2
ATOM      2  C   UNL     1       9.277 -25.729  24.808  1.00  0.00    -0.031 C 
ATOM      3  C   UNL     1      10.613 -25.759  24.933  1.00  0.00    -0.027 C 
BRANCH   3   4
ATOM      4  C   UNL     1      11.308 -26.815  25.748  1.00  0.00     0.054 C 
BRANCH   4   5
ATOM      5  C   UNL     1      10.436 -27.242  26.893  1.00  0.00    -0.027 C 
ATOM      6  C   UNL     1      10.555 -28.458  27.447  1.00  0.00    -0.031 C 
BRANCH   6   7
ATOM      7  C   UNL     1       9.693 -28.887  28.602  1.00  0.00     0.027 C 
BRANCH   7   8
ATOM      8  C   UNL     1       9.408 -27.712  29.546  1.00  0.00     0.004 C 
BRANCH   8   9
ATOM      9  C   UNL     1       9.936 -27.999  30.958  1.00  0.00     0.000 C 
BRANCH   9  10
ATOM     10  C   UNL     1      10.051 -29.503  31.249  1.00  0.00    -0.003 C 
ATOM     11  C   UNL     1       9.673 -29.857  32.687  1.00  0.00     0.004 C 
ENDBRANCH   9  10
ENDBRANCH   8   9
ENDBRANCH   7   8
ENDBRANCH   6   7
ENDBRANCH   4   5
ENDBRANCH   3   4
ENDBRANCH   1   2
BRANCH   1  12
ATOM     12  C   UNL     1       9.027 -23.259  24.375  1.00  0.00     0.004 C 
BRANCH  12  13
ATOM     13  C   UNL     1       8.989 -22.241  23.219  1.00  0.00     0.000 C 
BRANCH  13  14
ATOM     14  C   UNL     1       7.967 -22.553  22.106  1.00  0.00     0.000 C 
BRANCH  14  15
ATOM     15  C   UNL     1       8.576 -22.948  20.746  1.00  0.00     0.001 C 
BRANCH  15  16
ATOM     16  C   UNL     1      10.096 -23.182  20.764  1.00  0.00     0.012 C 
BRANCH  16  17
ATOM     17  C   UNL     1      10.467 -24.666  20.650  1.00  0.00     0.123 C 
BRANCH  17  18
ATOM     18  C   UNL     1      11.594 -24.995  21.576  1.00  0.00     0.305 C 
ATOM     19  O   UNL     1      11.949 -26.195  21.728  1.00  0.00    -0.252 OA
BRANCH  18  20
ATOM     20  O   UNL     1      12.266 -23.964  22.239  1.00  0.00    -0.469 OA
ATOM     21  C   UNL     1      13.471 -24.176  22.964  1.00  0.00     0.282 C 
ENDBRANCH  18  20
ENDBRANCH  17  18
ENDBRANCH  16  17
ENDBRANCH  15  16
ENDBRANCH  14  15
ENDBRANCH  13  14
ENDBRANCH  12  13
ENDBRANCH   1  12
TORSDOF 15
ENDMDL
