MODEL 1
REMARK VINA RESULT:    -4.727      0.000      0.000
REMARK INTER + INTRA:          -5.561
REMARK INTER:                  -5.833
REMARK INTRA:                   0.271
REMARK UNBOUND:                 0.271
REMARK SMILES C=C1[C@@H]2CC[C@H]3[C@H]2C(C)(C)CCC[C@@]13C
REMARK SMILES IDX 14 1 6 2 7 3 3 4 2 5 1 6 4 7 5 8 15 9 8 10 9 11 10 12 11 13
REMARK SMILES IDX 13 15 12 16
REMARK H PARENT
REMARK Flexibility Score: 80.00
ROOT
ATOM      1  C   UNL     1      -1.596   4.717  11.077  1.00  0.00    -0.008 C 
ATOM      2  C   UNL     1      -1.392   5.094  12.542  1.00  0.00     0.003 C 
ATOM      3  C   UNL     1      -2.417   4.123  13.150  1.00  0.00     0.006 C 
ATOM      4  C   UNL     1      -3.615   4.833  12.540  1.00  0.00     0.019 C 
ATOM      5  C   UNL     1      -3.135   4.791  11.069  1.00  0.00    -0.068 C 
ATOM      6  C   UNL     1      -3.929   4.747   9.995  1.00  0.00     0.009 C 
ATOM      7  C   UNL     1      -3.461   6.267  13.019  1.00  0.00     0.008 C 
ATOM      8  C   UNL     1      -1.948   6.479  12.960  1.00  0.00     0.005 C 
ATOM      9  C   UNL     1      -0.947   5.714  10.097  1.00  0.00     0.016 C 
ENDROOT
BRANCH   3  10
ATOM     10  C   UNL     1      -1.779   3.216  14.226  1.00  0.00    -0.032 C 
ATOM     11  C   UNL     1      -0.979   4.013  15.285  1.00  0.00     0.011 C 
ATOM     12  C   UNL     1      -2.894   2.447  14.978  1.00  0.00     0.011 C 
BRANCH  10  13
ATOM     13  C   UNL     1      -0.828   2.185  13.448  1.00  0.00     0.007 CG0
ATOM     14  G   UNL     1      -0.135   2.627  12.083  1.00  0.00     0.000 G0
ENDBRANCH  10  13
ENDBRANCH   3  10
BRANCH   1  15
ATOM     15  C   UNL     1      -1.013   3.236  10.886  1.00  0.00     0.011 C 
BRANCH  15  16
ATOM     16  C   UNL     1      -0.143   2.621  12.077  1.00  0.00     0.001 CG0
ATOM     17  G   UNL     1      -0.826   2.184  13.448  1.00  0.00     0.000 G0
ENDBRANCH  15  16
ENDBRANCH   1  15
TORSDOF 0
ENDMDL
MODEL 2
REMARK VINA RESULT:    -4.227      1.359      2.491
REMARK INTER + INTRA:          -4.944
REMARK INTER:                  -5.215
REMARK INTRA:                   0.271
REMARK UNBOUND:                 0.271
REMARK SMILES C=C1[C@@H]2CC[C@H]3[C@H]2C(C)(C)CCC[C@@]13C
REMARK SMILES IDX 14 1 6 2 7 3 3 4 2 5 1 6 4 7 5 8 15 9 8 10 9 11 10 12 11 13
REMARK SMILES IDX 13 15 12 16
REMARK H PARENT
REMARK Flexibility Score: 80.00
ROOT
ATOM      1  C   UNL     1      -0.739   5.966  12.334  1.00  0.00    -0.008 C 
ATOM      2  C   UNL     1      -1.840   5.097  12.937  1.00  0.00     0.003 C 
ATOM      3  C   UNL     1      -1.396   3.754  12.336  1.00  0.00     0.006 C 
ATOM      4  C   UNL     1      -1.714   4.165  10.907  1.00  0.00     0.019 C 
ATOM      5  C   UNL     1      -0.862   5.458  10.885  1.00  0.00    -0.068 C 
ATOM      6  C   UNL     1      -0.278   5.984   9.804  1.00  0.00     0.009 C 
ATOM      7  C   UNL     1      -3.171   4.592  10.974  1.00  0.00     0.008 C 
ATOM      8  C   UNL     1      -3.253   5.290  12.331  1.00  0.00     0.005 C 
ATOM      9  C   UNL     1      -1.019   7.476  12.462  1.00  0.00     0.016 C 
ENDROOT
BRANCH   3  10
ATOM     10  C   UNL     1      -1.189   2.678  13.425  1.00  0.00    -0.032 C 
ATOM     11  C   UNL     1      -2.396   2.559  14.388  1.00  0.00     0.011 C 
ATOM     12  C   UNL     1      -1.002   1.295  12.753  1.00  0.00     0.011 C 
BRANCH  10  13
ATOM     13  C   UNL     1       0.141   3.086  14.223  1.00  0.00     0.007 CG0
ATOM     14  G   UNL     1       0.540   4.623  14.358  1.00  0.00     0.000 G0
ENDBRANCH  10  13
ENDBRANCH   3  10
BRANCH   1  15
ATOM     15  C   UNL     1       0.633   5.557  13.056  1.00  0.00     0.011 C 
BRANCH  15  16
ATOM     16  C   UNL     1       0.542   4.626  14.351  1.00  0.00     0.001 CG0
ATOM     17  G   UNL     1       0.139   3.089  14.228  1.00  0.00     0.000 G0
ENDBRANCH  15  16
ENDBRANCH   1  15
TORSDOF 0
ENDMDL
MODEL 3
REMARK VINA RESULT:    -3.874      2.020      3.440
REMARK INTER + INTRA:          -4.509
REMARK INTER:                  -4.778
REMARK INTRA:                   0.270
REMARK UNBOUND:                 0.271
REMARK SMILES C=C1[C@@H]2CC[C@H]3[C@H]2C(C)(C)CCC[C@@]13C
REMARK SMILES IDX 14 1 6 2 7 3 3 4 2 5 1 6 4 7 5 8 15 9 8 10 9 11 10 12 11 13
REMARK SMILES IDX 13 15 12 16
REMARK H PARENT
REMARK Flexibility Score: 80.00
ROOT
ATOM      1  C   UNL     1      -1.863   4.447  11.114  1.00  0.00    -0.008 C 
ATOM      2  C   UNL     1      -1.913   5.058  12.512  1.00  0.00     0.003 C 
ATOM      3  C   UNL     1      -0.510   4.632  12.974  1.00  0.00     0.006 C 
ATOM      4  C   UNL     1      -0.845   3.150  12.988  1.00  0.00     0.019 C 
ATOM      5  C   UNL     1      -1.353   3.053  11.529  1.00  0.00    -0.068 C 
ATOM      6  C   UNL     1      -1.283   1.967  10.753  1.00  0.00     0.009 C 
ATOM      7  C   UNL     1      -2.065   3.069  13.891  1.00  0.00     0.008 C 
ATOM      8  C   UNL     1      -2.837   4.336  13.526  1.00  0.00     0.005 C 
ATOM      9  C   UNL     1      -3.240   4.395  10.424  1.00  0.00     0.016 C 
ENDROOT
BRANCH   3  10
ATOM     10  C   UNL     1       0.327   5.840  13.451  1.00  0.00    -0.032 C 
ATOM     11  C   UNL     1      -0.423   6.720  14.481  1.00  0.00     0.011 C 
ATOM     12  C   UNL     1       1.619   5.331  14.139  1.00  0.00     0.011 C 
BRANCH  10  13
ATOM     13  C   UNL     1       0.699   6.685  12.140  1.00  0.00     0.007 CG0
ATOM     14  G   UNL     1      -0.289   6.677  10.890  1.00  0.00     0.000 G0
ENDBRANCH  10  13
ENDBRANCH   3  10
BRANCH   1  15
ATOM     15  C   UNL     1      -0.807   5.302  10.263  1.00  0.00     0.011 C 
BRANCH  15  16
ATOM     16  C   UNL     1      -0.291   6.679  10.888  1.00  0.00     0.001 CG0
ATOM     17  G   UNL     1       0.698   6.690  12.137  1.00  0.00     0.000 G0
ENDBRANCH  15  16
ENDBRANCH   1  15
TORSDOF 0
ENDMDL
MODEL 4
REMARK VINA RESULT:    -3.852      1.994      3.864
REMARK INTER + INTRA:          -4.481
REMARK INTER:                  -4.751
REMARK INTRA:                   0.270
REMARK UNBOUND:                 0.271
REMARK SMILES C=C1[C@@H]2CC[C@H]3[C@H]2C(C)(C)CCC[C@@]13C
REMARK SMILES IDX 14 1 6 2 7 3 3 4 2 5 1 6 4 7 5 8 15 9 8 10 9 11 10 12 11 13
REMARK SMILES IDX 13 15 12 16
REMARK H PARENT
REMARK Flexibility Score: 80.00
ROOT
ATOM      1  C   UNL     1      -0.599   3.317  13.390  1.00  0.00    -0.008 C 
ATOM      2  C   UNL     1      -0.516   4.268  12.198  1.00  0.00     0.003 C 
ATOM      3  C   UNL     1      -1.196   5.481  12.853  1.00  0.00     0.006 C 
ATOM      4  C   UNL     1      -2.554   4.805  12.949  1.00  0.00     0.019 C 
ATOM      5  C   UNL     1      -2.088   3.543  13.715  1.00  0.00    -0.068 C 
ATOM      6  C   UNL     1      -2.834   2.832  14.566  1.00  0.00     0.009 C 
ATOM      7  C   UNL     1      -2.842   4.378  11.519  1.00  0.00     0.008 C 
ATOM      8  C   UNL     1      -1.465   3.945  11.016  1.00  0.00     0.005 C 
ATOM      9  C   UNL     1      -0.286   1.854  13.021  1.00  0.00     0.016 C 
ENDROOT
BRANCH   3  10
ATOM     10  C   UNL     1      -0.310   6.744  12.780  1.00  0.00    -0.032 C 
ATOM     11  C   UNL     1       0.219   7.023  11.351  1.00  0.00     0.011 C 
ATOM     12  C   UNL     1      -1.140   7.980  13.209  1.00  0.00     0.011 C 
BRANCH  10  13
ATOM     13  C   UNL     1       0.902   6.513  13.803  1.00  0.00     0.007 CG0
ATOM     14  G   UNL     1       1.424   5.034  14.086  1.00  0.00     0.000 G0
ENDBRANCH  10  13
ENDBRANCH   3  10
BRANCH   1  15
ATOM     15  C   UNL     1       0.406   3.873  14.508  1.00  0.00     0.011 C 
BRANCH  15  16
ATOM     16  C   UNL     1       1.423   5.030  14.083  1.00  0.00     0.001 CG0
ATOM     17  G   UNL     1       0.907   6.512  13.806  1.00  0.00     0.000 G0
ENDBRANCH  15  16
ENDBRANCH   1  15
TORSDOF 0
ENDMDL
MODEL 5
REMARK VINA RESULT:    -3.771      1.584      4.078
REMARK INTER + INTRA:          -4.382
REMARK INTER:                  -4.634
REMARK INTRA:                   0.252
REMARK UNBOUND:                 0.271
REMARK SMILES C=C1[C@@H]2CC[C@H]3[C@H]2C(C)(C)CCC[C@@]13C
REMARK SMILES IDX 14 1 6 2 7 3 3 4 2 5 1 6 4 7 5 8 15 9 8 10 9 11 10 12 11 13
REMARK SMILES IDX 13 15 12 16
REMARK H PARENT
REMARK Flexibility Score: 80.00
ROOT
ATOM      1  C   UNL     1      -0.314   4.502  14.115  1.00  0.00    -0.008 C 
ATOM      2  C   UNL     1      -1.358   5.296  13.333  1.00  0.00     0.003 C 
ATOM      3  C   UNL     1      -0.472   5.680  12.137  1.00  0.00     0.006 C 
ATOM      4  C   UNL     1       0.433   6.583  12.959  1.00  0.00     0.019 C 
ATOM      5  C   UNL     1       0.820   5.541  14.036  1.00  0.00    -0.068 C 
ATOM      6  C   UNL     1       1.973   5.515  14.712  1.00  0.00     0.009 C 
ATOM      7  C   UNL     1      -0.533   7.560  13.610  1.00  0.00     0.008 C 
ATOM      8  C   UNL     1      -1.737   6.675  13.931  1.00  0.00     0.005 C 
ATOM      9  C   UNL     1      -0.743   4.199  15.564  1.00  0.00     0.016 C 
ENDROOT
BRANCH   3  10
ATOM     10  C   UNL     1      -1.102   5.247  10.795  1.00  0.00    -0.032 C 
ATOM     11  C   UNL     1      -2.572   5.710  10.645  1.00  0.00     0.011 C 
ATOM     12  C   UNL     1      -0.303   5.875   9.625  1.00  0.00     0.011 C 
BRANCH  10  13
ATOM     13  C   UNL     1      -0.998   3.648  10.736  1.00  0.00     0.007 CG0
ATOM     14  G   UNL     1      -1.028   2.805  12.088  1.00  0.00     0.000 G0
ENDBRANCH  10  13
ENDBRANCH   3  10
BRANCH   1  15
ATOM     15  C   UNL     1      -0.028   3.158  13.290  1.00  0.00     0.011 C 
BRANCH  15  16
ATOM     16  C   UNL     1      -1.027   2.793  12.097  1.00  0.00     0.001 CG0
ATOM     17  G   UNL     1      -1.024   3.632  10.742  1.00  0.00     0.000 G0
ENDBRANCH  15  16
ENDBRANCH   1  15
TORSDOF 0
ENDMDL
MODEL 6
REMARK VINA RESULT:    -3.715      1.844      4.317
REMARK INTER + INTRA:          -4.313
REMARK INTER:                  -4.582
REMARK INTRA:                   0.269
REMARK UNBOUND:                 0.271
REMARK SMILES C=C1[C@@H]2CC[C@H]3[C@H]2C(C)(C)CCC[C@@]13C
REMARK SMILES IDX 14 1 6 2 7 3 3 4 2 5 1 6 4 7 5 8 15 9 8 10 9 11 10 12 11 13
REMARK SMILES IDX 13 15 12 16
REMARK H PARENT
REMARK Flexibility Score: 80.00
ROOT
ATOM      1  C   UNL     1      -0.546   3.771  14.004  1.00  0.00    -0.008 C 
ATOM      2  C   UNL     1      -0.228   3.955  12.522  1.00  0.00     0.003 C 
ATOM      3  C   UNL     1      -1.664   4.191  12.030  1.00  0.00     0.006 C 
ATOM      4  C   UNL     1      -2.121   2.776  12.342  1.00  0.00     0.019 C 
ATOM      5  C   UNL     1      -1.697   2.761  13.831  1.00  0.00    -0.068 C 
ATOM      6  C   UNL     1      -2.287   2.053  14.799  1.00  0.00     0.009 C 
ATOM      7  C   UNL     1      -1.129   1.906  11.588  1.00  0.00     0.008 C 
ATOM      8  C   UNL     1       0.184   2.669  11.761  1.00  0.00     0.005 C 
ATOM      9  C   UNL     1       0.633   3.196  14.811  1.00  0.00     0.016 C 
ENDROOT
BRANCH   3  10
ATOM     10  C   UNL     1      -1.791   5.518  11.247  1.00  0.00    -0.032 C 
ATOM     11  C   UNL     1      -0.724   5.662  10.135  1.00  0.00     0.011 C 
ATOM     12  C   UNL     1      -3.178   5.579  10.560  1.00  0.00     0.011 C 
BRANCH  10  13
ATOM     13  C   UNL     1      -1.659   6.698  12.324  1.00  0.00     0.007 CG0
ATOM     14  G   UNL     1      -0.771   6.479  13.629  1.00  0.00     0.000 G0
ENDBRANCH  10  13
ENDBRANCH   3  10
BRANCH   1  15
ATOM     15  C   UNL     1      -1.009   5.199  14.568  1.00  0.00     0.011 C 
BRANCH  15  16
ATOM     16  C   UNL     1      -0.777   6.476  13.635  1.00  0.00     0.001 CG0
ATOM     17  G   UNL     1      -1.657   6.703  12.327  1.00  0.00     0.000 G0
ENDBRANCH  15  16
ENDBRANCH   1  15
TORSDOF 0
ENDMDL
MODEL 7
REMARK VINA RESULT:    -3.661      1.606      3.159
REMARK INTER + INTRA:          -4.246
REMARK INTER:                  -4.502
REMARK INTRA:                   0.256
REMARK UNBOUND:                 0.271
REMARK SMILES C=C1[C@@H]2CC[C@H]3[C@H]2C(C)(C)CCC[C@@]13C
REMARK SMILES IDX 14 1 6 2 7 3 3 4 2 5 1 6 4 7 5 8 15 9 8 10 9 11 10 12 11 13
REMARK SMILES IDX 13 15 12 16
REMARK H PARENT
REMARK Flexibility Score: 80.00
ROOT
ATOM      1  C   UNL     1      -1.776   3.950  11.515  1.00  0.00    -0.008 C 
ATOM      2  C   UNL     1      -0.654   4.984  11.504  1.00  0.00     0.003 C 
ATOM      3  C   UNL     1      -1.462   6.173  12.047  1.00  0.00     0.006 C 
ATOM      4  C   UNL     1      -2.344   6.277  10.814  1.00  0.00     0.019 C 
ATOM      5  C   UNL     1      -2.840   4.811  10.807  1.00  0.00    -0.068 C 
ATOM      6  C   UNL     1      -4.020   4.392  10.338  1.00  0.00     0.009 C 
ATOM      7  C   UNL     1      -1.348   6.416   9.674  1.00  0.00     0.008 C 
ATOM      8  C   UNL     1      -0.216   5.484  10.104  1.00  0.00     0.005 C 
ATOM      9  C   UNL     1      -1.429   2.670  10.731  1.00  0.00     0.016 C 
ENDROOT
BRANCH   3  10
ATOM     10  C   UNL     1      -0.804   6.789  13.302  1.00  0.00    -0.032 C 
ATOM     11  C   UNL     1       0.692   7.128  13.089  1.00  0.00     0.011 C 
ATOM     12  C   UNL     1      -1.526   8.111  13.665  1.00  0.00     0.011 C 
BRANCH  10  13
ATOM     13  C   UNL     1      -0.986   5.721  14.484  1.00  0.00     0.007 CG0
ATOM     14  G   UNL     1      -1.104   4.171  14.136  1.00  0.00     0.000 G0
ENDBRANCH  10  13
ENDBRANCH   3  10
BRANCH   1  15
ATOM     15  C   UNL     1      -2.109   3.631  13.050  1.00  0.00     0.011 C 
BRANCH  15  16
ATOM     16  C   UNL     1      -1.093   4.172  14.158  1.00  0.00     0.001 CG0
ATOM     17  G   UNL     1      -0.976   5.730  14.470  1.00  0.00     0.000 G0
ENDBRANCH  15  16
ENDBRANCH   1  15
TORSDOF 0
ENDMDL
MODEL 8
REMARK VINA RESULT:    -3.560      2.151      4.347
REMARK INTER + INTRA:          -4.121
REMARK INTER:                  -4.390
REMARK INTRA:                   0.269
REMARK UNBOUND:                 0.271
REMARK SMILES C=C1[C@@H]2CC[C@H]3[C@H]2C(C)(C)CCC[C@@]13C
REMARK SMILES IDX 14 1 6 2 7 3 3 4 2 5 1 6 4 7 5 8 15 9 8 10 9 11 10 12 11 13
REMARK SMILES IDX 13 15 12 16
REMARK H PARENT
REMARK Flexibility Score: 80.00
ROOT
ATOM      1  C   UNL     1      -2.031   3.976  13.197  1.00  0.00    -0.008 C 
ATOM      2  C   UNL     1      -1.400   5.205  13.847  1.00  0.00     0.003 C 
ATOM      3  C   UNL     1      -0.411   5.549  12.722  1.00  0.00     0.006 C 
ATOM      4  C   UNL     1       0.430   4.300  12.930  1.00  0.00     0.019 C 
ATOM      5  C   UNL     1      -0.719   3.271  12.801  1.00  0.00    -0.068 C 
ATOM      6  C   UNL     1      -0.594   2.019  12.349  1.00  0.00     0.009 C 
ATOM      7  C   UNL     1       0.807   4.364  14.401  1.00  0.00     0.008 C 
ATOM      8  C   UNL     1      -0.461   4.920  15.048  1.00  0.00     0.005 C 
ATOM      9  C   UNL     1      -2.883   3.143  14.174  1.00  0.00     0.016 C 
ENDROOT
BRANCH   3  10
ATOM     10  C   UNL     1      -0.582   7.005  12.234  1.00  0.00    -0.032 C 
ATOM     11  C   UNL     1      -0.585   8.030  13.394  1.00  0.00     0.011 C 
ATOM     12  C   UNL     1       0.597   7.376  11.299  1.00  0.00     0.011 C 
BRANCH  10  13
ATOM     13  C   UNL     1      -1.964   7.055  11.423  1.00  0.00     0.007 CG0
ATOM     14  G   UNL     1      -3.153   6.074  11.828  1.00  0.00     0.000 G0
ENDBRANCH  10  13
ENDBRANCH   3  10
BRANCH   1  15
ATOM     15  C   UNL     1      -2.896   4.494  11.951  1.00  0.00     0.011 C 
BRANCH  15  16
ATOM     16  C   UNL     1      -3.154   6.066  11.829  1.00  0.00     0.001 CG0
ATOM     17  G   UNL     1      -1.975   7.060  11.427  1.00  0.00     0.000 G0
ENDBRANCH  15  16
ENDBRANCH   1  15
TORSDOF 0
ENDMDL
MODEL 9
REMARK VINA RESULT:    -3.409     14.173     16.108
REMARK INTER + INTRA:          -3.935
REMARK INTER:                  -4.216
REMARK INTRA:                   0.281
REMARK UNBOUND:                 0.271
REMARK SMILES C=C1[C@@H]2CC[C@H]3[C@H]2C(C)(C)CCC[C@@]13C
REMARK SMILES IDX 14 1 6 2 7 3 3 4 2 5 1 6 4 7 5 8 15 9 8 10 9 11 10 12 11 13
REMARK SMILES IDX 13 15 12 16
REMARK H PARENT
REMARK Flexibility Score: 80.00
ROOT
ATOM      1  C   UNL     1       6.518 -10.221  15.137  1.00  0.00    -0.008 C 
ATOM      2  C   UNL     1       5.034  -9.892  15.002  1.00  0.00     0.003 C 
ATOM      3  C   UNL     1       5.131  -9.002  13.753  1.00  0.00     0.006 C 
ATOM      4  C   UNL     1       5.897  -7.899  14.465  1.00  0.00     0.019 C 
ATOM      5  C   UNL     1       7.049  -8.781  15.003  1.00  0.00    -0.068 C 
ATOM      6  C   UNL     1       8.300  -8.369  15.232  1.00  0.00     0.009 C 
ATOM      7  C   UNL     1       5.008  -7.554  15.648  1.00  0.00     0.008 C 
ATOM      8  C   UNL     1       4.464  -8.920  16.067  1.00  0.00     0.005 C 
ATOM      9  C   UNL     1       6.877 -10.865  16.490  1.00  0.00     0.016 C 
ENDROOT
BRANCH   3  10
ATOM     10  C   UNL     1       4.204  -9.500  12.621  1.00  0.00    -0.032 C 
ATOM     11  C   UNL     1       2.754  -9.752  13.100  1.00  0.00     0.011 C 
ATOM     12  C   UNL     1       4.137  -8.429  11.503  1.00  0.00     0.011 C 
BRANCH  10  13
ATOM     13  C   UNL     1       4.861 -10.848  12.053  1.00  0.00     0.007 CG0
ATOM     14  G   UNL     1       5.709 -11.783  13.025  1.00  0.00     0.000 G0
ENDBRANCH  10  13
ENDBRANCH   3  10
BRANCH   1  15
ATOM     15  C   UNL     1       6.902 -11.176  13.907  1.00  0.00     0.011 C 
BRANCH  15  16
ATOM     16  C   UNL     1       5.708 -11.776  13.032  1.00  0.00     0.001 CG0
ATOM     17  G   UNL     1       4.861 -10.844  12.055  1.00  0.00     0.000 G0
ENDBRANCH  15  16
ENDBRANCH   1  15
TORSDOF 0
ENDMDL
