MODEL 1
REMARK VINA RESULT:    43.112      0.000      0.000
REMARK INTER + INTRA:          52.194
REMARK INTER:                  51.933
REMARK INTRA:                   0.260
REMARK UNBOUND:                 0.260
REMARK SMILES O=c1c(O)c(-c2ccc(O)c(O)c2)oc2cc(O)cc(O)c12
REMARK SMILES IDX 5 1 3 2 2 3 1 4 22 5 20 6 19 7 17 8 16 9 15 10 14 11 6 12
REMARK SMILES IDX 7 13 8 14 9 15 13 16 11 17 10 18 12 20 4 22 21 24 18 26
REMARK H PARENT 10 19 12 21 4 23 21 25 18 27
REMARK Flexibility Score: inf
ROOT
ATOM      1  C   UNL     1      12.028  12.856   4.527  1.00  0.00     0.180 A 
ATOM      2  C   UNL     1      11.810  11.596   3.944  1.00  0.00     0.208 A 
ATOM      3  C   UNL     1      11.241  11.526   2.663  1.00  0.00     0.238 A 
ATOM      4  O   UNL     1      11.098  10.398   2.125  1.00  0.00    -0.285 OA
ATOM      5  C   UNL     1      10.883  12.718   1.986  1.00  0.00     0.111 A 
ATOM      6  C   UNL     1      10.264  12.764   0.701  1.00  0.00     0.134 A 
ATOM      7  C   UNL     1      10.072  14.001   0.071  1.00  0.00     0.093 A 
ATOM      8  C   UNL     1      10.418  15.193   0.705  1.00  0.00     0.123 A 
ATOM      9  C   UNL     1      10.970  15.162   1.986  1.00  0.00     0.094 A 
ATOM     10  C   UNL     1      11.206  13.943   2.625  1.00  0.00     0.146 A 
ATOM     11  O   UNL     1      11.743  13.957   3.840  1.00  0.00    -0.452 OA
ENDROOT
BRANCH   1  12
ATOM     12  C   UNL     1      12.601  13.009   5.884  1.00  0.00     0.025 A 
ATOM     13  C   UNL     1      12.161  14.058   6.705  1.00  0.00     0.016 A 
ATOM     14  C   UNL     1      12.673  14.209   7.997  1.00  0.00     0.051 A 
ATOM     15  C   UNL     1      13.617  13.304   8.493  1.00  0.00     0.157 A 
ATOM     16  C   UNL     1      13.535  12.088   6.392  1.00  0.00     0.062 A 
ATOM     17  C   UNL     1      14.048  12.236   7.689  1.00  0.00     0.158 A 
BRANCH  15  18
ATOM     18  O   UNL     1      14.111  13.480   9.785  1.00  0.00    -0.504 OA
ATOM     19  H   UNL     1      15.030  13.866   9.961  1.00  0.00     0.293 HD
ENDBRANCH  15  18
BRANCH  17  20
ATOM     20  O   UNL     1      14.979  11.322   8.182  1.00  0.00    -0.504 OA
ATOM     21  H   UNL     1      14.887  10.915   9.104  1.00  0.00     0.293 HD
ENDBRANCH  17  20
ENDBRANCH   1  12
BRANCH   2  22
ATOM     22  O   UNL     1      12.191  10.434   4.621  1.00  0.00    -0.502 OA
ATOM     23  H   UNL     1      11.517   9.775   4.994  1.00  0.00     0.293 HD
ENDBRANCH   2  22
BRANCH   6  24
ATOM     24  O   UNL     1       9.795  11.637   0.019  1.00  0.00    -0.507 OA
ATOM     25  H   UNL     1      10.379  10.977  -0.470  1.00  0.00     0.293 HD
ENDBRANCH   6  24
BRANCH   8  26
ATOM     26  O   UNL     1      10.201  16.406   0.055  1.00  0.00    -0.508 OA
ATOM     27  H   UNL     1       9.302  16.873   0.090  1.00  0.00     0.293 HD
ENDBRANCH   8  26
TORSDOF 6
ENDMDL
MODEL 2
REMARK VINA RESULT:    43.620      2.971      4.407
REMARK INTER + INTRA:          52.806
REMARK INTER:                  53.126
REMARK INTRA:                  -0.320
REMARK UNBOUND:                 0.260
REMARK SMILES O=c1c(O)c(-c2ccc(O)c(O)c2)oc2cc(O)cc(O)c12
REMARK SMILES IDX 5 1 3 2 2 3 1 4 22 5 20 6 19 7 17 8 16 9 15 10 14 11 6 12
REMARK SMILES IDX 7 13 8 14 9 15 13 16 11 17 10 18 12 20 4 22 21 24 18 26
REMARK H PARENT 10 19 12 21 4 23 21 25 18 27
REMARK Flexibility Score: inf
ROOT
ATOM      1  C   UNL     1      10.277  13.183   4.497  1.00  0.00     0.180 A 
ATOM      2  C   UNL     1      10.052  14.175   3.526  1.00  0.00     0.208 A 
ATOM      3  C   UNL     1      10.577  13.998   2.237  1.00  0.00     0.238 A 
ATOM      4  O   UNL     1      10.327  14.864   1.358  1.00  0.00    -0.285 OA
ATOM      5  C   UNL     1      11.334  12.839   1.938  1.00  0.00     0.111 A 
ATOM      6  C   UNL     1      11.947  12.575   0.676  1.00  0.00     0.134 A 
ATOM      7  C   UNL     1      12.562  11.337   0.452  1.00  0.00     0.093 A 
ATOM      8  C   UNL     1      12.642  10.380   1.463  1.00  0.00     0.123 A 
ATOM      9  C   UNL     1      12.098  10.651   2.719  1.00  0.00     0.094 A 
ATOM     10  C   UNL     1      11.447  11.863   2.961  1.00  0.00     0.146 A 
ATOM     11  O   UNL     1      10.933  12.077   4.167  1.00  0.00    -0.452 OA
ENDROOT
BRANCH   1  12
ATOM     12  C   UNL     1       9.776  13.310   5.885  1.00  0.00     0.025 A 
ATOM     13  C   UNL     1      10.585  13.915   6.858  1.00  0.00     0.016 A 
ATOM     14  C   UNL     1      10.125  14.065   8.169  1.00  0.00     0.051 A 
ATOM     15  C   UNL     1       8.844  13.627   8.523  1.00  0.00     0.157 A 
ATOM     16  C   UNL     1       8.480  12.889   6.237  1.00  0.00     0.062 A 
ATOM     17  C   UNL     1       8.016  13.041   7.552  1.00  0.00     0.158 A 
BRANCH  15  18
ATOM     18  O   UNL     1       8.412  13.788   9.838  1.00  0.00    -0.504 OA
ATOM     19  H   UNL     1       8.626  13.112  10.561  1.00  0.00     0.293 HD
ENDBRANCH  15  18
BRANCH  17  20
ATOM     20  O   UNL     1       6.732  12.615   7.893  1.00  0.00    -0.504 OA
ATOM     21  H   UNL     1       6.033  12.417   7.189  1.00  0.00     0.293 HD
ENDBRANCH  17  20
ENDBRANCH   1  12
BRANCH   2  22
ATOM     22  O   UNL     1       9.284  15.300   3.838  1.00  0.00    -0.502 OA
ATOM     23  H   UNL     1       8.882  15.899   3.125  1.00  0.00     0.293 HD
ENDBRANCH   2  22
BRANCH   6  24
ATOM     24  O   UNL     1      12.004  13.499  -0.372  1.00  0.00    -0.507 OA
ATOM     25  H   UNL     1      12.590  13.409  -1.187  1.00  0.00     0.293 HD
ENDBRANCH   6  24
BRANCH   8  26
ATOM     26  O   UNL     1      13.274   9.164   1.210  1.00  0.00    -0.508 OA
ATOM     27  H   UNL     1      14.245   9.121   0.923  1.00  0.00     0.293 HD
ENDBRANCH   8  26
TORSDOF 6
ENDMDL
MODEL 3
REMARK VINA RESULT:    44.307      1.437      7.298
REMARK INTER + INTRA:          53.633
REMARK INTER:                  53.553
REMARK INTRA:                   0.080
REMARK UNBOUND:                 0.260
REMARK SMILES O=c1c(O)c(-c2ccc(O)c(O)c2)oc2cc(O)cc(O)c12
REMARK SMILES IDX 5 1 3 2 2 3 1 4 22 5 20 6 19 7 17 8 16 9 15 10 14 11 6 12
REMARK SMILES IDX 7 13 8 14 9 15 13 16 11 17 10 18 12 20 4 22 21 24 18 26
REMARK H PARENT 10 19 12 21 4 23 21 25 18 27
REMARK Flexibility Score: inf
ROOT
ATOM      1  C   UNL     1      11.876  13.212   4.827  1.00  0.00     0.180 A 
ATOM      2  C   UNL     1      11.233  13.998   5.801  1.00  0.00     0.208 A 
ATOM      3  C   UNL     1      11.765  14.045   7.098  1.00  0.00     0.238 A 
ATOM      4  O   UNL     1      11.216  14.792   7.950  1.00  0.00    -0.285 OA
ATOM      5  C   UNL     1      12.925  13.296   7.412  1.00  0.00     0.111 A 
ATOM      6  C   UNL     1      13.528  13.239   8.705  1.00  0.00     0.134 A 
ATOM      7  C   UNL     1      14.747  12.569   8.870  1.00  0.00     0.093 A 
ATOM      8  C   UNL     1      15.350  11.901   7.805  1.00  0.00     0.123 A 
ATOM      9  C   UNL     1      14.740  11.900   6.551  1.00  0.00     0.094 A 
ATOM     10  C   UNL     1      13.542  12.590   6.347  1.00  0.00     0.146 A 
ATOM     11  O   UNL     1      12.999  12.573   5.135  1.00  0.00    -0.452 OA
ENDROOT
BRANCH   1  12
ATOM     12  C   UNL     1      11.360  13.092   3.445  1.00  0.00     0.025 A 
ATOM     13  C   UNL     1      11.228  11.821   2.865  1.00  0.00     0.016 A 
ATOM     14  C   UNL     1      10.724  11.683   1.569  1.00  0.00     0.051 A 
ATOM     15  C   UNL     1      10.329  12.810   0.840  1.00  0.00     0.157 A 
ATOM     16  C   UNL     1      10.943  14.223   2.719  1.00  0.00     0.062 A 
ATOM     17  C   UNL     1      10.434  14.085   1.418  1.00  0.00     0.158 A 
BRANCH  15  18
ATOM     18  O   UNL     1       9.831  12.641  -0.451  1.00  0.00    -0.504 OA
ATOM     19  H   UNL     1      10.366  12.181  -1.178  1.00  0.00     0.293 HD
ENDBRANCH  15  18
BRANCH  17  20
ATOM     20  O   UNL     1      10.030  15.212   0.703  1.00  0.00    -0.504 OA
ATOM     21  H   UNL     1       9.650  16.028   1.167  1.00  0.00     0.293 HD
ENDBRANCH  17  20
ENDBRANCH   1  12
BRANCH   2  22
ATOM     22  O   UNL     1      10.102  14.747   5.463  1.00  0.00    -0.502 OA
ATOM     23  H   UNL     1       9.418  15.040   6.151  1.00  0.00     0.293 HD
ENDBRANCH   2  22
BRANCH   6  24
ATOM     24  O   UNL     1      12.960  13.794   9.855  1.00  0.00    -0.507 OA
ATOM     25  H   UNL     1      13.156  14.719  10.205  1.00  0.00     0.293 HD
ENDBRANCH   6  24
BRANCH   8  26
ATOM     26  O   UNL     1      16.556  11.232   8.008  1.00  0.00    -0.508 OA
ATOM     27  H   UNL     1      16.831  10.901   8.926  1.00  0.00     0.293 HD
ENDBRANCH   8  26
TORSDOF 6
ENDMDL
MODEL 4
REMARK VINA RESULT:    44.366      2.589      3.067
REMARK INTER + INTRA:          53.705
REMARK INTER:                  53.982
REMARK INTRA:                  -0.278
REMARK UNBOUND:                 0.260
REMARK SMILES O=c1c(O)c(-c2ccc(O)c(O)c2)oc2cc(O)cc(O)c12
REMARK SMILES IDX 5 1 3 2 2 3 1 4 22 5 20 6 19 7 17 8 16 9 15 10 14 11 6 12
REMARK SMILES IDX 7 13 8 14 9 15 13 16 11 17 10 18 12 20 4 22 21 24 18 26
REMARK H PARENT 10 19 12 21 4 23 21 25 18 27
REMARK Flexibility Score: inf
ROOT
ATOM      1  C   UNL     1      10.177  13.373   4.343  1.00  0.00     0.180 A 
ATOM      2  C   UNL     1      10.524  12.181   3.681  1.00  0.00     0.208 A 
ATOM      3  C   UNL     1      10.806  12.222   2.307  1.00  0.00     0.238 A 
ATOM      4  O   UNL     1      11.169  11.163   1.732  1.00  0.00    -0.285 OA
ATOM      5  C   UNL     1      10.722  13.450   1.607  1.00  0.00     0.111 A 
ATOM      6  C   UNL     1      10.949  13.602   0.206  1.00  0.00     0.134 A 
ATOM      7  C   UNL     1      10.966  14.884  -0.357  1.00  0.00     0.093 A 
ATOM      8  C   UNL     1      10.703  16.013   0.418  1.00  0.00     0.123 A 
ATOM      9  C   UNL     1      10.423  15.872   1.777  1.00  0.00     0.094 A 
ATOM     10  C   UNL     1      10.433  14.609   2.374  1.00  0.00     0.146 A 
ATOM     11  O   UNL     1      10.172  14.519   3.673  1.00  0.00    -0.452 OA
ENDROOT
BRANCH   1  12
ATOM     12  C   UNL     1       9.842  13.404   5.785  1.00  0.00     0.025 A 
ATOM     13  C   UNL     1      10.746  13.979   6.691  1.00  0.00     0.016 A 
ATOM     14  C   UNL     1      10.442  14.038   8.054  1.00  0.00     0.051 A 
ATOM     15  C   UNL     1       9.224  13.540   8.528  1.00  0.00     0.157 A 
ATOM     16  C   UNL     1       8.609  12.923   6.261  1.00  0.00     0.062 A 
ATOM     17  C   UNL     1       8.301  12.984   7.628  1.00  0.00     0.158 A 
BRANCH  15  18
ATOM     18  O   UNL     1       8.948  13.612   9.893  1.00  0.00    -0.504 OA
ATOM     19  H   UNL     1       9.063  12.815  10.507  1.00  0.00     0.293 HD
ENDBRANCH  15  18
BRANCH  17  20
ATOM     20  O   UNL     1       7.079  12.498   8.092  1.00  0.00    -0.504 OA
ATOM     21  H   UNL     1       6.914  12.326   9.076  1.00  0.00     0.293 HD
ENDBRANCH  17  20
ENDBRANCH   1  12
BRANCH   2  22
ATOM     22  O   UNL     1      10.622  10.984   4.396  1.00  0.00    -0.502 OA
ATOM     23  H   UNL     1      11.199  10.890   5.224  1.00  0.00     0.293 HD
ENDBRANCH   2  22
BRANCH   6  24
ATOM     24  O   UNL     1      11.130  12.531  -0.675  1.00  0.00    -0.507 OA
ATOM     25  H   UNL     1      11.668  12.572  -1.526  1.00  0.00     0.293 HD
ENDBRANCH   6  24
BRANCH   8  26
ATOM     26  O   UNL     1      10.715  17.273  -0.178  1.00  0.00    -0.508 OA
ATOM     27  H   UNL     1      11.354  17.498  -0.931  1.00  0.00     0.293 HD
ENDBRANCH   8  26
TORSDOF 6
ENDMDL
MODEL 5
REMARK VINA RESULT:    45.041      1.675      2.319
REMARK INTER + INTRA:          54.517
REMARK INTER:                  54.367
REMARK INTRA:                   0.150
REMARK UNBOUND:                 0.260
REMARK SMILES O=c1c(O)c(-c2ccc(O)c(O)c2)oc2cc(O)cc(O)c12
REMARK SMILES IDX 5 1 3 2 2 3 1 4 22 5 20 6 19 7 17 8 16 9 15 10 14 11 6 12
REMARK SMILES IDX 7 13 8 14 9 15 13 16 11 17 10 18 12 20 4 22 21 24 18 26
REMARK H PARENT 10 19 12 21 4 23 21 25 18 27
REMARK Flexibility Score: inf
ROOT
ATOM      1  C   UNL     1      12.084  13.456   4.771  1.00  0.00     0.180 A 
ATOM      2  C   UNL     1      10.731  13.811   4.623  1.00  0.00     0.208 A 
ATOM      3  C   UNL     1      10.190  13.907   3.332  1.00  0.00     0.238 A 
ATOM      4  O   UNL     1       8.966  14.173   3.207  1.00  0.00    -0.285 OA
ATOM      5  C   UNL     1      11.010  13.662   2.203  1.00  0.00     0.111 A 
ATOM      6  C   UNL     1      10.576  13.769   0.848  1.00  0.00     0.134 A 
ATOM      7  C   UNL     1      11.436  13.378  -0.186  1.00  0.00     0.093 A 
ATOM      8  C   UNL     1      12.734  12.945   0.083  1.00  0.00     0.123 A 
ATOM      9  C   UNL     1      13.189  12.892   1.401  1.00  0.00     0.094 A 
ATOM     10  C   UNL     1      12.341  13.242   2.456  1.00  0.00     0.146 A 
ATOM     11  O   UNL     1      12.809  13.168   3.697  1.00  0.00    -0.452 OA
ENDROOT
BRANCH   1  12
ATOM     12  C   UNL     1      12.732  13.358   6.099  1.00  0.00     0.025 A 
ATOM     13  C   UNL     1      12.441  14.317   7.081  1.00  0.00     0.016 A 
ATOM     14  C   UNL     1      13.025  14.233   8.347  1.00  0.00     0.051 A 
ATOM     15  C   UNL     1      13.895  13.182   8.657  1.00  0.00     0.157 A 
ATOM     16  C   UNL     1      13.591  12.290   6.417  1.00  0.00     0.062 A 
ATOM     17  C   UNL     1      14.176  12.203   7.689  1.00  0.00     0.158 A 
BRANCH  15  18
ATOM     18  O   UNL     1      14.464  13.125   9.928  1.00  0.00    -0.504 OA
ATOM     19  H   UNL     1      14.563  13.947  10.510  1.00  0.00     0.293 HD
ENDBRANCH  15  18
BRANCH  17  20
ATOM     20  O   UNL     1      15.031  11.145   7.994  1.00  0.00    -0.504 OA
ATOM     21  H   UNL     1      15.097  10.768   8.932  1.00  0.00     0.293 HD
ENDBRANCH  17  20
ENDBRANCH   1  12
BRANCH   2  22
ATOM     22  O   UNL     1       9.935  14.027   5.751  1.00  0.00    -0.502 OA
ATOM     23  H   UNL     1       8.968  14.325   5.685  1.00  0.00     0.293 HD
ENDBRANCH   2  22
BRANCH   6  24
ATOM     24  O   UNL     1       9.331  14.278   0.465  1.00  0.00    -0.507 OA
ATOM     25  H   UNL     1       8.482  14.183   0.999  1.00  0.00     0.293 HD
ENDBRANCH   6  24
BRANCH   8  26
ATOM     26  O   UNL     1      13.568  12.576  -0.971  1.00  0.00    -0.508 OA
ATOM     27  H   UNL     1      13.201  12.151  -1.814  1.00  0.00     0.293 HD
ENDBRANCH   8  26
TORSDOF 6
ENDMDL
MODEL 6
REMARK VINA RESULT:    45.946      1.869      3.338
REMARK INTER + INTRA:          55.608
REMARK INTER:                  55.591
REMARK INTRA:                   0.017
REMARK UNBOUND:                 0.260
REMARK SMILES O=c1c(O)c(-c2ccc(O)c(O)c2)oc2cc(O)cc(O)c12
REMARK SMILES IDX 5 1 3 2 2 3 1 4 22 5 20 6 19 7 17 8 16 9 15 10 14 11 6 12
REMARK SMILES IDX 7 13 8 14 9 15 13 16 11 17 10 18 12 20 4 22 21 24 18 26
REMARK H PARENT 10 19 12 21 4 23 21 25 18 27
REMARK Flexibility Score: inf
ROOT
ATOM      1  C   UNL     1      12.823  13.136   5.928  1.00  0.00     0.180 A 
ATOM      2  C   UNL     1      11.891  14.093   6.369  1.00  0.00     0.208 A 
ATOM      3  C   UNL     1      10.901  14.540   5.481  1.00  0.00     0.238 A 
ATOM      4  O   UNL     1      10.038  15.356   5.897  1.00  0.00    -0.285 OA
ATOM      5  C   UNL     1      10.863  14.038   4.157  1.00  0.00     0.111 A 
ATOM      6  C   UNL     1       9.928  14.449   3.160  1.00  0.00     0.134 A 
ATOM      7  C   UNL     1       9.901  13.791   1.925  1.00  0.00     0.093 A 
ATOM      8  C   UNL     1      10.815  12.781   1.627  1.00  0.00     0.123 A 
ATOM      9  C   UNL     1      11.771  12.410   2.572  1.00  0.00     0.094 A 
ATOM     10  C   UNL     1      11.800  13.024   3.827  1.00  0.00     0.146 A 
ATOM     11  O   UNL     1      12.720  12.635   4.703  1.00  0.00    -0.452 OA
ENDROOT
BRANCH   1  12
ATOM     12  C   UNL     1      13.910  12.635   6.800  1.00  0.00     0.025 A 
ATOM     13  C   UNL     1      13.598  12.121   8.067  1.00  0.00     0.016 A 
ATOM     14  C   UNL     1      14.605  11.624   8.898  1.00  0.00     0.051 A 
ATOM     15  C   UNL     1      15.936  11.617   8.468  1.00  0.00     0.157 A 
ATOM     16  C   UNL     1      15.246  12.608   6.360  1.00  0.00     0.062 A 
ATOM     17  C   UNL     1      16.259  12.107   7.192  1.00  0.00     0.158 A 
BRANCH  15  18
ATOM     18  O   UNL     1      16.921  11.116   9.319  1.00  0.00    -0.504 OA
ATOM     19  H   UNL     1      16.721  10.853  10.276  1.00  0.00     0.293 HD
ENDBRANCH  15  18
BRANCH  17  20
ATOM     20  O   UNL     1      17.582  12.090   6.751  1.00  0.00    -0.504 OA
ATOM     21  H   UNL     1      18.243  12.806   7.027  1.00  0.00     0.293 HD
ENDBRANCH  17  20
ENDBRANCH   1  12
BRANCH   2  22
ATOM     22  O   UNL     1      11.934  14.559   7.686  1.00  0.00    -0.502 OA
ATOM     23  H   UNL     1      12.355  15.447   7.936  1.00  0.00     0.293 HD
ENDBRANCH   2  22
BRANCH   6  24
ATOM     24  O   UNL     1       9.033  15.511   3.322  1.00  0.00    -0.507 OA
ATOM     25  H   UNL     1       8.793  15.932   4.206  1.00  0.00     0.293 HD
ENDBRANCH   6  24
BRANCH   8  26
ATOM     26  O   UNL     1      10.768  12.157   0.382  1.00  0.00    -0.508 OA
ATOM     27  H   UNL     1      10.629  12.685  -0.471  1.00  0.00     0.293 HD
ENDBRANCH   8  26
TORSDOF 6
ENDMDL
