MODEL 1
REMARK VINA RESULT:    -6.051      0.000      0.000
REMARK INTER + INTRA:         -11.606
REMARK INTER:                  -9.588
REMARK INTRA:                  -2.019
REMARK UNBOUND:                -2.019
REMARK SMILES C[C@H]1O[C@@H](O[C@@H]2CC[C@@]3(C)[C@@H](CC[C@]4(C)[C@H]3C=C[C@@]35OC[C@]6(CCC(C)(C)C[C@@H]63)[C@H](O)C[C@@]45C)[C@]2(C)CO)[C@H](O)[C@H](O[C@H]2O[C@H](CO)[C@H](O)[C@@H](O)[C@@H]2O)[C@H]1O
REMARK SMILES IDX 1 1 2 2 54 3 41 4 39 5 4 6 3 7 55 8 42 10 43 11 52 12 44 13
REMARK SMILES IDX 50 14 45 15 48 16 53 17 51 19 46 21 47 22 49 24 5 26 6 27
REMARK SMILES IDX 7 28 35 29 8 30 11 31 36 32 9 33 12 34 10 35 16 36 13 37
REMARK SMILES IDX 14 38 17 39 15 40 33 41 18 42 19 43 32 44 34 45 29 46 20 47
REMARK SMILES IDX 30 48 22 49 28 50 21 51 23 52 25 53 24 54 26 55 27 56 37 57
REMARK SMILES IDX 38 58 31 60 40 62
REMARK H PARENT 55 9 53 18 51 20 47 23 49 25 38 59 31 61 40 63
REMARK Flexibility Score: inf
ROOT
ATOM      1  C   UNL     1     480.153  37.975 452.483  1.00  0.00     0.041 C 
ATOM      2  C   UNL     1     480.546  39.289 451.667  1.00  0.00     0.150 C 
ATOM      3  C   UNL     1     481.508  39.023 450.480  1.00  0.00     0.175 C 
ATOM      4  C   UNL     1     483.029  39.274 450.850  1.00  0.00     0.186 C 
ATOM      5  C   UNL     1     483.218  39.454 452.367  1.00  0.00     0.202 C 
ATOM      6  C   UNL     1     482.120  40.133 453.213  1.00  0.00     0.282 C 
ATOM      7  O   UNL     1     480.998  40.404 452.382  1.00  0.00    -0.344 OA
ENDROOT
BRANCH   3   8
ATOM      8  O   UNL     1     481.228  37.744 449.914  1.00  0.00    -0.388 OA
ATOM      9  H   UNL     1     480.503  37.278 450.437  1.00  0.00     0.211 HD
ENDBRANCH   3   8
BRANCH   4  10
ATOM     10  O   UNL     1     483.643  40.398 450.223  1.00  0.00    -0.341 OA
BRANCH  10  11
ATOM     11  C   UNL     1     484.571  40.077 449.173  1.00  0.00     0.282 C 
ATOM     12  C   UNL     1     485.033  38.620 449.409  1.00  0.00     0.202 C 
ATOM     13  O   UNL     1     485.653  41.041 449.019  1.00  0.00    -0.341 OA
ATOM     14  C   UNL     1     486.475  38.431 449.755  1.00  0.00     0.179 C 
ATOM     15  C   UNL     1     486.907  40.633 448.457  1.00  0.00     0.178 C 
ATOM     16  C   UNL     1     487.349  39.152 448.696  1.00  0.00     0.177 C 
BRANCH  12  17
ATOM     17  O   UNL     1     484.663  37.718 448.388  1.00  0.00    -0.385 OA
ATOM     18  H   UNL     1     484.199  38.202 447.645  1.00  0.00     0.211 HD
ENDBRANCH  12  17
BRANCH  14  19
ATOM     19  O   UNL     1     486.705  38.986 451.044  1.00  0.00    -0.387 OA
ATOM     20  H   UNL     1     487.428  38.442 451.483  1.00  0.00     0.211 HD
ENDBRANCH  14  19
BRANCH  15  21
ATOM     21  C   UNL     1     487.146  41.237 447.048  1.00  0.00     0.191 C 
BRANCH  21  22
ATOM     22  O   UNL     1     486.330  40.591 446.102  1.00  0.00    -0.394 OA
ATOM     23  H   UNL     1     485.913  39.770 446.503  1.00  0.00     0.210 HD
ENDBRANCH  21  22
ENDBRANCH  15  21
BRANCH  16  24
ATOM     24  O   UNL     1     487.508  38.357 447.525  1.00  0.00    -0.387 OA
ATOM     25  H   UNL     1     487.998  38.955 446.883  1.00  0.00     0.211 HD
ENDBRANCH  16  24
ENDBRANCH  10  11
ENDBRANCH   4  10
BRANCH   6  26
ATOM     26  O   UNL     1     481.833  39.269 454.275  1.00  0.00    -0.346 OA
BRANCH  26  27
ATOM     27  C   UNL     1     482.168  39.663 455.607  1.00  0.00     0.130 C 
ATOM     28  C   UNL     1     483.222  40.831 455.795  1.00  0.00     0.033 C 
ATOM     29  C   UNL     1     482.449  38.542 456.657  1.00  0.00     0.020 C 
ATOM     30  C   UNL     1     483.589  41.124 457.293  1.00  0.00     0.010 C 
ATOM     31  C   UNL     1     482.129  39.139 458.103  1.00  0.00     0.006 C 
ATOM     32  C   UNL     1     481.603  37.290 456.386  1.00  0.00     0.017 C 
ATOM     33  C   UNL     1     482.463  40.679 458.294  1.00  0.00    -0.022 C 
ATOM     34  C   UNL     1     480.874  38.786 458.929  1.00  0.00     0.005 C 
ATOM     35  C   UNL     1     481.275  41.670 457.912  1.00  0.00     0.012 C 
ATOM     36  C   UNL     1     482.903  40.864 459.827  1.00  0.00     0.024 C 
ATOM     37  C   UNL     1     481.105  39.093 460.443  1.00  0.00     0.008 C 
ATOM     38  C   UNL     1     481.740  40.509 460.883  1.00  0.00    -0.017 C 
ATOM     39  C   UNL     1     484.141  39.986 460.107  1.00  0.00    -0.024 C 
ATOM     40  C   UNL     1     480.572  41.564 460.825  1.00  0.00     0.013 C 
ATOM     41  C   UNL     1     482.310  40.480 462.402  1.00  0.00     0.009 C 
ATOM     42  C   UNL     1     484.337  39.345 461.249  1.00  0.00     0.005 C 
ATOM     43  C   UNL     1     483.802  39.885 462.532  1.00  0.00     0.096 C 
ATOM     44  C   UNL     1     482.337  41.886 463.078  1.00  0.00     0.043 C 
ATOM     45  C   UNL     1     481.289  39.641 463.254  1.00  0.00     0.015 C 
ATOM     46  C   UNL     1     484.926  40.787 463.089  1.00  0.00     0.037 C 
ATOM     47  O   UNL     1     483.767  38.865 463.538  1.00  0.00    -0.369 OA
ATOM     48  C   UNL     1     483.159  41.953 464.410  1.00  0.00     0.124 C 
ATOM     49  C   UNL     1     484.419  41.003 464.469  1.00  0.00     0.026 C 
ATOM     50  C   UNL     1     485.596  42.049 462.506  1.00  0.00     0.014 C 
ATOM     51  C   UNL     1     484.058  39.520 464.762  1.00  0.00     0.171 C 
ATOM     52  C   UNL     1     485.501  41.606 465.431  1.00  0.00     0.013 C 
ATOM     53  C   UNL     1     486.892  42.384 463.347  1.00  0.00    -0.035 C 
ATOM     54  C   UNL     1     486.912  41.720 464.769  1.00  0.00     0.007 C 
ATOM     55  C   UNL     1     487.042  43.916 463.497  1.00  0.00     0.011 C 
ATOM     56  C   UNL     1     488.138  41.860 462.605  1.00  0.00     0.011 C 
BRANCH  29  57
ATOM     57  C   UNL     1     483.995  38.034 456.679  1.00  0.00     0.165 C 
BRANCH  57  58
ATOM     58  O   UNL     1     484.343  37.301 457.828  1.00  0.00    -0.396 OA
ATOM     59  H   UNL     1     483.628  37.432 458.498  1.00  0.00     0.210 HD
ENDBRANCH  57  58
ENDBRANCH  29  57
BRANCH  48  60
ATOM     60  O   UNL     1     482.307  41.697 465.516  1.00  0.00    -0.392 OA
ATOM     61  H   UNL     1     482.597  42.286 466.258  1.00  0.00     0.210 HD
ENDBRANCH  48  60
ENDBRANCH  26  27
ENDBRANCH   6  26
BRANCH   5  62
ATOM     62  O   UNL     1     484.483  40.035 452.637  1.00  0.00    -0.385 OA
ATOM     63  H   UNL     1     484.558  40.874 452.115  1.00  0.00     0.211 HD
ENDBRANCH   5  62
TORSDOF 14
ENDMDL
MODEL 2
REMARK VINA RESULT:    -5.935      6.675     11.735
REMARK INTER + INTRA:         -11.423
REMARK INTER:                  -9.761
REMARK INTRA:                  -1.662
REMARK UNBOUND:                -2.019
REMARK SMILES C[C@H]1O[C@@H](O[C@@H]2CC[C@@]3(C)[C@@H](CC[C@]4(C)[C@H]3C=C[C@@]35OC[C@]6(CCC(C)(C)C[C@@H]63)[C@H](O)C[C@@]45C)[C@]2(C)CO)[C@H](O)[C@H](O[C@H]2O[C@H](CO)[C@H](O)[C@@H](O)[C@@H]2O)[C@H]1O
REMARK SMILES IDX 1 1 2 2 54 3 41 4 39 5 4 6 3 7 55 8 42 10 43 11 52 12 44 13
REMARK SMILES IDX 50 14 45 15 48 16 53 17 51 19 46 21 47 22 49 24 5 26 6 27
REMARK SMILES IDX 7 28 35 29 8 30 11 31 36 32 9 33 12 34 10 35 16 36 13 37
REMARK SMILES IDX 14 38 17 39 15 40 33 41 18 42 19 43 32 44 34 45 29 46 20 47
REMARK SMILES IDX 30 48 22 49 28 50 21 51 23 52 25 53 24 54 26 55 27 56 37 57
REMARK SMILES IDX 38 58 31 60 40 62
REMARK H PARENT 55 9 53 18 51 20 47 23 49 25 38 59 31 61 40 63
REMARK Flexibility Score: inf
ROOT
ATOM      1  C   UNL     1     481.546  39.228 465.008  1.00  0.00     0.041 C 
ATOM      2  C   UNL     1     482.241  38.968 463.594  1.00  0.00     0.150 C 
ATOM      3  C   UNL     1     483.666  39.569 463.479  1.00  0.00     0.175 C 
ATOM      4  C   UNL     1     483.681  40.992 462.780  1.00  0.00     0.186 C 
ATOM      5  C   UNL     1     482.258  41.562 462.632  1.00  0.00     0.202 C 
ATOM      6  C   UNL     1     481.064  40.617 462.382  1.00  0.00     0.282 C 
ATOM      7  O   UNL     1     481.520  39.271 462.434  1.00  0.00    -0.344 OA
ENDROOT
BRANCH   3   8
ATOM      8  O   UNL     1     484.315  39.513 464.748  1.00  0.00    -0.388 OA
ATOM      9  H   UNL     1     483.652  39.283 465.472  1.00  0.00     0.211 HD
ENDBRANCH   3   8
BRANCH   4  10
ATOM     10  O   UNL     1     484.281  41.043 461.488  1.00  0.00    -0.341 OA
BRANCH  10  11
ATOM     11  C   UNL     1     483.947  39.948 460.618  1.00  0.00     0.282 C 
ATOM     12  C   UNL     1     485.279  39.347 460.115  1.00  0.00     0.202 C 
ATOM     13  O   UNL     1     482.998  40.291 459.566  1.00  0.00    -0.341 OA
ATOM     14  C   UNL     1     485.555  39.479 458.652  1.00  0.00     0.179 C 
ATOM     15  C   UNL     1     482.982  39.548 458.340  1.00  0.00     0.178 C 
ATOM     16  C   UNL     1     484.339  38.938 457.857  1.00  0.00     0.177 C 
BRANCH  12  17
ATOM     17  O   UNL     1     485.514  38.018 460.529  1.00  0.00    -0.385 OA
ATOM     18  H   UNL     1     484.707  37.451 460.356  1.00  0.00     0.211 HD
ENDBRANCH  12  17
BRANCH  14  19
ATOM     19  O   UNL     1     485.764  40.855 458.356  1.00  0.00    -0.387 OA
ATOM     20  H   UNL     1     486.626  41.131 458.795  1.00  0.00     0.211 HD
ENDBRANCH  14  19
BRANCH  15  21
ATOM     21  C   UNL     1     481.708  38.674 458.198  1.00  0.00     0.191 C 
BRANCH  21  22
ATOM     22  O   UNL     1     481.793  37.556 459.048  1.00  0.00    -0.394 OA
ATOM     23  H   UNL     1     482.733  37.442 459.382  1.00  0.00     0.210 HD
ENDBRANCH  21  22
ENDBRANCH  15  21
BRANCH  16  24
ATOM     24  O   UNL     1     484.376  37.518 457.754  1.00  0.00    -0.387 OA
ATOM     25  H   UNL     1     483.454  37.267 457.446  1.00  0.00     0.211 HD
ENDBRANCH  16  24
ENDBRANCH  10  11
ENDBRANCH   4  10
BRANCH   6  26
ATOM     26  O   UNL     1     480.098  40.918 463.348  1.00  0.00    -0.346 OA
BRANCH  26  27
ATOM     27  C   UNL     1     478.763  41.214 462.933  1.00  0.00     0.130 C 
ATOM     28  C   UNL     1     478.562  42.269 461.768  1.00  0.00     0.033 C 
ATOM     29  C   UNL     1     477.687  41.457 464.039  1.00  0.00     0.020 C 
ATOM     30  C   UNL     1     477.059  42.592 461.452  1.00  0.00     0.010 C 
ATOM     31  C   UNL     1     476.261  41.096 463.416  1.00  0.00     0.006 C 
ATOM     32  C   UNL     1     477.963  40.613 465.290  1.00  0.00     0.017 C 
ATOM     33  C   UNL     1     476.085  41.433 461.875  1.00  0.00    -0.022 C 
ATOM     34  C   UNL     1     475.469  39.815 463.749  1.00  0.00     0.005 C 
ATOM     35  C   UNL     1     476.519  40.263 460.884  1.00  0.00     0.012 C 
ATOM     36  C   UNL     1     474.543  41.827 461.667  1.00  0.00     0.024 C 
ATOM     37  C   UNL     1     473.953  40.002 463.417  1.00  0.00     0.008 C 
ATOM     38  C   UNL     1     473.517  40.630 461.998  1.00  0.00    -0.017 C 
ATOM     39  C   UNL     1     474.210  43.051 462.546  1.00  0.00    -0.024 C 
ATOM     40  C   UNL     1     473.628  39.470 460.938  1.00  0.00     0.013 C 
ATOM     41  C   UNL     1     471.981  41.154 462.006  1.00  0.00     0.009 C 
ATOM     42  C   UNL     1     473.053  43.209 463.170  1.00  0.00     0.005 C 
ATOM     43  C   UNL     1     471.796  42.637 462.606  1.00  0.00     0.096 C 
ATOM     44  C   UNL     1     471.328  41.168 460.588  1.00  0.00     0.043 C 
ATOM     45  C   UNL     1     471.148  40.103 462.825  1.00  0.00     0.015 C 
ATOM     46  C   UNL     1     471.220  43.749 461.701  1.00  0.00     0.037 C 
ATOM     47  O   UNL     1     470.775  42.566 463.608  1.00  0.00    -0.369 OA
ATOM     48  C   UNL     1     469.973  41.949 460.503  1.00  0.00     0.124 C 
ATOM     49  C   UNL     1     469.859  43.201 461.459  1.00  0.00     0.026 C 
ATOM     50  C   UNL     1     471.802  44.444 460.451  1.00  0.00     0.014 C 
ATOM     51  C   UNL     1     469.553  42.823 462.935  1.00  0.00     0.171 C 
ATOM     52  C   UNL     1     468.875  44.257 460.846  1.00  0.00     0.013 C 
ATOM     53  C   UNL     1     470.928  45.715 460.110  1.00  0.00    -0.035 C 
ATOM     54  C   UNL     1     469.495  45.689 460.750  1.00  0.00     0.007 C 
ATOM     55  C   UNL     1     470.798  45.870 458.577  1.00  0.00     0.011 C 
ATOM     56  C   UNL     1     471.622  46.980 460.653  1.00  0.00     0.011 C 
BRANCH  29  57
ATOM     57  C   UNL     1     477.609  42.999 464.554  1.00  0.00     0.165 C 
BRANCH  57  58
ATOM     58  O   UNL     1     478.842  43.526 464.978  1.00  0.00    -0.396 OA
ATOM     59  H   UNL     1     479.182  44.116 464.260  1.00  0.00     0.210 HD
ENDBRANCH  57  58
ENDBRANCH  29  57
BRANCH  48  60
ATOM     60  O   UNL     1     468.889  41.062 460.737  1.00  0.00    -0.392 OA
ATOM     61  H   UNL     1     468.402  41.392 461.535  1.00  0.00     0.210 HD
ENDBRANCH  48  60
ENDBRANCH  26  27
ENDBRANCH   6  26
BRANCH   5  62
ATOM     62  O   UNL     1     482.254  42.628 461.697  1.00  0.00    -0.385 OA
ATOM     63  H   UNL     1     481.317  42.795 461.421  1.00  0.00     0.211 HD
ENDBRANCH   5  62
TORSDOF 14
ENDMDL
MODEL 3
REMARK VINA RESULT:    -5.867      5.785     11.055
REMARK INTER + INTRA:         -11.316
REMARK INTER:                  -9.706
REMARK INTRA:                  -1.610
REMARK UNBOUND:                -2.019
REMARK SMILES C[C@H]1O[C@@H](O[C@@H]2CC[C@@]3(C)[C@@H](CC[C@]4(C)[C@H]3C=C[C@@]35OC[C@]6(CCC(C)(C)C[C@@H]63)[C@H](O)C[C@@]45C)[C@]2(C)CO)[C@H](O)[C@H](O[C@H]2O[C@H](CO)[C@H](O)[C@@H](O)[C@@H]2O)[C@H]1O
REMARK SMILES IDX 1 1 2 2 54 3 41 4 39 5 4 6 3 7 55 8 42 10 43 11 52 12 44 13
REMARK SMILES IDX 50 14 45 15 48 16 53 17 51 19 46 21 47 22 49 24 5 26 6 27
REMARK SMILES IDX 7 28 35 29 8 30 11 31 36 32 9 33 12 34 10 35 16 36 13 37
REMARK SMILES IDX 14 38 17 39 15 40 33 41 18 42 19 43 32 44 34 45 29 46 20 47
REMARK SMILES IDX 30 48 22 49 28 50 21 51 23 52 25 53 24 54 26 55 27 56 37 57
REMARK SMILES IDX 38 58 31 60 40 62
REMARK H PARENT 55 9 53 18 51 20 47 23 49 25 38 59 31 61 40 63
REMARK Flexibility Score: inf
ROOT
ATOM      1  C   UNL     1     483.348  39.500 457.886  1.00  0.00     0.041 C 
ATOM      2  C   UNL     1     484.009  40.568 458.873  1.00  0.00     0.150 C 
ATOM      3  C   UNL     1     485.411  40.156 459.391  1.00  0.00     0.175 C 
ATOM      4  C   UNL     1     485.362  39.459 460.814  1.00  0.00     0.186 C 
ATOM      5  C   UNL     1     483.919  39.107 461.221  1.00  0.00     0.202 C 
ATOM      6  C   UNL     1     482.746  40.014 460.790  1.00  0.00     0.282 C 
ATOM      7  O   UNL     1     483.244  41.043 459.944  1.00  0.00    -0.344 OA
ENDROOT
BRANCH   3   8
ATOM      8  O   UNL     1     486.098  39.418 458.382  1.00  0.00    -0.388 OA
ATOM      9  H   UNL     1     487.077  39.662 458.374  1.00  0.00     0.211 HD
ENDBRANCH   3   8
BRANCH   4  10
ATOM     10  O   UNL     1     485.922  40.207 461.891  1.00  0.00    -0.341 OA
BRANCH  10  11
ATOM     11  C   UNL     1     486.144  41.600 461.613  1.00  0.00     0.282 C 
ATOM     12  C   UNL     1     487.406  42.022 462.401  1.00  0.00     0.202 C 
ATOM     13  O   UNL     1     484.978  42.446 461.834  1.00  0.00    -0.341 OA
ATOM     14  C   UNL     1     487.200  43.017 463.497  1.00  0.00     0.179 C 
ATOM     15  C   UNL     1     485.144  43.835 462.146  1.00  0.00     0.178 C 
ATOM     16  C   UNL     1     486.434  44.241 462.932  1.00  0.00     0.177 C 
BRANCH  12  17
ATOM     17  O   UNL     1     488.495  42.416 461.594  1.00  0.00    -0.385 OA
ATOM     18  H   UNL     1     489.180  41.687 461.550  1.00  0.00     0.211 HD
ENDBRANCH  12  17
BRANCH  14  19
ATOM     19  O   UNL     1     486.445  42.398 464.531  1.00  0.00    -0.387 OA
ATOM     20  H   UNL     1     485.472  42.533 464.318  1.00  0.00     0.211 HD
ENDBRANCH  14  19
BRANCH  15  21
ATOM     21  C   UNL     1     484.687  44.758 460.985  1.00  0.00     0.191 C 
BRANCH  21  22
ATOM     22  O   UNL     1     484.137  43.988 459.945  1.00  0.00    -0.394 OA
ATOM     23  H   UNL     1     483.379  44.481 459.508  1.00  0.00     0.210 HD
ENDBRANCH  21  22
ENDBRANCH  15  21
BRANCH  16  24
ATOM     24  O   UNL     1     487.312  45.138 462.258  1.00  0.00    -0.387 OA
ATOM     25  H   UNL     1     488.212  44.959 462.667  1.00  0.00     0.211 HD
ENDBRANCH  16  24
ENDBRANCH  10  11
ENDBRANCH   4  10
BRANCH   6  26
ATOM     26  O   UNL     1     481.801  39.189 460.171  1.00  0.00    -0.346 OA
BRANCH  26  27
ATOM     27  C   UNL     1     480.435  39.606 460.123  1.00  0.00     0.130 C 
ATOM     28  C   UNL     1     479.798  40.221 461.437  1.00  0.00     0.033 C 
ATOM     29  C   UNL     1     479.400  38.652 459.446  1.00  0.00     0.020 C 
ATOM     30  C   UNL     1     478.271  40.559 461.306  1.00  0.00     0.010 C 
ATOM     31  C   UNL     1     478.187  39.548 458.918  1.00  0.00     0.006 C 
ATOM     32  C   UNL     1     480.031  37.860 458.294  1.00  0.00     0.017 C 
ATOM     33  C   UNL     1     477.826  40.805 459.820  1.00  0.00    -0.022 C 
ATOM     34  C   UNL     1     477.952  39.903 457.436  1.00  0.00     0.005 C 
ATOM     35  C   UNL     1     478.622  42.136 459.455  1.00  0.00     0.012 C 
ATOM     36  C   UNL     1     476.240  41.021 459.686  1.00  0.00     0.024 C 
ATOM     37  C   UNL     1     476.464  40.315 457.197  1.00  0.00     0.008 C 
ATOM     38  C   UNL     1     475.757  41.371 458.189  1.00  0.00    -0.017 C 
ATOM     39  C   UNL     1     475.513  39.753 460.181  1.00  0.00    -0.024 C 
ATOM     40  C   UNL     1     476.248  42.802 457.749  1.00  0.00     0.013 C 
ATOM     41  C   UNL     1     474.140  41.339 458.069  1.00  0.00     0.009 C 
ATOM     42  C   UNL     1     474.412  39.278 459.619  1.00  0.00     0.005 C 
ATOM     43  C   UNL     1     473.438  40.189 458.953  1.00  0.00     0.096 C 
ATOM     44  C   UNL     1     473.464  42.684 458.479  1.00  0.00     0.043 C 
ATOM     45  C   UNL     1     473.802  41.165 456.543  1.00  0.00     0.015 C 
ATOM     46  C   UNL     1     472.444  40.597 460.064  1.00  0.00     0.037 C 
ATOM     47  O   UNL     1     472.567  39.456 458.084  1.00  0.00    -0.369 OA
ATOM     48  C   UNL     1     471.912  42.601 458.675  1.00  0.00     0.124 C 
ATOM     49  C   UNL     1     471.380  41.224 459.237  1.00  0.00     0.026 C 
ATOM     50  C   UNL     1     472.663  41.340 461.399  1.00  0.00     0.014 C 
ATOM     51  C   UNL     1     471.308  40.106 458.160  1.00  0.00     0.171 C 
ATOM     52  C   UNL     1     470.043  41.447 460.027  1.00  0.00     0.013 C 
ATOM     53  C   UNL     1     471.359  41.213 462.284  1.00  0.00    -0.035 C 
ATOM     54  C   UNL     1     470.074  40.838 461.465  1.00  0.00     0.007 C 
ATOM     55  C   UNL     1     471.110  42.535 463.047  1.00  0.00     0.011 C 
ATOM     56  C   UNL     1     471.551  40.096 463.328  1.00  0.00     0.011 C 
BRANCH  29  57
ATOM     57  C   UNL     1     478.771  37.541 460.455  1.00  0.00     0.165 C 
BRANCH  57  58
ATOM     58  O   UNL     1     478.777  36.231 459.943  1.00  0.00    -0.396 OA
ATOM     59  H   UNL     1     479.318  36.232 459.115  1.00  0.00     0.210 HD
ENDBRANCH  57  58
ENDBRANCH  29  57
BRANCH  48  60
ATOM     60  O   UNL     1     471.254  42.912 457.456  1.00  0.00    -0.392 OA
ATOM     61  H   UNL     1     470.850  43.812 457.558  1.00  0.00     0.210 HD
ENDBRANCH  48  60
ENDBRANCH  26  27
ENDBRANCH   6  26
BRANCH   5  62
ATOM     62  O   UNL     1     483.855  38.838 462.612  1.00  0.00    -0.385 OA
ATOM     63  H   UNL     1     484.189  39.634 463.098  1.00  0.00     0.211 HD
ENDBRANCH   5  62
TORSDOF 14
ENDMDL
MODEL 4
REMARK VINA RESULT:    -5.832      6.113     11.810
REMARK INTER + INTRA:         -11.260
REMARK INTER:                  -8.933
REMARK INTRA:                  -2.327
REMARK UNBOUND:                -2.019
REMARK SMILES C[C@H]1O[C@@H](O[C@@H]2CC[C@@]3(C)[C@@H](CC[C@]4(C)[C@H]3C=C[C@@]35OC[C@]6(CCC(C)(C)C[C@@H]63)[C@H](O)C[C@@]45C)[C@]2(C)CO)[C@H](O)[C@H](O[C@H]2O[C@H](CO)[C@H](O)[C@@H](O)[C@@H]2O)[C@H]1O
REMARK SMILES IDX 1 1 2 2 54 3 41 4 39 5 4 6 3 7 55 8 42 10 43 11 52 12 44 13
REMARK SMILES IDX 50 14 45 15 48 16 53 17 51 19 46 21 47 22 49 24 5 26 6 27
REMARK SMILES IDX 7 28 35 29 8 30 11 31 36 32 9 33 12 34 10 35 16 36 13 37
REMARK SMILES IDX 14 38 17 39 15 40 33 41 18 42 19 43 32 44 34 45 29 46 20 47
REMARK SMILES IDX 30 48 22 49 28 50 21 51 23 52 25 53 24 54 26 55 27 56 37 57
REMARK SMILES IDX 38 58 31 60 40 62
REMARK H PARENT 55 9 53 18 51 20 47 23 49 25 38 59 31 61 40 63
REMARK Flexibility Score: inf
ROOT
ATOM      1  C   UNL     1     482.192  37.662 455.982  1.00  0.00     0.041 C 
ATOM      2  C   UNL     1     483.522  38.544 456.001  1.00  0.00     0.150 C 
ATOM      3  C   UNL     1     484.262  38.529 457.364  1.00  0.00     0.175 C 
ATOM      4  C   UNL     1     483.896  39.771 458.278  1.00  0.00     0.186 C 
ATOM      5  C   UNL     1     482.691  40.549 457.717  1.00  0.00     0.202 C 
ATOM      6  C   UNL     1     482.473  40.651 456.193  1.00  0.00     0.282 C 
ATOM      7  O   UNL     1     483.453  39.860 455.531  1.00  0.00    -0.344 OA
ENDROOT
BRANCH   3   8
ATOM      8  O   UNL     1     484.099  37.255 457.985  1.00  0.00    -0.388 OA
ATOM      9  H   UNL     1     483.808  37.365 458.943  1.00  0.00     0.211 HD
ENDBRANCH   3   8
BRANCH   4  10
ATOM     10  O   UNL     1     484.939  40.720 458.482  1.00  0.00    -0.341 OA
BRANCH  10  11
ATOM     11  C   UNL     1     485.490  40.744 459.810  1.00  0.00     0.282 C 
ATOM     12  C   UNL     1     484.538  39.921 460.708  1.00  0.00     0.202 C 
ATOM     13  O   UNL     1     485.792  42.080 460.307  1.00  0.00    -0.341 OA
ATOM     14  C   UNL     1     483.815  40.677 461.775  1.00  0.00     0.179 C 
ATOM     15  C   UNL     1     485.804  42.339 461.717  1.00  0.00     0.178 C 
ATOM     16  C   UNL     1     484.843  41.486 462.609  1.00  0.00     0.177 C 
BRANCH  12  17
ATOM     17  O   UNL     1     485.115  38.754 461.256  1.00  0.00    -0.385 OA
ATOM     18  H   UNL     1     484.578  38.433 462.038  1.00  0.00     0.211 HD
ENDBRANCH  12  17
BRANCH  14  19
ATOM     19  O   UNL     1     482.886  41.556 461.153  1.00  0.00    -0.387 OA
ATOM     20  H   UNL     1     483.149  42.496 461.396  1.00  0.00     0.211 HD
ENDBRANCH  14  19
BRANCH  15  21
ATOM     21  C   UNL     1     487.235  42.608 462.254  1.00  0.00     0.191 C 
BRANCH  21  22
ATOM     22  O   UNL     1     487.936  41.396 462.387  1.00  0.00    -0.394 OA
ATOM     23  H   UNL     1     488.542  41.253 461.599  1.00  0.00     0.210 HD
ENDBRANCH  21  22
ENDBRANCH  15  21
BRANCH  16  24
ATOM     24  O   UNL     1     485.473  40.669 463.590  1.00  0.00    -0.387 OA
ATOM     25  H   UNL     1     484.832  39.908 463.730  1.00  0.00     0.211 HD
ENDBRANCH  16  24
ENDBRANCH  10  11
ENDBRANCH   4  10
BRANCH   6  26
ATOM     26  O   UNL     1     481.160  40.239 455.942  1.00  0.00    -0.346 OA
BRANCH  26  27
ATOM     27  C   UNL     1     480.268  41.123 455.260  1.00  0.00     0.130 C 
ATOM     28  C   UNL     1     480.839  41.969 454.049  1.00  0.00     0.033 C 
ATOM     29  C   UNL     1     479.329  42.026 456.121  1.00  0.00     0.020 C 
ATOM     30  C   UNL     1     479.806  42.975 453.429  1.00  0.00     0.010 C 
ATOM     31  C   UNL     1     478.044  42.373 455.237  1.00  0.00     0.006 C 
ATOM     32  C   UNL     1     478.918  41.332 457.426  1.00  0.00     0.017 C 
ATOM     33  C   UNL     1     478.315  42.549 453.682  1.00  0.00    -0.022 C 
ATOM     34  C   UNL     1     476.653  41.738 455.441  1.00  0.00     0.005 C 
ATOM     35  C   UNL     1     478.209  41.204 452.833  1.00  0.00     0.012 C 
ATOM     36  C   UNL     1     477.269  43.650 453.159  1.00  0.00     0.024 C 
ATOM     37  C   UNL     1     475.540  42.633 454.808  1.00  0.00     0.008 C 
ATOM     38  C   UNL     1     475.728  43.206 453.313  1.00  0.00    -0.017 C 
ATOM     39  C   UNL     1     477.505  44.972 453.918  1.00  0.00    -0.024 C 
ATOM     40  C   UNL     1     475.371  42.028 452.330  1.00  0.00     0.013 C 
ATOM     41  C   UNL     1     474.724  44.441 452.998  1.00  0.00     0.009 C 
ATOM     42  C   UNL     1     476.527  45.782 454.292  1.00  0.00     0.005 C 
ATOM     43  C   UNL     1     475.264  45.871 453.506  1.00  0.00     0.096 C 
ATOM     44  C   UNL     1     474.406  44.604 451.479  1.00  0.00     0.043 C 
ATOM     45  C   UNL     1     473.346  44.085 453.664  1.00  0.00     0.015 C 
ATOM     46  C   UNL     1     475.512  46.992 452.472  1.00  0.00     0.037 C 
ATOM     47  O   UNL     1     474.220  46.467 454.285  1.00  0.00    -0.369 OA
ATOM     48  C   UNL     1     473.703  45.953 451.102  1.00  0.00     0.124 C 
ATOM     49  C   UNL     1     474.124  47.197 451.978  1.00  0.00     0.026 C 
ATOM     50  C   UNL     1     476.559  47.119 451.344  1.00  0.00     0.014 C 
ATOM     51  C   UNL     1     473.441  47.226 453.375  1.00  0.00     0.171 C 
ATOM     52  C   UNL     1     473.958  48.518 451.151  1.00  0.00     0.013 C 
ATOM     53  C   UNL     1     476.556  48.602 450.798  1.00  0.00    -0.035 C 
ATOM     54  C   UNL     1     475.248  49.400 451.139  1.00  0.00     0.007 C 
ATOM     55  C   UNL     1     476.767  48.600 449.266  1.00  0.00     0.011 C 
ATOM     56  C   UNL     1     477.722  49.387 451.432  1.00  0.00     0.011 C 
BRANCH  29  57
ATOM     57  C   UNL     1     480.001  43.440 456.565  1.00  0.00     0.165 C 
BRANCH  57  58
ATOM     58  O   UNL     1     480.360  43.505 457.924  1.00  0.00    -0.396 OA
ATOM     59  H   UNL     1     481.015  44.239 458.028  1.00  0.00     0.210 HD
ENDBRANCH  57  58
ENDBRANCH  29  57
BRANCH  48  60
ATOM     60  O   UNL     1     472.294  45.789 451.140  1.00  0.00    -0.392 OA
ATOM     61  H   UNL     1     472.109  44.821 451.247  1.00  0.00     0.210 HD
ENDBRANCH  48  60
ENDBRANCH  26  27
ENDBRANCH   6  26
BRANCH   5  62
ATOM     62  O   UNL     1     482.615  41.831 458.318  1.00  0.00    -0.385 OA
ATOM     63  H   UNL     1     483.276  42.422 457.875  1.00  0.00     0.211 HD
ENDBRANCH   5  62
TORSDOF 14
ENDMDL
MODEL 5
REMARK VINA RESULT:    -5.806      6.339     11.955
REMARK INTER + INTRA:         -11.219
REMARK INTER:                  -9.518
REMARK INTRA:                  -1.701
REMARK UNBOUND:                -2.019
REMARK SMILES C[C@H]1O[C@@H](O[C@@H]2CC[C@@]3(C)[C@@H](CC[C@]4(C)[C@H]3C=C[C@@]35OC[C@]6(CCC(C)(C)C[C@@H]63)[C@H](O)C[C@@]45C)[C@]2(C)CO)[C@H](O)[C@H](O[C@H]2O[C@H](CO)[C@H](O)[C@@H](O)[C@@H]2O)[C@H]1O
REMARK SMILES IDX 1 1 2 2 54 3 41 4 39 5 4 6 3 7 55 8 42 10 43 11 52 12 44 13
REMARK SMILES IDX 50 14 45 15 48 16 53 17 51 19 46 21 47 22 49 24 5 26 6 27
REMARK SMILES IDX 7 28 35 29 8 30 11 31 36 32 9 33 12 34 10 35 16 36 13 37
REMARK SMILES IDX 14 38 17 39 15 40 33 41 18 42 19 43 32 44 34 45 29 46 20 47
REMARK SMILES IDX 30 48 22 49 28 50 21 51 23 52 25 53 24 54 26 55 27 56 37 57
REMARK SMILES IDX 38 58 31 60 40 62
REMARK H PARENT 55 9 53 18 51 20 47 23 49 25 38 59 31 61 40 63
REMARK Flexibility Score: inf
ROOT
ATOM      1  C   UNL     1     481.238  41.080 465.730  1.00  0.00     0.041 C 
ATOM      2  C   UNL     1     482.029  39.761 465.299  1.00  0.00     0.150 C 
ATOM      3  C   UNL     1     483.253  40.037 464.388  1.00  0.00     0.175 C 
ATOM      4  C   UNL     1     482.925  39.870 462.846  1.00  0.00     0.186 C 
ATOM      5  C   UNL     1     481.410  39.745 462.602  1.00  0.00     0.202 C 
ATOM      6  C   UNL     1     480.510  39.041 463.639  1.00  0.00     0.282 C 
ATOM      7  O   UNL     1     481.297  38.692 464.773  1.00  0.00    -0.344 OA
ENDROOT
BRANCH   3   8
ATOM      8  O   UNL     1     483.847  41.284 464.747  1.00  0.00    -0.388 OA
ATOM      9  H   UNL     1     484.525  41.152 465.481  1.00  0.00     0.211 HD
ENDBRANCH   3   8
BRANCH   4  10
ATOM     10  O   UNL     1     483.539  38.758 462.198  1.00  0.00    -0.341 OA
BRANCH  10  11
ATOM     11  C   UNL     1     484.264  39.078 460.998  1.00  0.00     0.282 C 
ATOM     12  C   UNL     1     484.699  40.557 461.113  1.00  0.00     0.202 C 
ATOM     13  O   UNL     1     483.556  38.745 459.768  1.00  0.00    -0.341 OA
ATOM     14  C   UNL     1     484.088  41.505 460.133  1.00  0.00     0.179 C 
ATOM     15  C   UNL     1     483.840  39.460 458.559  1.00  0.00     0.178 C 
ATOM     16  C   UNL     1     484.291  40.951 458.698  1.00  0.00     0.177 C 
BRANCH  12  17
ATOM     17  O   UNL     1     486.096  40.753 461.162  1.00  0.00    -0.385 OA
ATOM     18  H   UNL     1     486.477  40.346 461.994  1.00  0.00     0.211 HD
ENDBRANCH  12  17
BRANCH  14  19
ATOM     19  O   UNL     1     482.700  41.620 460.424  1.00  0.00    -0.387 OA
ATOM     20  H   UNL     1     482.528  42.569 460.708  1.00  0.00     0.211 HD
ENDBRANCH  14  19
BRANCH  15  21
ATOM     21  C   UNL     1     484.576  38.580 457.513  1.00  0.00     0.191 C 
BRANCH  21  22
ATOM     22  O   UNL     1     484.598  37.240 457.941  1.00  0.00    -0.394 OA
ATOM     23  H   UNL     1     484.492  36.621 457.157  1.00  0.00     0.210 HD
ENDBRANCH  21  22
ENDBRANCH  15  21
BRANCH  16  24
ATOM     24  O   UNL     1     485.592  41.252 458.205  1.00  0.00    -0.387 OA
ATOM     25  H   UNL     1     486.215  40.826 458.868  1.00  0.00     0.211 HD
ENDBRANCH  16  24
ENDBRANCH  10  11
ENDBRANCH   4  10
BRANCH   6  26
ATOM     26  O   UNL     1     479.465  39.921 463.936  1.00  0.00    -0.346 OA
BRANCH  26  27
ATOM     27  C   UNL     1     478.253  39.846 463.182  1.00  0.00     0.130 C 
ATOM     28  C   UNL     1     477.940  38.500 462.408  1.00  0.00     0.033 C 
ATOM     29  C   UNL     1     477.875  41.061 462.276  1.00  0.00     0.020 C 
ATOM     30  C   UNL     1     476.634  38.553 461.538  1.00  0.00     0.010 C 
ATOM     31  C   UNL     1     476.287  41.061 462.103  1.00  0.00     0.006 C 
ATOM     32  C   UNL     1     478.356  42.387 462.880  1.00  0.00     0.017 C 
ATOM     33  C   UNL     1     475.607  39.628 462.046  1.00  0.00    -0.022 C 
ATOM     34  C   UNL     1     475.337  42.046 462.816  1.00  0.00     0.005 C 
ATOM     35  C   UNL     1     475.187  39.035 463.465  1.00  0.00     0.012 C 
ATOM     36  C   UNL     1     474.336  39.763 461.074  1.00  0.00     0.024 C 
ATOM     37  C   UNL     1     473.971  42.137 462.063  1.00  0.00     0.008 C 
ATOM     38  C   UNL     1     473.214  40.786 461.613  1.00  0.00    -0.017 C 
ATOM     39  C   UNL     1     474.814  40.209 459.676  1.00  0.00    -0.024 C 
ATOM     40  C   UNL     1     472.494  40.224 462.896  1.00  0.00     0.013 C 
ATOM     41  C   UNL     1     472.080  41.065 460.486  1.00  0.00     0.009 C 
ATOM     42  C   UNL     1     474.138  41.050 458.909  1.00  0.00     0.005 C 
ATOM     43  C   UNL     1     472.651  41.127 458.981  1.00  0.00     0.096 C 
ATOM     44  C   UNL     1     470.941  39.998 460.481  1.00  0.00     0.043 C 
ATOM     45  C   UNL     1     471.371  42.411 460.880  1.00  0.00     0.015 C 
ATOM     46  C   UNL     1     472.144  40.102 457.941  1.00  0.00     0.037 C 
ATOM     47  O   UNL     1     472.175  42.344 458.396  1.00  0.00    -0.369 OA
ATOM     48  C   UNL     1     470.005  40.049 459.226  1.00  0.00     0.124 C 
ATOM     49  C   UNL     1     470.710  40.487 457.882  1.00  0.00     0.026 C 
ATOM     50  C   UNL     1     472.346  38.575 457.840  1.00  0.00     0.014 C 
ATOM     51  C   UNL     1     470.940  42.021 457.779  1.00  0.00     0.171 C 
ATOM     52  C   UNL     1     469.960  39.862 456.654  1.00  0.00     0.013 C 
ATOM     53  C   UNL     1     471.871  38.083 456.415  1.00  0.00    -0.035 C 
ATOM     54  C   UNL     1     470.910  39.086 455.687  1.00  0.00     0.007 C 
ATOM     55  C   UNL     1     471.175  36.707 456.537  1.00  0.00     0.011 C 
ATOM     56  C   UNL     1     473.096  37.909 455.495  1.00  0.00     0.011 C 
BRANCH  29  57
ATOM     57  C   UNL     1     478.520  40.995 460.784  1.00  0.00     0.165 C 
BRANCH  57  58
ATOM     58  O   UNL     1     479.668  41.791 460.617  1.00  0.00    -0.396 OA
ATOM     59  H   UNL     1     480.421  41.191 460.390  1.00  0.00     0.210 HD
ENDBRANCH  57  58
ENDBRANCH  29  57
BRANCH  48  60
ATOM     60  O   UNL     1     468.894  40.893 459.487  1.00  0.00    -0.392 OA
ATOM     61  H   UNL     1     469.235  41.698 459.954  1.00  0.00     0.210 HD
ENDBRANCH  48  60
ENDBRANCH  26  27
ENDBRANCH   6  26
BRANCH   5  62
ATOM     62  O   UNL     1     481.165  39.233 461.302  1.00  0.00    -0.385 OA
ATOM     63  H   UNL     1     481.927  39.485 460.720  1.00  0.00     0.211 HD
ENDBRANCH   5  62
TORSDOF 14
ENDMDL
MODEL 6
REMARK VINA RESULT:    -5.760      6.132     12.741
REMARK INTER + INTRA:         -11.146
REMARK INTER:                  -9.569
REMARK INTRA:                  -1.577
REMARK UNBOUND:                -2.019
REMARK SMILES C[C@H]1O[C@@H](O[C@@H]2CC[C@@]3(C)[C@@H](CC[C@]4(C)[C@H]3C=C[C@@]35OC[C@]6(CCC(C)(C)C[C@@H]63)[C@H](O)C[C@@]45C)[C@]2(C)CO)[C@H](O)[C@H](O[C@H]2O[C@H](CO)[C@H](O)[C@@H](O)[C@@H]2O)[C@H]1O
REMARK SMILES IDX 1 1 2 2 54 3 41 4 39 5 4 6 3 7 55 8 42 10 43 11 52 12 44 13
REMARK SMILES IDX 50 14 45 15 48 16 53 17 51 19 46 21 47 22 49 24 5 26 6 27
REMARK SMILES IDX 7 28 35 29 8 30 11 31 36 32 9 33 12 34 10 35 16 36 13 37
REMARK SMILES IDX 14 38 17 39 15 40 33 41 18 42 19 43 32 44 34 45 29 46 20 47
REMARK SMILES IDX 30 48 22 49 28 50 21 51 23 52 25 53 24 54 26 55 27 56 37 57
REMARK SMILES IDX 38 58 31 60 40 62
REMARK H PARENT 55 9 53 18 51 20 47 23 49 25 38 59 31 61 40 63
REMARK Flexibility Score: inf
ROOT
ATOM      1  C   UNL     1     482.337  40.283 450.770  1.00  0.00     0.041 C 
ATOM      2  C   UNL     1     482.438  41.168 452.094  1.00  0.00     0.150 C 
ATOM      3  C   UNL     1     483.277  40.512 453.221  1.00  0.00     0.175 C 
ATOM      4  C   UNL     1     482.387  39.737 454.281  1.00  0.00     0.186 C 
ATOM      5  C   UNL     1     480.935  39.585 453.794  1.00  0.00     0.202 C 
ATOM      6  C   UNL     1     480.283  40.688 452.933  1.00  0.00     0.282 C 
ATOM      7  O   UNL     1     481.258  41.683 452.641  1.00  0.00    -0.344 OA
ENDROOT
BRANCH   3   8
ATOM      8  O   UNL     1     484.336  39.747 452.649  1.00  0.00    -0.388 OA
ATOM      9  H   UNL     1     484.965  40.345 452.136  1.00  0.00     0.211 HD
ENDBRANCH   3   8
BRANCH   4  10
ATOM     10  O   UNL     1     482.326  40.316 455.582  1.00  0.00    -0.341 OA
BRANCH  10  11
ATOM     11  C   UNL     1     483.202  39.721 456.555  1.00  0.00     0.282 C 
ATOM     12  C   UNL     1     482.513  38.429 457.051  1.00  0.00     0.202 C 
ATOM     13  O   UNL     1     483.624  40.631 457.612  1.00  0.00    -0.341 OA
ATOM     14  C   UNL     1     482.092  38.412 458.485  1.00  0.00     0.179 C 
ATOM     15  C   UNL     1     484.001  40.117 458.896  1.00  0.00     0.178 C 
ATOM     16  C   UNL     1     483.302  38.801 459.373  1.00  0.00     0.177 C 
BRANCH  12  17
ATOM     17  O   UNL     1     483.209  37.240 456.742  1.00  0.00    -0.385 OA
ATOM     18  H   UNL     1     483.869  37.024 457.465  1.00  0.00     0.211 HD
ENDBRANCH  12  17
BRANCH  14  19
ATOM     19  O   UNL     1     481.035  39.349 458.655  1.00  0.00    -0.387 OA
ATOM     20  H   UNL     1     480.412  39.247 457.872  1.00  0.00     0.211 HD
ENDBRANCH  14  19
BRANCH  15  21
ATOM     21  C   UNL     1     485.523  40.261 459.165  1.00  0.00     0.191 C 
BRANCH  21  22
ATOM     22  O   UNL     1     486.240  39.335 458.387  1.00  0.00    -0.394 OA
ATOM     23  H   UNL     1     486.203  38.423 458.806  1.00  0.00     0.210 HD
ENDBRANCH  21  22
ENDBRANCH  15  21
BRANCH  16  24
ATOM     24  O   UNL     1     484.163  37.689 459.595  1.00  0.00    -0.387 OA
ATOM     25  H   UNL     1     484.613  37.892 460.469  1.00  0.00     0.211 HD
ENDBRANCH  16  24
ENDBRANCH  10  11
ENDBRANCH   4  10
BRANCH   6  26
ATOM     26  O   UNL     1     479.766  40.062 451.794  1.00  0.00    -0.346 OA
BRANCH  26  27
ATOM     27  C   UNL     1     478.451  39.503 451.840  1.00  0.00     0.130 C 
ATOM     28  C   UNL     1     477.559  39.803 453.114  1.00  0.00     0.033 C 
ATOM     29  C   UNL     1     478.275  38.007 451.428  1.00  0.00     0.020 C 
ATOM     30  C   UNL     1     476.171  39.069 453.108  1.00  0.00     0.010 C 
ATOM     31  C   UNL     1     476.773  37.819 450.915  1.00  0.00     0.006 C 
ATOM     32  C   UNL     1     479.275  37.599 450.339  1.00  0.00     0.017 C 
ATOM     33  C   UNL     1     475.683  38.700 451.661  1.00  0.00    -0.022 C 
ATOM     34  C   UNL     1     476.375  37.666 449.433  1.00  0.00     0.005 C 
ATOM     35  C   UNL     1     475.441  40.139 451.020  1.00  0.00     0.012 C 
ATOM     36  C   UNL     1     474.330  37.836 451.675  1.00  0.00     0.024 C 
ATOM     37  C   UNL     1     474.972  36.992 449.305  1.00  0.00     0.008 C 
ATOM     38  C   UNL     1     473.745  37.522 450.207  1.00  0.00    -0.017 C 
ATOM     39  C   UNL     1     474.583  36.512 452.426  1.00  0.00    -0.024 C 
ATOM     40  C   UNL     1     473.205  38.829 449.513  1.00  0.00     0.013 C 
ATOM     41  C   UNL     1     472.527  36.452 450.274  1.00  0.00     0.009 C 
ATOM     42  C   UNL     1     474.048  35.356 452.066  1.00  0.00     0.005 C 
ATOM     43  C   UNL     1     472.721  35.305 451.389  1.00  0.00     0.096 C 
ATOM     44  C   UNL     1     471.142  37.113 450.559  1.00  0.00     0.043 C 
ATOM     45  C   UNL     1     472.390  35.830 448.838  1.00  0.00     0.015 C 
ATOM     46  C   UNL     1     471.689  35.186 452.533  1.00  0.00     0.037 C 
ATOM     47  O   UNL     1     472.529  34.043 450.738  1.00  0.00    -0.369 OA
ATOM     48  C   UNL     1     470.004  36.105 450.938  1.00  0.00     0.124 C 
ATOM     49  C   UNL     1     470.476  34.835 451.749  1.00  0.00     0.026 C 
ATOM     50  C   UNL     1     471.370  36.128 453.714  1.00  0.00     0.014 C 
ATOM     51  C   UNL     1     471.147  33.750 450.859  1.00  0.00     0.171 C 
ATOM     52  C   UNL     1     469.303  34.301 452.642  1.00  0.00     0.013 C 
ATOM     53  C   UNL     1     470.446  35.370 454.748  1.00  0.00    -0.035 C 
ATOM     54  C   UNL     1     469.707  34.125 454.142  1.00  0.00     0.007 C 
ATOM     55  C   UNL     1     469.401  36.346 455.336  1.00  0.00     0.011 C 
ATOM     56  C   UNL     1     471.303  34.840 455.915  1.00  0.00     0.011 C 
BRANCH  29  57
ATOM     57  C   UNL     1     478.499  36.957 452.651  1.00  0.00     0.165 C 
BRANCH  57  58
ATOM     58  O   UNL     1     479.850  36.707 452.953  1.00  0.00    -0.396 OA
ATOM     59  H   UNL     1     480.045  37.121 453.830  1.00  0.00     0.210 HD
ENDBRANCH  57  58
ENDBRANCH  29  57
BRANCH  48  60
ATOM     60  O   UNL     1     469.308  35.701 449.768  1.00  0.00    -0.392 OA
ATOM     61  H   UNL     1     468.839  34.853 449.980  1.00  0.00     0.210 HD
ENDBRANCH  48  60
ENDBRANCH  26  27
ENDBRANCH   6  26
BRANCH   5  62
ATOM     62  O   UNL     1     480.089  39.236 454.878  1.00  0.00    -0.385 OA
ATOM     63  H   UNL     1     480.160  39.945 455.567  1.00  0.00     0.211 HD
ENDBRANCH   5  62
TORSDOF 14
ENDMDL
MODEL 7
REMARK VINA RESULT:    -5.725      6.200     12.748
REMARK INTER + INTRA:         -11.091
REMARK INTER:                  -8.863
REMARK INTRA:                  -2.227
REMARK UNBOUND:                -2.019
REMARK SMILES C[C@H]1O[C@@H](O[C@@H]2CC[C@@]3(C)[C@@H](CC[C@]4(C)[C@H]3C=C[C@@]35OC[C@]6(CCC(C)(C)C[C@@H]63)[C@H](O)C[C@@]45C)[C@]2(C)CO)[C@H](O)[C@H](O[C@H]2O[C@H](CO)[C@H](O)[C@@H](O)[C@@H]2O)[C@H]1O
REMARK SMILES IDX 1 1 2 2 54 3 41 4 39 5 4 6 3 7 55 8 42 10 43 11 52 12 44 13
REMARK SMILES IDX 50 14 45 15 48 16 53 17 51 19 46 21 47 22 49 24 5 26 6 27
REMARK SMILES IDX 7 28 35 29 8 30 11 31 36 32 9 33 12 34 10 35 16 36 13 37
REMARK SMILES IDX 14 38 17 39 15 40 33 41 18 42 19 43 32 44 34 45 29 46 20 47
REMARK SMILES IDX 30 48 22 49 28 50 21 51 23 52 25 53 24 54 26 55 27 56 37 57
REMARK SMILES IDX 38 58 31 60 40 62
REMARK H PARENT 55 9 53 18 51 20 47 23 49 25 38 59 31 61 40 63
REMARK Flexibility Score: inf
ROOT
ATOM      1  C   UNL     1     480.945  43.188 454.386  1.00  0.00     0.041 C 
ATOM      2  C   UNL     1     481.398  42.292 455.627  1.00  0.00     0.150 C 
ATOM      3  C   UNL     1     482.883  41.848 455.568  1.00  0.00     0.175 C 
ATOM      4  C   UNL     1     483.069  40.397 454.958  1.00  0.00     0.186 C 
ATOM      5  C   UNL     1     481.767  39.884 454.316  1.00  0.00     0.202 C 
ATOM      6  C   UNL     1     480.398  40.276 454.913  1.00  0.00     0.282 C 
ATOM      7  O   UNL     1     480.605  41.195 455.978  1.00  0.00    -0.344 OA
ENDROOT
BRANCH   3   8
ATOM      8  O   UNL     1     483.665  42.868 454.948  1.00  0.00    -0.388 OA
ATOM      9  H   UNL     1     484.450  43.112 455.531  1.00  0.00     0.211 HD
ENDBRANCH   3   8
BRANCH   4  10
ATOM     10  O   UNL     1     483.501  39.391 455.871  1.00  0.00    -0.341 OA
BRANCH  10  11
ATOM     11  C   UNL     1     483.474  39.774 457.257  1.00  0.00     0.282 C 
ATOM     12  C   UNL     1     484.866  39.446 457.844  1.00  0.00     0.202 C 
ATOM     13  O   UNL     1     482.352  39.222 458.006  1.00  0.00    -0.341 OA
ATOM     14  C   UNL     1     484.910  38.378 458.888  1.00  0.00     0.179 C 
ATOM     15  C   UNL     1     482.458  39.027 459.422  1.00  0.00     0.178 C 
ATOM     16  C   UNL     1     483.878  38.710 459.996  1.00  0.00     0.177 C 
BRANCH  12  17
ATOM     17  O   UNL     1     485.596  40.573 458.280  1.00  0.00    -0.385 OA
ATOM     18  H   UNL     1     484.974  41.317 458.530  1.00  0.00     0.211 HD
ENDBRANCH  12  17
BRANCH  14  19
ATOM     19  O   UNL     1     484.590  37.135 458.274  1.00  0.00    -0.387 OA
ATOM     20  H   UNL     1     485.359  36.509 458.439  1.00  0.00     0.211 HD
ENDBRANCH  14  19
BRANCH  15  21
ATOM     21  C   UNL     1     481.562  40.012 460.220  1.00  0.00     0.191 C 
BRANCH  21  22
ATOM     22  O   UNL     1     482.117  41.305 460.185  1.00  0.00    -0.394 OA
ATOM     23  H   UNL     1     481.895  41.803 461.028  1.00  0.00     0.210 HD
ENDBRANCH  21  22
ENDBRANCH  15  21
BRANCH  16  24
ATOM     24  O   UNL     1     484.397  39.660 460.922  1.00  0.00    -0.387 OA
ATOM     25  H   UNL     1     483.969  40.528 460.653  1.00  0.00     0.211 HD
ENDBRANCH  16  24
ENDBRANCH  10  11
ENDBRANCH   4  10
BRANCH   6  26
ATOM     26  O   UNL     1     479.633  40.798 453.865  1.00  0.00    -0.346 OA
BRANCH  26  27
ATOM     27  C   UNL     1     478.310  40.300 453.650  1.00  0.00     0.130 C 
ATOM     28  C   UNL     1     477.380  40.087 454.915  1.00  0.00     0.033 C 
ATOM     29  C   UNL     1     478.127  39.099 452.669  1.00  0.00     0.020 C 
ATOM     30  C   UNL     1     475.985  39.452 454.581  1.00  0.00     0.010 C 
ATOM     31  C   UNL     1     476.641  39.170 452.087  1.00  0.00     0.006 C 
ATOM     32  C   UNL     1     479.158  39.137 451.532  1.00  0.00     0.017 C 
ATOM     33  C   UNL     1     475.539  39.706 453.096  1.00  0.00    -0.022 C 
ATOM     34  C   UNL     1     476.290  39.634 450.658  1.00  0.00     0.005 C 
ATOM     35  C   UNL     1     475.337  41.287 453.081  1.00  0.00     0.012 C 
ATOM     36  C   UNL     1     474.175  38.943 452.729  1.00  0.00     0.024 C 
ATOM     37  C   UNL     1     474.883  39.103 450.236  1.00  0.00     0.008 C 
ATOM     38  C   UNL     1     473.635  39.257 451.245  1.00  0.00    -0.017 C 
ATOM     39  C   UNL     1     474.386  37.423 452.892  1.00  0.00    -0.024 C 
ATOM     40  C   UNL     1     473.135  40.746 451.120  1.00  0.00     0.013 C 
ATOM     41  C   UNL     1     472.400  38.282 450.847  1.00  0.00     0.009 C 
ATOM     42  C   UNL     1     473.848  36.522 452.086  1.00  0.00     0.005 C 
ATOM     43  C   UNL     1     472.543  36.780 451.412  1.00  0.00     0.096 C 
ATOM     44  C   UNL     1     471.016  38.808 451.338  1.00  0.00     0.043 C 
ATOM     45  C   UNL     1     472.303  38.290 449.278  1.00  0.00     0.015 C 
ATOM     46  C   UNL     1     471.473  36.238 452.387  1.00  0.00     0.037 C 
ATOM     47  O   UNL     1     472.356  35.890 450.305  1.00  0.00    -0.369 OA
ATOM     48  C   UNL     1     469.853  37.761 451.253  1.00  0.00     0.124 C 
ATOM     49  C   UNL     1     470.282  36.261 451.497  1.00  0.00     0.026 C 
ATOM     50  C   UNL     1     471.128  36.636 453.838  1.00  0.00     0.014 C 
ATOM     51  C   UNL     1     470.967  35.607 450.265  1.00  0.00     0.171 C 
ATOM     52  C   UNL     1     469.074  35.444 452.073  1.00  0.00     0.013 C 
ATOM     53  C   UNL     1     470.161  35.551 454.458  1.00  0.00    -0.035 C 
ATOM     54  C   UNL     1     469.426  34.672 453.385  1.00  0.00     0.007 C 
ATOM     55  C   UNL     1     469.110  36.236 455.362  1.00  0.00     0.011 C 
ATOM     56  C   UNL     1     470.972  34.577 455.335  1.00  0.00     0.011 C 
BRANCH  29  57
ATOM     57  C   UNL     1     478.298  37.642 453.373  1.00  0.00     0.165 C 
BRANCH  57  58
ATOM     58  O   UNL     1     479.561  37.054 453.178  1.00  0.00    -0.396 OA
ATOM     59  H   UNL     1     480.062  37.124 454.028  1.00  0.00     0.210 HD
ENDBRANCH  57  58
ENDBRANCH  29  57
BRANCH  48  60
ATOM     60  O   UNL     1     469.191  37.877 450.003  1.00  0.00    -0.392 OA
ATOM     61  H   UNL     1     469.223  38.831 449.736  1.00  0.00     0.210 HD
ENDBRANCH  48  60
ENDBRANCH  26  27
ENDBRANCH   6  26
BRANCH   5  62
ATOM     62  O   UNL     1     481.839  38.482 454.117  1.00  0.00    -0.385 OA
ATOM     63  H   UNL     1     482.780  38.245 453.910  1.00  0.00     0.211 HD
ENDBRANCH   5  62
TORSDOF 14
ENDMDL
MODEL 8
REMARK VINA RESULT:    -5.684      5.141      8.288
REMARK INTER + INTRA:         -11.025
REMARK INTER:                  -8.847
REMARK INTRA:                  -2.178
REMARK UNBOUND:                -2.019
REMARK SMILES C[C@H]1O[C@@H](O[C@@H]2CC[C@@]3(C)[C@@H](CC[C@]4(C)[C@H]3C=C[C@@]35OC[C@]6(CCC(C)(C)C[C@@H]63)[C@H](O)C[C@@]45C)[C@]2(C)CO)[C@H](O)[C@H](O[C@H]2O[C@H](CO)[C@H](O)[C@@H](O)[C@@H]2O)[C@H]1O
REMARK SMILES IDX 1 1 2 2 54 3 41 4 39 5 4 6 3 7 55 8 42 10 43 11 52 12 44 13
REMARK SMILES IDX 50 14 45 15 48 16 53 17 51 19 46 21 47 22 49 24 5 26 6 27
REMARK SMILES IDX 7 28 35 29 8 30 11 31 36 32 9 33 12 34 10 35 16 36 13 37
REMARK SMILES IDX 14 38 17 39 15 40 33 41 18 42 19 43 32 44 34 45 29 46 20 47
REMARK SMILES IDX 30 48 22 49 28 50 21 51 23 52 25 53 24 54 26 55 27 56 37 57
REMARK SMILES IDX 38 58 31 60 40 62
REMARK H PARENT 55 9 53 18 51 20 47 23 49 25 38 59 31 61 40 63
REMARK Flexibility Score: inf
ROOT
ATOM      1  C   UNL     1     477.511  38.977 450.299  1.00  0.00     0.041 C 
ATOM      2  C   UNL     1     476.054  38.791 450.924  1.00  0.00     0.150 C 
ATOM      3  C   UNL     1     475.050  39.896 450.506  1.00  0.00     0.175 C 
ATOM      4  C   UNL     1     474.931  41.059 451.577  1.00  0.00     0.186 C 
ATOM      5  C   UNL     1     476.037  40.959 452.643  1.00  0.00     0.202 C 
ATOM      6  C   UNL     1     476.564  39.579 453.091  1.00  0.00     0.282 C 
ATOM      7  O   UNL     1     475.946  38.570 452.301  1.00  0.00    -0.344 OA
ENDROOT
BRANCH   3   8
ATOM      8  O   UNL     1     475.336  40.328 449.177  1.00  0.00    -0.388 OA
ATOM      9  H   UNL     1     475.028  39.638 448.509  1.00  0.00     0.211 HD
ENDBRANCH   3   8
BRANCH   4  10
ATOM     10  O   UNL     1     473.691  41.134 452.277  1.00  0.00    -0.341 OA
BRANCH  10  11
ATOM     11  C   UNL     1     472.987  42.379 452.137  1.00  0.00     0.282 C 
ATOM     12  C   UNL     1     471.971  42.196 450.987  1.00  0.00     0.202 C 
ATOM     13  O   UNL     1     473.855  43.543 452.003  1.00  0.00    -0.341 OA
ATOM     14  C   UNL     1     472.201  43.021 449.762  1.00  0.00     0.179 C 
ATOM     15  C   UNL     1     473.388  44.715 451.324  1.00  0.00     0.178 C 
ATOM     16  C   UNL     1     472.350  44.509 450.173  1.00  0.00     0.177 C 
BRANCH  12  17
ATOM     17  O   UNL     1     470.619  42.293 451.381  1.00  0.00    -0.385 OA
ATOM     18  H   UNL     1     470.105  41.492 451.067  1.00  0.00     0.211 HD
ENDBRANCH  12  17
BRANCH  14  19
ATOM     19  O   UNL     1     473.391  42.564 449.130  1.00  0.00    -0.387 OA
ATOM     20  H   UNL     1     473.623  43.224 448.407  1.00  0.00     0.211 HD
ENDBRANCH  14  19
BRANCH  15  21
ATOM     21  C   UNL     1     473.160  45.906 452.294  1.00  0.00     0.191 C 
BRANCH  21  22
ATOM     22  O   UNL     1     472.600  46.993 451.598  1.00  0.00    -0.394 OA
ATOM     23  H   UNL     1     472.830  46.940 450.622  1.00  0.00     0.210 HD
ENDBRANCH  21  22
ENDBRANCH  15  21
BRANCH  16  24
ATOM     24  O   UNL     1     471.080  45.123 450.368  1.00  0.00    -0.387 OA
ATOM     25  H   UNL     1     470.983  45.748 449.588  1.00  0.00     0.211 HD
ENDBRANCH  16  24
ENDBRANCH  10  11
ENDBRANCH   4  10
BRANCH   6  26
ATOM     26  O   UNL     1     477.956  39.614 452.964  1.00  0.00    -0.346 OA
BRANCH  26  27
ATOM     27  C   UNL     1     478.767  39.561 454.140  1.00  0.00     0.130 C 
ATOM     28  C   UNL     1     478.132  38.950 455.456  1.00  0.00     0.033 C 
ATOM     29  C   UNL     1     479.605  40.826 454.511  1.00  0.00     0.020 C 
ATOM     30  C   UNL     1     479.071  39.023 456.711  1.00  0.00     0.010 C 
ATOM     31  C   UNL     1     480.861  40.341 455.371  1.00  0.00     0.006 C 
ATOM     32  C   UNL     1     480.065  41.586 453.260  1.00  0.00     0.017 C 
ATOM     33  C   UNL     1     480.593  39.103 456.329  1.00  0.00    -0.022 C 
ATOM     34  C   UNL     1     482.303  40.262 454.832  1.00  0.00     0.005 C 
ATOM     35  C   UNL     1     480.837  37.678 455.657  1.00  0.00     0.012 C 
ATOM     36  C   UNL     1     481.534  39.308 457.614  1.00  0.00     0.024 C 
ATOM     37  C   UNL     1     483.333  40.270 456.007  1.00  0.00     0.008 C 
ATOM     38  C   UNL     1     483.109  39.298 457.273  1.00  0.00    -0.017 C 
ATOM     39  C   UNL     1     481.163  40.637 458.305  1.00  0.00    -0.024 C 
ATOM     40  C   UNL     1     483.590  37.864 456.832  1.00  0.00     0.013 C 
ATOM     41  C   UNL     1     483.993  39.748 458.557  1.00  0.00     0.009 C 
ATOM     42  C   UNL     1     482.054  41.443 458.861  1.00  0.00     0.005 C 
ATOM     43  C   UNL     1     483.313  40.903 459.450  1.00  0.00     0.096 C 
ATOM     44  C   UNL     1     484.312  38.570 459.529  1.00  0.00     0.043 C 
ATOM     45  C   UNL     1     485.391  40.208 458.005  1.00  0.00     0.015 C 
ATOM     46  C   UNL     1     482.970  40.608 460.928  1.00  0.00     0.037 C 
ATOM     47  O   UNL     1     484.285  41.942 459.614  1.00  0.00    -0.369 OA
ATOM     48  C   UNL     1     484.887  39.009 460.919  1.00  0.00     0.124 C 
ATOM     49  C   UNL     1     484.338  40.384 461.467  1.00  0.00     0.026 C 
ATOM     50  C   UNL     1     481.930  39.657 461.558  1.00  0.00     0.014 C 
ATOM     51  C   UNL     1     484.998  41.622 460.798  1.00  0.00     0.171 C 
ATOM     52  C   UNL     1     484.386  40.395 463.034  1.00  0.00     0.013 C 
ATOM     53  C   UNL     1     481.796  39.982 463.099  1.00  0.00    -0.035 C 
ATOM     54  C   UNL     1     483.017  40.774 463.687  1.00  0.00     0.007 C 
ATOM     55  C   UNL     1     481.605  38.672 463.899  1.00  0.00     0.011 C 
ATOM     56  C   UNL     1     480.553  40.862 463.335  1.00  0.00     0.011 C 
BRANCH  29  57
ATOM     57  C   UNL     1     478.794  41.909 455.415  1.00  0.00     0.165 C 
BRANCH  57  58
ATOM     58  O   UNL     1     478.208  42.952 454.675  1.00  0.00    -0.396 OA
ATOM     59  H   UNL     1     478.932  43.565 454.390  1.00  0.00     0.210 HD
ENDBRANCH  57  58
ENDBRANCH  29  57
BRANCH  48  60
ATOM     60  O   UNL     1     486.305  39.041 460.866  1.00  0.00    -0.392 OA
ATOM     61  H   UNL     1     486.583  39.992 460.906  1.00  0.00     0.210 HD
ENDBRANCH  48  60
ENDBRANCH  26  27
ENDBRANCH   6  26
BRANCH   5  62
ATOM     62  O   UNL     1     475.705  41.754 453.769  1.00  0.00    -0.385 OA
ATOM     63  H   UNL     1     474.746  41.997 453.706  1.00  0.00     0.211 HD
ENDBRANCH   5  62
TORSDOF 14
ENDMDL
MODEL 9
REMARK VINA RESULT:    -5.627      3.671      7.146
REMARK INTER + INTRA:         -10.935
REMARK INTER:                  -8.571
REMARK INTRA:                  -2.364
REMARK UNBOUND:                -2.019
REMARK SMILES C[C@H]1O[C@@H](O[C@@H]2CC[C@@]3(C)[C@@H](CC[C@]4(C)[C@H]3C=C[C@@]35OC[C@]6(CCC(C)(C)C[C@@H]63)[C@H](O)C[C@@]45C)[C@]2(C)CO)[C@H](O)[C@H](O[C@H]2O[C@H](CO)[C@H](O)[C@@H](O)[C@@H]2O)[C@H]1O
REMARK SMILES IDX 1 1 2 2 54 3 41 4 39 5 4 6 3 7 55 8 42 10 43 11 52 12 44 13
REMARK SMILES IDX 50 14 45 15 48 16 53 17 51 19 46 21 47 22 49 24 5 26 6 27
REMARK SMILES IDX 7 28 35 29 8 30 11 31 36 32 9 33 12 34 10 35 16 36 13 37
REMARK SMILES IDX 14 38 17 39 15 40 33 41 18 42 19 43 32 44 34 45 29 46 20 47
REMARK SMILES IDX 30 48 22 49 28 50 21 51 23 52 25 53 24 54 26 55 27 56 37 57
REMARK SMILES IDX 38 58 31 60 40 62
REMARK H PARENT 55 9 53 18 51 20 47 23 49 25 38 59 31 61 40 63
REMARK Flexibility Score: inf
ROOT
ATOM      1  C   UNL     1     481.083  38.566 451.416  1.00  0.00     0.041 C 
ATOM      2  C   UNL     1     480.047  37.369 451.624  1.00  0.00     0.150 C 
ATOM      3  C   UNL     1     478.582  37.745 451.278  1.00  0.00     0.175 C 
ATOM      4  C   UNL     1     477.738  38.172 452.550  1.00  0.00     0.186 C 
ATOM      5  C   UNL     1     478.639  38.380 453.781  1.00  0.00     0.202 C 
ATOM      6  C   UNL     1     479.901  37.514 453.977  1.00  0.00     0.282 C 
ATOM      7  O   UNL     1     480.068  36.676 452.839  1.00  0.00    -0.344 OA
ENDROOT
BRANCH   3   8
ATOM      8  O   UNL     1     478.568  38.681 450.202  1.00  0.00    -0.388 OA
ATOM      9  H   UNL     1     478.958  38.267 449.370  1.00  0.00     0.211 HD
ENDBRANCH   3   8
BRANCH   4  10
ATOM     10  O   UNL     1     476.707  37.269 452.943  1.00  0.00    -0.341 OA
BRANCH  10  11
ATOM     11  C   UNL     1     475.369  37.718 452.669  1.00  0.00     0.282 C 
ATOM     12  C   UNL     1     475.447  39.239 452.403  1.00  0.00     0.202 C 
ATOM     13  O   UNL     1     474.391  37.326 453.676  1.00  0.00    -0.341 OA
ATOM     14  C   UNL     1     474.765  40.121 453.398  1.00  0.00     0.179 C 
ATOM     15  C   UNL     1     473.204  38.106 453.870  1.00  0.00     0.178 C 
ATOM     16  C   UNL     1     473.302  39.640 453.582  1.00  0.00     0.177 C 
BRANCH  12  17
ATOM     17  O   UNL     1     475.084  39.623 451.094  1.00  0.00    -0.385 OA
ATOM     18  H   UNL     1     474.263  39.130 450.801  1.00  0.00     0.211 HD
ENDBRANCH  12  17
BRANCH  14  19
ATOM     19  O   UNL     1     475.470  40.038 454.631  1.00  0.00    -0.387 OA
ATOM     20  H   UNL     1     476.446  40.173 454.431  1.00  0.00     0.211 HD
ENDBRANCH  14  19
BRANCH  15  21
ATOM     21  C   UNL     1     471.927  37.364 453.393  1.00  0.00     0.191 C 
BRANCH  21  22
ATOM     22  O   UNL     1     471.889  37.327 451.987  1.00  0.00    -0.394 OA
ATOM     23  H   UNL     1     471.453  38.157 451.627  1.00  0.00     0.210 HD
ENDBRANCH  21  22
ENDBRANCH  15  21
BRANCH  16  24
ATOM     24  O   UNL     1     472.460  40.130 452.544  1.00  0.00    -0.387 OA
ATOM     25  H   UNL     1     471.589  39.648 452.682  1.00  0.00     0.211 HD
ENDBRANCH  16  24
ENDBRANCH  10  11
ENDBRANCH   4  10
BRANCH   6  26
ATOM     26  O   UNL     1     480.969  38.392 454.185  1.00  0.00    -0.346 OA
BRANCH  26  27
ATOM     27  C   UNL     1     481.413  38.650 455.519  1.00  0.00     0.130 C 
ATOM     28  C   UNL     1     480.940  37.662 456.664  1.00  0.00     0.033 C 
ATOM     29  C   UNL     1     481.345  40.119 456.044  1.00  0.00     0.020 C 
ATOM     30  C   UNL     1     481.405  38.086 458.103  1.00  0.00     0.010 C 
ATOM     31  C   UNL     1     482.450  40.277 457.187  1.00  0.00     0.006 C 
ATOM     32  C   UNL     1     481.580  41.133 454.918  1.00  0.00     0.017 C 
ATOM     33  C   UNL     1     482.689  38.990 458.087  1.00  0.00    -0.022 C 
ATOM     34  C   UNL     1     483.787  41.023 457.004  1.00  0.00     0.005 C 
ATOM     35  C   UNL     1     483.791  37.984 457.528  1.00  0.00     0.012 C 
ATOM     36  C   UNL     1     483.078  39.523 459.551  1.00  0.00     0.024 C 
ATOM     37  C   UNL     1     484.377  41.447 458.387  1.00  0.00     0.008 C 
ATOM     38  C   UNL     1     484.444  40.375 459.589  1.00  0.00    -0.017 C 
ATOM     39  C   UNL     1     481.918  40.379 460.102  1.00  0.00    -0.024 C 
ATOM     40  C   UNL     1     485.697  39.461 459.310  1.00  0.00     0.013 C 
ATOM     41  C   UNL     1     484.657  41.085 461.033  1.00  0.00     0.009 C 
ATOM     42  C   UNL     1     482.100  41.470 460.830  1.00  0.00     0.005 C 
ATOM     43  C   UNL     1     483.294  41.611 461.712  1.00  0.00     0.096 C 
ATOM     44  C   UNL     1     485.341  40.155 462.083  1.00  0.00     0.043 C 
ATOM     45  C   UNL     1     485.673  42.264 460.813  1.00  0.00     0.015 C 
ATOM     46  C   UNL     1     482.859  41.028 463.075  1.00  0.00     0.037 C 
ATOM     47  O   UNL     1     483.501  42.982 462.073  1.00  0.00    -0.369 OA
ATOM     48  C   UNL     1     485.283  40.682 463.557  1.00  0.00     0.124 C 
ATOM     49  C   UNL     1     483.983  41.499 463.926  1.00  0.00     0.026 C 
ATOM     50  C   UNL     1     482.380  39.613 463.467  1.00  0.00     0.014 C 
ATOM     51  C   UNL     1     484.004  42.961 463.399  1.00  0.00     0.171 C 
ATOM     52  C   UNL     1     483.685  41.370 465.460  1.00  0.00     0.013 C 
ATOM     53  C   UNL     1     481.772  39.657 464.925  1.00  0.00    -0.035 C 
ATOM     54  C   UNL     1     482.224  40.904 465.763  1.00  0.00     0.007 C 
ATOM     55  C   UNL     1     482.145  38.366 465.691  1.00  0.00     0.011 C 
ATOM     56  C   UNL     1     480.234  39.725 464.840  1.00  0.00     0.011 C 
BRANCH  29  57
ATOM     57  C   UNL     1     479.911  40.515 456.705  1.00  0.00     0.165 C 
BRANCH  57  58
ATOM     58  O   UNL     1     479.001  41.090 455.800  1.00  0.00    -0.396 OA
ATOM     59  H   UNL     1     478.198  40.512 455.770  1.00  0.00     0.210 HD
ENDBRANCH  57  58
ENDBRANCH  29  57
BRANCH  48  60
ATOM     60  O   UNL     1     486.438  41.458 463.838  1.00  0.00    -0.392 OA
ATOM     61  H   UNL     1     486.511  41.536 464.823  1.00  0.00     0.210 HD
ENDBRANCH  48  60
ENDBRANCH  26  27
ENDBRANCH   6  26
BRANCH   5  62
ATOM     62  O   UNL     1     477.856  38.393 454.963  1.00  0.00    -0.385 OA
ATOM     63  H   UNL     1     478.004  39.258 455.425  1.00  0.00     0.211 HD
ENDBRANCH   5  62
TORSDOF 14
ENDMDL
