MODEL 1
REMARK VINA RESULT:    -4.589      0.000      0.000
REMARK INTER + INTRA:          -4.589
REMARK INTER:                  -4.589
REMARK INTRA:                   0.000
REMARK UNBOUND:                 0.000
REMARK SMILES CC1=CC(=O)[C@H]2C[C@@H]1C2(C)C
REMARK SMILES IDX 1 1 2 2 3 3 4 4 5 5 6 6 7 7 8 8 9 9 10 10 11 11
REMARK H PARENT
REMARK Flexibility Score: inf
ROOT
ATOM      1  C   UNL     1       4.048   3.441  62.013  1.00  0.00     0.040 C 
ATOM      2  C   UNL     1       3.149   4.603  62.294  1.00  0.00    -0.066 C 
ATOM      3  C   UNL     1       3.622   5.743  62.871  1.00  0.00     0.047 C 
ATOM      4  C   UNL     1       2.616   6.822  63.129  1.00  0.00     0.159 C 
ATOM      5  O   UNL     1       2.923   7.906  63.692  1.00  0.00    -0.295 OA
ATOM      6  C   UNL     1       1.192   6.515  62.665  1.00  0.00     0.067 C 
ATOM      7  C   UNL     1       1.374   5.933  61.246  1.00  0.00     0.021 C 
ATOM      8  C   UNL     1       1.649   4.576  61.932  1.00  0.00     0.022 C 
ATOM      9  C   UNL     1       0.814   5.085  63.144  1.00  0.00    -0.019 C 
ATOM     10  C   UNL     1       1.246   4.644  64.572  1.00  0.00     0.012 C 
ATOM     11  C   UNL     1      -0.700   4.790  62.983  1.00  0.00     0.012 C 
ENDROOT
TORSDOF 0
ENDMDL
MODEL 2
REMARK VINA RESULT:    -4.378      1.872      3.569
REMARK INTER + INTRA:          -4.378
REMARK INTER:                  -4.378
REMARK INTRA:                   0.000
REMARK UNBOUND:                 0.000
REMARK SMILES CC1=CC(=O)[C@H]2C[C@@H]1C2(C)C
REMARK SMILES IDX 1 1 2 2 3 3 4 4 5 5 6 6 7 7 8 8 9 9 10 10 11 11
REMARK H PARENT
REMARK Flexibility Score: inf
ROOT
ATOM      1  C   UNL     1      -2.061   4.427  63.462  1.00  0.00     0.040 C 
ATOM      2  C   UNL     1      -0.692   4.920  63.810  1.00  0.00    -0.066 C 
ATOM      3  C   UNL     1      -0.310   5.098  65.106  1.00  0.00     0.047 C 
ATOM      4  C   UNL     1       1.074   5.627  65.322  1.00  0.00     0.159 C 
ATOM      5  O   UNL     1       1.530   5.869  66.471  1.00  0.00    -0.295 OA
ATOM      6  C   UNL     1       1.895   5.855  64.052  1.00  0.00     0.067 C 
ATOM      7  C   UNL     1       1.663   4.575  63.219  1.00  0.00     0.021 C 
ATOM      8  C   UNL     1       0.358   5.238  62.724  1.00  0.00     0.022 C 
ATOM      9  C   UNL     1       1.013   6.618  63.024  1.00  0.00    -0.019 C 
ATOM     10  C   UNL     1       0.102   7.768  63.541  1.00  0.00     0.012 C 
ATOM     11  C   UNL     1       1.835   7.153  61.824  1.00  0.00     0.012 C 
ENDROOT
TORSDOF 0
ENDMDL
MODEL 3
REMARK VINA RESULT:    -4.369      1.308      3.500
REMARK INTER + INTRA:          -4.369
REMARK INTER:                  -4.369
REMARK INTRA:                   0.000
REMARK UNBOUND:                 0.000
REMARK SMILES CC1=CC(=O)[C@H]2C[C@@H]1C2(C)C
REMARK SMILES IDX 1 1 2 2 3 3 4 4 5 5 6 6 7 7 8 8 9 9 10 10 11 11
REMARK H PARENT
REMARK Flexibility Score: inf
ROOT
ATOM      1  C   UNL     1      -2.097   4.591  63.503  1.00  0.00     0.040 C 
ATOM      2  C   UNL     1      -0.768   5.240  63.729  1.00  0.00    -0.066 C 
ATOM      3  C   UNL     1      -0.640   6.595  63.781  1.00  0.00     0.047 C 
ATOM      4  C   UNL     1       0.747   7.123  63.980  1.00  0.00     0.159 C 
ATOM      5  O   UNL     1       1.000   8.356  64.007  1.00  0.00    -0.295 OA
ATOM      6  C   UNL     1       1.835   6.061  64.146  1.00  0.00     0.067 C 
ATOM      7  C   UNL     1       1.227   5.050  65.143  1.00  0.00     0.021 C 
ATOM      8  C   UNL     1       0.518   4.410  63.928  1.00  0.00     0.022 C 
ATOM      9  C   UNL     1       1.653   4.989  63.034  1.00  0.00    -0.019 C 
ATOM     10  C   UNL     1       1.287   5.467  61.599  1.00  0.00     0.012 C 
ATOM     11  C   UNL     1       2.869   4.033  62.931  1.00  0.00     0.012 C 
ENDROOT
TORSDOF 0
ENDMDL
MODEL 4
REMARK VINA RESULT:    -4.256      1.690      2.914
REMARK INTER + INTRA:          -4.256
REMARK INTER:                  -4.256
REMARK INTRA:                   0.000
REMARK UNBOUND:                 0.000
REMARK SMILES CC1=CC(=O)[C@H]2C[C@@H]1C2(C)C
REMARK SMILES IDX 1 1 2 2 3 3 4 4 5 5 6 6 7 7 8 8 9 9 10 10 11 11
REMARK H PARENT
REMARK Flexibility Score: inf
ROOT
ATOM      1  C   UNL     1       0.854   4.293  64.904  1.00  0.00     0.040 C 
ATOM      2  C   UNL     1       1.516   4.728  63.635  1.00  0.00    -0.066 C 
ATOM      3  C   UNL     1       2.707   4.199  63.239  1.00  0.00     0.047 C 
ATOM      4  C   UNL     1       3.282   4.741  61.966  1.00  0.00     0.159 C 
ATOM      5  O   UNL     1       4.394   4.360  61.515  1.00  0.00    -0.295 OA
ATOM      6  C   UNL     1       2.425   5.788  61.253  1.00  0.00     0.067 C 
ATOM      7  C   UNL     1       1.000   5.194  61.282  1.00  0.00     0.021 C 
ATOM      8  C   UNL     1       0.877   5.783  62.706  1.00  0.00     0.022 C 
ATOM      9  C   UNL     1       1.952   6.835  62.300  1.00  0.00    -0.019 C 
ATOM     10  C   UNL     1       2.963   7.307  63.383  1.00  0.00     0.012 C 
ATOM     11  C   UNL     1       1.327   8.090  61.639  1.00  0.00     0.012 C 
ENDROOT
TORSDOF 0
ENDMDL
MODEL 5
REMARK VINA RESULT:    -4.137      2.524      4.251
REMARK INTER + INTRA:          -4.137
REMARK INTER:                  -4.137
REMARK INTRA:                   0.000
REMARK UNBOUND:                 0.000
REMARK SMILES CC1=CC(=O)[C@H]2C[C@@H]1C2(C)C
REMARK SMILES IDX 1 1 2 2 3 3 4 4 5 5 6 6 7 7 8 8 9 9 10 10 11 11
REMARK H PARENT
REMARK Flexibility Score: inf
ROOT
ATOM      1  C   UNL     1      -3.227   4.369  63.482  1.00  0.00     0.040 C 
ATOM      2  C   UNL     1      -1.858   4.872  63.817  1.00  0.00    -0.066 C 
ATOM      3  C   UNL     1      -0.792   4.619  63.008  1.00  0.00     0.047 C 
ATOM      4  C   UNL     1       0.531   5.149  63.469  1.00  0.00     0.159 C 
ATOM      5  O   UNL     1       1.596   4.948  62.829  1.00  0.00    -0.295 OA
ATOM      6  C   UNL     1       0.498   5.949  64.773  1.00  0.00     0.067 C 
ATOM      7  C   UNL     1      -0.713   6.892  64.606  1.00  0.00     0.021 C 
ATOM      8  C   UNL     1      -1.589   5.712  65.083  1.00  0.00     0.022 C 
ATOM      9  C   UNL     1      -0.335   5.154  65.818  1.00  0.00    -0.019 C 
ATOM     10  C   UNL     1      -0.152   3.612  65.892  1.00  0.00     0.012 C 
ATOM     11  C   UNL     1      -0.187   5.730  67.250  1.00  0.00     0.012 C 
ENDROOT
TORSDOF 0
ENDMDL
MODEL 6
REMARK VINA RESULT:    -4.112      1.382      2.068
REMARK INTER + INTRA:          -4.112
REMARK INTER:                  -4.112
REMARK INTRA:                   0.000
REMARK UNBOUND:                 0.000
REMARK SMILES CC1=CC(=O)[C@H]2C[C@@H]1C2(C)C
REMARK SMILES IDX 1 1 2 2 3 3 4 4 5 5 6 6 7 7 8 8 9 9 10 10 11 11
REMARK H PARENT
REMARK Flexibility Score: inf
ROOT
ATOM      1  C   UNL     1       3.630   3.507  62.176  1.00  0.00     0.040 C 
ATOM      2  C   UNL     1       2.652   4.619  62.390  1.00  0.00    -0.066 C 
ATOM      3  C   UNL     1       2.542   5.647  61.503  1.00  0.00     0.047 C 
ATOM      4  C   UNL     1       1.549   6.715  61.846  1.00  0.00     0.159 C 
ATOM      5  O   UNL     1       1.383   7.735  61.126  1.00  0.00    -0.295 OA
ATOM      6  C   UNL     1       0.754   6.482  63.131  1.00  0.00     0.067 C 
ATOM      7  C   UNL     1       0.319   5.002  63.043  1.00  0.00     0.021 C 
ATOM      8  C   UNL     1       1.712   4.649  63.613  1.00  0.00     0.022 C 
ATOM      9  C   UNL     1       1.744   6.067  64.256  1.00  0.00    -0.019 C 
ATOM     10  C   UNL     1       3.111   6.802  64.347  1.00  0.00     0.012 C 
ATOM     11  C   UNL     1       1.086   6.092  65.660  1.00  0.00     0.012 C 
ENDROOT
TORSDOF 0
ENDMDL
MODEL 7
REMARK VINA RESULT:    -4.064     16.228     17.709
REMARK INTER + INTRA:          -4.064
REMARK INTER:                  -4.064
REMARK INTRA:                   0.000
REMARK UNBOUND:                 0.000
REMARK SMILES CC1=CC(=O)[C@H]2C[C@@H]1C2(C)C
REMARK SMILES IDX 1 1 2 2 3 3 4 4 5 5 6 6 7 7 8 8 9 9 10 10 11 11
REMARK H PARENT
REMARK Flexibility Score: inf
ROOT
ATOM      1  C   UNL     1       6.333  20.427  75.046  1.00  0.00     0.040 C 
ATOM      2  C   UNL     1       5.430  19.295  74.668  1.00  0.00    -0.066 C 
ATOM      3  C   UNL     1       5.849  18.302  73.835  1.00  0.00     0.047 C 
ATOM      4  C   UNL     1       4.841  17.243  73.508  1.00  0.00     0.159 C 
ATOM      5  O   UNL     1       5.095  16.294  72.719  1.00  0.00    -0.295 OA
ATOM      6  C   UNL     1       3.484  17.394  74.196  1.00  0.00     0.067 C 
ATOM      7  C   UNL     1       3.840  17.716  75.664  1.00  0.00     0.021 C 
ATOM      8  C   UNL     1       3.991  19.187  75.214  1.00  0.00     0.022 C 
ATOM      9  C   UNL     1       3.015  18.869  74.044  1.00  0.00    -0.019 C 
ATOM     10  C   UNL     1       3.245  19.581  72.681  1.00  0.00     0.012 C 
ATOM     11  C   UNL     1       1.530  19.059  74.446  1.00  0.00     0.012 C 
ENDROOT
TORSDOF 0
ENDMDL
MODEL 8
REMARK VINA RESULT:    -4.048      2.579      3.887
REMARK INTER + INTRA:          -4.048
REMARK INTER:                  -4.048
REMARK INTRA:                   0.000
REMARK UNBOUND:                 0.000
REMARK SMILES CC1=CC(=O)[C@H]2C[C@@H]1C2(C)C
REMARK SMILES IDX 1 1 2 2 3 3 4 4 5 5 6 6 7 7 8 8 9 9 10 10 11 11
REMARK H PARENT
REMARK Flexibility Score: inf
ROOT
ATOM      1  C   UNL     1       0.821   5.117  62.271  1.00  0.00     0.040 C 
ATOM      2  C   UNL     1      -0.221   5.442  63.293  1.00  0.00    -0.066 C 
ATOM      3  C   UNL     1      -0.327   6.691  63.825  1.00  0.00     0.047 C 
ATOM      4  C   UNL     1      -1.391   6.882  64.862  1.00  0.00     0.159 C 
ATOM      5  O   UNL     1      -1.564   7.980  65.455  1.00  0.00    -0.295 OA
ATOM      6  C   UNL     1      -2.252   5.651  65.153  1.00  0.00     0.067 C 
ATOM      7  C   UNL     1      -2.606   5.101  63.754  1.00  0.00     0.021 C 
ATOM      8  C   UNL     1      -1.235   4.387  63.784  1.00  0.00     0.022 C 
ATOM      9  C   UNL     1      -1.313   4.426  65.338  1.00  0.00    -0.019 C 
ATOM     10  C   UNL     1       0.008   4.619  66.136  1.00  0.00     0.012 C 
ATOM     11  C   UNL     1      -2.057   3.197  65.922  1.00  0.00     0.012 C 
ENDROOT
TORSDOF 0
ENDMDL
MODEL 9
REMARK VINA RESULT:    -4.003      2.757      4.213
REMARK INTER + INTRA:          -4.003
REMARK INTER:                  -4.003
REMARK INTRA:                   0.000
REMARK UNBOUND:                 0.000
REMARK SMILES CC1=CC(=O)[C@H]2C[C@@H]1C2(C)C
REMARK SMILES IDX 1 1 2 2 3 3 4 4 5 5 6 6 7 7 8 8 9 9 10 10 11 11
REMARK H PARENT
REMARK Flexibility Score: inf
ROOT
ATOM      1  C   UNL     1       1.090   5.115  61.832  1.00  0.00     0.040 C 
ATOM      2  C   UNL     1       0.340   4.937  63.114  1.00  0.00    -0.066 C 
ATOM      3  C   UNL     1      -0.987   4.629  63.123  1.00  0.00     0.047 C 
ATOM      4  C   UNL     1      -1.630   4.508  64.471  1.00  0.00     0.159 C 
ATOM      5  O   UNL     1      -2.858   4.265  64.611  1.00  0.00    -0.295 OA
ATOM      6  C   UNL     1      -0.693   4.701  65.664  1.00  0.00     0.067 C 
ATOM      7  C   UNL     1       0.551   3.858  65.307  1.00  0.00     0.021 C 
ATOM      8  C   UNL     1       1.033   5.076  64.487  1.00  0.00     0.022 C 
ATOM      9  C   UNL     1       0.166   5.974  65.417  1.00  0.00    -0.019 C 
ATOM     10  C   UNL     1      -0.524   7.223  64.798  1.00  0.00     0.012 C 
ATOM     11  C   UNL     1       0.934   6.422  66.686  1.00  0.00     0.012 C 
ENDROOT
TORSDOF 0
ENDMDL
