MODEL 1
REMARK VINA RESULT:    -6.189      0.000      0.000
REMARK INTER + INTRA:          -6.732
REMARK INTER:                  -6.732
REMARK INTRA:                   0.000
REMARK UNBOUND:                 0.000
REMARK SMILES Cc1cc(O)c2c(c1)C(=O)c1cc(O)cc(O)c1C2=O
REMARK SMILES IDX 1 1 2 2 8 3 7 4 6 5 4 6 3 7 19 8 20 9 18 10 11 11 9 12 10 13
REMARK SMILES IDX 12 14 13 15 15 16 16 17 5 18 17 20 14 22
REMARK H PARENT 5 19 17 21 14 23
REMARK Flexibility Score: inf
ROOT
ATOM      1  C   UNL     1      -2.119  15.444 -54.249  1.00  0.00     0.044 C 
ATOM      2  C   UNL     1      -2.875  15.311 -52.959  1.00  0.00    -0.047 A 
ATOM      3  C   UNL     1      -2.387  14.487 -51.938  1.00  0.00     0.016 A 
ATOM      4  C   UNL     1      -3.068  14.385 -50.713  1.00  0.00     0.038 A 
ATOM      5  C   UNL     1      -4.251  15.124 -50.503  1.00  0.00     0.076 A 
ATOM      6  C   UNL     1      -4.725  15.976 -51.527  1.00  0.00     0.127 A 
ATOM      7  C   UNL     1      -4.032  16.065 -52.742  1.00  0.00     0.050 A 
ATOM      8  C   UNL     1      -4.980  14.974 -49.217  1.00  0.00     0.201 C 
ATOM      9  O   UNL     1      -6.190  15.320 -49.147  1.00  0.00    -0.288 OA
ATOM     10  C   UNL     1      -4.323  14.310 -48.057  1.00  0.00     0.076 A 
ATOM     11  C   UNL     1      -3.170  13.524 -48.295  1.00  0.00     0.041 A 
ATOM     12  C   UNL     1      -2.548  13.505 -49.641  1.00  0.00     0.194 C 
ATOM     13  O   UNL     1      -1.563  12.751 -49.868  1.00  0.00    -0.289 OA
ATOM     14  C   UNL     1      -2.609  12.768 -47.251  1.00  0.00     0.059 A 
ATOM     15  C   UNL     1      -3.168  12.797 -45.975  1.00  0.00     0.120 A 
ATOM     16  C   UNL     1      -4.276  13.607 -45.720  1.00  0.00     0.093 A 
ATOM     17  C   UNL     1      -4.838  14.390 -46.734  1.00  0.00     0.131 A 
ENDROOT
BRANCH   6  18
ATOM     18  O   UNL     1      -5.875  16.743 -51.338  1.00  0.00    -0.507 OA
ATOM     19  H   UNL     1      -6.554  16.877 -52.078  1.00  0.00     0.293 HD
ENDBRANCH   6  18
BRANCH  17  20
ATOM     20  O   UNL     1      -5.876  15.252 -46.371  1.00  0.00    -0.507 OA
ATOM     21  H   UNL     1      -6.181  15.392 -45.418  1.00  0.00     0.293 HD
ENDBRANCH  17  20
BRANCH  15  22
ATOM     22  O   UNL     1      -2.605  12.026 -44.961  1.00  0.00    -0.508 OA
ATOM     23  H   UNL     1      -1.666  11.652 -45.038  1.00  0.00     0.293 HD
ENDBRANCH  15  22
TORSDOF 3
ENDMDL
MODEL 2
REMARK VINA RESULT:    -6.096      2.842      5.518
REMARK INTER + INTRA:          -6.630
REMARK INTER:                  -6.630
REMARK INTRA:                   0.000
REMARK UNBOUND:                 0.000
REMARK SMILES Cc1cc(O)c2c(c1)C(=O)c1cc(O)cc(O)c1C2=O
REMARK SMILES IDX 1 1 2 2 8 3 7 4 6 5 4 6 3 7 19 8 20 9 18 10 11 11 9 12 10 13
REMARK SMILES IDX 12 14 13 15 15 16 16 17 5 18 17 20 14 22
REMARK H PARENT 5 19 17 21 14 23
REMARK Flexibility Score: inf
ROOT
ATOM      1  C   UNL     1      -0.902   9.280 -51.947  1.00  0.00     0.044 C 
ATOM      2  C   UNL     1      -1.681  10.522 -51.625  1.00  0.00    -0.047 A 
ATOM      3  C   UNL     1      -1.378  11.729 -52.266  1.00  0.00     0.016 A 
ATOM      4  C   UNL     1      -2.127  12.889 -51.999  1.00  0.00     0.038 A 
ATOM      5  C   UNL     1      -3.197  12.838 -51.082  1.00  0.00     0.076 A 
ATOM      6  C   UNL     1      -3.517  11.610 -50.458  1.00  0.00     0.127 A 
ATOM      7  C   UNL     1      -2.760  10.465 -50.737  1.00  0.00     0.050 A 
ATOM      8  C   UNL     1      -3.952  14.082 -50.781  1.00  0.00     0.201 C 
ATOM      9  O   UNL     1      -4.645  14.148 -49.731  1.00  0.00    -0.288 OA
ATOM     10  C   UNL     1      -3.797  15.282 -51.650  1.00  0.00     0.076 A 
ATOM     11  C   UNL     1      -2.683  15.341 -52.522  1.00  0.00     0.041 A 
ATOM     12  C   UNL     1      -1.795  14.164 -52.675  1.00  0.00     0.194 C 
ATOM     13  O   UNL     1      -0.765  14.243 -53.400  1.00  0.00    -0.289 OA
ATOM     14  C   UNL     1      -2.424  16.516 -53.249  1.00  0.00     0.059 A 
ATOM     15  C   UNL     1      -3.265  17.621 -53.134  1.00  0.00     0.120 A 
ATOM     16  C   UNL     1      -4.392  17.554 -52.314  1.00  0.00     0.093 A 
ATOM     17  C   UNL     1      -4.688  16.388 -51.599  1.00  0.00     0.131 A 
ENDROOT
BRANCH   6  18
ATOM     18  O   UNL     1      -4.589  11.521 -49.570  1.00  0.00    -0.507 OA
ATOM     19  H   UNL     1      -4.595  10.858 -48.805  1.00  0.00     0.293 HD
ENDBRANCH   6  18
BRANCH  17  20
ATOM     20  O   UNL     1      -5.890  16.366 -50.887  1.00  0.00    -0.507 OA
ATOM     21  H   UNL     1      -6.017  16.810 -49.988  1.00  0.00     0.293 HD
ENDBRANCH  17  20
BRANCH  15  22
ATOM     22  O   UNL     1      -2.978  18.780 -53.852  1.00  0.00    -0.508 OA
ATOM     23  H   UNL     1      -2.739  19.648 -53.386  1.00  0.00     0.293 HD
ENDBRANCH  15  22
TORSDOF 3
ENDMDL
MODEL 3
REMARK VINA RESULT:    -6.090      1.831      4.529
REMARK INTER + INTRA:          -6.624
REMARK INTER:                  -6.624
REMARK INTRA:                   0.000
REMARK UNBOUND:                 0.000
REMARK SMILES Cc1cc(O)c2c(c1)C(=O)c1cc(O)cc(O)c1C2=O
REMARK SMILES IDX 1 1 2 2 8 3 7 4 6 5 4 6 3 7 19 8 20 9 18 10 11 11 9 12 10 13
REMARK SMILES IDX 12 14 13 15 15 16 16 17 5 18 17 20 14 22
REMARK H PARENT 5 19 17 21 14 23
REMARK Flexibility Score: inf
ROOT
ATOM      1  C   UNL     1      -0.550  15.248 -56.731  1.00  0.00     0.044 C 
ATOM      2  C   UNL     1      -0.805  14.891 -55.296  1.00  0.00    -0.047 A 
ATOM      3  C   UNL     1      -1.924  15.407 -54.630  1.00  0.00     0.016 A 
ATOM      4  C   UNL     1      -2.193  15.048 -53.298  1.00  0.00     0.038 A 
ATOM      5  C   UNL     1      -1.334  14.155 -52.624  1.00  0.00     0.076 A 
ATOM      6  C   UNL     1      -0.222  13.615 -53.309  1.00  0.00     0.127 A 
ATOM      7  C   UNL     1       0.030  13.983 -54.638  1.00  0.00     0.050 A 
ATOM      8  C   UNL     1      -1.610  13.818 -51.204  1.00  0.00     0.201 C 
ATOM      9  O   UNL     1      -0.690  13.336 -50.491  1.00  0.00    -0.288 OA
ATOM     10  C   UNL     1      -2.927  14.158 -50.595  1.00  0.00     0.076 A 
ATOM     11  C   UNL     1      -3.750  15.101 -51.257  1.00  0.00     0.041 A 
ATOM     12  C   UNL     1      -3.374  15.605 -52.599  1.00  0.00     0.194 C 
ATOM     13  O   UNL     1      -4.073  16.496 -53.155  1.00  0.00    -0.289 OA
ATOM     14  C   UNL     1      -4.930  15.554 -50.641  1.00  0.00     0.059 A 
ATOM     15  C   UNL     1      -5.309  15.070 -49.391  1.00  0.00     0.120 A 
ATOM     16  C   UNL     1      -4.528  14.104 -48.754  1.00  0.00     0.093 A 
ATOM     17  C   UNL     1      -3.363  13.616 -49.355  1.00  0.00     0.131 A 
ENDROOT
BRANCH   6  18
ATOM     18  O   UNL     1       0.628  12.705 -52.680  1.00  0.00    -0.507 OA
ATOM     19  H   UNL     1       1.457  13.006 -52.181  1.00  0.00     0.293 HD
ENDBRANCH   6  18
BRANCH  17  20
ATOM     20  O   UNL     1      -2.698  12.575 -48.703  1.00  0.00    -0.507 OA
ATOM     21  H   UNL     1      -1.945  12.044 -49.118  1.00  0.00     0.293 HD
ENDBRANCH  17  20
BRANCH  15  22
ATOM     22  O   UNL     1      -6.474  15.547 -48.794  1.00  0.00    -0.508 OA
ATOM     23  H   UNL     1      -7.053  14.953 -48.210  1.00  0.00     0.293 HD
ENDBRANCH  15  22
TORSDOF 3
ENDMDL
MODEL 4
REMARK VINA RESULT:    -6.086      7.852      9.974
REMARK INTER + INTRA:          -6.620
REMARK INTER:                  -6.620
REMARK INTRA:                   0.000
REMARK UNBOUND:                 0.000
REMARK SMILES Cc1cc(O)c2c(c1)C(=O)c1cc(O)cc(O)c1C2=O
REMARK SMILES IDX 1 1 2 2 8 3 7 4 6 5 4 6 3 7 19 8 20 9 18 10 11 11 9 12 10 13
REMARK SMILES IDX 12 14 13 15 15 16 16 17 5 18 17 20 14 22
REMARK H PARENT 5 19 17 21 14 23
REMARK Flexibility Score: inf
ROOT
ATOM      1  C   UNL     1       6.151  19.553 -45.565  1.00  0.00     0.044 C 
ATOM      2  C   UNL     1       5.578  18.264 -45.053  1.00  0.00    -0.047 A 
ATOM      3  C   UNL     1       4.963  17.367 -45.935  1.00  0.00     0.016 A 
ATOM      4  C   UNL     1       4.457  16.140 -45.472  1.00  0.00     0.038 A 
ATOM      5  C   UNL     1       4.574  15.802 -44.107  1.00  0.00     0.076 A 
ATOM      6  C   UNL     1       5.221  16.699 -43.225  1.00  0.00     0.127 A 
ATOM      7  C   UNL     1       5.720  17.917 -43.706  1.00  0.00     0.050 A 
ATOM      8  C   UNL     1       3.998  14.520 -43.626  1.00  0.00     0.201 C 
ATOM      9  O   UNL     1       3.766  14.367 -42.397  1.00  0.00    -0.288 OA
ATOM     10  C   UNL     1       3.588  13.471 -44.601  1.00  0.00     0.076 A 
ATOM     11  C   UNL     1       3.419  13.842 -45.957  1.00  0.00     0.041 A 
ATOM     12  C   UNL     1       3.801  15.200 -46.410  1.00  0.00     0.194 C 
ATOM     13  O   UNL     1       3.586  15.550 -47.603  1.00  0.00    -0.289 OA
ATOM     14  C   UNL     1       2.895  12.916 -46.876  1.00  0.00     0.059 A 
ATOM     15  C   UNL     1       2.554  11.628 -46.469  1.00  0.00     0.120 A 
ATOM     16  C   UNL     1       2.763  11.239 -45.145  1.00  0.00     0.093 A 
ATOM     17  C   UNL     1       3.308  12.131 -44.216  1.00  0.00     0.131 A 
ENDROOT
BRANCH   6  18
ATOM     18  O   UNL     1       5.380  16.380 -41.876  1.00  0.00    -0.507 OA
ATOM     19  H   UNL     1       6.288  16.396 -41.428  1.00  0.00     0.293 HD
ENDBRANCH   6  18
BRANCH  17  20
ATOM     20  O   UNL     1       3.585  11.632 -42.941  1.00  0.00    -0.507 OA
ATOM     21  H   UNL     1       3.836  10.670 -42.757  1.00  0.00     0.293 HD
ENDBRANCH  17  20
BRANCH  15  22
ATOM     22  O   UNL     1       2.020  10.734 -47.395  1.00  0.00    -0.508 OA
ATOM     23  H   UNL     1       2.113   9.731 -47.280  1.00  0.00     0.293 HD
ENDBRANCH  15  22
TORSDOF 3
ENDMDL
MODEL 5
REMARK VINA RESULT:    -6.064      5.190      6.880
REMARK INTER + INTRA:          -6.596
REMARK INTER:                  -6.596
REMARK INTRA:                   0.000
REMARK UNBOUND:                 0.000
REMARK SMILES Cc1cc(O)c2c(c1)C(=O)c1cc(O)cc(O)c1C2=O
REMARK SMILES IDX 1 1 2 2 8 3 7 4 6 5 4 6 3 7 19 8 20 9 18 10 11 11 9 12 10 13
REMARK SMILES IDX 12 14 13 15 15 16 16 17 5 18 17 20 14 22
REMARK H PARENT 5 19 17 21 14 23
REMARK Flexibility Score: inf
ROOT
ATOM      1  C   UNL     1       2.226  10.969 -44.270  1.00  0.00     0.044 C 
ATOM      2  C   UNL     1       0.806  11.367 -44.552  1.00  0.00    -0.047 A 
ATOM      3  C   UNL     1      -0.245  10.787 -43.831  1.00  0.00     0.016 A 
ATOM      4  C   UNL     1      -1.575  11.180 -44.062  1.00  0.00     0.038 A 
ATOM      5  C   UNL     1      -1.856  12.172 -45.024  1.00  0.00     0.076 A 
ATOM      6  C   UNL     1      -0.790  12.775 -45.730  1.00  0.00     0.127 A 
ATOM      7  C   UNL     1       0.529  12.370 -45.486  1.00  0.00     0.050 A 
ATOM      8  C   UNL     1      -3.270  12.547 -45.284  1.00  0.00     0.201 C 
ATOM      9  O   UNL     1      -3.568  13.138 -46.357  1.00  0.00    -0.288 OA
ATOM     10  C   UNL     1      -4.343  12.124 -44.342  1.00  0.00     0.076 A 
ATOM     11  C   UNL     1      -4.060  11.085 -43.422  1.00  0.00     0.041 A 
ATOM     12  C   UNL     1      -2.681  10.556 -43.300  1.00  0.00     0.194 C 
ATOM     13  O   UNL     1      -2.445   9.585 -42.530  1.00  0.00    -0.289 OA
ATOM     14  C   UNL     1      -5.087  10.562 -42.619  1.00  0.00     0.059 A 
ATOM     15  C   UNL     1      -6.383  11.066 -42.706  1.00  0.00     0.120 A 
ATOM     16  C   UNL     1      -6.660  12.123 -43.574  1.00  0.00     0.093 A 
ATOM     17  C   UNL     1      -5.651  12.681 -44.366  1.00  0.00     0.131 A 
ENDROOT
BRANCH   6  18
ATOM     18  O   UNL     1      -1.034  13.781 -46.665  1.00  0.00    -0.507 OA
ATOM     19  H   UNL     1      -1.868  13.784 -47.240  1.00  0.00     0.293 HD
ENDBRANCH   6  18
BRANCH  17  20
ATOM     20  O   UNL     1      -5.987  13.803 -45.128  1.00  0.00    -0.507 OA
ATOM     21  H   UNL     1      -6.938  14.080 -45.330  1.00  0.00     0.293 HD
ENDBRANCH  17  20
BRANCH  15  22
ATOM     22  O   UNL     1      -7.388  10.519 -41.911  1.00  0.00    -0.508 OA
ATOM     23  H   UNL     1      -7.191  10.140 -40.992  1.00  0.00     0.293 HD
ENDBRANCH  15  22
TORSDOF 3
ENDMDL
MODEL 6
REMARK VINA RESULT:    -5.949      9.079     10.280
REMARK INTER + INTRA:          -6.471
REMARK INTER:                  -6.471
REMARK INTRA:                   0.000
REMARK UNBOUND:                 0.000
REMARK SMILES Cc1cc(O)c2c(c1)C(=O)c1cc(O)cc(O)c1C2=O
REMARK SMILES IDX 1 1 2 2 8 3 7 4 6 5 4 6 3 7 19 8 20 9 18 10 11 11 9 12 10 13
REMARK SMILES IDX 12 14 13 15 15 16 16 17 5 18 17 20 14 22
REMARK H PARENT 5 19 17 21 14 23
REMARK Flexibility Score: inf
ROOT
ATOM      1  C   UNL     1      -5.102   8.499 -55.361  1.00  0.00     0.044 C 
ATOM      2  C   UNL     1      -4.430   7.786 -54.224  1.00  0.00    -0.047 A 
ATOM      3  C   UNL     1      -4.685   6.428 -53.995  1.00  0.00     0.016 A 
ATOM      4  C   UNL     1      -4.033   5.741 -52.957  1.00  0.00     0.038 A 
ATOM      5  C   UNL     1      -3.107   6.421 -52.139  1.00  0.00     0.076 A 
ATOM      6  C   UNL     1      -2.831   7.785 -52.390  1.00  0.00     0.127 A 
ATOM      7  C   UNL     1      -3.491   8.453 -53.431  1.00  0.00     0.050 A 
ATOM      8  C   UNL     1      -2.456   5.691 -51.020  1.00  0.00     0.201 C 
ATOM      9  O   UNL     1      -1.927   6.342 -50.080  1.00  0.00    -0.288 OA
ATOM     10  C   UNL     1      -2.532   4.205 -50.950  1.00  0.00     0.076 A 
ATOM     11  C   UNL     1      -3.509   3.544 -51.735  1.00  0.00     0.041 A 
ATOM     12  C   UNL     1      -4.315   4.307 -52.717  1.00  0.00     0.194 C 
ATOM     13  O   UNL     1      -5.230   3.729 -53.365  1.00  0.00    -0.289 OA
ATOM     14  C   UNL     1      -3.706   2.161 -51.587  1.00  0.00     0.059 A 
ATOM     15  C   UNL     1      -2.939   1.427 -50.685  1.00  0.00     0.120 A 
ATOM     16  C   UNL     1      -1.941   2.062 -49.943  1.00  0.00     0.093 A 
ATOM     17  C   UNL     1      -1.705   3.433 -50.090  1.00  0.00     0.131 A 
ENDROOT
BRANCH   6  18
ATOM     18  O   UNL     1      -1.897   8.477 -51.619  1.00  0.00    -0.507 OA
ATOM     19  H   UNL     1      -1.044   8.038 -51.294  1.00  0.00     0.293 HD
ENDBRANCH   6  18
BRANCH  17  20
ATOM     20  O   UNL     1      -0.620   3.970 -49.392  1.00  0.00    -0.507 OA
ATOM     21  H   UNL     1       0.303   4.079 -49.788  1.00  0.00     0.293 HD
ENDBRANCH  17  20
BRANCH  15  22
ATOM     22  O   UNL     1      -3.165   0.059 -50.544  1.00  0.00    -0.508 OA
ATOM     23  H   UNL     1      -3.760  -0.308 -49.810  1.00  0.00     0.293 HD
ENDBRANCH  15  22
TORSDOF 3
ENDMDL
MODEL 7
REMARK VINA RESULT:    -5.878      2.410      6.333
REMARK INTER + INTRA:          -6.394
REMARK INTER:                  -6.394
REMARK INTRA:                   0.000
REMARK UNBOUND:                 0.000
REMARK SMILES Cc1cc(O)c2c(c1)C(=O)c1cc(O)cc(O)c1C2=O
REMARK SMILES IDX 1 1 2 2 8 3 7 4 6 5 4 6 3 7 19 8 20 9 18 10 11 11 9 12 10 13
REMARK SMILES IDX 12 14 13 15 15 16 16 17 5 18 17 20 14 22
REMARK H PARENT 5 19 17 21 14 23
REMARK Flexibility Score: inf
ROOT
ATOM      1  C   UNL     1      -6.287  11.004 -43.124  1.00  0.00     0.044 C 
ATOM      2  C   UNL     1      -5.572  12.016 -43.971  1.00  0.00    -0.047 A 
ATOM      3  C   UNL     1      -5.530  11.866 -45.363  1.00  0.00     0.016 A 
ATOM      4  C   UNL     1      -4.895  12.828 -46.168  1.00  0.00     0.038 A 
ATOM      5  C   UNL     1      -4.298  13.959 -45.572  1.00  0.00     0.076 A 
ATOM      6  C   UNL     1      -4.367  14.120 -44.169  1.00  0.00     0.127 A 
ATOM      7  C   UNL     1      -5.006  13.151 -43.383  1.00  0.00     0.050 A 
ATOM      8  C   UNL     1      -3.596  14.945 -46.434  1.00  0.00     0.201 C 
ATOM      9  O   UNL     1      -2.766  15.740 -45.917  1.00  0.00    -0.288 OA
ATOM     10  C   UNL     1      -3.782  14.916 -47.911  1.00  0.00     0.076 A 
ATOM     11  C   UNL     1      -4.328  13.748 -48.497  1.00  0.00     0.041 A 
ATOM     12  C   UNL     1      -4.848  12.658 -47.638  1.00  0.00     0.194 C 
ATOM     13  O   UNL     1      -5.271  11.591 -48.162  1.00  0.00    -0.289 OA
ATOM     14  C   UNL     1      -4.384  13.627 -49.897  1.00  0.00     0.059 A 
ATOM     15  C   UNL     1      -3.922  14.655 -50.717  1.00  0.00     0.120 A 
ATOM     16  C   UNL     1      -3.427  15.829 -50.147  1.00  0.00     0.093 A 
ATOM     17  C   UNL     1      -3.384  15.987 -48.758  1.00  0.00     0.131 A 
ENDROOT
BRANCH   6  18
ATOM     18  O   UNL     1      -3.814  15.243 -43.554  1.00  0.00    -0.507 OA
ATOM     19  H   UNL     1      -4.155  15.586 -42.663  1.00  0.00     0.293 HD
ENDBRANCH   6  18
BRANCH  17  20
ATOM     20  O   UNL     1      -2.976  17.231 -48.270  1.00  0.00    -0.507 OA
ATOM     21  H   UNL     1      -2.015  17.465 -48.065  1.00  0.00     0.293 HD
ENDBRANCH  17  20
BRANCH  15  22
ATOM     22  O   UNL     1      -3.972  14.504 -52.101  1.00  0.00    -0.508 OA
ATOM     23  H   UNL     1      -4.840  14.606 -52.615  1.00  0.00     0.293 HD
ENDBRANCH  15  22
TORSDOF 3
ENDMDL
MODEL 8
REMARK VINA RESULT:    -5.807      3.516      6.706
REMARK INTER + INTRA:          -6.316
REMARK INTER:                  -6.316
REMARK INTRA:                   0.000
REMARK UNBOUND:                 0.000
REMARK SMILES Cc1cc(O)c2c(c1)C(=O)c1cc(O)cc(O)c1C2=O
REMARK SMILES IDX 1 1 2 2 8 3 7 4 6 5 4 6 3 7 19 8 20 9 18 10 11 11 9 12 10 13
REMARK SMILES IDX 12 14 13 15 15 16 16 17 5 18 17 20 14 22
REMARK H PARENT 5 19 17 21 14 23
REMARK Flexibility Score: inf
ROOT
ATOM      1  C   UNL     1      -7.030  10.352 -42.367  1.00  0.00     0.044 C 
ATOM      2  C   UNL     1      -6.448  11.125 -43.514  1.00  0.00    -0.047 A 
ATOM      3  C   UNL     1      -5.611  12.221 -43.272  1.00  0.00     0.016 A 
ATOM      4  C   UNL     1      -5.030  12.928 -44.339  1.00  0.00     0.038 A 
ATOM      5  C   UNL     1      -5.286  12.529 -45.668  1.00  0.00     0.076 A 
ATOM      6  C   UNL     1      -6.110  11.406 -45.907  1.00  0.00     0.127 A 
ATOM      7  C   UNL     1      -6.679  10.712 -44.830  1.00  0.00     0.050 A 
ATOM      8  C   UNL     1      -4.697  13.312 -46.785  1.00  0.00     0.201 C 
ATOM      9  O   UNL     1      -5.190  13.210 -47.940  1.00  0.00    -0.288 OA
ATOM     10  C   UNL     1      -3.613  14.298 -46.519  1.00  0.00     0.076 A 
ATOM     11  C   UNL     1      -3.410  14.731 -45.186  1.00  0.00     0.041 A 
ATOM     12  C   UNL     1      -4.152  14.091 -44.074  1.00  0.00     0.194 C 
ATOM     13  O   UNL     1      -4.020  14.525 -42.897  1.00  0.00    -0.289 OA
ATOM     14  C   UNL     1      -2.495  15.765 -44.918  1.00  0.00     0.059 A 
ATOM     15  C   UNL     1      -1.773  16.359 -45.950  1.00  0.00     0.120 A 
ATOM     16  C   UNL     1      -1.932  15.905 -47.260  1.00  0.00     0.093 A 
ATOM     17  C   UNL     1      -2.814  14.860 -47.553  1.00  0.00     0.131 A 
ENDROOT
BRANCH   6  18
ATOM     18  O   UNL     1      -6.356  10.967 -47.208  1.00  0.00    -0.507 OA
ATOM     19  H   UNL     1      -6.043  11.492 -48.016  1.00  0.00     0.293 HD
ENDBRANCH   6  18
BRANCH  17  20
ATOM     20  O   UNL     1      -2.835  14.394 -48.869  1.00  0.00    -0.507 OA
ATOM     21  H   UNL     1      -3.598  14.561 -49.511  1.00  0.00     0.293 HD
ENDBRANCH  17  20
BRANCH  15  22
ATOM     22  O   UNL     1      -0.885  17.393 -45.661  1.00  0.00    -0.508 OA
ATOM     23  H   UNL     1      -1.119  18.123 -44.997  1.00  0.00     0.293 HD
ENDBRANCH  15  22
TORSDOF 3
ENDMDL
MODEL 9
REMARK VINA RESULT:    -5.742      2.739      3.908
REMARK INTER + INTRA:          -6.246
REMARK INTER:                  -6.246
REMARK INTRA:                   0.000
REMARK UNBOUND:                 0.000
REMARK SMILES Cc1cc(O)c2c(c1)C(=O)c1cc(O)cc(O)c1C2=O
REMARK SMILES IDX 1 1 2 2 8 3 7 4 6 5 4 6 3 7 19 8 20 9 18 10 11 11 9 12 10 13
REMARK SMILES IDX 12 14 13 15 15 16 16 17 5 18 17 20 14 22
REMARK H PARENT 5 19 17 21 14 23
REMARK Flexibility Score: inf
ROOT
ATOM      1  C   UNL     1      -3.171  18.775 -53.788  1.00  0.00     0.044 C 
ATOM      2  C   UNL     1      -3.355  17.471 -53.067  1.00  0.00    -0.047 A 
ATOM      3  C   UNL     1      -2.432  16.433 -53.243  1.00  0.00     0.016 A 
ATOM      4  C   UNL     1      -2.575  15.221 -52.544  1.00  0.00     0.038 A 
ATOM      5  C   UNL     1      -3.653  15.049 -51.651  1.00  0.00     0.076 A 
ATOM      6  C   UNL     1      -4.567  16.110 -51.456  1.00  0.00     0.127 A 
ATOM      7  C   UNL     1      -4.408  17.311 -52.161  1.00  0.00     0.050 A 
ATOM      8  C   UNL     1      -3.812  13.748 -50.950  1.00  0.00     0.201 C 
ATOM      9  O   UNL     1      -4.929  13.445 -50.452  1.00  0.00    -0.288 OA
ATOM     10  C   UNL     1      -2.697  12.761 -50.941  1.00  0.00     0.076 A 
ATOM     11  C   UNL     1      -1.653  12.917 -51.885  1.00  0.00     0.041 A 
ATOM     12  C   UNL     1      -1.599  14.125 -52.742  1.00  0.00     0.194 C 
ATOM     13  O   UNL     1      -0.707  14.229 -53.628  1.00  0.00    -0.289 OA
ATOM     14  C   UNL     1      -0.661  11.927 -52.002  1.00  0.00     0.059 A 
ATOM     15  C   UNL     1      -0.686  10.798 -51.186  1.00  0.00     0.120 A 
ATOM     16  C   UNL     1      -1.684  10.660 -50.221  1.00  0.00     0.093 A 
ATOM     17  C   UNL     1      -2.668  11.642 -50.064  1.00  0.00     0.131 A 
ENDROOT
BRANCH   6  18
ATOM     18  O   UNL     1      -5.625  15.981 -50.556  1.00  0.00    -0.507 OA
ATOM     19  H   UNL     1      -6.448  15.432 -50.775  1.00  0.00     0.293 HD
ENDBRANCH   6  18
BRANCH  17  20
ATOM     20  O   UNL     1      -3.566  11.481 -49.006  1.00  0.00    -0.507 OA
ATOM     21  H   UNL     1      -3.904  12.244 -48.436  1.00  0.00     0.293 HD
ENDBRANCH  17  20
BRANCH  15  22
ATOM     22  O   UNL     1       0.298   9.823 -51.334  1.00  0.00    -0.508 OA
ATOM     23  H   UNL     1       1.171   9.867 -50.820  1.00  0.00     0.293 HD
ENDBRANCH  15  22
TORSDOF 3
ENDMDL
