MODEL 1
REMARK VINA RESULT:    -4.538      0.000      0.000
REMARK INTER + INTRA:          -4.670
REMARK INTER:                  -4.670
REMARK INTRA:                   0.000
REMARK UNBOUND:                 0.000
REMARK SMILES Oc1ccc2[nH]ccc2c1
REMARK SMILES IDX 3 1 4 2 5 3 9 4 8 5 7 6 6 7 10 8 2 9 1 11
REMARK H PARENT 6 10 1 12
REMARK Flexibility Score: inf
ROOT
ATOM      1  C   UNL     1      15.217  -8.008  25.382  1.00  0.00     0.048 A 
ATOM      2  C   UNL     1      15.378  -7.181  24.255  1.00  0.00     0.030 A 
ATOM      3  C   UNL     1      14.518  -7.378  23.176  1.00  0.00     0.046 A 
ATOM      4  C   UNL     1      13.544  -8.340  23.198  1.00  0.00     0.003 A 
ATOM      5  C   UNL     1      12.875  -8.277  21.995  1.00  0.00     0.028 A 
ATOM      6  C   UNL     1      13.496  -7.252  21.288  1.00  0.00     0.083 A 
ATOM      7  N   UNL     1      14.499  -6.707  22.013  1.00  0.00    -0.361 N 
ATOM      8  C   UNL     1      13.359  -9.175  24.298  1.00  0.00     0.056 A 
ATOM      9  C   UNL     1      14.210  -9.004  25.406  1.00  0.00     0.116 A 
ATOM     10  H   UNL     1      15.127  -5.923  21.725  1.00  0.00     0.166 HD
ENDROOT
BRANCH   9  11
ATOM     11  O   UNL     1      14.052  -9.822  26.523  1.00  0.00    -0.508 OA
ATOM     12  H   UNL     1      14.682 -10.594  26.706  1.00  0.00     0.293 HD
ENDBRANCH   9  11
TORSDOF 1
ENDMDL
MODEL 2
REMARK VINA RESULT:    -4.271      1.533      2.230
REMARK INTER + INTRA:          -4.396
REMARK INTER:                  -4.396
REMARK INTRA:                   0.000
REMARK UNBOUND:                 0.000
REMARK SMILES Oc1ccc2[nH]ccc2c1
REMARK SMILES IDX 3 1 4 2 5 3 9 4 8 5 7 6 6 7 10 8 2 9 1 11
REMARK H PARENT 6 10 1 12
REMARK Flexibility Score: inf
ROOT
ATOM      1  C   UNL     1      14.746  -8.742  25.012  1.00  0.00     0.048 A 
ATOM      2  C   UNL     1      13.793  -9.119  24.049  1.00  0.00     0.030 A 
ATOM      3  C   UNL     1      13.708  -8.357  22.885  1.00  0.00     0.046 A 
ATOM      4  C   UNL     1      14.519  -7.275  22.672  1.00  0.00     0.003 A 
ATOM      5  C   UNL     1      14.187  -6.746  21.445  1.00  0.00     0.028 A 
ATOM      6  C   UNL     1      13.165  -7.558  20.964  1.00  0.00     0.083 A 
ATOM      7  N   UNL     1      12.875  -8.540  21.847  1.00  0.00    -0.361 N 
ATOM      8  C   UNL     1      15.473  -6.875  23.606  1.00  0.00     0.056 A 
ATOM      9  C   UNL     1      15.586  -7.623  24.794  1.00  0.00     0.116 A 
ATOM     10  H   UNL     1      12.152  -9.287  21.740  1.00  0.00     0.166 HD
ENDROOT
BRANCH   9  11
ATOM     11  O   UNL     1      16.531  -7.250  25.749  1.00  0.00    -0.508 OA
ATOM     12  H   UNL     1      16.359  -7.378  26.739  1.00  0.00     0.293 HD
ENDBRANCH   9  11
TORSDOF 1
ENDMDL
MODEL 3
REMARK VINA RESULT:    -4.230      2.624      4.082
REMARK INTER + INTRA:          -4.354
REMARK INTER:                  -4.354
REMARK INTRA:                   0.000
REMARK UNBOUND:                 0.000
REMARK SMILES Oc1ccc2[nH]ccc2c1
REMARK SMILES IDX 3 1 4 2 5 3 9 4 8 5 7 6 6 7 10 8 2 9 1 11
REMARK H PARENT 6 10 1 12
REMARK Flexibility Score: inf
ROOT
ATOM      1  C   UNL     1      13.231  -7.646  21.600  1.00  0.00     0.048 A 
ATOM      2  C   UNL     1      12.876  -8.597  22.573  1.00  0.00     0.030 A 
ATOM      3  C   UNL     1      13.588  -8.600  23.771  1.00  0.00     0.046 A 
ATOM      4  C   UNL     1      14.602  -7.711  24.008  1.00  0.00     0.003 A 
ATOM      5  C   UNL     1      15.095  -7.974  25.266  1.00  0.00     0.028 A 
ATOM      6  C   UNL     1      14.333  -9.037  25.741  1.00  0.00     0.083 A 
ATOM      7  N   UNL     1      13.414  -9.416  24.823  1.00  0.00    -0.361 N 
ATOM      8  C   UNL     1      14.979  -6.756  23.065  1.00  0.00     0.056 A 
ATOM      9  C   UNL     1      14.280  -6.725  21.842  1.00  0.00     0.116 A 
ATOM     10  H   UNL     1      12.714 -10.186  24.918  1.00  0.00     0.166 HD
ENDROOT
BRANCH   9  11
ATOM     11  O   UNL     1      14.631  -5.783  20.878  1.00  0.00    -0.508 OA
ATOM     12  H   UNL     1      15.181  -6.038  20.066  1.00  0.00     0.293 HD
ENDBRANCH   9  11
TORSDOF 1
ENDMDL
MODEL 4
REMARK VINA RESULT:    -4.155     20.548     22.224
REMARK INTER + INTRA:          -4.277
REMARK INTER:                  -4.277
REMARK INTRA:                   0.000
REMARK UNBOUND:                 0.000
REMARK SMILES Oc1ccc2[nH]ccc2c1
REMARK SMILES IDX 3 1 4 2 5 3 9 4 8 5 7 6 6 7 10 8 2 9 1 11
REMARK H PARENT 6 10 1 12
REMARK Flexibility Score: inf
ROOT
ATOM      1  C   UNL     1      30.868 -11.989  35.503  1.00  0.00     0.048 A 
ATOM      2  C   UNL     1      32.033 -12.123  36.281  1.00  0.00     0.030 A 
ATOM      3  C   UNL     1      32.113 -11.391  37.465  1.00  0.00     0.046 A 
ATOM      4  C   UNL     1      31.098 -10.565  37.870  1.00  0.00     0.003 A 
ATOM      5  C   UNL     1      31.483  -9.995  39.063  1.00  0.00     0.028 A 
ATOM      6  C   UNL     1      32.745 -10.520  39.327  1.00  0.00     0.083 A 
ATOM      7  N   UNL     1      33.125 -11.371  38.347  1.00  0.00    -0.361 N 
ATOM      8  C   UNL     1      29.932 -10.410  37.123  1.00  0.00     0.056 A 
ATOM      9  C   UNL     1      29.818 -11.135  35.921  1.00  0.00     0.116 A 
ATOM     10  H   UNL     1      34.022 -11.904  38.292  1.00  0.00     0.166 HD
ENDROOT
BRANCH   9  11
ATOM     11  O   UNL     1      28.665 -11.003  35.150  1.00  0.00    -0.508 OA
ATOM     12  H   UNL     1      28.122 -11.811  34.869  1.00  0.00     0.293 HD
ENDBRANCH   9  11
TORSDOF 1
ENDMDL
MODEL 5
REMARK VINA RESULT:    -4.105      1.990      2.682
REMARK INTER + INTRA:          -4.225
REMARK INTER:                  -4.225
REMARK INTRA:                   0.000
REMARK UNBOUND:                 0.000
REMARK SMILES Oc1ccc2[nH]ccc2c1
REMARK SMILES IDX 3 1 4 2 5 3 9 4 8 5 7 6 6 7 10 8 2 9 1 11
REMARK H PARENT 6 10 1 12
REMARK Flexibility Score: inf
ROOT
ATOM      1  C   UNL     1      13.918  -8.833  23.703  1.00  0.00     0.048 A 
ATOM      2  C   UNL     1      14.435  -7.559  24.001  1.00  0.00     0.030 A 
ATOM      3  C   UNL     1      14.517  -6.631  22.963  1.00  0.00     0.046 A 
ATOM      4  C   UNL     1      14.113  -6.937  21.691  1.00  0.00     0.003 A 
ATOM      5  C   UNL     1      14.323  -5.821  20.912  1.00  0.00     0.028 A 
ATOM      6  C   UNL     1      14.858  -4.870  21.777  1.00  0.00     0.083 A 
ATOM      7  N   UNL     1      14.975  -5.371  23.028  1.00  0.00    -0.361 N 
ATOM      8  C   UNL     1      13.598  -8.190  21.363  1.00  0.00     0.056 A 
ATOM      9  C   UNL     1      13.500  -9.151  22.387  1.00  0.00     0.116 A 
ATOM     10  H   UNL     1      15.345  -4.874  23.870  1.00  0.00     0.166 HD
ENDROOT
BRANCH   9  11
ATOM     11  O   UNL     1      12.989 -10.413  22.094  1.00  0.00    -0.508 OA
ATOM     12  H   UNL     1      13.273 -10.918  21.263  1.00  0.00     0.293 HD
ENDBRANCH   9  11
TORSDOF 1
ENDMDL
MODEL 6
REMARK VINA RESULT:    -3.783     20.830     21.539
REMARK INTER + INTRA:          -3.894
REMARK INTER:                  -3.894
REMARK INTRA:                   0.000
REMARK UNBOUND:                 0.000
REMARK SMILES Oc1ccc2[nH]ccc2c1
REMARK SMILES IDX 3 1 4 2 5 3 9 4 8 5 7 6 6 7 10 8 2 9 1 11
REMARK H PARENT 6 10 1 12
REMARK Flexibility Score: inf
ROOT
ATOM      1  C   UNL     1      26.051   1.011  39.833  1.00  0.00     0.048 A 
ATOM      2  C   UNL     1      27.002   0.027  40.163  1.00  0.00     0.030 A 
ATOM      3  C   UNL     1      27.695  -0.583  39.119  1.00  0.00     0.046 A 
ATOM      4  C   UNL     1      27.469  -0.247  37.811  1.00  0.00     0.003 A 
ATOM      5  C   UNL     1      28.303  -1.022  37.037  1.00  0.00     0.028 A 
ATOM      6  C   UNL     1      29.010  -1.809  37.940  1.00  0.00     0.083 A 
ATOM      7  N   UNL     1      28.635  -1.538  39.211  1.00  0.00    -0.361 N 
ATOM      8  C   UNL     1      26.535   0.723  37.451  1.00  0.00     0.056 A 
ATOM      9  C   UNL     1      25.817   1.361  38.481  1.00  0.00     0.116 A 
ATOM     10  H   UNL     1      29.003  -1.982  40.082  1.00  0.00     0.166 HD
ENDROOT
BRANCH   9  11
ATOM     11  O   UNL     1      24.876   2.335  38.156  1.00  0.00    -0.508 OA
ATOM     12  H   UNL     1      23.955   2.087  37.813  1.00  0.00     0.293 HD
ENDBRANCH   9  11
TORSDOF 1
ENDMDL
MODEL 7
REMARK VINA RESULT:    -3.776      2.601      3.574
REMARK INTER + INTRA:          -3.886
REMARK INTER:                  -3.886
REMARK INTRA:                   0.000
REMARK UNBOUND:                 0.000
REMARK SMILES Oc1ccc2[nH]ccc2c1
REMARK SMILES IDX 3 1 4 2 5 3 9 4 8 5 7 6 6 7 10 8 2 9 1 11
REMARK H PARENT 6 10 1 12
REMARK Flexibility Score: inf
ROOT
ATOM      1  C   UNL     1      15.512  -6.773  23.262  1.00  0.00     0.048 A 
ATOM      2  C   UNL     1      15.736  -7.396  24.503  1.00  0.00     0.030 A 
ATOM      3  C   UNL     1      14.762  -8.275  24.975  1.00  0.00     0.046 A 
ATOM      4  C   UNL     1      13.621  -8.534  24.264  1.00  0.00     0.003 A 
ATOM      5  C   UNL     1      12.875  -9.432  24.995  1.00  0.00     0.028 A 
ATOM      6  C   UNL     1      13.624  -9.678  26.142  1.00  0.00     0.083 A 
ATOM      7  N   UNL     1      14.775  -8.968  26.125  1.00  0.00    -0.361 N 
ATOM      8  C   UNL     1      13.369  -7.934  23.032  1.00  0.00     0.056 A 
ATOM      9  C   UNL     1      14.332  -7.040  22.525  1.00  0.00     0.116 A 
ATOM     10  H   UNL     1      15.520  -8.964  26.858  1.00  0.00     0.166 HD
ENDROOT
BRANCH   9  11
ATOM     11  O   UNL     1      14.112  -6.423  21.295  1.00  0.00    -0.508 OA
ATOM     12  H   UNL     1      13.474  -5.642  21.203  1.00  0.00     0.293 HD
ENDBRANCH   9  11
TORSDOF 1
ENDMDL
MODEL 8
REMARK VINA RESULT:    -3.775     20.582     21.027
REMARK INTER + INTRA:          -3.886
REMARK INTER:                  -3.886
REMARK INTRA:                   0.000
REMARK UNBOUND:                 0.000
REMARK SMILES Oc1ccc2[nH]ccc2c1
REMARK SMILES IDX 3 1 4 2 5 3 9 4 8 5 7 6 6 7 10 8 2 9 1 11
REMARK H PARENT 6 10 1 12
REMARK Flexibility Score: inf
ROOT
ATOM      1  C   UNL     1      27.489  -3.378  38.498  1.00  0.00     0.048 A 
ATOM      2  C   UNL     1      26.701  -2.596  39.363  1.00  0.00     0.030 A 
ATOM      3  C   UNL     1      26.673  -1.219  39.151  1.00  0.00     0.046 A 
ATOM      4  C   UNL     1      27.384  -0.632  38.138  1.00  0.00     0.003 A 
ATOM      5  C   UNL     1      27.146   0.723  38.199  1.00  0.00     0.028 A 
ATOM      6  C   UNL     1      26.279   0.892  39.274  1.00  0.00     0.083 A 
ATOM      7  N   UNL     1      25.994  -0.297  39.853  1.00  0.00    -0.361 N 
ATOM      8  C   UNL     1      28.173  -1.377  37.264  1.00  0.00     0.056 A 
ATOM      9  C   UNL     1      28.224  -2.772  37.450  1.00  0.00     0.116 A 
ATOM     10  H   UNL     1      25.372  -0.461  40.676  1.00  0.00     0.166 HD
ENDROOT
BRANCH   9  11
ATOM     11  O   UNL     1      29.004  -3.548  36.594  1.00  0.00    -0.508 OA
ATOM     12  H   UNL     1      28.584  -4.133  35.881  1.00  0.00     0.293 HD
ENDBRANCH   9  11
TORSDOF 1
ENDMDL
MODEL 9
REMARK VINA RESULT:    -3.713     20.508     21.033
REMARK INTER + INTRA:          -3.821
REMARK INTER:                  -3.821
REMARK INTRA:                   0.000
REMARK UNBOUND:                 0.000
REMARK SMILES Oc1ccc2[nH]ccc2c1
REMARK SMILES IDX 3 1 4 2 5 3 9 4 8 5 7 6 6 7 10 8 2 9 1 11
REMARK H PARENT 6 10 1 12
REMARK Flexibility Score: inf
ROOT
ATOM      1  C   UNL     1      28.765  -3.011  37.257  1.00  0.00     0.048 A 
ATOM      2  C   UNL     1      28.856  -1.607  37.265  1.00  0.00     0.030 A 
ATOM      3  C   UNL     1      28.000  -0.904  38.112  1.00  0.00     0.046 A 
ATOM      4  C   UNL     1      27.095  -1.545  38.914  1.00  0.00     0.003 A 
ATOM      5  C   UNL     1      26.410  -0.579  39.617  1.00  0.00     0.028 A 
ATOM      6  C   UNL     1      26.951   0.631  39.193  1.00  0.00     0.083 A 
ATOM      7  N   UNL     1      27.921   0.427  38.273  1.00  0.00    -0.361 N 
ATOM      8  C   UNL     1      26.978  -2.934  38.929  1.00  0.00     0.056 A 
ATOM      9  C   UNL     1      27.829  -3.676  38.086  1.00  0.00     0.116 A 
ATOM     10  H   UNL     1      28.491   1.158  37.790  1.00  0.00     0.166 HD
ENDROOT
BRANCH   9  11
ATOM     11  O   UNL     1      27.739  -5.066  38.077  1.00  0.00    -0.508 OA
ATOM     12  H   UNL     1      27.582  -5.591  38.930  1.00  0.00     0.293 HD
ENDBRANCH   9  11
TORSDOF 1
ENDMDL
