MODEL 1
REMARK VINA RESULT:    36.818      0.000      0.000
REMARK INTER + INTRA:          42.971
REMARK INTER:                  43.275
REMARK INTRA:                  -0.304
REMARK UNBOUND:                -0.304
REMARK SMILES C=C(C)[C@@H]1CC[C@]2(CO)CC[C@@]3(C)[C@@H](CC[C@H]4[C@@]5(C)CC[C@@H](O)C(C)(C)[C@@H]5CC[C@]43C)[C@@H]12
REMARK SMILES IDX 4 1 5 2 6 3 7 4 32 5 14 6 15 7 16 8 17 9 18 10 20 11 21 12
REMARK SMILES IDX 22 13 24 14 27 15 28 16 29 17 30 18 12 19 11 20 10 21 13 22
REMARK SMILES IDX 31 23 25 24 26 25 19 26 2 27 3 28 1 29 8 30 9 31 23 33
REMARK H PARENT 9 32 23 34
REMARK Flexibility Score: inf
ROOT
ATOM      1  C   UNL     1      31.185  39.949  30.032  1.00  0.00     0.018 C 
ATOM      2  C   UNL     1      31.506  41.435  30.335  1.00  0.00     0.009 C 
ATOM      3  C   UNL     1      32.024  42.053  29.011  1.00  0.00     0.010 C 
ATOM      4  C   UNL     1      32.353  40.848  28.098  1.00  0.00    -0.003 C 
ATOM      5  C   UNL     1      31.242  39.894  28.504  1.00  0.00     0.008 C 
ATOM      6  C   UNL     1      31.165  38.548  27.717  1.00  0.00    -0.000 C 
ATOM      7  C   UNL     1      31.679  37.262  28.333  1.00  0.00     0.005 C 
ATOM      8  C   UNL     1      30.920  36.097  27.672  1.00  0.00     0.005 C 
ATOM      9  C   UNL     1      30.820  36.082  26.092  1.00  0.00     0.002 C 
ATOM     10  C   UNL     1      29.779  34.970  25.565  1.00  0.00    -0.026 C 
ATOM     11  C   UNL     1      29.833  33.678  26.459  1.00  0.00     0.010 C 
ATOM     12  C   UNL     1      28.735  32.645  26.157  1.00  0.00     0.033 C 
ATOM     13  C   UNL     1      27.323  33.243  26.254  1.00  0.00     0.120 C 
ATOM     14  C   UNL     1      27.133  34.535  25.383  1.00  0.00    -0.006 C 
ATOM     15  C   UNL     1      28.317  35.563  25.634  1.00  0.00     0.003 C 
ATOM     16  C   UNL     1      28.191  36.874  24.821  1.00  0.00     0.005 C 
ATOM     17  C   UNL     1      29.149  37.962  25.325  1.00  0.00     0.008 C 
ATOM     18  C   UNL     1      30.658  37.535  25.396  1.00  0.00    -0.024 C 
ATOM     19  C   UNL     1      31.551  38.632  26.186  1.00  0.00    -0.024 C 
ATOM     20  C   UNL     1      31.333  40.124  25.746  1.00  0.00     0.008 C 
ATOM     21  C   UNL     1      32.206  41.152  26.553  1.00  0.00     0.010 C 
ATOM     22  C   UNL     1      33.065  38.318  25.889  1.00  0.00     0.012 C 
ATOM     23  C   UNL     1      31.153  37.466  23.908  1.00  0.00     0.012 C 
ATOM     24  C   UNL     1      26.994  34.121  23.893  1.00  0.00     0.014 C 
ATOM     25  C   UNL     1      25.774  35.178  25.784  1.00  0.00     0.014 C 
ATOM     26  C   UNL     1      30.196  34.523  24.119  1.00  0.00     0.012 C 
ENDROOT
BRANCH   1  27
ATOM     27  C   UNL     1      29.855  39.480  30.619  1.00  0.00    -0.077 C 
ATOM     28  C   UNL     1      28.710  39.140  29.701  1.00  0.00     0.039 C 
ATOM     29  C   UNL     1      29.672  39.352  31.945  1.00  0.00     0.008 C 
ENDBRANCH   1  27
BRANCH   4  30
ATOM     30  C   UNL     1      33.772  40.328  28.534  1.00  0.00     0.163 C 
BRANCH  30  31
ATOM     31  O   UNL     1      34.722  40.514  27.520  1.00  0.00    -0.396 OA
ATOM     32  H   UNL     1      34.723  39.680  26.981  1.00  0.00     0.210 HD
ENDBRANCH  30  31
ENDBRANCH   4  30
BRANCH  13  33
ATOM     33  O   UNL     1      26.964  33.438  27.604  1.00  0.00    -0.393 OA
ATOM     34  H   UNL     1      26.031  33.765  27.640  1.00  0.00     0.210 HD
ENDBRANCH  13  33
TORSDOF 4
ENDMDL
MODEL 2
REMARK VINA RESULT:    38.732      2.727      5.853
REMARK INTER + INTRA:          45.220
REMARK INTER:                  45.568
REMARK INTRA:                  -0.348
REMARK UNBOUND:                -0.304
REMARK SMILES C=C(C)[C@@H]1CC[C@]2(CO)CC[C@@]3(C)[C@@H](CC[C@H]4[C@@]5(C)CC[C@@H](O)C(C)(C)[C@@H]5CC[C@]43C)[C@@H]12
REMARK SMILES IDX 4 1 5 2 6 3 7 4 32 5 14 6 15 7 16 8 17 9 18 10 20 11 21 12
REMARK SMILES IDX 22 13 24 14 27 15 28 16 29 17 30 18 12 19 11 20 10 21 13 22
REMARK SMILES IDX 31 23 25 24 26 25 19 26 2 27 3 28 1 29 8 30 9 31 23 33
REMARK H PARENT 9 32 23 34
REMARK Flexibility Score: inf
ROOT
ATOM      1  C   UNL     1      31.055  33.725  27.213  1.00  0.00     0.018 C 
ATOM      2  C   UNL     1      31.381  32.724  28.350  1.00  0.00     0.009 C 
ATOM      3  C   UNL     1      31.974  33.556  29.514  1.00  0.00     0.010 C 
ATOM      4  C   UNL     1      32.334  34.928  28.896  1.00  0.00    -0.003 C 
ATOM      5  C   UNL     1      31.190  35.082  27.906  1.00  0.00     0.008 C 
ATOM      6  C   UNL     1      31.136  36.428  27.118  1.00  0.00    -0.000 C 
ATOM      7  C   UNL     1      31.600  36.499  25.677  1.00  0.00     0.005 C 
ATOM      8  C   UNL     1      30.860  37.673  25.009  1.00  0.00     0.005 C 
ATOM      9  C   UNL     1      30.841  39.063  25.769  1.00  0.00     0.002 C 
ATOM     10  C   UNL     1      29.814  40.104  25.094  1.00  0.00    -0.026 C 
ATOM     11  C   UNL     1      29.803  39.953  23.529  1.00  0.00     0.010 C 
ATOM     12  C   UNL     1      28.709  40.763  22.815  1.00  0.00     0.033 C 
ATOM     13  C   UNL     1      27.302  40.441  23.342  1.00  0.00     0.120 C 
ATOM     14  C   UNL     1      27.174  40.577  24.901  1.00  0.00    -0.006 C 
ATOM     15  C   UNL     1      28.359  39.811  25.631  1.00  0.00     0.003 C 
ATOM     16  C   UNL     1      28.293  39.885  27.177  1.00  0.00     0.005 C 
ATOM     17  C   UNL     1      29.237  38.878  27.846  1.00  0.00     0.008 C 
ATOM     18  C   UNL     1      30.736  38.967  27.382  1.00  0.00    -0.024 C 
ATOM     19  C   UNL     1      31.601  37.708  27.922  1.00  0.00    -0.024 C 
ATOM     20  C   UNL     1      31.426  37.372  29.446  1.00  0.00     0.008 C 
ATOM     21  C   UNL     1      32.270  36.132  29.918  1.00  0.00     0.010 C 
ATOM     22  C   UNL     1      33.124  38.062  27.737  1.00  0.00     0.012 C 
ATOM     23  C   UNL     1      31.305  40.278  28.028  1.00  0.00     0.012 C 
ATOM     24  C   UNL     1      27.108  42.084  25.270  1.00  0.00     0.014 C 
ATOM     25  C   UNL     1      25.806  39.965  25.317  1.00  0.00     0.014 C 
ATOM     26  C   UNL     1      30.299  41.567  25.392  1.00  0.00     0.012 C 
ENDROOT
BRANCH   1  27
ATOM     27  C   UNL     1      29.690  33.494  26.567  1.00  0.00    -0.077 C 
ATOM     28  C   UNL     1      28.600  34.520  26.732  1.00  0.00     0.039 C 
ATOM     29  C   UNL     1      29.428  32.393  25.840  1.00  0.00     0.008 C 
ENDBRANCH   1  27
BRANCH   4  30
ATOM     30  C   UNL     1      33.721  34.748  28.176  1.00  0.00     0.163 C 
BRANCH  30  31
ATOM     31  O   UNL     1      34.749  35.403  28.870  1.00  0.00    -0.396 OA
ATOM     32  H   UNL     1      34.311  35.920  29.595  1.00  0.00     0.210 HD
ENDBRANCH  30  31
ENDBRANCH   4  30
BRANCH  13  33
ATOM     33  O   UNL     1      26.876  39.183  22.869  1.00  0.00    -0.393 OA
ATOM     34  H   UNL     1      26.249  38.791  23.526  1.00  0.00     0.210 HD
ENDBRANCH  13  33
TORSDOF 4
ENDMDL
