MODEL 1
REMARK VINA RESULT:    -5.291      0.000      0.000
REMARK INTER + INTRA:          -5.291
REMARK INTER:                  -5.291
REMARK INTRA:                   0.000
REMARK UNBOUND:                 0.000
REMARK SMILES CC1(C)[C@H]2CC[C@]1(C)C(=O)C2
REMARK SMILES IDX 1 1 2 2 4 3 5 4 6 5 7 6 9 7 10 8 11 9 8 10 3 11
REMARK H PARENT
REMARK Flexibility Score: inf
ROOT
ATOM      1  C   UNL     1      22.364  32.845  50.977  1.00  0.00     0.012 C 
ATOM      2  C   UNL     1      23.091  32.807  52.355  1.00  0.00    -0.020 C 
ATOM      3  C   UNL     1      24.385  31.956  52.356  1.00  0.00     0.003 C 
ATOM      4  C   UNL     1      25.304  32.733  51.373  1.00  0.00     0.005 C 
ATOM      5  C   UNL     1      24.936  34.212  51.648  1.00  0.00     0.015 C 
ATOM      6  C   UNL     1      23.850  34.094  52.743  1.00  0.00     0.032 C 
ATOM      7  C   UNL     1      24.589  33.623  53.970  1.00  0.00     0.139 C 
ATOM      8  O   UNL     1      24.905  34.312  54.928  1.00  0.00    -0.299 OA
ATOM      9  C   UNL     1      24.969  32.187  53.778  1.00  0.00     0.080 C 
ATOM     10  C   UNL     1      23.000  35.354  52.942  1.00  0.00     0.020 C 
ATOM     11  C   UNL     1      22.032  32.334  53.399  1.00  0.00     0.012 C 
ENDROOT
TORSDOF 0
ENDMDL
MODEL 2
REMARK VINA RESULT:    -5.118      1.818      3.206
REMARK INTER + INTRA:          -5.118
REMARK INTER:                  -5.118
REMARK INTRA:                   0.000
REMARK UNBOUND:                 0.000
REMARK SMILES CC1(C)[C@H]2CC[C@]1(C)C(=O)C2
REMARK SMILES IDX 1 1 2 2 4 3 5 4 6 5 7 6 9 7 10 8 11 9 8 10 3 11
REMARK H PARENT
REMARK Flexibility Score: inf
ROOT
ATOM      1  C   UNL     1      24.867  33.977  54.229  1.00  0.00     0.012 C 
ATOM      2  C   UNL     1      24.134  33.888  52.856  1.00  0.00    -0.020 C 
ATOM      3  C   UNL     1      25.089  33.741  51.646  1.00  0.00     0.003 C 
ATOM      4  C   UNL     1      25.754  32.361  51.902  1.00  0.00     0.005 C 
ATOM      5  C   UNL     1      24.605  31.532  52.529  1.00  0.00     0.015 C 
ATOM      6  C   UNL     1      23.435  32.544  52.562  1.00  0.00     0.032 C 
ATOM      7  C   UNL     1      23.054  32.739  51.114  1.00  0.00     0.139 C 
ATOM      8  O   UNL     1      22.084  32.252  50.555  1.00  0.00    -0.299 OA
ATOM      9  C   UNL     1      24.123  33.547  50.444  1.00  0.00     0.080 C 
ATOM     10  C   UNL     1      22.277  32.158  53.489  1.00  0.00     0.020 C 
ATOM     11  C   UNL     1      23.205  35.139  52.771  1.00  0.00     0.012 C 
ENDROOT
TORSDOF 0
ENDMDL
MODEL 3
REMARK VINA RESULT:    -5.090      1.446      2.820
REMARK INTER + INTRA:          -5.090
REMARK INTER:                  -5.090
REMARK INTRA:                   0.000
REMARK UNBOUND:                 0.000
REMARK SMILES CC1(C)[C@H]2CC[C@]1(C)C(=O)C2
REMARK SMILES IDX 1 1 2 2 4 3 5 4 6 5 7 6 9 7 10 8 11 9 8 10 3 11
REMARK H PARENT
REMARK Flexibility Score: inf
ROOT
ATOM      1  C   UNL     1      25.251  35.084  51.763  1.00  0.00     0.012 C 
ATOM      2  C   UNL     1      23.923  34.400  52.204  1.00  0.00    -0.020 C 
ATOM      3  C   UNL     1      23.127  33.767  51.036  1.00  0.00     0.003 C 
ATOM      4  C   UNL     1      24.082  32.644  50.542  1.00  0.00     0.005 C 
ATOM      5  C   UNL     1      24.735  32.142  51.854  1.00  0.00     0.015 C 
ATOM      6  C   UNL     1      24.082  33.045  52.927  1.00  0.00     0.032 C 
ATOM      7  C   UNL     1      22.644  32.591  52.988  1.00  0.00     0.139 C 
ATOM      8  O   UNL     1      22.148  31.891  53.857  1.00  0.00    -0.299 OA
ATOM      9  C   UNL     1      21.944  33.054  51.748  1.00  0.00     0.080 C 
ATOM     10  C   UNL     1      24.810  33.071  54.275  1.00  0.00     0.020 C 
ATOM     11  C   UNL     1      23.116  35.473  53.000  1.00  0.00     0.012 C 
ENDROOT
TORSDOF 0
ENDMDL
MODEL 4
REMARK VINA RESULT:    -5.043      1.606      2.660
REMARK INTER + INTRA:          -5.043
REMARK INTER:                  -5.043
REMARK INTRA:                   0.000
REMARK UNBOUND:                 0.000
REMARK SMILES CC1(C)[C@H]2CC[C@]1(C)C(=O)C2
REMARK SMILES IDX 1 1 2 2 4 3 5 4 6 5 7 6 9 7 10 8 11 9 8 10 3 11
REMARK H PARENT
REMARK Flexibility Score: inf
ROOT
ATOM      1  C   UNL     1      23.219  35.596  53.106  1.00  0.00     0.012 C 
ATOM      2  C   UNL     1      23.423  34.195  52.455  1.00  0.00    -0.020 C 
ATOM      3  C   UNL     1      23.763  34.250  50.945  1.00  0.00     0.003 C 
ATOM      4  C   UNL     1      25.141  34.969  50.932  1.00  0.00     0.005 C 
ATOM      5  C   UNL     1      25.824  34.434  52.214  1.00  0.00     0.015 C 
ATOM      6  C   UNL     1      24.751  33.488  52.803  1.00  0.00     0.032 C 
ATOM      7  C   UNL     1      24.703  32.320  51.848  1.00  0.00     0.139 C 
ATOM      8  O   UNL     1      25.195  31.218  52.036  1.00  0.00    -0.299 OA
ATOM      9  C   UNL     1      24.040  32.765  50.581  1.00  0.00     0.080 C 
ATOM     10  C   UNL     1      24.961  33.113  54.274  1.00  0.00     0.020 C 
ATOM     11  C   UNL     1      22.140  33.367  52.776  1.00  0.00     0.012 C 
ENDROOT
TORSDOF 0
ENDMDL
MODEL 5
REMARK VINA RESULT:    -4.980      1.208      2.556
REMARK INTER + INTRA:          -4.980
REMARK INTER:                  -4.980
REMARK INTRA:                   0.000
REMARK UNBOUND:                 0.000
REMARK SMILES CC1(C)[C@H]2CC[C@]1(C)C(=O)C2
REMARK SMILES IDX 1 1 2 2 4 3 5 4 6 5 7 6 9 7 10 8 11 9 8 10 3 11
REMARK H PARENT
REMARK Flexibility Score: inf
ROOT
ATOM      1  C   UNL     1      25.005  31.091  52.194  1.00  0.00     0.012 C 
ATOM      2  C   UNL     1      24.723  32.562  52.623  1.00  0.00    -0.020 C 
ATOM      3  C   UNL     1      25.287  33.618  51.642  1.00  0.00     0.003 C 
ATOM      4  C   UNL     1      24.471  33.352  50.347  1.00  0.00     0.005 C 
ATOM      5  C   UNL     1      23.074  32.963  50.890  1.00  0.00     0.015 C 
ATOM      6  C   UNL     1      23.270  33.045  52.423  1.00  0.00     0.032 C 
ATOM      7  C   UNL     1      23.425  34.518  52.713  1.00  0.00     0.139 C 
ATOM      8  O   UNL     1      22.571  35.250  53.190  1.00  0.00    -0.299 OA
ATOM      9  C   UNL     1      24.767  34.964  52.220  1.00  0.00     0.080 C 
ATOM     10  C   UNL     1      22.193  32.333  53.248  1.00  0.00     0.020 C 
ATOM     11  C   UNL     1      25.265  32.708  54.079  1.00  0.00     0.012 C 
ENDROOT
TORSDOF 0
ENDMDL
MODEL 6
REMARK VINA RESULT:    -4.954      1.585      2.903
REMARK INTER + INTRA:          -4.954
REMARK INTER:                  -4.954
REMARK INTRA:                   0.000
REMARK UNBOUND:                 0.000
REMARK SMILES CC1(C)[C@H]2CC[C@]1(C)C(=O)C2
REMARK SMILES IDX 1 1 2 2 4 3 5 4 6 5 7 6 9 7 10 8 11 9 8 10 3 11
REMARK H PARENT
REMARK Flexibility Score: inf
ROOT
ATOM      1  C   UNL     1      23.134  35.879  52.976  1.00  0.00     0.012 C 
ATOM      2  C   UNL     1      24.083  34.644  53.003  1.00  0.00    -0.020 C 
ATOM      3  C   UNL     1      23.453  33.387  53.653  1.00  0.00     0.003 C 
ATOM      4  C   UNL     1      22.286  33.050  52.683  1.00  0.00     0.005 C 
ATOM      5  C   UNL     1      22.868  33.421  51.297  1.00  0.00     0.015 C 
ATOM      6  C   UNL     1      24.286  33.932  51.648  1.00  0.00     0.032 C 
ATOM      7  C   UNL     1      25.040  32.701  52.090  1.00  0.00     0.139 C 
ATOM      8  O   UNL     1      25.864  32.089  51.430  1.00  0.00    -0.299 OA
ATOM      9  C   UNL     1      24.533  32.289  53.438  1.00  0.00     0.080 C 
ATOM     10  C   UNL     1      24.968  34.747  50.544  1.00  0.00     0.020 C 
ATOM     11  C   UNL     1      25.399  35.113  53.698  1.00  0.00     0.012 C 
ENDROOT
TORSDOF 0
ENDMDL
MODEL 7
REMARK VINA RESULT:    -4.890      1.705      2.800
REMARK INTER + INTRA:          -4.890
REMARK INTER:                  -4.890
REMARK INTRA:                   0.000
REMARK UNBOUND:                 0.000
REMARK SMILES CC1(C)[C@H]2CC[C@]1(C)C(=O)C2
REMARK SMILES IDX 1 1 2 2 4 3 5 4 6 5 7 6 9 7 10 8 11 9 8 10 3 11
REMARK H PARENT
REMARK Flexibility Score: inf
ROOT
ATOM      1  C   UNL     1      23.126  36.548  53.000  1.00  0.00     0.012 C 
ATOM      2  C   UNL     1      23.733  35.158  52.643  1.00  0.00    -0.020 C 
ATOM      3  C   UNL     1      24.342  35.089  51.221  1.00  0.00     0.003 C 
ATOM      4  C   UNL     1      25.520  36.099  51.304  1.00  0.00     0.005 C 
ATOM      5  C   UNL     1      26.035  35.912  52.753  1.00  0.00     0.015 C 
ATOM      6  C   UNL     1      25.084  34.830  53.316  1.00  0.00     0.032 C 
ATOM      7  C   UNL     1      25.460  33.566  52.583  1.00  0.00     0.139 C 
ATOM      8  O   UNL     1      26.120  32.644  53.035  1.00  0.00    -0.299 OA
ATOM      9  C   UNL     1      24.981  33.673  51.168  1.00  0.00     0.080 C 
ATOM     10  C   UNL     1      25.074  34.714  54.844  1.00  0.00     0.020 C 
ATOM     11  C   UNL     1      22.608  34.107  52.892  1.00  0.00     0.012 C 
ENDROOT
TORSDOF 0
ENDMDL
MODEL 8
REMARK VINA RESULT:    -4.888      1.180      2.890
REMARK INTER + INTRA:          -4.888
REMARK INTER:                  -4.888
REMARK INTRA:                   0.000
REMARK UNBOUND:                 0.000
REMARK SMILES CC1(C)[C@H]2CC[C@]1(C)C(=O)C2
REMARK SMILES IDX 1 1 2 2 4 3 5 4 6 5 7 6 9 7 10 8 11 9 8 10 3 11
REMARK H PARENT
REMARK Flexibility Score: inf
ROOT
ATOM      1  C   UNL     1      24.213  33.010  50.402  1.00  0.00     0.012 C 
ATOM      2  C   UNL     1      24.425  34.004  51.583  1.00  0.00    -0.020 C 
ATOM      3  C   UNL     1      23.112  34.625  52.120  1.00  0.00     0.003 C 
ATOM      4  C   UNL     1      22.358  33.391  52.688  1.00  0.00     0.005 C 
ATOM      5  C   UNL     1      23.501  32.519  53.263  1.00  0.00     0.015 C 
ATOM      6  C   UNL     1      24.762  33.357  52.944  1.00  0.00     0.032 C 
ATOM      7  C   UNL     1      24.667  34.557  53.854  1.00  0.00     0.139 C 
ATOM      8  O   UNL     1      25.306  34.732  54.880  1.00  0.00    -0.299 OA
ATOM      9  C   UNL     1      23.581  35.455  53.348  1.00  0.00     0.080 C 
ATOM     10  C   UNL     1      26.084  32.586  53.024  1.00  0.00     0.020 C 
ATOM     11  C   UNL     1      25.460  35.062  51.089  1.00  0.00     0.012 C 
ENDROOT
TORSDOF 0
ENDMDL
MODEL 9
REMARK VINA RESULT:    -4.883      2.014      3.252
REMARK INTER + INTRA:          -4.883
REMARK INTER:                  -4.883
REMARK INTRA:                   0.000
REMARK UNBOUND:                 0.000
REMARK SMILES CC1(C)[C@H]2CC[C@]1(C)C(=O)C2
REMARK SMILES IDX 1 1 2 2 4 3 5 4 6 5 7 6 9 7 10 8 11 9 8 10 3 11
REMARK H PARENT
REMARK Flexibility Score: inf
ROOT
ATOM      1  C   UNL     1      26.125  33.830  52.881  1.00  0.00     0.012 C 
ATOM      2  C   UNL     1      24.855  32.964  52.622  1.00  0.00    -0.020 C 
ATOM      3  C   UNL     1      23.721  33.194  53.651  1.00  0.00     0.003 C 
ATOM      4  C   UNL     1      23.327  34.676  53.398  1.00  0.00     0.005 C 
ATOM      5  C   UNL     1      23.495  34.823  51.865  1.00  0.00     0.015 C 
ATOM      6  C   UNL     1      23.973  33.415  51.438  1.00  0.00     0.032 C 
ATOM      7  C   UNL     1      22.770  32.525  51.632  1.00  0.00     0.139 C 
ATOM      8  O   UNL     1      22.040  32.102  50.750  1.00  0.00    -0.299 OA
ATOM      9  C   UNL     1      22.552  32.330  53.101  1.00  0.00     0.080 C 
ATOM     10  C   UNL     1      24.611  33.347  50.046  1.00  0.00     0.020 C 
ATOM     11  C   UNL     1      25.339  31.482  52.548  1.00  0.00     0.012 C 
ENDROOT
TORSDOF 0
ENDMDL
