MODEL 1
REMARK VINA RESULT:    -4.450      0.000      0.000
REMARK INTER + INTRA:          -6.664
REMARK INTER:                  -6.010
REMARK INTRA:                  -0.654
REMARK UNBOUND:                -0.654
REMARK SMILES CCCCCCCC(=O)[O-]
REMARK SMILES IDX 5 1 6 2 7 3 8 4 9 5 10 6 4 7 3 8 2 9 1 10
REMARK H PARENT
REMARK Flexibility Score: inf
ROOT
ATOM      1  C   UNL     1     -10.166 -18.892  29.827  1.00  0.00     0.000 C 
ENDROOT
BRANCH   1   2
ATOM      2  C   UNL     1     -10.262 -18.625  31.337  1.00  0.00     0.006 C 
BRANCH   2   3
ATOM      3  C   UNL     1      -9.687 -17.259  31.733  1.00  0.00     0.053 C 
BRANCH   3   4
ATOM      4  C   UNL     1     -10.755 -16.394  32.324  1.00  0.00     0.041 C 
ATOM      5  O   UNL     1     -11.638 -16.897  33.068  1.00  0.00    -0.550 OA
ATOM      6  O   UNL     1     -10.806 -15.041  32.013  1.00  0.00    -0.550 OA
ENDBRANCH   3   4
ENDBRANCH   2   3
ENDBRANCH   1   2
BRANCH   1   7
ATOM      7  C   UNL     1     -11.493 -18.638  29.096  1.00  0.00     0.000 C 
BRANCH   7   8
ATOM      8  C   UNL     1     -11.531 -17.225  28.503  1.00  0.00    -0.000 C 
BRANCH   8   9
ATOM      9  C   UNL     1     -12.663 -16.398  29.125  1.00  0.00    -0.003 C 
ATOM     10  C   UNL     1     -13.546 -17.261  30.023  1.00  0.00     0.004 C 
ENDBRANCH   8   9
ENDBRANCH   7   8
ENDBRANCH   1   7
TORSDOF 6
ENDMDL
MODEL 2
REMARK VINA RESULT:    -4.411      2.042      3.649
REMARK INTER + INTRA:          -6.611
REMARK INTER:                  -5.973
REMARK INTRA:                  -0.638
REMARK UNBOUND:                -0.654
REMARK SMILES CCCCCCCC(=O)[O-]
REMARK SMILES IDX 5 1 6 2 7 3 8 4 9 5 10 6 4 7 3 8 2 9 1 10
REMARK H PARENT
REMARK Flexibility Score: inf
ROOT
ATOM      1  C   UNL     1     -10.131 -18.907  30.053  1.00  0.00     0.000 C 
ENDROOT
BRANCH   1   2
ATOM      2  C   UNL     1     -11.421 -18.723  29.240  1.00  0.00     0.006 C 
BRANCH   2   3
ATOM      3  C   UNL     1     -11.594 -17.290  28.721  1.00  0.00     0.053 C 
BRANCH   3   4
ATOM      4  C   UNL     1     -12.999 -16.823  28.934  1.00  0.00     0.041 C 
ATOM      5  O   UNL     1     -13.562 -16.093  28.075  1.00  0.00    -0.550 OA
ATOM      6  O   UNL     1     -13.673 -17.154  30.103  1.00  0.00    -0.550 OA
ENDBRANCH   3   4
ENDBRANCH   2   3
ENDBRANCH   1   2
BRANCH   1   7
ATOM      7  C   UNL     1      -9.891 -17.765  31.052  1.00  0.00     0.000 C 
BRANCH   7   8
ATOM      8  C   UNL     1     -10.696 -17.983  32.338  1.00  0.00    -0.000 C 
BRANCH   8   9
ATOM      9  C   UNL     1     -11.420 -16.699  32.759  1.00  0.00    -0.003 C 
ATOM     10  C   UNL     1     -10.864 -15.486  32.018  1.00  0.00     0.004 C 
ENDBRANCH   8   9
ENDBRANCH   7   8
ENDBRANCH   1   7
TORSDOF 6
ENDMDL
MODEL 3
REMARK VINA RESULT:    -4.263      1.208      1.943
REMARK INTER + INTRA:          -6.411
REMARK INTER:                  -5.933
REMARK INTRA:                  -0.479
REMARK UNBOUND:                -0.654
REMARK SMILES CCCCCCCC(=O)[O-]
REMARK SMILES IDX 5 1 6 2 7 3 8 4 9 5 10 6 4 7 3 8 2 9 1 10
REMARK H PARENT
REMARK Flexibility Score: inf
ROOT
ATOM      1  C   UNL     1     -10.691 -18.632  29.713  1.00  0.00     0.000 C 
ENDROOT
BRANCH   1   2
ATOM      2  C   UNL     1     -10.102 -17.371  30.361  1.00  0.00     0.006 C 
BRANCH   2   3
ATOM      3  C   UNL     1      -9.706 -17.588  31.827  1.00  0.00     0.053 C 
BRANCH   3   4
ATOM      4  C   UNL     1     -10.925 -17.753  32.679  1.00  0.00     0.041 C 
ATOM      5  O   UNL     1     -11.603 -16.747  33.016  1.00  0.00    -0.550 OA
ATOM      6  O   UNL     1     -11.286 -19.012  33.141  1.00  0.00    -0.550 OA
ENDBRANCH   3   4
ENDBRANCH   2   3
ENDBRANCH   1   2
BRANCH   1   7
ATOM      7  C   UNL     1     -11.998 -18.355  28.955  1.00  0.00     0.000 C 
BRANCH   7   8
ATOM      8  C   UNL     1     -12.620 -17.027  29.403  1.00  0.00    -0.000 C 
BRANCH   8   9
ATOM      9  C   UNL     1     -13.144 -16.232  28.200  1.00  0.00    -0.003 C 
ATOM     10  C   UNL     1     -12.077 -16.109  27.115  1.00  0.00     0.004 C 
ENDBRANCH   8   9
ENDBRANCH   7   8
ENDBRANCH   1   7
TORSDOF 6
ENDMDL
MODEL 4
REMARK VINA RESULT:    -4.236      1.870      2.768
REMARK INTER + INTRA:          -6.376
REMARK INTER:                  -6.012
REMARK INTRA:                  -0.364
REMARK UNBOUND:                -0.654
REMARK SMILES CCCCCCCC(=O)[O-]
REMARK SMILES IDX 5 1 6 2 7 3 8 4 9 5 10 6 4 7 3 8 2 9 1 10
REMARK H PARENT
REMARK Flexibility Score: inf
ROOT
ATOM      1  C   UNL     1     -11.830 -16.344  30.953  1.00  0.00     0.000 C 
ENDROOT
BRANCH   1   2
ATOM      2  C   UNL     1     -11.663 -16.758  32.422  1.00  0.00     0.006 C 
BRANCH   2   3
ATOM      3  C   UNL     1     -11.051 -18.156  32.577  1.00  0.00     0.053 C 
BRANCH   3   4
ATOM      4  C   UNL     1      -9.847 -18.298  31.701  1.00  0.00     0.041 C 
ATOM      5  O   UNL     1      -9.858 -19.106  30.734  1.00  0.00    -0.550 OA
ATOM      6  O   UNL     1      -8.694 -17.575  31.980  1.00  0.00    -0.550 OA
ENDBRANCH   3   4
ENDBRANCH   2   3
ENDBRANCH   1   2
BRANCH   1   7
ATOM      7  C   UNL     1     -13.134 -16.869  30.334  1.00  0.00     0.000 C 
BRANCH   7   8
ATOM      8  C   UNL     1     -13.120 -16.711  28.809  1.00  0.00    -0.000 C 
BRANCH   8   9
ATOM      9  C   UNL     1     -11.725 -16.995  28.239  1.00  0.00    -0.003 C 
ATOM     10  C   UNL     1     -11.346 -15.971  27.173  1.00  0.00     0.004 C 
ENDBRANCH   8   9
ENDBRANCH   7   8
ENDBRANCH   1   7
TORSDOF 6
ENDMDL
MODEL 5
REMARK VINA RESULT:    -4.216      1.298      2.052
REMARK INTER + INTRA:          -6.349
REMARK INTER:                  -5.942
REMARK INTRA:                  -0.407
REMARK UNBOUND:                -0.654
REMARK SMILES CCCCCCCC(=O)[O-]
REMARK SMILES IDX 5 1 6 2 7 3 8 4 9 5 10 6 4 7 3 8 2 9 1 10
REMARK H PARENT
REMARK Flexibility Score: inf
ROOT
ATOM      1  C   UNL     1     -10.046 -16.589  29.950  1.00  0.00     0.000 C 
ENDROOT
BRANCH   1   2
ATOM      2  C   UNL     1      -9.517 -17.279  31.216  1.00  0.00     0.006 C 
BRANCH   2   3
ATOM      3  C   UNL     1     -10.152 -18.656  31.448  1.00  0.00     0.053 C 
BRANCH   3   4
ATOM      4  C   UNL     1     -11.141 -18.593  32.569  1.00  0.00     0.041 C 
ATOM      5  O   UNL     1     -11.519 -17.478  33.018  1.00  0.00    -0.550 OA
ATOM      6  O   UNL     1     -11.610 -19.764  33.150  1.00  0.00    -0.550 OA
ENDBRANCH   3   4
ENDBRANCH   2   3
ENDBRANCH   1   2
BRANCH   1   7
ATOM      7  C   UNL     1     -10.865 -17.534  29.058  1.00  0.00     0.000 C 
BRANCH   7   8
ATOM      8  C   UNL     1     -11.755 -16.743  28.092  1.00  0.00    -0.000 C 
BRANCH   8   9
ATOM      9  C   UNL     1     -13.109 -16.417  28.733  1.00  0.00    -0.003 C 
ATOM     10  C   UNL     1     -13.458 -17.424  29.825  1.00  0.00     0.004 C 
ENDBRANCH   8   9
ENDBRANCH   7   8
ENDBRANCH   1   7
TORSDOF 6
ENDMDL
MODEL 6
REMARK VINA RESULT:    -4.208      2.524      3.505
REMARK INTER + INTRA:          -6.338
REMARK INTER:                  -5.982
REMARK INTRA:                  -0.356
REMARK UNBOUND:                -0.654
REMARK SMILES CCCCCCCC(=O)[O-]
REMARK SMILES IDX 5 1 6 2 7 3 8 4 9 5 10 6 4 7 3 8 2 9 1 10
REMARK H PARENT
REMARK Flexibility Score: inf
ROOT
ATOM      1  C   UNL     1     -12.586 -16.269  28.861  1.00  0.00     0.000 C 
ENDROOT
BRANCH   1   2
ATOM      2  C   UNL     1     -12.010 -16.631  30.239  1.00  0.00     0.006 C 
BRANCH   2   3
ATOM      3  C   UNL     1     -10.480 -16.538  30.284  1.00  0.00     0.053 C 
BRANCH   3   4
ATOM      4  C   UNL     1      -9.897 -17.788  30.862  1.00  0.00     0.041 C 
ATOM      5  O   UNL     1     -10.126 -18.903  30.322  1.00  0.00    -0.550 OA
ATOM      6  O   UNL     1      -9.141 -17.730  32.026  1.00  0.00    -0.550 OA
ENDBRANCH   3   4
ENDBRANCH   2   3
ENDBRANCH   1   2
BRANCH   1   7
ATOM      7  C   UNL     1     -11.736 -16.811  27.703  1.00  0.00     0.000 C 
BRANCH   7   8
ATOM      8  C   UNL     1     -11.357 -15.689  26.729  1.00  0.00    -0.000 C 
BRANCH   8   9
ATOM      9  C   UNL     1      -9.847 -15.419  26.761  1.00  0.00    -0.003 C 
ATOM     10  C   UNL     1      -9.448 -14.398  25.700  1.00  0.00     0.004 C 
ENDBRANCH   8   9
ENDBRANCH   7   8
ENDBRANCH   1   7
TORSDOF 6
ENDMDL
MODEL 7
REMARK VINA RESULT:    -4.197      2.861      4.616
REMARK INTER + INTRA:          -6.323
REMARK INTER:                  -5.959
REMARK INTRA:                  -0.364
REMARK UNBOUND:                -0.654
REMARK SMILES CCCCCCCC(=O)[O-]
REMARK SMILES IDX 5 1 6 2 7 3 8 4 9 5 10 6 4 7 3 8 2 9 1 10
REMARK H PARENT
REMARK Flexibility Score: inf
ROOT
ATOM      1  C   UNL     1     -13.077 -17.175  30.519  1.00  0.00     0.000 C 
ENDROOT
BRANCH   1   2
ATOM      2  C   UNL     1     -12.655 -16.232  29.383  1.00  0.00     0.006 C 
BRANCH   2   3
ATOM      3  C   UNL     1     -12.035 -16.978  28.194  1.00  0.00     0.053 C 
BRANCH   3   4
ATOM      4  C   UNL     1     -11.875 -16.057  27.026  1.00  0.00     0.041 C 
ATOM      5  O   UNL     1     -12.864 -15.779  26.298  1.00  0.00    -0.550 OA
ATOM      6  O   UNL     1     -10.623 -15.543  26.712  1.00  0.00    -0.550 OA
ENDBRANCH   3   4
ENDBRANCH   2   3
ENDBRANCH   1   2
BRANCH   1   7
ATOM      7  C   UNL     1     -12.099 -17.152  31.702  1.00  0.00     0.000 C 
BRANCH   7   8
ATOM      8  C   UNL     1     -11.391 -18.504  31.855  1.00  0.00    -0.000 C 
BRANCH   8   9
ATOM      9  C   UNL     1     -10.019 -18.486  31.170  1.00  0.00    -0.003 C 
ATOM     10  C   UNL     1      -9.065 -17.523  31.872  1.00  0.00     0.004 C 
ENDBRANCH   8   9
ENDBRANCH   7   8
ENDBRANCH   1   7
TORSDOF 6
ENDMDL
MODEL 8
REMARK VINA RESULT:    -4.190      2.711      4.087
REMARK INTER + INTRA:          -6.313
REMARK INTER:                  -5.752
REMARK INTRA:                  -0.562
REMARK UNBOUND:                -0.654
REMARK SMILES CCCCCCCC(=O)[O-]
REMARK SMILES IDX 5 1 6 2 7 3 8 4 9 5 10 6 4 7 3 8 2 9 1 10
REMARK H PARENT
REMARK Flexibility Score: inf
ROOT
ATOM      1  C   UNL     1     -11.947 -18.670  29.174  1.00  0.00     0.000 C 
ENDROOT
BRANCH   1   2
ATOM      2  C   UNL     1     -12.845 -17.448  29.417  1.00  0.00     0.006 C 
BRANCH   2   3
ATOM      3  C   UNL     1     -12.184 -16.133  28.982  1.00  0.00     0.053 C 
BRANCH   3   4
ATOM      4  C   UNL     1     -12.200 -16.010  27.492  1.00  0.00     0.041 C 
ATOM      5  O   UNL     1     -13.292 -16.040  26.865  1.00  0.00    -0.550 OA
ATOM      6  O   UNL     1     -11.006 -15.910  26.789  1.00  0.00    -0.550 OA
ENDBRANCH   3   4
ENDBRANCH   2   3
ENDBRANCH   1   2
BRANCH   1   7
ATOM      7  C   UNL     1     -10.516 -18.468  29.694  1.00  0.00     0.000 C 
BRANCH   7   8
ATOM      8  C   UNL     1     -10.430 -18.763  31.196  1.00  0.00    -0.000 C 
BRANCH   8   9
ATOM      9  C   UNL     1     -10.047 -17.504  31.983  1.00  0.00    -0.003 C 
ATOM     10  C   UNL     1     -11.256 -16.918  32.707  1.00  0.00     0.004 C 
ENDBRANCH   8   9
ENDBRANCH   7   8
ENDBRANCH   1   7
TORSDOF 6
ENDMDL
MODEL 9
REMARK VINA RESULT:    -4.071      1.973      2.349
REMARK INTER + INTRA:          -6.152
REMARK INTER:                  -5.715
REMARK INTRA:                  -0.437
REMARK UNBOUND:                -0.654
REMARK SMILES CCCCCCCC(=O)[O-]
REMARK SMILES IDX 5 1 6 2 7 3 8 4 9 5 10 6 4 7 3 8 2 9 1 10
REMARK H PARENT
REMARK Flexibility Score: inf
ROOT
ATOM      1  C   UNL     1     -10.312 -18.545  31.141  1.00  0.00     0.000 C 
ENDROOT
BRANCH   1   2
ATOM      2  C   UNL     1      -9.291 -17.594  31.783  1.00  0.00     0.006 C 
BRANCH   2   3
ATOM      3  C   UNL     1      -9.208 -16.242  31.064  1.00  0.00     0.053 C 
BRANCH   3   4
ATOM      4  C   UNL     1      -8.032 -15.460  31.558  1.00  0.00     0.041 C 
ATOM      5  O   UNL     1      -6.976 -16.053  31.903  1.00  0.00    -0.550 OA
ATOM      6  O   UNL     1      -8.118 -14.078  31.682  1.00  0.00    -0.550 OA
ENDBRANCH   3   4
ENDBRANCH   2   3
ENDBRANCH   1   2
BRANCH   1   7
ATOM      7  C   UNL     1     -10.600 -18.201  29.672  1.00  0.00     0.000 C 
BRANCH   7   8
ATOM      8  C   UNL     1     -12.058 -18.509  29.312  1.00  0.00    -0.000 C 
BRANCH   8   9
ATOM      9  C   UNL     1     -12.999 -17.425  29.851  1.00  0.00    -0.003 C 
ATOM     10  C   UNL     1     -12.555 -16.036  29.399  1.00  0.00     0.004 C 
ENDBRANCH   8   9
ENDBRANCH   7   8
ENDBRANCH   1   7
TORSDOF 6
ENDMDL
