MODEL 1
REMARK VINA RESULT:    -4.616      0.000      0.000
REMARK INTER + INTRA:          -4.989
REMARK INTER:                  -4.885
REMARK INTRA:                  -0.103
REMARK UNBOUND:                -0.103
REMARK SMILES C=C(C)[C@H]1CC[C@H](C)[C@@]12CC=C(C)CC2
REMARK SMILES IDX 8 1 7 2 6 3 5 4 4 5 9 6 15 7 14 8 12 9 11 10 10 11 13 12
REMARK SMILES IDX 2 13 1 14 3 15
REMARK H PARENT
REMARK Flexibility Score: inf
ROOT
ATOM      1  C   UNL     1      14.146   3.360  18.438  1.00  0.00     0.008 C 
ATOM      2  C   UNL     1      13.265   4.582  18.111  1.00  0.00    -0.007 C 
ATOM      3  C   UNL     1      12.433   5.045  19.309  1.00  0.00     0.004 C 
ATOM      4  C   UNL     1      12.146   6.535  19.089  1.00  0.00     0.009 C 
ATOM      5  C   UNL     1      12.865   6.947  17.792  1.00  0.00     0.021 C 
ATOM      6  C   UNL     1      13.971   5.862  17.576  1.00  0.00    -0.017 C 
ATOM      7  C   UNL     1      15.243   6.250  18.449  1.00  0.00     0.012 C 
ATOM      8  C   UNL     1      16.491   6.581  17.616  1.00  0.00     0.031 C 
ATOM      9  C   UNL     1      16.732   5.484  16.609  1.00  0.00    -0.077 C 
ATOM     10  C   UNL     1      15.693   5.057  15.878  1.00  0.00    -0.027 C 
ATOM     11  C   UNL     1      14.348   5.704  16.060  1.00  0.00     0.035 C 
ATOM     12  C   UNL     1      18.077   4.828  16.473  1.00  0.00     0.039 C 
ENDROOT
BRANCH   5  13
ATOM     13  C   UNL     1      11.883   7.125  16.622  1.00  0.00    -0.077 C 
ATOM     14  C   UNL     1      11.936   8.245  15.881  1.00  0.00     0.008 C 
ATOM     15  C   UNL     1      10.875   6.070  16.228  1.00  0.00     0.039 C 
ENDBRANCH   5  13
TORSDOF 1
ENDMDL
MODEL 2
REMARK VINA RESULT:    -4.493      1.687      3.219
REMARK INTER + INTRA:          -4.859
REMARK INTER:                  -4.831
REMARK INTRA:                  -0.028
REMARK UNBOUND:                -0.103
REMARK SMILES C=C(C)[C@H]1CC[C@H](C)[C@@]12CC=C(C)CC2
REMARK SMILES IDX 8 1 7 2 6 3 5 4 4 5 9 6 15 7 14 8 12 9 11 10 10 11 13 12
REMARK SMILES IDX 2 13 1 14 3 15
REMARK H PARENT
REMARK Flexibility Score: inf
ROOT
ATOM      1  C   UNL     1      14.424   5.568  15.875  1.00  0.00     0.008 C 
ATOM      2  C   UNL     1      13.307   6.294  16.651  1.00  0.00    -0.007 C 
ATOM      3  C   UNL     1      11.984   6.331  15.883  1.00  0.00     0.004 C 
ATOM      4  C   UNL     1      10.875   6.457  16.934  1.00  0.00     0.009 C 
ATOM      5  C   UNL     1      11.555   6.432  18.315  1.00  0.00     0.021 C 
ATOM      6  C   UNL     1      12.949   5.765  18.071  1.00  0.00    -0.017 C 
ATOM      7  C   UNL     1      12.768   4.185  18.089  1.00  0.00     0.012 C 
ATOM      8  C   UNL     1      13.499   3.488  19.248  1.00  0.00     0.031 C 
ATOM      9  C   UNL     1      14.933   3.957  19.294  1.00  0.00    -0.077 C 
ATOM     10  C   UNL     1      15.171   5.274  19.219  1.00  0.00    -0.027 C 
ATOM     11  C   UNL     1      14.013   6.228  19.128  1.00  0.00     0.035 C 
ATOM     12  C   UNL     1      16.074   2.981  19.346  1.00  0.00     0.039 C 
ENDROOT
BRANCH   5  13
ATOM     13  C   UNL     1      11.599   7.827  18.959  1.00  0.00    -0.077 C 
ATOM     14  C   UNL     1      11.638   8.916  18.172  1.00  0.00     0.008 C 
ATOM     15  C   UNL     1      11.557   8.044  20.454  1.00  0.00     0.039 C 
ENDBRANCH   5  13
TORSDOF 1
ENDMDL
MODEL 3
REMARK VINA RESULT:    -4.344      1.903      4.647
REMARK INTER + INTRA:          -4.701
REMARK INTER:                  -4.638
REMARK INTRA:                  -0.064
REMARK UNBOUND:                -0.103
REMARK SMILES C=C(C)[C@H]1CC[C@H](C)[C@@]12CC=C(C)CC2
REMARK SMILES IDX 8 1 7 2 6 3 5 4 4 5 9 6 15 7 14 8 12 9 11 10 10 11 13 12
REMARK SMILES IDX 2 13 1 14 3 15
REMARK H PARENT
REMARK Flexibility Score: inf
ROOT
ATOM      1  C   UNL     1      12.454   7.514  20.210  1.00  0.00     0.008 C 
ATOM      2  C   UNL     1      13.119   6.131  20.071  1.00  0.00    -0.007 C 
ATOM      3  C   UNL     1      12.793   5.199  21.241  1.00  0.00     0.004 C 
ATOM      4  C   UNL     1      12.930   3.769  20.708  1.00  0.00     0.009 C 
ATOM      5  C   UNL     1      13.278   3.874  19.212  1.00  0.00     0.021 C 
ATOM      6  C   UNL     1      12.816   5.307  18.786  1.00  0.00    -0.017 C 
ATOM      7  C   UNL     1      11.259   5.264  18.460  1.00  0.00     0.012 C 
ATOM      8  C   UNL     1      10.923   5.556  16.989  1.00  0.00     0.031 C 
ATOM      9  C   UNL     1      11.622   6.821  16.554  1.00  0.00    -0.077 C 
ATOM     10  C   UNL     1      12.922   6.960  16.849  1.00  0.00    -0.027 C 
ATOM     11  C   UNL     1      13.638   5.847  17.563  1.00  0.00     0.035 C 
ATOM     12  C   UNL     1      10.875   7.934  15.875  1.00  0.00     0.039 C 
ENDROOT
BRANCH   5  13
ATOM     13  C   UNL     1      14.757   3.555  18.942  1.00  0.00    -0.077 C 
ATOM     14  C   UNL     1      15.108   2.996  17.771  1.00  0.00     0.008 C 
ATOM     15  C   UNL     1      15.861   3.881  19.921  1.00  0.00     0.039 C 
ENDBRANCH   5  13
TORSDOF 1
ENDMDL
MODEL 4
REMARK VINA RESULT:    -4.238      1.396      2.898
REMARK INTER + INTRA:          -4.589
REMARK INTER:                  -4.499
REMARK INTRA:                  -0.090
REMARK UNBOUND:                -0.103
REMARK SMILES C=C(C)[C@H]1CC[C@H](C)[C@@]12CC=C(C)CC2
REMARK SMILES IDX 8 1 7 2 6 3 5 4 4 5 9 6 15 7 14 8 12 9 11 10 10 11 13 12
REMARK SMILES IDX 2 13 1 14 3 15
REMARK H PARENT
REMARK Flexibility Score: inf
ROOT
ATOM      1  C   UNL     1      15.506   6.798  19.363  1.00  0.00     0.008 C 
ATOM      2  C   UNL     1      14.404   7.193  18.360  1.00  0.00    -0.007 C 
ATOM      3  C   UNL     1      14.734   8.478  17.596  1.00  0.00     0.004 C 
ATOM      4  C   UNL     1      13.970   8.404  16.270  1.00  0.00     0.009 C 
ATOM      5  C   UNL     1      13.243   7.048  16.241  1.00  0.00     0.021 C 
ATOM      6  C   UNL     1      14.009   6.153  17.271  1.00  0.00    -0.017 C 
ATOM      7  C   UNL     1      15.284   5.528  16.554  1.00  0.00     0.012 C 
ATOM      8  C   UNL     1      15.238   3.997  16.424  1.00  0.00     0.031 C 
ATOM      9  C   UNL     1      14.909   3.388  17.765  1.00  0.00    -0.077 C 
ATOM     10  C   UNL     1      13.886   3.902  18.461  1.00  0.00    -0.027 C 
ATOM     11  C   UNL     1      13.088   5.032  17.871  1.00  0.00     0.035 C 
ATOM     12  C   UNL     1      15.745   2.284  18.349  1.00  0.00     0.039 C 
ENDROOT
BRANCH   5  13
ATOM     13  C   UNL     1      11.735   7.198  16.497  1.00  0.00    -0.077 C 
ATOM     14  C   UNL     1      10.875   6.372  15.876  1.00  0.00     0.008 C 
ATOM     15  C   UNL     1      11.161   8.212  17.459  1.00  0.00     0.039 C 
ENDBRANCH   5  13
TORSDOF 1
ENDMDL
MODEL 5
REMARK VINA RESULT:    -4.206      1.025      3.110
REMARK INTER + INTRA:          -4.555
REMARK INTER:                  -4.466
REMARK INTRA:                  -0.089
REMARK UNBOUND:                -0.103
REMARK SMILES C=C(C)[C@H]1CC[C@H](C)[C@@]12CC=C(C)CC2
REMARK SMILES IDX 8 1 7 2 6 3 5 4 4 5 9 6 15 7 14 8 12 9 11 10 10 11 13 12
REMARK SMILES IDX 2 13 1 14 3 15
REMARK H PARENT
REMARK Flexibility Score: inf
ROOT
ATOM      1  C   UNL     1      14.667   8.367  15.894  1.00  0.00     0.008 C 
ATOM      2  C   UNL     1      13.684   7.529  16.736  1.00  0.00    -0.007 C 
ATOM      3  C   UNL     1      12.313   7.385  16.069  1.00  0.00     0.004 C 
ATOM      4  C   UNL     1      11.701   6.089  16.612  1.00  0.00     0.009 C 
ATOM      5  C   UNL     1      12.744   5.453  17.548  1.00  0.00     0.021 C 
ATOM      6  C   UNL     1      14.111   6.084  17.124  1.00  0.00    -0.017 C 
ATOM      7  C   UNL     1      14.680   5.276  15.877  1.00  0.00     0.012 C 
ATOM      8  C   UNL     1      15.993   4.530  16.166  1.00  0.00     0.031 C 
ATOM      9  C   UNL     1      16.979   5.476  16.806  1.00  0.00    -0.077 C 
ATOM     10  C   UNL     1      16.557   6.239  17.824  1.00  0.00    -0.027 C 
ATOM     11  C   UNL     1      15.141   6.101  18.309  1.00  0.00     0.035 C 
ATOM     12  C   UNL     1      18.379   5.622  16.279  1.00  0.00     0.039 C 
ENDROOT
BRANCH   5  13
ATOM     13  C   UNL     1      12.371   5.629  19.029  1.00  0.00    -0.077 C 
ATOM     14  C   UNL     1      12.689   4.663  19.908  1.00  0.00     0.008 C 
ATOM     15  C   UNL     1      11.695   6.870  19.564  1.00  0.00     0.039 C 
ENDBRANCH   5  13
TORSDOF 1
ENDMDL
MODEL 6
REMARK VINA RESULT:    -4.193      1.163      4.446
REMARK INTER + INTRA:          -4.542
REMARK INTER:                  -4.422
REMARK INTRA:                  -0.120
REMARK UNBOUND:                -0.103
REMARK SMILES C=C(C)[C@H]1CC[C@H](C)[C@@]12CC=C(C)CC2
REMARK SMILES IDX 8 1 7 2 6 3 5 4 4 5 9 6 15 7 14 8 12 9 11 10 10 11 13 12
REMARK SMILES IDX 2 13 1 14 3 15
REMARK H PARENT
REMARK Flexibility Score: inf
ROOT
ATOM      1  C   UNL     1      12.013   5.977  19.872  1.00  0.00     0.008 C 
ATOM      2  C   UNL     1      13.259   5.378  19.190  1.00  0.00    -0.007 C 
ATOM      3  C   UNL     1      13.288   3.849  19.253  1.00  0.00     0.004 C 
ATOM      4  C   UNL     1      14.132   3.381  18.062  1.00  0.00     0.009 C 
ATOM      5  C   UNL     1      14.543   4.639  17.276  1.00  0.00     0.021 C 
ATOM      6  C   UNL     1      13.510   5.737  17.696  1.00  0.00    -0.017 C 
ATOM      7  C   UNL     1      12.198   5.567  16.814  1.00  0.00     0.012 C 
ATOM      8  C   UNL     1      11.918   6.755  15.880  1.00  0.00     0.031 C 
ATOM      9  C   UNL     1      11.984   8.041  16.666  1.00  0.00    -0.077 C 
ATOM     10  C   UNL     1      13.030   8.232  17.483  1.00  0.00    -0.027 C 
ATOM     11  C   UNL     1      14.105   7.183  17.558  1.00  0.00     0.035 C 
ATOM     12  C   UNL     1      10.877   9.056  16.602  1.00  0.00     0.039 C 
ENDROOT
BRANCH   5  13
ATOM     13  C   UNL     1      16.018   5.004  17.504  1.00  0.00    -0.077 C 
ATOM     14  C   UNL     1      16.785   5.337  16.452  1.00  0.00     0.008 C 
ATOM     15  C   UNL     1      16.650   5.052  18.876  1.00  0.00     0.039 C 
ENDBRANCH   5  13
TORSDOF 1
ENDMDL
MODEL 7
REMARK VINA RESULT:    -4.191      1.358      3.968
REMARK INTER + INTRA:          -4.539
REMARK INTER:                  -4.420
REMARK INTRA:                  -0.119
REMARK UNBOUND:                -0.103
REMARK SMILES C=C(C)[C@H]1CC[C@H](C)[C@@]12CC=C(C)CC2
REMARK SMILES IDX 8 1 7 2 6 3 5 4 4 5 9 6 15 7 14 8 12 9 11 10 10 11 13 12
REMARK SMILES IDX 2 13 1 14 3 15
REMARK H PARENT
REMARK Flexibility Score: inf
ROOT
ATOM      1  C   UNL     1      15.950   6.320  19.244  1.00  0.00     0.008 C 
ATOM      2  C   UNL     1      14.937   6.305  18.083  1.00  0.00    -0.007 C 
ATOM      3  C   UNL     1      15.581   5.940  16.743  1.00  0.00     0.004 C 
ATOM      4  C   UNL     1      14.469   5.340  15.875  1.00  0.00     0.009 C 
ATOM      5  C   UNL     1      13.193   5.304  16.735  1.00  0.00     0.021 C 
ATOM      6  C   UNL     1      13.697   5.373  18.215  1.00  0.00    -0.017 C 
ATOM      7  C   UNL     1      14.101   3.908  18.684  1.00  0.00     0.012 C 
ATOM      8  C   UNL     1      13.225   3.355  19.820  1.00  0.00     0.031 C 
ATOM      9  C   UNL     1      13.142   4.371  20.933  1.00  0.00    -0.077 C 
ATOM     10  C   UNL     1      12.868   5.642  20.610  1.00  0.00    -0.027 C 
ATOM     11  C   UNL     1      12.621   6.000  19.171  1.00  0.00     0.035 C 
ATOM     12  C   UNL     1      13.430   3.995  22.359  1.00  0.00     0.039 C 
ENDROOT
BRANCH   5  13
ATOM     13  C   UNL     1      12.195   6.402  16.331  1.00  0.00    -0.077 C 
ATOM     14  C   UNL     1      10.886   6.107  16.255  1.00  0.00     0.008 C 
ATOM     15  C   UNL     1      12.610   7.827  16.052  1.00  0.00     0.039 C 
ENDBRANCH   5  13
TORSDOF 1
ENDMDL
MODEL 8
REMARK VINA RESULT:    -4.152      1.690      4.350
REMARK INTER + INTRA:          -4.498
REMARK INTER:                  -4.376
REMARK INTRA:                  -0.122
REMARK UNBOUND:                -0.103
REMARK SMILES C=C(C)[C@H]1CC[C@H](C)[C@@]12CC=C(C)CC2
REMARK SMILES IDX 8 1 7 2 6 3 5 4 4 5 9 6 15 7 14 8 12 9 11 10 10 11 13 12
REMARK SMILES IDX 2 13 1 14 3 15
REMARK H PARENT
REMARK Flexibility Score: inf
ROOT
ATOM      1  C   UNL     1      14.372   3.254  19.620  1.00  0.00     0.008 C 
ATOM      2  C   UNL     1      14.693   4.181  18.431  1.00  0.00    -0.007 C 
ATOM      3  C   UNL     1      14.570   3.470  17.080  1.00  0.00     0.004 C 
ATOM      4  C   UNL     1      14.268   4.557  16.043  1.00  0.00     0.009 C 
ATOM      5  C   UNL     1      14.158   5.891  16.804  1.00  0.00     0.021 C 
ATOM      6  C   UNL     1      13.864   5.490  18.288  1.00  0.00    -0.017 C 
ATOM      7  C   UNL     1      12.303   5.227  18.445  1.00  0.00     0.012 C 
ATOM      8  C   UNL     1      11.597   6.219  19.383  1.00  0.00     0.031 C 
ATOM      9  C   UNL     1      12.353   6.309  20.685  1.00  0.00    -0.077 C 
ATOM     10  C   UNL     1      13.683   6.466  20.636  1.00  0.00    -0.027 C 
ATOM     11  C   UNL     1      14.361   6.584  19.299  1.00  0.00     0.035 C 
ATOM     12  C   UNL     1      11.657   6.151  22.007  1.00  0.00     0.039 C 
ENDROOT
BRANCH   5  13
ATOM     13  C   UNL     1      15.398   6.776  16.597  1.00  0.00    -0.077 C 
ATOM     14  C   UNL     1      15.238   8.085  16.339  1.00  0.00     0.008 C 
ATOM     15  C   UNL     1      16.810   6.252  16.714  1.00  0.00     0.039 C 
ENDBRANCH   5  13
TORSDOF 1
ENDMDL
MODEL 9
REMARK VINA RESULT:    -4.118      1.934      3.770
REMARK INTER + INTRA:          -4.462
REMARK INTER:                  -4.342
REMARK INTRA:                  -0.119
REMARK UNBOUND:                -0.103
REMARK SMILES C=C(C)[C@H]1CC[C@H](C)[C@@]12CC=C(C)CC2
REMARK SMILES IDX 8 1 7 2 6 3 5 4 4 5 9 6 15 7 14 8 12 9 11 10 10 11 13 12
REMARK SMILES IDX 2 13 1 14 3 15
REMARK H PARENT
REMARK Flexibility Score: inf
ROOT
ATOM      1  C   UNL     1      12.026   8.225  19.142  1.00  0.00     0.008 C 
ATOM      2  C   UNL     1      12.275   6.715  18.964  1.00  0.00    -0.007 C 
ATOM      3  C   UNL     1      11.012   5.954  18.552  1.00  0.00     0.004 C 
ATOM      4  C   UNL     1      11.483   4.700  17.807  1.00  0.00     0.009 C 
ATOM      5  C   UNL     1      13.020   4.767  17.736  1.00  0.00     0.021 C 
ATOM      6  C   UNL     1      13.373   6.276  17.951  1.00  0.00    -0.017 C 
ATOM      7  C   UNL     1      13.237   7.035  16.559  1.00  0.00     0.012 C 
ATOM      8  C   UNL     1      14.564   7.596  16.025  1.00  0.00     0.031 C 
ATOM      9  C   UNL     1      15.248   8.391  17.110  1.00  0.00    -0.077 C 
ATOM     10  C   UNL     1      15.346   7.845  18.330  1.00  0.00    -0.027 C 
ATOM     11  C   UNL     1      14.807   6.460  18.561  1.00  0.00     0.035 C 
ATOM     12  C   UNL     1      15.744   9.788  16.862  1.00  0.00     0.039 C 
ENDROOT
BRANCH   5  13
ATOM     13  C   UNL     1      13.684   3.791  18.720  1.00  0.00    -0.077 C 
ATOM     14  C   UNL     1      14.724   3.046  18.309  1.00  0.00     0.008 C 
ATOM     15  C   UNL     1      13.250   3.655  20.161  1.00  0.00     0.039 C 
ENDBRANCH   5  13
TORSDOF 1
ENDMDL
