MODEL 1
REMARK VINA RESULT:    -5.307      0.000      0.000
REMARK INTER + INTRA:         -10.010
REMARK INTER:                  -9.340
REMARK INTRA:                  -0.670
REMARK UNBOUND:                -0.670
REMARK SMILES CCCCCCCCCCCCCCC(=O)[O-]
REMARK SMILES IDX 9 1 10 2 11 3 12 4 13 5 14 6 15 7 16 8 17 9 8 10 7 11 6 12
REMARK SMILES IDX 5 13 4 14 3 15 2 16 1 17
REMARK H PARENT
REMARK Flexibility Score: inf
ROOT
ATOM      1  C   UNL     1      27.455  37.593  31.924  1.00  0.00     0.000 C 
ENDROOT
BRANCH   1   2
ATOM      2  C   UNL     1      27.452  37.982  33.412  1.00  0.00     0.000 C 
BRANCH   2   3
ATOM      3  C   UNL     1      28.132  39.337  33.676  1.00  0.00     0.000 C 
BRANCH   3   4
ATOM      4  C   UNL     1      28.161  40.263  32.441  1.00  0.00     0.000 C 
BRANCH   4   5
ATOM      5  C   UNL     1      27.543  41.641  32.733  1.00  0.00     0.006 C 
BRANCH   5   6
ATOM      6  C   UNL     1      27.201  41.823  34.217  1.00  0.00     0.053 C 
BRANCH   6   7
ATOM      7  C   UNL     1      27.935  42.984  34.819  1.00  0.00     0.041 C 
ATOM      8  O   UNL     1      27.771  44.144  34.358  1.00  0.00    -0.550 OA
ATOM      9  O   UNL     1      28.823  42.777  35.866  1.00  0.00    -0.550 OA
ENDBRANCH   6   7
ENDBRANCH   5   6
ENDBRANCH   4   5
ENDBRANCH   3   4
ENDBRANCH   2   3
ENDBRANCH   1   2
BRANCH   1  10
ATOM     10  C   UNL     1      27.635  36.081  31.709  1.00  0.00     0.000 C 
BRANCH  10  11
ATOM     11  C   UNL     1      28.181  35.744  30.315  1.00  0.00    -0.000 C 
BRANCH  11  12
ATOM     12  C   UNL     1      28.312  34.228  30.128  1.00  0.00    -0.000 C 
BRANCH  12  13
ATOM     13  C   UNL     1      27.072  33.498  30.659  1.00  0.00    -0.000 C 
BRANCH  13  14
ATOM     14  C   UNL     1      26.178  33.022  29.507  1.00  0.00    -0.000 C 
BRANCH  14  15
ATOM     15  C   UNL     1      24.685  33.298  29.755  1.00  0.00    -0.000 C 
BRANCH  15  16
ATOM     16  C   UNL     1      23.750  32.604  28.742  1.00  0.00    -0.003 C 
ATOM     17  C   UNL     1      23.459  31.151  29.119  1.00  0.00     0.004 C 
ENDBRANCH  15  16
ENDBRANCH  14  15
ENDBRANCH  13  14
ENDBRANCH  12  13
ENDBRANCH  11  12
ENDBRANCH  10  11
ENDBRANCH   1  10
TORSDOF 13
ENDMDL
MODEL 2
REMARK VINA RESULT:    -5.127      4.621      9.850
REMARK INTER + INTRA:          -9.694
REMARK INTER:                  -8.956
REMARK INTRA:                  -0.738
REMARK UNBOUND:                -0.670
REMARK SMILES CCCCCCCCCCCCCCC(=O)[O-]
REMARK SMILES IDX 9 1 10 2 11 3 12 4 13 5 14 6 15 7 16 8 17 9 8 10 7 11 6 12
REMARK SMILES IDX 5 13 4 14 3 15 2 16 1 17
REMARK H PARENT
REMARK Flexibility Score: inf
ROOT
ATOM      1  C   UNL     1      27.427  43.195  35.519  1.00  0.00     0.000 C 
ENDROOT
BRANCH   1   2
ATOM      2  C   UNL     1      27.620  42.995  34.006  1.00  0.00     0.000 C 
BRANCH   2   3
ATOM      3  C   UNL     1      27.219  41.586  33.535  1.00  0.00     0.000 C 
BRANCH   3   4
ATOM      4  C   UNL     1      27.836  41.191  32.177  1.00  0.00     0.000 C 
BRANCH   4   5
ATOM      5  C   UNL     1      28.172  39.691  32.105  1.00  0.00     0.006 C 
BRANCH   5   6
ATOM      6  C   UNL     1      27.799  38.949  33.394  1.00  0.00     0.053 C 
BRANCH   6   7
ATOM      7  C   UNL     1      27.445  37.517  33.129  1.00  0.00     0.041 C 
ATOM      8  O   UNL     1      27.357  37.095  31.946  1.00  0.00    -0.550 OA
ATOM      9  O   UNL     1      27.181  36.658  34.188  1.00  0.00    -0.550 OA
ENDBRANCH   6   7
ENDBRANCH   5   6
ENDBRANCH   4   5
ENDBRANCH   3   4
ENDBRANCH   2   3
ENDBRANCH   1   2
BRANCH   1  10
ATOM     10  C   UNL     1      26.009  43.669  35.876  1.00  0.00     0.000 C 
BRANCH  10  11
ATOM     11  C   UNL     1      24.982  42.528  35.853  1.00  0.00    -0.000 C 
BRANCH  11  12
ATOM     12  C   UNL     1      23.692  42.965  35.148  1.00  0.00    -0.000 C 
BRANCH  12  13
ATOM     13  C   UNL     1      23.315  44.402  35.530  1.00  0.00    -0.000 C 
BRANCH  13  14
ATOM     14  C   UNL     1      21.800  44.535  35.744  1.00  0.00    -0.000 C 
BRANCH  14  15
ATOM     15  C   UNL     1      21.436  45.597  36.795  1.00  0.00    -0.000 C 
BRANCH  15  16
ATOM     16  C   UNL     1      22.656  46.355  37.357  1.00  0.00    -0.003 C 
ATOM     17  C   UNL     1      22.904  46.047  38.835  1.00  0.00     0.004 C 
ENDBRANCH  15  16
ENDBRANCH  14  15
ENDBRANCH  13  14
ENDBRANCH  12  13
ENDBRANCH  11  12
ENDBRANCH  10  11
ENDBRANCH   1  10
TORSDOF 13
ENDMDL
MODEL 3
REMARK VINA RESULT:    -5.025      3.978      6.713
REMARK INTER + INTRA:          -9.514
REMARK INTER:                  -8.817
REMARK INTRA:                  -0.697
REMARK UNBOUND:                -0.670
REMARK SMILES CCCCCCCCCCCCCCC(=O)[O-]
REMARK SMILES IDX 9 1 10 2 11 3 12 4 13 5 14 6 15 7 16 8 17 9 8 10 7 11 6 12
REMARK SMILES IDX 5 13 4 14 3 15 2 16 1 17
REMARK H PARENT
REMARK Flexibility Score: inf
ROOT
ATOM      1  C   UNL     1      26.950  43.481  35.525  1.00  0.00     0.000 C 
ENDROOT
BRANCH   1   2
ATOM      2  C   UNL     1      25.562  42.823  35.592  1.00  0.00     0.000 C 
BRANCH   2   3
ATOM      3  C   UNL     1      24.455  43.807  36.006  1.00  0.00     0.000 C 
BRANCH   3   4
ATOM      4  C   UNL     1      23.149  43.642  35.199  1.00  0.00     0.000 C 
BRANCH   4   5
ATOM      5  C   UNL     1      22.060  44.633  35.646  1.00  0.00     0.006 C 
BRANCH   5   6
ATOM      6  C   UNL     1      22.488  45.457  36.866  1.00  0.00     0.053 C 
BRANCH   6   7
ATOM      7  C   UNL     1      22.392  46.929  36.605  1.00  0.00     0.041 C 
ATOM      8  O   UNL     1      22.895  47.751  37.415  1.00  0.00    -0.550 OA
ATOM      9  O   UNL     1      21.718  47.393  35.483  1.00  0.00    -0.550 OA
ENDBRANCH   6   7
ENDBRANCH   5   6
ENDBRANCH   4   5
ENDBRANCH   3   4
ENDBRANCH   2   3
ENDBRANCH   1   2
BRANCH   1  10
ATOM     10  C   UNL     1      27.883  42.791  34.516  1.00  0.00     0.000 C 
BRANCH  10  11
ATOM     11  C   UNL     1      27.135  41.823  33.588  1.00  0.00    -0.000 C 
BRANCH  11  12
ATOM     12  C   UNL     1      27.813  40.448  33.569  1.00  0.00    -0.000 C 
BRANCH  12  13
ATOM     13  C   UNL     1      26.873  39.363  34.110  1.00  0.00    -0.000 C 
BRANCH  13  14
ATOM     14  C   UNL     1      27.395  37.961  33.766  1.00  0.00    -0.000 C 
BRANCH  14  15
ATOM     15  C   UNL     1      27.464  37.703  32.252  1.00  0.00    -0.000 C 
BRANCH  15  16
ATOM     16  C   UNL     1      27.472  36.206  31.879  1.00  0.00    -0.003 C 
ATOM     17  C   UNL     1      26.214  35.790  31.114  1.00  0.00     0.004 C 
ENDBRANCH  15  16
ENDBRANCH  14  15
ENDBRANCH  13  14
ENDBRANCH  12  13
ENDBRANCH  11  12
ENDBRANCH  10  11
ENDBRANCH   1  10
TORSDOF 13
ENDMDL
MODEL 4
REMARK VINA RESULT:    -4.993      2.132      3.930
REMARK INTER + INTRA:          -9.458
REMARK INTER:                  -8.650
REMARK INTRA:                  -0.809
REMARK UNBOUND:                -0.670
REMARK SMILES CCCCCCCCCCCCCCC(=O)[O-]
REMARK SMILES IDX 9 1 10 2 11 3 12 4 13 5 14 6 15 7 16 8 17 9 8 10 7 11 6 12
REMARK SMILES IDX 5 13 4 14 3 15 2 16 1 17
REMARK H PARENT
REMARK Flexibility Score: inf
ROOT
ATOM      1  C   UNL     1      27.765  41.064  32.348  1.00  0.00     0.000 C 
ENDROOT
BRANCH   1   2
ATOM      2  C   UNL     1      27.165  41.326  33.740  1.00  0.00     0.000 C 
BRANCH   2   3
ATOM      3  C   UNL     1      28.213  41.803  34.761  1.00  0.00     0.000 C 
BRANCH   3   4
ATOM      4  C   UNL     1      27.812  43.101  35.495  1.00  0.00     0.000 C 
BRANCH   4   5
ATOM      5  C   UNL     1      26.460  43.651  35.010  1.00  0.00     0.006 C 
BRANCH   5   6
ATOM      6  C   UNL     1      25.355  43.489  36.062  1.00  0.00     0.053 C 
BRANCH   6   7
ATOM      7  C   UNL     1      24.046  43.108  35.439  1.00  0.00     0.041 C 
ATOM      8  O   UNL     1      23.906  41.979  34.901  1.00  0.00    -0.550 OA
ATOM      9  O   UNL     1      22.993  44.014  35.425  1.00  0.00    -0.550 OA
ENDBRANCH   6   7
ENDBRANCH   5   6
ENDBRANCH   4   5
ENDBRANCH   3   4
ENDBRANCH   2   3
ENDBRANCH   1   2
BRANCH   1  10
ATOM     10  C   UNL     1      28.266  39.620  32.183  1.00  0.00     0.000 C 
BRANCH  10  11
ATOM     11  C   UNL     1      27.172  38.581  32.466  1.00  0.00    -0.000 C 
BRANCH  11  12
ATOM     12  C   UNL     1      27.663  37.524  33.463  1.00  0.00    -0.000 C 
BRANCH  12  13
ATOM     13  C   UNL     1      27.209  36.120  33.045  1.00  0.00    -0.000 C 
BRANCH  13  14
ATOM     14  C   UNL     1      28.221  35.476  32.088  1.00  0.00    -0.000 C 
BRANCH  14  15
ATOM     15  C   UNL     1      27.662  35.283  30.668  1.00  0.00    -0.000 C 
BRANCH  15  16
ATOM     16  C   UNL     1      27.530  33.803  30.251  1.00  0.00    -0.003 C 
ATOM     17  C   UNL     1      26.084  33.413  29.940  1.00  0.00     0.004 C 
ENDBRANCH  15  16
ENDBRANCH  14  15
ENDBRANCH  13  14
ENDBRANCH  12  13
ENDBRANCH  11  12
ENDBRANCH  10  11
ENDBRANCH   1  10
TORSDOF 13
ENDMDL
MODEL 5
REMARK VINA RESULT:    -4.980      3.243      5.164
REMARK INTER + INTRA:          -9.434
REMARK INTER:                  -8.913
REMARK INTRA:                  -0.521
REMARK UNBOUND:                -0.670
REMARK SMILES CCCCCCCCCCCCCCC(=O)[O-]
REMARK SMILES IDX 9 1 10 2 11 3 12 4 13 5 14 6 15 7 16 8 17 9 8 10 7 11 6 12
REMARK SMILES IDX 5 13 4 14 3 15 2 16 1 17
REMARK H PARENT
REMARK Flexibility Score: inf
ROOT
ATOM      1  C   UNL     1      26.970  41.433  33.999  1.00  0.00     0.000 C 
ENDROOT
BRANCH   1   2
ATOM      2  C   UNL     1      27.490  42.836  34.355  1.00  0.00     0.000 C 
BRANCH   2   3
ATOM      3  C   UNL     1      26.698  43.493  35.499  1.00  0.00     0.000 C 
BRANCH   3   4
ATOM      4  C   UNL     1      25.312  42.856  35.735  1.00  0.00     0.000 C 
BRANCH   4   5
ATOM      5  C   UNL     1      24.243  43.904  36.091  1.00  0.00     0.006 C 
BRANCH   5   6
ATOM      6  C   UNL     1      23.052  43.872  35.125  1.00  0.00     0.053 C 
BRANCH   6   7
ATOM      7  C   UNL     1      21.975  44.828  35.539  1.00  0.00     0.041 C 
ATOM      8  O   UNL     1      21.326  44.631  36.600  1.00  0.00    -0.550 OA
ATOM      9  O   UNL     1      21.666  45.918  34.735  1.00  0.00    -0.550 OA
ENDBRANCH   6   7
ENDBRANCH   5   6
ENDBRANCH   4   5
ENDBRANCH   3   4
ENDBRANCH   2   3
ENDBRANCH   1   2
BRANCH   1  10
ATOM     10  C   UNL     1      28.096  40.391  33.910  1.00  0.00     0.000 C 
BRANCH  10  11
ATOM     11  C   UNL     1      27.932  39.446  32.711  1.00  0.00    -0.000 C 
BRANCH  11  12
ATOM     12  C   UNL     1      27.135  38.195  33.104  1.00  0.00    -0.000 C 
BRANCH  12  13
ATOM     13  C   UNL     1      27.047  37.208  31.933  1.00  0.00    -0.000 C 
BRANCH  13  14
ATOM     14  C   UNL     1      27.856  35.937  32.222  1.00  0.00    -0.000 C 
BRANCH  14  15
ATOM     15  C   UNL     1      28.531  35.359  30.967  1.00  0.00    -0.000 C 
BRANCH  15  16
ATOM     16  C   UNL     1      27.533  34.918  29.876  1.00  0.00    -0.003 C 
ATOM     17  C   UNL     1      26.619  33.786  30.346  1.00  0.00     0.004 C 
ENDBRANCH  15  16
ENDBRANCH  14  15
ENDBRANCH  13  14
ENDBRANCH  12  13
ENDBRANCH  11  12
ENDBRANCH  10  11
ENDBRANCH   1  10
TORSDOF 13
ENDMDL
MODEL 6
REMARK VINA RESULT:    -4.849      1.691      3.023
REMARK INTER + INTRA:          -9.205
REMARK INTER:                  -8.563
REMARK INTRA:                  -0.642
REMARK UNBOUND:                -0.670
REMARK SMILES CCCCCCCCCCCCCCC(=O)[O-]
REMARK SMILES IDX 9 1 10 2 11 3 12 4 13 5 14 6 15 7 16 8 17 9 8 10 7 11 6 12
REMARK SMILES IDX 5 13 4 14 3 15 2 16 1 17
REMARK H PARENT
REMARK Flexibility Score: inf
ROOT
ATOM      1  C   UNL     1      28.252  34.973  31.767  1.00  0.00     0.000 C 
ENDROOT
BRANCH   1   2
ATOM      2  C   UNL     1      27.899  36.255  30.994  1.00  0.00     0.000 C 
BRANCH   2   3
ATOM      3  C   UNL     1      27.495  37.417  31.918  1.00  0.00     0.000 C 
BRANCH   3   4
ATOM      4  C   UNL     1      27.515  37.049  33.417  1.00  0.00     0.000 C 
BRANCH   4   5
ATOM      5  C   UNL     1      27.721  38.281  34.315  1.00  0.00     0.006 C 
BRANCH   5   6
ATOM      6  C   UNL     1      26.768  39.428  33.956  1.00  0.00     0.053 C 
BRANCH   6   7
ATOM      7  C   UNL     1      27.514  40.669  33.569  1.00  0.00     0.041 C 
ATOM      8  O   UNL     1      27.708  41.582  34.415  1.00  0.00    -0.550 OA
ATOM      9  O   UNL     1      27.965  40.831  32.266  1.00  0.00    -0.550 OA
ENDBRANCH   6   7
ENDBRANCH   5   6
ENDBRANCH   4   5
ENDBRANCH   3   4
ENDBRANCH   2   3
ENDBRANCH   1   2
BRANCH   1  10
ATOM     10  C   UNL     1      27.513  33.737  31.230  1.00  0.00     0.000 C 
BRANCH  10  11
ATOM     11  C   UNL     1      26.354  34.104  30.292  1.00  0.00    -0.000 C 
BRANCH  11  12
ATOM     12  C   UNL     1      25.682  32.844  29.731  1.00  0.00    -0.000 C 
BRANCH  12  13
ATOM     13  C   UNL     1      24.197  33.095  29.440  1.00  0.00    -0.000 C 
BRANCH  13  14
ATOM     14  C   UNL     1      23.554  31.874  28.768  1.00  0.00    -0.000 C 
BRANCH  14  15
ATOM     15  C   UNL     1      22.025  31.990  28.657  1.00  0.00    -0.000 C 
BRANCH  15  16
ATOM     16  C   UNL     1      21.265  30.845  29.358  1.00  0.00    -0.003 C 
ATOM     17  C   UNL     1      20.764  31.243  30.747  1.00  0.00     0.004 C 
ENDBRANCH  15  16
ENDBRANCH  14  15
ENDBRANCH  13  14
ENDBRANCH  12  13
ENDBRANCH  11  12
ENDBRANCH  10  11
ENDBRANCH   1  10
TORSDOF 13
ENDMDL
MODEL 7
REMARK VINA RESULT:    -4.821      2.490      4.879
REMARK INTER + INTRA:          -9.155
REMARK INTER:                  -8.446
REMARK INTRA:                  -0.709
REMARK UNBOUND:                -0.670
REMARK SMILES CCCCCCCCCCCCCCC(=O)[O-]
REMARK SMILES IDX 9 1 10 2 11 3 12 4 13 5 14 6 15 7 16 8 17 9 8 10 7 11 6 12
REMARK SMILES IDX 5 13 4 14 3 15 2 16 1 17
REMARK H PARENT
REMARK Flexibility Score: inf
ROOT
ATOM      1  C   UNL     1      26.390  33.893  30.514  1.00  0.00     0.000 C 
ENDROOT
BRANCH   1   2
ATOM      2  C   UNL     1      27.902  33.691  30.707  1.00  0.00     0.000 C 
BRANCH   2   3
ATOM      3  C   UNL     1      28.543  34.784  31.580  1.00  0.00     0.000 C 
BRANCH   3   4
ATOM      4  C   UNL     1      27.983  34.834  33.018  1.00  0.00     0.000 C 
BRANCH   4   5
ATOM      5  C   UNL     1      27.595  36.261  33.441  1.00  0.00     0.006 C 
BRANCH   5   6
ATOM      6  C   UNL     1      27.567  37.233  32.255  1.00  0.00     0.053 C 
BRANCH   6   7
ATOM      7  C   UNL     1      27.580  38.662  32.707  1.00  0.00     0.041 C 
ATOM      8  O   UNL     1      27.164  38.967  33.855  1.00  0.00    -0.550 OA
ATOM      9  O   UNL     1      28.020  39.659  31.846  1.00  0.00    -0.550 OA
ENDBRANCH   6   7
ENDBRANCH   5   6
ENDBRANCH   4   5
ENDBRANCH   3   4
ENDBRANCH   2   3
ENDBRANCH   1   2
BRANCH   1  10
ATOM     10  C   UNL     1      25.801  32.958  29.446  1.00  0.00     0.000 C 
BRANCH  10  11
ATOM     11  C   UNL     1      24.266  32.974  29.429  1.00  0.00    -0.000 C 
BRANCH  11  12
ATOM     12  C   UNL     1      23.716  31.906  28.475  1.00  0.00    -0.000 C 
BRANCH  12  13
ATOM     13  C   UNL     1      23.508  30.572  29.202  1.00  0.00    -0.000 C 
BRANCH  13  14
ATOM     14  C   UNL     1      22.027  30.352  29.536  1.00  0.00    -0.000 C 
BRANCH  14  15
ATOM     15  C   UNL     1      21.085  31.209  28.673  1.00  0.00    -0.000 C 
BRANCH  15  16
ATOM     16  C   UNL     1      19.975  31.913  29.481  1.00  0.00    -0.003 C 
ATOM     17  C   UNL     1      19.040  32.734  28.592  1.00  0.00     0.004 C 
ENDBRANCH  15  16
ENDBRANCH  14  15
ENDBRANCH  13  14
ENDBRANCH  12  13
ENDBRANCH  11  12
ENDBRANCH  10  11
ENDBRANCH   1  10
TORSDOF 13
ENDMDL
MODEL 8
REMARK VINA RESULT:    -4.814      4.332      7.002
REMARK INTER + INTRA:          -9.143
REMARK INTER:                  -7.643
REMARK INTRA:                  -1.500
REMARK UNBOUND:                -0.670
REMARK SMILES CCCCCCCCCCCCCCC(=O)[O-]
REMARK SMILES IDX 9 1 10 2 11 3 12 4 13 5 14 6 15 7 16 8 17 9 8 10 7 11 6 12
REMARK SMILES IDX 5 13 4 14 3 15 2 16 1 17
REMARK H PARENT
REMARK Flexibility Score: inf
ROOT
ATOM      1  C   UNL     1      24.548  32.229  28.159  1.00  0.00     0.000 C 
ENDROOT
BRANCH   1   2
ATOM      2  C   UNL     1      24.084  32.861  29.482  1.00  0.00     0.000 C 
BRANCH   2   3
ATOM      3  C   UNL     1      25.126  33.820  30.083  1.00  0.00     0.000 C 
BRANCH   3   4
ATOM      4  C   UNL     1      26.584  33.370  29.851  1.00  0.00     0.000 C 
BRANCH   4   5
ATOM      5  C   UNL     1      27.591  34.508  30.100  1.00  0.00     0.006 C 
BRANCH   5   6
ATOM      6  C   UNL     1      27.073  35.529  31.121  1.00  0.00     0.053 C 
BRANCH   6   7
ATOM      7  C   UNL     1      27.821  35.447  32.417  1.00  0.00     0.041 C 
ATOM      8  O   UNL     1      27.555  36.245  33.353  1.00  0.00    -0.550 OA
ATOM      9  O   UNL     1      28.835  34.512  32.577  1.00  0.00    -0.550 OA
ENDBRANCH   6   7
ENDBRANCH   5   6
ENDBRANCH   4   5
ENDBRANCH   3   4
ENDBRANCH   2   3
ENDBRANCH   1   2
BRANCH   1  10
ATOM     10  C   UNL     1      24.056  30.783  27.991  1.00  0.00     0.000 C 
BRANCH  10  11
ATOM     11  C   UNL     1      23.418  30.224  29.271  1.00  0.00    -0.000 C 
BRANCH  11  12
ATOM     12  C   UNL     1      21.925  29.942  29.062  1.00  0.00    -0.000 C 
BRANCH  12  13
ATOM     13  C   UNL     1      21.094  30.479  30.234  1.00  0.00    -0.000 C 
BRANCH  13  14
ATOM     14  C   UNL     1      20.468  31.837  29.889  1.00  0.00    -0.000 C 
BRANCH  14  15
ATOM     15  C   UNL     1      19.624  31.797  28.603  1.00  0.00    -0.000 C 
BRANCH  15  16
ATOM     16  C   UNL     1      19.876  32.992  27.660  1.00  0.00    -0.003 C 
ATOM     17  C   UNL     1      21.080  32.768  26.745  1.00  0.00     0.004 C 
ENDBRANCH  15  16
ENDBRANCH  14  15
ENDBRANCH  13  14
ENDBRANCH  12  13
ENDBRANCH  11  12
ENDBRANCH  10  11
ENDBRANCH   1  10
TORSDOF 13
ENDMDL
MODEL 9
REMARK VINA RESULT:    -4.691      3.616      6.355
REMARK INTER + INTRA:          -8.925
REMARK INTER:                  -8.067
REMARK INTRA:                  -0.858
REMARK UNBOUND:                -0.670
REMARK SMILES CCCCCCCCCCCCCCC(=O)[O-]
REMARK SMILES IDX 9 1 10 2 11 3 12 4 13 5 14 6 15 7 16 8 17 9 8 10 7 11 6 12
REMARK SMILES IDX 5 13 4 14 3 15 2 16 1 17
REMARK H PARENT
REMARK Flexibility Score: inf
ROOT
ATOM      1  C   UNL     1      24.475  32.996  29.121  1.00  0.00     0.000 C 
ENDROOT
BRANCH   1   2
ATOM      2  C   UNL     1      25.289  33.694  30.223  1.00  0.00     0.000 C 
BRANCH   2   3
ATOM      3  C   UNL     1      26.789  33.781  29.892  1.00  0.00     0.000 C 
BRANCH   3   4
ATOM      4  C   UNL     1      27.705  33.455  31.091  1.00  0.00     0.000 C 
BRANCH   4   5
ATOM      5  C   UNL     1      28.730  34.571  31.360  1.00  0.00     0.006 C 
BRANCH   5   6
ATOM      6  C   UNL     1      28.190  35.958  30.989  1.00  0.00     0.053 C 
BRANCH   6   7
ATOM      7  C   UNL     1      27.629  36.674  32.180  1.00  0.00     0.041 C 
ATOM      8  O   UNL     1      27.629  36.120  33.310  1.00  0.00    -0.550 OA
ATOM      9  O   UNL     1      27.077  37.940  32.033  1.00  0.00    -0.550 OA
ENDBRANCH   6   7
ENDBRANCH   5   6
ENDBRANCH   4   5
ENDBRANCH   3   4
ENDBRANCH   2   3
ENDBRANCH   1   2
BRANCH   1  10
ATOM     10  C   UNL     1      25.285  31.922  28.378  1.00  0.00     0.000 C 
BRANCH  10  11
ATOM     11  C   UNL     1      24.420  30.736  27.928  1.00  0.00    -0.000 C 
BRANCH  11  12
ATOM     12  C   UNL     1      23.672  30.120  29.116  1.00  0.00    -0.000 C 
BRANCH  12  13
ATOM     13  C   UNL     1      22.172  29.995  28.818  1.00  0.00    -0.000 C 
BRANCH  13  14
ATOM     14  C   UNL     1      21.370  31.064  29.574  1.00  0.00    -0.000 C 
BRANCH  14  15
ATOM     15  C   UNL     1      20.379  30.463  30.585  1.00  0.00    -0.000 C 
BRANCH  15  16
ATOM     16  C   UNL     1      19.217  29.689  29.927  1.00  0.00    -0.003 C 
ATOM     17  C   UNL     1      18.523  30.500  28.832  1.00  0.00     0.004 C 
ENDBRANCH  15  16
ENDBRANCH  14  15
ENDBRANCH  13  14
ENDBRANCH  12  13
ENDBRANCH  11  12
ENDBRANCH  10  11
ENDBRANCH   1  10
TORSDOF 13
ENDMDL
