MODEL 1
REMARK VINA RESULT:    -4.476      0.000      0.000
REMARK INTER + INTRA:          -5.384
REMARK INTER:                  -5.130
REMARK INTRA:                  -0.255
REMARK UNBOUND:                -0.255
REMARK SMILES COC(=O)c1ccccc1O
REMARK SMILES IDX 5 1 6 2 7 3 8 4 9 5 10 6 3 7 4 8 2 9 1 10 11 11
REMARK H PARENT 11 12
REMARK Flexibility Score: inf
ROOT
ATOM      1  C   UNL     1      72.744  34.389  55.094  1.00  0.00     0.101 A 
ATOM      2  C   UNL     1      73.267  35.695  55.047  1.00  0.00     0.019 A 
ATOM      3  C   UNL     1      74.015  36.125  53.948  1.00  0.00     0.001 A 
ATOM      4  C   UNL     1      74.251  35.260  52.880  1.00  0.00     0.004 A 
ATOM      5  C   UNL     1      73.741  33.962  52.909  1.00  0.00     0.047 A 
ATOM      6  C   UNL     1      72.988  33.516  54.006  1.00  0.00     0.130 A 
ENDROOT
BRANCH   1   7
ATOM      7  C   UNL     1      71.952  33.967  56.280  1.00  0.00     0.341 C 
ATOM      8  O   UNL     1      70.888  34.569  56.589  1.00  0.00    -0.246 OA
BRANCH   7   9
ATOM      9  O   UNL     1      72.392  32.891  57.059  1.00  0.00    -0.465 OA
ATOM     10  C   UNL     1      72.060  32.752  58.434  1.00  0.00     0.282 C 
ENDBRANCH   7   9
ENDBRANCH   1   7
BRANCH   6  11
ATOM     11  O   UNL     1      72.489  32.214  54.009  1.00  0.00    -0.507 OA
ATOM     12  H   UNL     1      73.096  31.411  54.125  1.00  0.00     0.293 HD
ENDBRANCH   6  11
TORSDOF 3
ENDMDL
MODEL 2
REMARK VINA RESULT:    -4.423     16.009     17.618
REMARK INTER + INTRA:          -5.324
REMARK INTER:                  -4.980
REMARK INTRA:                  -0.344
REMARK UNBOUND:                -0.255
REMARK SMILES COC(=O)c1ccccc1O
REMARK SMILES IDX 5 1 6 2 7 3 8 4 9 5 10 6 3 7 4 8 2 9 1 10 11 11
REMARK H PARENT 11 12
REMARK Flexibility Score: inf
ROOT
ATOM      1  C   UNL     1      85.753  31.770  65.801  1.00  0.00     0.101 A 
ATOM      2  C   UNL     1      84.625  31.604  64.975  1.00  0.00     0.019 A 
ATOM      3  C   UNL     1      83.337  31.627  65.514  1.00  0.00     0.001 A 
ATOM      4  C   UNL     1      83.154  31.818  66.883  1.00  0.00     0.004 A 
ATOM      5  C   UNL     1      84.259  31.985  67.718  1.00  0.00     0.047 A 
ATOM      6  C   UNL     1      85.559  31.964  67.190  1.00  0.00     0.130 A 
ENDROOT
BRANCH   1   7
ATOM      7  C   UNL     1      87.109  31.740  65.192  1.00  0.00     0.341 C 
ATOM      8  O   UNL     1      87.378  30.931  64.262  1.00  0.00    -0.246 OA
BRANCH   7   9
ATOM      9  O   UNL     1      88.096  32.617  65.655  1.00  0.00    -0.465 OA
ATOM     10  C   UNL     1      88.123  33.996  65.308  1.00  0.00     0.282 C 
ENDBRANCH   7   9
ENDBRANCH   1   7
BRANCH   6  11
ATOM     11  O   UNL     1      86.647  32.134  68.047  1.00  0.00    -0.507 OA
ATOM     12  H   UNL     1      86.674  32.881  68.732  1.00  0.00     0.293 HD
ENDBRANCH   6  11
TORSDOF 3
ENDMDL
MODEL 3
REMARK VINA RESULT:    -4.308     15.301     16.537
REMARK INTER + INTRA:          -5.192
REMARK INTER:                  -4.970
REMARK INTRA:                  -0.222
REMARK UNBOUND:                -0.255
REMARK SMILES COC(=O)c1ccccc1O
REMARK SMILES IDX 5 1 6 2 7 3 8 4 9 5 10 6 3 7 4 8 2 9 1 10 11 11
REMARK H PARENT 11 12
REMARK Flexibility Score: inf
ROOT
ATOM      1  C   UNL     1      85.125  31.411  65.286  1.00  0.00     0.101 A 
ATOM      2  C   UNL     1      85.848  32.618  65.327  1.00  0.00     0.019 A 
ATOM      3  C   UNL     1      87.232  32.628  65.142  1.00  0.00     0.001 A 
ATOM      4  C   UNL     1      87.916  31.434  64.912  1.00  0.00     0.004 A 
ATOM      5  C   UNL     1      87.217  30.228  64.867  1.00  0.00     0.047 A 
ATOM      6  C   UNL     1      85.826  30.203  65.052  1.00  0.00     0.130 A 
ENDROOT
BRANCH   1   7
ATOM      7  C   UNL     1      83.652  31.440  65.487  1.00  0.00     0.341 C 
ATOM      8  O   UNL     1      82.880  30.885  64.658  1.00  0.00    -0.246 OA
BRANCH   7   9
ATOM      9  O   UNL     1      83.119  32.087  66.606  1.00  0.00    -0.465 OA
ATOM     10  C   UNL     1      83.654  31.929  67.914  1.00  0.00     0.282 C 
ENDBRANCH   7   9
ENDBRANCH   1   7
BRANCH   6  11
ATOM     11  O   UNL     1      85.152  28.983  65.001  1.00  0.00    -0.507 OA
ATOM     12  H   UNL     1      84.765  28.553  65.834  1.00  0.00     0.293 HD
ENDBRANCH   6  11
TORSDOF 3
ENDMDL
MODEL 4
REMARK VINA RESULT:    -4.292     15.081     16.424
REMARK INTER + INTRA:          -5.174
REMARK INTER:                  -4.837
REMARK INTRA:                  -0.337
REMARK UNBOUND:                -0.255
REMARK SMILES COC(=O)c1ccccc1O
REMARK SMILES IDX 5 1 6 2 7 3 8 4 9 5 10 6 3 7 4 8 2 9 1 10 11 11
REMARK H PARENT 11 12
REMARK Flexibility Score: inf
ROOT
ATOM      1  C   UNL     1      84.975  31.912  65.867  1.00  0.00     0.101 A 
ATOM      2  C   UNL     1      85.760  31.625  67.000  1.00  0.00     0.019 A 
ATOM      3  C   UNL     1      87.132  31.882  67.002  1.00  0.00     0.001 A 
ATOM      4  C   UNL     1      87.743  32.430  65.874  1.00  0.00     0.004 A 
ATOM      5  C   UNL     1      86.983  32.721  64.741  1.00  0.00     0.047 A 
ATOM      6  C   UNL     1      85.603  32.468  64.725  1.00  0.00     0.130 A 
ENDROOT
BRANCH   1   7
ATOM      7  C   UNL     1      83.517  31.625  65.902  1.00  0.00     0.341 C 
ATOM      8  O   UNL     1      82.853  31.801  66.960  1.00  0.00    -0.246 OA
BRANCH   7   9
ATOM      9  O   UNL     1      82.876  31.156  64.750  1.00  0.00    -0.465 OA
ATOM     10  C   UNL     1      82.875  29.784  64.375  1.00  0.00     0.282 C 
ENDBRANCH   7   9
ENDBRANCH   1   7
BRANCH   6  11
ATOM     11  O   UNL     1      84.866  32.769  63.580  1.00  0.00    -0.507 OA
ATOM     12  H   UNL     1      83.854  32.704  63.565  1.00  0.00     0.293 HD
ENDBRANCH   6  11
TORSDOF 3
ENDMDL
MODEL 5
REMARK VINA RESULT:    -4.255     15.350     16.755
REMARK INTER + INTRA:          -5.132
REMARK INTER:                  -4.919
REMARK INTRA:                  -0.213
REMARK UNBOUND:                -0.255
REMARK SMILES COC(=O)c1ccccc1O
REMARK SMILES IDX 5 1 6 2 7 3 8 4 9 5 10 6 3 7 4 8 2 9 1 10 11 11
REMARK H PARENT 11 12
REMARK Flexibility Score: inf
ROOT
ATOM      1  C   UNL     1      85.113  31.722  65.696  1.00  0.00     0.101 A 
ATOM      2  C   UNL     1      85.864  31.632  64.508  1.00  0.00     0.019 A 
ATOM      3  C   UNL     1      87.257  31.722  64.535  1.00  0.00     0.001 A 
ATOM      4  C   UNL     1      87.923  31.903  65.747  1.00  0.00     0.004 A 
ATOM      5  C   UNL     1      87.198  31.994  66.934  1.00  0.00     0.047 A 
ATOM      6  C   UNL     1      85.798  31.905  66.922  1.00  0.00     0.130 A 
ENDROOT
BRANCH   1   7
ATOM      7  C   UNL     1      83.632  31.621  65.629  1.00  0.00     0.341 C 
ATOM      8  O   UNL     1      82.918  31.992  66.600  1.00  0.00    -0.246 OA
BRANCH   7   9
ATOM      9  O   UNL     1      83.024  31.110  64.477  1.00  0.00    -0.465 OA
ATOM     10  C   UNL     1      82.572  29.765  64.378  1.00  0.00     0.282 C 
ENDBRANCH   7   9
ENDBRANCH   1   7
BRANCH   6  11
ATOM     11  O   UNL     1      85.097  31.999  68.125  1.00  0.00    -0.507 OA
ATOM     12  H   UNL     1      85.528  31.766  69.012  1.00  0.00     0.293 HD
ENDBRANCH   6  11
TORSDOF 3
ENDMDL
MODEL 6
REMARK VINA RESULT:    -4.014     16.066     17.641
REMARK INTER + INTRA:          -4.855
REMARK INTER:                  -4.577
REMARK INTRA:                  -0.279
REMARK UNBOUND:                -0.255
REMARK SMILES COC(=O)c1ccccc1O
REMARK SMILES IDX 5 1 6 2 7 3 8 4 9 5 10 6 3 7 4 8 2 9 1 10 11 11
REMARK H PARENT 11 12
REMARK Flexibility Score: inf
ROOT
ATOM      1  C   UNL     1      85.737  31.661  66.642  1.00  0.00     0.101 A 
ATOM      2  C   UNL     1      85.022  32.035  67.796  1.00  0.00     0.019 A 
ATOM      3  C   UNL     1      83.627  32.095  67.783  1.00  0.00     0.001 A 
ATOM      4  C   UNL     1      82.924  31.783  66.620  1.00  0.00     0.004 A 
ATOM      5  C   UNL     1      83.614  31.410  65.467  1.00  0.00     0.047 A 
ATOM      6  C   UNL     1      85.016  31.346  65.465  1.00  0.00     0.130 A 
ENDROOT
BRANCH   1   7
ATOM      7  C   UNL     1      87.222  31.608  66.694  1.00  0.00     0.341 C 
ATOM      8  O   UNL     1      87.826  30.501  66.676  1.00  0.00    -0.246 OA
BRANCH   7   9
ATOM      9  O   UNL     1      87.956  32.798  66.761  1.00  0.00    -0.465 OA
ATOM     10  C   UNL     1      88.125  33.661  65.644  1.00  0.00     0.282 C 
ENDBRANCH   7   9
ENDBRANCH   1   7
BRANCH   6  11
ATOM     11  O   UNL     1      85.682  30.969  64.298  1.00  0.00    -0.507 OA
ATOM     12  H   UNL     1      85.237  31.028  63.389  1.00  0.00     0.293 HD
ENDBRANCH   6  11
TORSDOF 3
ENDMDL
MODEL 7
REMARK VINA RESULT:    -3.977     14.582     16.133
REMARK INTER + INTRA:          -4.813
REMARK INTER:                  -4.532
REMARK INTRA:                  -0.281
REMARK UNBOUND:                -0.255
REMARK SMILES COC(=O)c1ccccc1O
REMARK SMILES IDX 5 1 6 2 7 3 8 4 9 5 10 6 3 7 4 8 2 9 1 10 11 11
REMARK H PARENT 11 12
REMARK Flexibility Score: inf
ROOT
ATOM      1  C   UNL     1      84.783  30.877  65.036  1.00  0.00     0.101 A 
ATOM      2  C   UNL     1      85.516  29.676  65.084  1.00  0.00     0.019 A 
ATOM      3  C   UNL     1      84.913  28.458  64.763  1.00  0.00     0.001 A 
ATOM      4  C   UNL     1      83.570  28.419  64.388  1.00  0.00     0.004 A 
ATOM      5  C   UNL     1      82.827  29.598  64.334  1.00  0.00     0.047 A 
ATOM      6  C   UNL     1      83.420  30.830  64.654  1.00  0.00     0.130 A 
ENDROOT
BRANCH   1   7
ATOM      7  C   UNL     1      85.459  32.155  65.384  1.00  0.00     0.341 C 
ATOM      8  O   UNL     1      85.698  33.018  64.495  1.00  0.00    -0.246 OA
BRANCH   7   9
ATOM      9  O   UNL     1      85.832  32.402  66.709  1.00  0.00    -0.465 OA
ATOM     10  C   UNL     1      84.986  32.108  67.814  1.00  0.00     0.282 C 
ENDBRANCH   7   9
ENDBRANCH   1   7
BRANCH   6  11
ATOM     11  O   UNL     1      82.654  31.994  64.591  1.00  0.00    -0.507 OA
ATOM     12  H   UNL     1      81.783  32.087  65.101  1.00  0.00     0.293 HD
ENDBRANCH   6  11
TORSDOF 3
ENDMDL
MODEL 8
REMARK VINA RESULT:    -3.924      3.583      5.474
REMARK INTER + INTRA:          -4.752
REMARK INTER:                  -4.489
REMARK INTRA:                  -0.264
REMARK UNBOUND:                -0.255
REMARK SMILES COC(=O)c1ccccc1O
REMARK SMILES IDX 5 1 6 2 7 3 8 4 9 5 10 6 3 7 4 8 2 9 1 10 11 11
REMARK H PARENT 11 12
REMARK Flexibility Score: inf
ROOT
ATOM      1  C   UNL     1      75.585  34.951  52.257  1.00  0.00     0.101 A 
ATOM      2  C   UNL     1      74.817  36.125  52.371  1.00  0.00     0.019 A 
ATOM      3  C   UNL     1      73.552  36.096  52.961  1.00  0.00     0.001 A 
ATOM      4  C   UNL     1      73.033  34.896  53.447  1.00  0.00     0.004 A 
ATOM      5  C   UNL     1      73.779  33.722  53.344  1.00  0.00     0.047 A 
ATOM      6  C   UNL     1      75.052  33.736  52.753  1.00  0.00     0.130 A 
ENDROOT
BRANCH   1   7
ATOM      7  C   UNL     1      76.928  35.020  51.624  1.00  0.00     0.341 C 
ATOM      8  O   UNL     1      77.183  35.896  50.753  1.00  0.00    -0.246 OA
BRANCH   7   9
ATOM      9  O   UNL     1      77.918  34.105  51.998  1.00  0.00    -0.465 OA
ATOM     10  C   UNL     1      79.283  34.254  51.627  1.00  0.00     0.282 C 
ENDBRANCH   7   9
ENDBRANCH   1   7
BRANCH   6  11
ATOM     11  O   UNL     1      75.777  32.548  52.663  1.00  0.00    -0.507 OA
ATOM     12  H   UNL     1      75.551  31.837  51.976  1.00  0.00     0.293 HD
ENDBRANCH   6  11
TORSDOF 3
ENDMDL
