MODEL 1
REMARK VINA RESULT:    -5.586      0.000      0.000
REMARK INTER + INTRA:         -12.510
REMARK INTER:                  -9.831
REMARK INTRA:                  -2.679
REMARK UNBOUND:                -2.679
REMARK SMILES CCCCCCC=CCCCCCCCC(=O)[O-]
REMARK SMILES IDX 10 1 11 2 12 3 13 4 14 5 15 6 16 7 17 8 18 9 9 10 8 11 7 12
REMARK SMILES IDX 6 13 5 14 4 15 3 16 2 17 1 18
REMARK H PARENT
REMARK Flexibility Score: inf
ROOT
ATOM      1  C   UNL     1       6.691  22.882  46.610  1.00  0.00     0.004 C 
ENDROOT
BRANCH   1   2
ATOM      2  C   UNL     1       7.844  22.983  45.599  1.00  0.00     0.000 C 
BRANCH   2   3
ATOM      3  C   UNL     1       7.775  24.267  44.754  1.00  0.00     0.000 C 
BRANCH   3   4
ATOM      4  C   UNL     1       7.550  23.979  43.261  1.00  0.00     0.000 C 
BRANCH   4   5
ATOM      5  C   UNL     1       6.095  24.224  42.822  1.00  0.00     0.006 C 
BRANCH   5   6
ATOM      6  C   UNL     1       5.312  25.051  43.850  1.00  0.00     0.053 C 
BRANCH   6   7
ATOM      7  C   UNL     1       3.882  25.237  43.441  1.00  0.00     0.041 C 
ATOM      8  O   UNL     1       3.559  26.187  42.681  1.00  0.00    -0.550 OA
ATOM      9  O   UNL     1       2.903  24.382  43.930  1.00  0.00    -0.550 OA
ENDBRANCH   6   7
ENDBRANCH   5   6
ENDBRANCH   4   5
ENDBRANCH   3   4
ENDBRANCH   2   3
ENDBRANCH   1   2
BRANCH   1  10
ATOM     10  C   UNL     1       5.858  21.604  46.435  1.00  0.00     0.027 C 
BRANCH  10  11
ATOM     11  C   UNL     1       4.769  21.815  45.415  1.00  0.00    -0.031 C 
ATOM     12  C   UNL     1       4.666  21.127  44.263  1.00  0.00    -0.031 C 
BRANCH  12  13
ATOM     13  C   UNL     1       5.604  20.011  43.874  1.00  0.00     0.027 C 
BRANCH  13  14
ATOM     14  C   UNL     1       6.624  20.484  42.831  1.00  0.00     0.004 C 
BRANCH  14  15
ATOM     15  C   UNL     1       8.060  20.229  43.312  1.00  0.00     0.000 C 
BRANCH  15  16
ATOM     16  C   UNL     1       8.134  19.157  44.411  1.00  0.00    -0.000 C 
BRANCH  16  17
ATOM     17  C   UNL     1       8.863  19.650  45.670  1.00  0.00    -0.003 C 
ATOM     18  C   UNL     1      10.350  19.307  45.613  1.00  0.00     0.004 C 
ENDBRANCH  16  17
ENDBRANCH  15  16
ENDBRANCH  14  15
ENDBRANCH  13  14
ENDBRANCH  12  13
ENDBRANCH  10  11
ENDBRANCH   1  10
TORSDOF 13
ENDMDL
MODEL 2
REMARK VINA RESULT:    -5.501      1.315      3.714
REMARK INTER + INTRA:         -12.360
REMARK INTER:                  -9.803
REMARK INTRA:                  -2.557
REMARK UNBOUND:                -2.679
REMARK SMILES CCCCCCC=CCCCCCCCC(=O)[O-]
REMARK SMILES IDX 10 1 11 2 12 3 13 4 14 5 15 6 16 7 17 8 18 9 9 10 8 11 7 12
REMARK SMILES IDX 6 13 5 14 4 15 3 16 2 17 1 18
REMARK H PARENT
REMARK Flexibility Score: inf
ROOT
ATOM      1  C   UNL     1       7.042  20.368  42.758  1.00  0.00     0.004 C 
ENDROOT
BRANCH   1   2
ATOM      2  C   UNL     1       6.288  19.792  43.967  1.00  0.00     0.000 C 
BRANCH   2   3
ATOM      3  C   UNL     1       4.875  20.383  44.116  1.00  0.00     0.000 C 
BRANCH   3   4
ATOM      4  C   UNL     1       4.633  20.990  45.508  1.00  0.00     0.000 C 
BRANCH   4   5
ATOM      5  C   UNL     1       4.644  22.529  45.494  1.00  0.00     0.006 C 
BRANCH   5   6
ATOM      6  C   UNL     1       3.793  23.105  44.355  1.00  0.00     0.053 C 
BRANCH   6   7
ATOM      7  C   UNL     1       3.349  24.506  44.646  1.00  0.00     0.041 C 
ATOM      8  O   UNL     1       2.432  25.035  43.965  1.00  0.00    -0.550 OA
ATOM      9  O   UNL     1       3.975  25.240  45.645  1.00  0.00    -0.550 OA
ENDBRANCH   6   7
ENDBRANCH   5   6
ENDBRANCH   4   5
ENDBRANCH   3   4
ENDBRANCH   2   3
ENDBRANCH   1   2
BRANCH   1  10
ATOM     10  C   UNL     1       6.474  21.714  42.289  1.00  0.00     0.027 C 
BRANCH  10  11
ATOM     11  C   UNL     1       7.580  22.626  41.824  1.00  0.00    -0.031 C 
ATOM     12  C   UNL     1       7.987  23.724  42.486  1.00  0.00    -0.031 C 
BRANCH  12  13
ATOM     13  C   UNL     1       7.419  24.151  43.818  1.00  0.00     0.027 C 
BRANCH  13  14
ATOM     14  C   UNL     1       8.514  24.225  44.888  1.00  0.00     0.004 C 
BRANCH  14  15
ATOM     15  C   UNL     1       8.120  23.416  46.134  1.00  0.00     0.000 C 
BRANCH  15  16
ATOM     16  C   UNL     1       8.306  21.903  45.940  1.00  0.00    -0.000 C 
BRANCH  16  17
ATOM     17  C   UNL     1       9.578  21.561  45.151  1.00  0.00    -0.003 C 
ATOM     18  C   UNL     1      10.014  20.121  45.409  1.00  0.00     0.004 C 
ENDBRANCH  16  17
ENDBRANCH  15  16
ENDBRANCH  14  15
ENDBRANCH  13  14
ENDBRANCH  12  13
ENDBRANCH  10  11
ENDBRANCH   1  10
TORSDOF 13
ENDMDL
MODEL 3
REMARK VINA RESULT:    -5.469      3.175      5.672
REMARK INTER + INTRA:         -12.304
REMARK INTER:                  -9.724
REMARK INTRA:                  -2.580
REMARK UNBOUND:                -2.679
REMARK SMILES CCCCCCC=CCCCCCCCC(=O)[O-]
REMARK SMILES IDX 10 1 11 2 12 3 13 4 14 5 15 6 16 7 17 8 18 9 9 10 8 11 7 12
REMARK SMILES IDX 6 13 5 14 4 15 3 16 2 17 1 18
REMARK H PARENT
REMARK Flexibility Score: inf
ROOT
ATOM      1  C   UNL     1       7.765  22.479  42.041  1.00  0.00     0.004 C 
ENDROOT
BRANCH   1   2
ATOM      2  C   UNL     1       7.753  23.827  42.780  1.00  0.00     0.000 C 
BRANCH   2   3
ATOM      3  C   UNL     1       8.172  23.694  44.255  1.00  0.00     0.000 C 
BRANCH   3   4
ATOM      4  C   UNL     1       8.958  22.402  44.531  1.00  0.00     0.000 C 
BRANCH   4   5
ATOM      5  C   UNL     1       8.643  21.798  45.911  1.00  0.00     0.006 C 
BRANCH   5   6
ATOM      6  C   UNL     1       8.195  20.334  45.814  1.00  0.00     0.053 C 
BRANCH   6   7
ATOM      7  C   UNL     1       9.258  19.466  45.210  1.00  0.00     0.041 C 
ATOM      8  O   UNL     1       8.963  18.636  44.311  1.00  0.00    -0.550 OA
ATOM      9  O   UNL     1      10.566  19.550  45.669  1.00  0.00    -0.550 OA
ENDBRANCH   6   7
ENDBRANCH   5   6
ENDBRANCH   4   5
ENDBRANCH   3   4
ENDBRANCH   2   3
ENDBRANCH   1   2
BRANCH   1  10
ATOM     10  C   UNL     1       6.369  21.853  41.923  1.00  0.00     0.027 C 
BRANCH  10  11
ATOM     11  C   UNL     1       6.339  20.493  42.572  1.00  0.00    -0.031 C 
ATOM     12  C   UNL     1       5.477  20.133  43.540  1.00  0.00    -0.031 C 
BRANCH  12  13
ATOM     13  C   UNL     1       4.387  21.038  44.062  1.00  0.00     0.027 C 
BRANCH  13  14
ATOM     14  C   UNL     1       4.794  21.684  45.392  1.00  0.00     0.004 C 
BRANCH  14  15
ATOM     15  C   UNL     1       4.979  23.201  45.232  1.00  0.00     0.000 C 
BRANCH  15  16
ATOM     16  C   UNL     1       3.693  23.909  44.779  1.00  0.00    -0.000 C 
BRANCH  16  17
ATOM     17  C   UNL     1       3.803  24.484  43.359  1.00  0.00    -0.003 C 
ATOM     18  C   UNL     1       4.711  25.710  43.332  1.00  0.00     0.004 C 
ENDBRANCH  16  17
ENDBRANCH  15  16
ENDBRANCH  14  15
ENDBRANCH  13  14
ENDBRANCH  12  13
ENDBRANCH  10  11
ENDBRANCH   1  10
TORSDOF 13
ENDMDL
MODEL 4
REMARK VINA RESULT:    -5.445      3.366      5.673
REMARK INTER + INTRA:         -12.263
REMARK INTER:                  -9.829
REMARK INTRA:                  -2.434
REMARK UNBOUND:                -2.679
REMARK SMILES CCCCCCC=CCCCCCCCC(=O)[O-]
REMARK SMILES IDX 10 1 11 2 12 3 13 4 14 5 15 6 16 7 17 8 18 9 9 10 8 11 7 12
REMARK SMILES IDX 6 13 5 14 4 15 3 16 2 17 1 18
REMARK H PARENT
REMARK Flexibility Score: inf
ROOT
ATOM      1  C   UNL     1       6.937  22.871  42.126  1.00  0.00     0.004 C 
ENDROOT
BRANCH   1   2
ATOM      2  C   UNL     1       6.039  21.667  41.801  1.00  0.00     0.000 C 
BRANCH   2   3
ATOM      3  C   UNL     1       6.394  20.424  42.635  1.00  0.00     0.000 C 
BRANCH   3   4
ATOM      4  C   UNL     1       7.778  20.533  43.297  1.00  0.00     0.000 C 
BRANCH   4   5
ATOM      5  C   UNL     1       8.019  19.439  44.352  1.00  0.00     0.006 C 
BRANCH   5   6
ATOM      6  C   UNL     1       9.370  18.737  44.160  1.00  0.00     0.053 C 
BRANCH   6   7
ATOM      7  C   UNL     1      10.381  19.190  45.170  1.00  0.00     0.041 C 
ATOM      8  O   UNL     1      10.421  20.396  45.530  1.00  0.00    -0.550 OA
ATOM      9  O   UNL     1      11.301  18.286  45.685  1.00  0.00    -0.550 OA
ENDBRANCH   6   7
ENDBRANCH   5   6
ENDBRANCH   4   5
ENDBRANCH   3   4
ENDBRANCH   2   3
ENDBRANCH   1   2
BRANCH   1  10
ATOM     10  C   UNL     1       6.177  24.009  42.821  1.00  0.00     0.027 C 
BRANCH  10  11
ATOM     11  C   UNL     1       4.690  23.858  42.619  1.00  0.00    -0.031 C 
ATOM     12  C   UNL     1       3.815  23.586  43.604  1.00  0.00    -0.031 C 
BRANCH  12  13
ATOM     13  C   UNL     1       4.210  23.454  45.055  1.00  0.00     0.027 C 
BRANCH  13  14
ATOM     14  C   UNL     1       4.386  21.983  45.448  1.00  0.00     0.004 C 
BRANCH  14  15
ATOM     15  C   UNL     1       5.768  21.744  46.077  1.00  0.00     0.000 C 
BRANCH  15  16
ATOM     16  C   UNL     1       6.511  23.053  46.386  1.00  0.00    -0.000 C 
BRANCH  16  17
ATOM     17  C   UNL     1       8.037  22.905  46.281  1.00  0.00    -0.003 C 
ATOM     18  C   UNL     1       8.614  23.879  45.258  1.00  0.00     0.004 C 
ENDBRANCH  16  17
ENDBRANCH  15  16
ENDBRANCH  14  15
ENDBRANCH  13  14
ENDBRANCH  12  13
ENDBRANCH  10  11
ENDBRANCH   1  10
TORSDOF 13
ENDMDL
MODEL 5
REMARK VINA RESULT:    -5.445      1.337      3.092
REMARK INTER + INTRA:         -12.262
REMARK INTER:                  -9.890
REMARK INTRA:                  -2.372
REMARK UNBOUND:                -2.679
REMARK SMILES CCCCCCC=CCCCCCCCC(=O)[O-]
REMARK SMILES IDX 10 1 11 2 12 3 13 4 14 5 15 6 16 7 17 8 18 9 9 10 8 11 7 12
REMARK SMILES IDX 6 13 5 14 4 15 3 16 2 17 1 18
REMARK H PARENT
REMARK Flexibility Score: inf
ROOT
ATOM      1  C   UNL     1       6.185  21.624  46.451  1.00  0.00     0.004 C 
ENDROOT
BRANCH   1   2
ATOM      2  C   UNL     1       4.749  21.556  45.907  1.00  0.00     0.000 C 
BRANCH   2   3
ATOM      3  C   UNL     1       4.705  21.359  44.382  1.00  0.00     0.000 C 
BRANCH   3   4
ATOM      4  C   UNL     1       4.093  22.563  43.648  1.00  0.00     0.000 C 
BRANCH   4   5
ATOM      5  C   UNL     1       3.853  23.766  44.580  1.00  0.00     0.006 C 
BRANCH   5   6
ATOM      6  C   UNL     1       2.710  24.662  44.084  1.00  0.00     0.053 C 
BRANCH   6   7
ATOM      7  C   UNL     1       3.224  25.865  43.353  1.00  0.00     0.041 C 
ATOM      8  O   UNL     1       4.455  25.986  43.119  1.00  0.00    -0.550 OA
ATOM      9  O   UNL     1       2.346  26.868  42.962  1.00  0.00    -0.550 OA
ENDBRANCH   6   7
ENDBRANCH   5   6
ENDBRANCH   4   5
ENDBRANCH   3   4
ENDBRANCH   2   3
ENDBRANCH   1   2
BRANCH   1  10
ATOM     10  C   UNL     1       6.689  23.064  46.618  1.00  0.00     0.027 C 
BRANCH  10  11
ATOM     11  C   UNL     1       8.112  23.189  46.134  1.00  0.00    -0.031 C 
ATOM     12  C   UNL     1       8.475  23.821  45.002  1.00  0.00    -0.031 C 
BRANCH  12  13
ATOM     13  C   UNL     1       7.500  24.537  44.100  1.00  0.00     0.027 C 
BRANCH  13  14
ATOM     14  C   UNL     1       7.362  23.817  42.753  1.00  0.00     0.004 C 
BRANCH  14  15
ATOM     15  C   UNL     1       8.382  22.673  42.635  1.00  0.00     0.000 C 
BRANCH  15  16
ATOM     16  C   UNL     1       7.736  21.287  42.790  1.00  0.00    -0.000 C 
BRANCH  16  17
ATOM     17  C   UNL     1       8.670  20.273  43.467  1.00  0.00    -0.003 C 
ATOM     18  C   UNL     1       7.874  19.199  44.204  1.00  0.00     0.004 C 
ENDBRANCH  16  17
ENDBRANCH  15  16
ENDBRANCH  14  15
ENDBRANCH  13  14
ENDBRANCH  12  13
ENDBRANCH  10  11
ENDBRANCH   1  10
TORSDOF 13
ENDMDL
MODEL 6
REMARK VINA RESULT:    -5.422      1.158      2.590
REMARK INTER + INTRA:         -12.222
REMARK INTER:                  -9.495
REMARK INTRA:                  -2.727
REMARK UNBOUND:                -2.679
REMARK SMILES CCCCCCC=CCCCCCCCC(=O)[O-]
REMARK SMILES IDX 10 1 11 2 12 3 13 4 14 5 15 6 16 7 17 8 18 9 9 10 8 11 7 12
REMARK SMILES IDX 6 13 5 14 4 15 3 16 2 17 1 18
REMARK H PARENT
REMARK Flexibility Score: inf
ROOT
ATOM      1  C   UNL     1       5.791  20.849  42.846  1.00  0.00     0.004 C 
ENDROOT
BRANCH   1   2
ATOM      2  C   UNL     1       6.189  21.970  41.872  1.00  0.00     0.000 C 
BRANCH   2   3
ATOM      3  C   UNL     1       7.592  22.532  42.163  1.00  0.00     0.000 C 
BRANCH   3   4
ATOM      4  C   UNL     1       7.547  23.907  42.848  1.00  0.00     0.000 C 
BRANCH   4   5
ATOM      5  C   UNL     1       6.180  24.600  42.699  1.00  0.00     0.006 C 
BRANCH   5   6
ATOM      6  C   UNL     1       5.645  25.117  44.040  1.00  0.00     0.053 C 
BRANCH   6   7
ATOM      7  C   UNL     1       4.178  24.851  44.194  1.00  0.00     0.041 C 
ATOM      8  O   UNL     1       3.484  24.532  43.193  1.00  0.00    -0.550 OA
ATOM      9  O   UNL     1       3.572  24.991  45.436  1.00  0.00    -0.550 OA
ENDBRANCH   6   7
ENDBRANCH   5   6
ENDBRANCH   4   5
ENDBRANCH   3   4
ENDBRANCH   2   3
ENDBRANCH   1   2
BRANCH   1  10
ATOM     10  C   UNL     1       4.847  21.333  43.955  1.00  0.00     0.027 C 
BRANCH  10  11
ATOM     11  C   UNL     1       5.136  20.616  45.250  1.00  0.00    -0.031 C 
ATOM     12  C   UNL     1       5.821  21.152  46.276  1.00  0.00    -0.031 C 
BRANCH  12  13
ATOM     13  C   UNL     1       6.342  22.568  46.279  1.00  0.00     0.027 C 
BRANCH  13  14
ATOM     14  C   UNL     1       7.869  22.596  46.139  1.00  0.00     0.004 C 
BRANCH  14  15
ATOM     15  C   UNL     1       8.425  21.182  45.912  1.00  0.00     0.000 C 
BRANCH  15  16
ATOM     16  C   UNL     1       9.568  21.155  44.885  1.00  0.00    -0.000 C 
BRANCH  16  17
ATOM     17  C   UNL     1       9.537  19.901  43.999  1.00  0.00    -0.003 C 
ATOM     18  C   UNL     1       8.398  18.969  44.406  1.00  0.00     0.004 C 
ENDBRANCH  16  17
ENDBRANCH  15  16
ENDBRANCH  14  15
ENDBRANCH  13  14
ENDBRANCH  12  13
ENDBRANCH  10  11
ENDBRANCH   1  10
TORSDOF 13
ENDMDL
MODEL 7
REMARK VINA RESULT:    -5.420      4.558      6.387
REMARK INTER + INTRA:         -12.217
REMARK INTER:                 -10.067
REMARK INTRA:                  -2.150
REMARK UNBOUND:                -2.679
REMARK SMILES CCCCCCC=CCCCCCCCC(=O)[O-]
REMARK SMILES IDX 10 1 11 2 12 3 13 4 14 5 15 6 16 7 17 8 18 9 9 10 8 11 7 12
REMARK SMILES IDX 6 13 5 14 4 15 3 16 2 17 1 18
REMARK H PARENT
REMARK Flexibility Score: inf
ROOT
ATOM      1  C   UNL     1       8.346  22.697  45.880  1.00  0.00     0.004 C 
ENDROOT
BRANCH   1   2
ATOM      2  C   UNL     1       8.540  21.173  45.862  1.00  0.00     0.000 C 
BRANCH   2   3
ATOM      3  C   UNL     1       9.729  20.741  44.986  1.00  0.00     0.000 C 
BRANCH   3   4
ATOM      4  C   UNL     1       9.369  19.597  44.024  1.00  0.00     0.000 C 
BRANCH   4   5
ATOM      5  C   UNL     1      10.203  18.328  44.272  1.00  0.00     0.006 C 
BRANCH   5   6
ATOM      6  C   UNL     1      11.014  18.413  45.572  1.00  0.00     0.053 C 
BRANCH   6   7
ATOM      7  C   UNL     1      12.093  17.375  45.624  1.00  0.00     0.041 C 
ATOM      8  O   UNL     1      13.285  17.710  45.853  1.00  0.00    -0.550 OA
ATOM      9  O   UNL     1      11.787  16.041  45.382  1.00  0.00    -0.550 OA
ENDBRANCH   6   7
ENDBRANCH   5   6
ENDBRANCH   4   5
ENDBRANCH   3   4
ENDBRANCH   2   3
ENDBRANCH   1   2
BRANCH   1  10
ATOM     10  C   UNL     1       6.867  23.108  45.838  1.00  0.00     0.027 C 
BRANCH  10  11
ATOM     11  C   UNL     1       6.009  22.077  46.526  1.00  0.00    -0.031 C 
ATOM     12  C   UNL     1       5.115  21.293  45.897  1.00  0.00    -0.031 C 
BRANCH  12  13
ATOM     13  C   UNL     1       4.900  21.310  44.403  1.00  0.00     0.027 C 
BRANCH  13  14
ATOM     14  C   UNL     1       5.704  20.200  43.716  1.00  0.00     0.004 C 
BRANCH  14  15
ATOM     15  C   UNL     1       6.071  20.596  42.278  1.00  0.00     0.000 C 
BRANCH  15  16
ATOM     16  C   UNL     1       6.344  22.101  42.131  1.00  0.00    -0.000 C 
BRANCH  16  17
ATOM     17  C   UNL     1       7.843  22.435  42.151  1.00  0.00    -0.003 C 
ATOM     18  C   UNL     1       8.073  23.915  42.443  1.00  0.00     0.004 C 
ENDBRANCH  16  17
ENDBRANCH  15  16
ENDBRANCH  14  15
ENDBRANCH  13  14
ENDBRANCH  12  13
ENDBRANCH  10  11
ENDBRANCH   1  10
TORSDOF 13
ENDMDL
MODEL 8
REMARK VINA RESULT:    -5.404      3.114      5.877
REMARK INTER + INTRA:         -12.190
REMARK INTER:                  -9.649
REMARK INTRA:                  -2.541
REMARK UNBOUND:                -2.679
REMARK SMILES CCCCCCC=CCCCCCCCC(=O)[O-]
REMARK SMILES IDX 10 1 11 2 12 3 13 4 14 5 15 6 16 7 17 8 18 9 9 10 8 11 7 12
REMARK SMILES IDX 6 13 5 14 4 15 3 16 2 17 1 18
REMARK H PARENT
REMARK Flexibility Score: inf
ROOT
ATOM      1  C   UNL     1       6.107  22.450  46.994  1.00  0.00     0.004 C 
ENDROOT
BRANCH   1   2
ATOM      2  C   UNL     1       6.342  21.183  46.156  1.00  0.00     0.000 C 
BRANCH   2   3
ATOM      3  C   UNL     1       5.334  21.045  45.002  1.00  0.00     0.000 C 
BRANCH   3   4
ATOM      4  C   UNL     1       5.903  20.255  43.812  1.00  0.00     0.000 C 
BRANCH   4   5
ATOM      5  C   UNL     1       7.441  20.272  43.770  1.00  0.00     0.006 C 
BRANCH   5   6
ATOM      6  C   UNL     1       8.049  18.971  44.311  1.00  0.00     0.053 C 
BRANCH   6   7
ATOM      7  C   UNL     1       9.503  19.130  44.638  1.00  0.00     0.041 C 
ATOM      8  O   UNL     1      10.367  18.442  44.033  1.00  0.00    -0.550 OA
ATOM      9  O   UNL     1       9.899  20.012  45.635  1.00  0.00    -0.550 OA
ENDBRANCH   6   7
ENDBRANCH   5   6
ENDBRANCH   4   5
ENDBRANCH   3   4
ENDBRANCH   2   3
ENDBRANCH   1   2
BRANCH   1  10
ATOM     10  C   UNL     1       6.973  23.633  46.540  1.00  0.00     0.027 C 
BRANCH  10  11
ATOM     11  C   UNL     1       8.282  23.147  45.972  1.00  0.00    -0.031 C 
ATOM     12  C   UNL     1       8.784  23.533  44.785  1.00  0.00    -0.031 C 
BRANCH  12  13
ATOM     13  C   UNL     1       8.118  24.552  43.892  1.00  0.00     0.027 C 
BRANCH  13  14
ATOM     14  C   UNL     1       7.428  23.877  42.701  1.00  0.00     0.004 C 
BRANCH  14  15
ATOM     15  C   UNL     1       5.899  23.935  42.847  1.00  0.00     0.000 C 
BRANCH  15  16
ATOM     16  C   UNL     1       5.425  25.185  43.605  1.00  0.00    -0.000 C 
BRANCH  16  17
ATOM     17  C   UNL     1       4.281  24.883  44.584  1.00  0.00    -0.003 C 
ATOM     18  C   UNL     1       3.237  23.971  43.946  1.00  0.00     0.004 C 
ENDBRANCH  16  17
ENDBRANCH  15  16
ENDBRANCH  14  15
ENDBRANCH  13  14
ENDBRANCH  12  13
ENDBRANCH  10  11
ENDBRANCH   1  10
TORSDOF 13
ENDMDL
MODEL 9
REMARK VINA RESULT:    -5.347      2.943      5.911
REMARK INTER + INTRA:         -12.090
REMARK INTER:                  -9.438
REMARK INTRA:                  -2.652
REMARK UNBOUND:                -2.679
REMARK SMILES CCCCCCC=CCCCCCCCC(=O)[O-]
REMARK SMILES IDX 10 1 11 2 12 3 13 4 14 5 15 6 16 7 17 8 18 9 9 10 8 11 7 12
REMARK SMILES IDX 6 13 5 14 4 15 3 16 2 17 1 18
REMARK H PARENT
REMARK Flexibility Score: inf
ROOT
ATOM      1  C   UNL     1       5.709  20.249  42.471  1.00  0.00     0.004 C 
ENDROOT
BRANCH   1   2
ATOM      2  C   UNL     1       5.126  20.181  43.891  1.00  0.00     0.000 C 
BRANCH   2   3
ATOM      3  C   UNL     1       4.649  21.553  44.399  1.00  0.00     0.000 C 
BRANCH   3   4
ATOM      4  C   UNL     1       5.264  21.925  45.758  1.00  0.00     0.000 C 
BRANCH   4   5
ATOM      5  C   UNL     1       6.421  20.994  46.162  1.00  0.00     0.006 C 
BRANCH   5   6
ATOM      6  C   UNL     1       7.787  21.681  46.038  1.00  0.00     0.053 C 
BRANCH   6   7
ATOM      7  C   UNL     1       8.836  20.744  45.520  1.00  0.00     0.041 C 
ATOM      8  O   UNL     1      10.003  21.161  45.297  1.00  0.00    -0.550 OA
ATOM      9  O   UNL     1       8.514  19.420  45.251  1.00  0.00    -0.550 OA
ENDBRANCH   6   7
ENDBRANCH   5   6
ENDBRANCH   4   5
ENDBRANCH   3   4
ENDBRANCH   2   3
ENDBRANCH   1   2
BRANCH   1  10
ATOM     10  C   UNL     1       6.203  21.654  42.099  1.00  0.00     0.027 C 
BRANCH  10  11
ATOM     11  C   UNL     1       7.698  21.756  42.271  1.00  0.00    -0.031 C 
ATOM     12  C   UNL     1       8.361  22.908  42.474  1.00  0.00    -0.031 C 
BRANCH  12  13
ATOM     13  C   UNL     1       7.679  24.248  42.611  1.00  0.00     0.027 C 
BRANCH  13  14
ATOM     14  C   UNL     1       7.319  24.537  44.073  1.00  0.00     0.004 C 
BRANCH  14  15
ATOM     15  C   UNL     1       5.911  25.142  44.183  1.00  0.00     0.000 C 
BRANCH  15  16
ATOM     16  C   UNL     1       5.096  24.982  42.890  1.00  0.00    -0.000 C 
BRANCH  16  17
ATOM     17  C   UNL     1       3.630  25.410  43.059  1.00  0.00    -0.003 C 
ATOM     18  C   UNL     1       3.068  24.930  44.394  1.00  0.00     0.004 C 
ENDBRANCH  16  17
ENDBRANCH  15  16
ENDBRANCH  14  15
ENDBRANCH  13  14
ENDBRANCH  12  13
ENDBRANCH  10  11
ENDBRANCH   1  10
TORSDOF 13
ENDMDL
