MODEL 1
REMARK VINA RESULT:    -5.082      0.000      0.000
REMARK INTER + INTRA:         -11.568
REMARK INTER:                  -8.796
REMARK INTRA:                  -2.772
REMARK UNBOUND:                -2.772
REMARK SMILES OC[C@@H]1O[C@H](O[C@H]2[C@@H](O)[C@H](O)[C@H](O[C@H]3[C@@H](O)[C@H](O)[C@@H](O)O[C@H]3CO)O[C@H]2CO)[C@H](O)[C@@H](O)[C@@H]1O
REMARK SMILES IDX 7 1 26 2 25 3 12 4 10 5 8 6 6 7 5 8 3 9 33 10 4 11 31 12
REMARK SMILES IDX 29 13 2 14 1 15 34 17 32 19 30 21 27 23 28 24 9 26 11 28
REMARK SMILES IDX 13 30 14 31 22 32 15 33 21 34 17 35 19 36 23 37 24 38 16 40
REMARK SMILES IDX 18 42 20 44
REMARK H PARENT 1 16 34 18 32 20 30 22 28 25 9 27 11 29 24 39 16 41 18 43
REMARK H PARENT 20 45
REMARK Flexibility Score: inf
ROOT
ATOM      1  C   UNL     1      47.046   0.373  28.025  1.00  0.00     0.184 C 
ATOM      2  C   UNL     1      46.564   1.669  28.803  1.00  0.00     0.178 C 
ATOM      3  O   UNL     1      47.506   2.255  29.744  1.00  0.00    -0.341 OA
ATOM      4  C   UNL     1      48.966   2.497  29.379  1.00  0.00     0.282 C 
ATOM      5  C   UNL     1      49.395   1.749  28.099  1.00  0.00     0.202 C 
ATOM      6  C   UNL     1      48.532   0.595  27.577  1.00  0.00     0.180 C 
ENDROOT
BRANCH   1   7
ATOM      7  O   UNL     1      46.219  -0.006  26.780  1.00  0.00    -0.341 OA
BRANCH   7   8
ATOM      8  C   UNL     1      45.189  -0.983  27.110  1.00  0.00     0.282 C 
ATOM      9  C   UNL     1      45.479  -3.104  27.767  1.00  0.00     0.178 C 
ATOM     10  C   UNL     1      44.103  -3.503  28.332  1.00  0.00     0.177 C 
ATOM     11  O   UNL     1      45.675  -1.766  28.130  1.00  0.00    -0.341 OA
ATOM     12  C   UNL     1      43.158  -2.234  28.355  1.00  0.00     0.179 C 
ATOM     13  C   UNL     1      43.619  -0.966  27.431  1.00  0.00     0.202 C 
BRANCH   9  14
ATOM     14  C   UNL     1      46.860  -3.867  27.864  1.00  0.00     0.191 C 
BRANCH  14  15
ATOM     15  O   UNL     1      47.350  -3.787  29.177  1.00  0.00    -0.394 OA
ATOM     16  H   UNL     1      47.562  -2.778  29.393  1.00  0.00     0.210 HD
ENDBRANCH  14  15
ENDBRANCH   9  14
BRANCH  10  17
ATOM     17  O   UNL     1      44.372  -4.162  29.575  1.00  0.00    -0.387 OA
ATOM     18  H   UNL     1      45.015  -4.925  29.368  1.00  0.00     0.211 HD
ENDBRANCH  10  17
BRANCH  12  19
ATOM     19  O   UNL     1      41.814  -2.633  28.291  1.00  0.00    -0.387 OA
ATOM     20  H   UNL     1      41.641  -3.366  27.583  1.00  0.00     0.211 HD
ENDBRANCH  12  19
BRANCH  13  21
ATOM     21  O   UNL     1      43.273   0.248  28.065  1.00  0.00    -0.385 OA
ATOM     22  H   UNL     1      43.011   0.056  29.002  1.00  0.00     0.211 HD
ENDBRANCH  13  21
ENDBRANCH   7   8
ENDBRANCH   1   7
BRANCH   2  23
ATOM     23  C   UNL     1      45.823   2.769  27.958  1.00  0.00     0.191 C 
BRANCH  23  24
ATOM     24  O   UNL     1      46.322   2.885  26.636  1.00  0.00    -0.394 OA
ATOM     25  H   UNL     1      46.048   2.008  26.092  1.00  0.00     0.210 HD
ENDBRANCH  23  24
ENDBRANCH   2  23
BRANCH   6  26
ATOM     26  O   UNL     1      48.451   0.828  26.139  1.00  0.00    -0.387 OA
ATOM     27  H   UNL     1      47.530   1.161  26.076  1.00  0.00     0.211 HD
ENDBRANCH   6  26
BRANCH   5  28
ATOM     28  O   UNL     1      50.752   1.319  28.291  1.00  0.00    -0.385 OA
ATOM     29  H   UNL     1      51.008   1.457  29.273  1.00  0.00     0.211 HD
ENDBRANCH   5  28
BRANCH   4  30
ATOM     30  O   UNL     1      49.872   2.243  30.479  1.00  0.00    -0.341 OA
BRANCH  30  31
ATOM     31  C   UNL     1      49.460   1.555  31.727  1.00  0.00     0.184 C 
ATOM     32  C   UNL     1      49.546   0.041  32.252  1.00  0.00     0.178 C 
ATOM     33  C   UNL     1      48.747   2.495  32.958  1.00  0.00     0.180 C 
ATOM     34  O   UNL     1      50.435   0.029  33.459  1.00  0.00    -0.342 OA
ATOM     35  C   UNL     1      48.959   1.734  34.376  1.00  0.00     0.201 C 
ATOM     36  C   UNL     1      50.408   1.100  34.444  1.00  0.00     0.279 C 
BRANCH  32  37
ATOM     37  C   UNL     1      48.295  -1.016  32.198  1.00  0.00     0.191 C 
BRANCH  37  38
ATOM     38  O   UNL     1      47.702  -1.456  30.985  1.00  0.00    -0.394 OA
ATOM     39  H   UNL     1      48.441  -1.780  30.410  1.00  0.00     0.210 HD
ENDBRANCH  37  38
ENDBRANCH  32  37
BRANCH  33  40
ATOM     40  O   UNL     1      47.423   2.630  32.792  1.00  0.00    -0.387 OA
ATOM     41  H   UNL     1      47.041   1.893  32.267  1.00  0.00     0.211 HD
ENDBRANCH  33  40
BRANCH  35  42
ATOM     42  O   UNL     1      48.560   2.481  35.628  1.00  0.00    -0.385 OA
ATOM     43  H   UNL     1      48.875   3.424  35.572  1.00  0.00     0.211 HD
ENDBRANCH  35  42
BRANCH  36  44
ATOM     44  O   UNL     1      50.592   0.565  35.708  1.00  0.00    -0.366 OA
ATOM     45  H   UNL     1      49.874   1.019  36.364  1.00  0.00     0.213 HD
ENDBRANCH  36  44
ENDBRANCH  30  31
ENDBRANCH   4  30
TORSDOF 18
ENDMDL
MODEL 2
REMARK VINA RESULT:    -5.034      7.746     12.418
REMARK INTER + INTRA:         -11.484
REMARK INTER:                  -8.800
REMARK INTRA:                  -2.684
REMARK UNBOUND:                -2.772
REMARK SMILES OC[C@@H]1O[C@H](O[C@H]2[C@@H](O)[C@H](O)[C@H](O[C@H]3[C@@H](O)[C@H](O)[C@@H](O)O[C@H]3CO)O[C@H]2CO)[C@H](O)[C@@H](O)[C@@H]1O
REMARK SMILES IDX 7 1 26 2 25 3 12 4 10 5 8 6 6 7 5 8 3 9 33 10 4 11 31 12
REMARK SMILES IDX 29 13 2 14 1 15 34 17 32 19 30 21 27 23 28 24 9 26 11 28
REMARK SMILES IDX 13 30 14 31 22 32 15 33 21 34 17 35 19 36 23 37 24 38 16 40
REMARK SMILES IDX 18 42 20 44
REMARK H PARENT 1 16 34 18 32 20 30 22 28 25 9 27 11 29 24 39 16 41 18 43
REMARK H PARENT 20 45
REMARK Flexibility Score: inf
ROOT
ATOM      1  C   UNL     1      42.002  -5.927  25.388  1.00  0.00     0.184 C 
ATOM      2  C   UNL     1      41.655  -4.387  25.541  1.00  0.00     0.178 C 
ATOM      3  O   UNL     1      40.261  -4.051  25.789  1.00  0.00    -0.341 OA
ATOM      4  C   UNL     1      39.430  -4.780  26.839  1.00  0.00     0.282 C 
ATOM      5  C   UNL     1      40.091  -6.089  27.321  1.00  0.00     0.202 C 
ATOM      6  C   UNL     1      41.212  -6.719  26.487  1.00  0.00     0.180 C 
ENDROOT
BRANCH   1   7
ATOM      7  O   UNL     1      43.495  -6.292  25.512  1.00  0.00    -0.341 OA
BRANCH   7   8
ATOM      8  C   UNL     1      44.117  -6.415  24.199  1.00  0.00     0.282 C 
ATOM      9  C   UNL     1      43.190  -7.200  22.317  1.00  0.00     0.178 C 
ATOM     10  C   UNL     1      44.156  -6.733  21.212  1.00  0.00     0.177 C 
ATOM     11  O   UNL     1      43.147  -6.164  23.258  1.00  0.00    -0.341 OA
ATOM     12  C   UNL     1      45.260  -5.791  21.844  1.00  0.00     0.179 C 
ATOM     13  C   UNL     1      45.431  -5.858  23.469  1.00  0.00     0.202 C 
BRANCH   9  14
ATOM     14  C   UNL     1      41.748  -7.832  22.184  1.00  0.00     0.191 C 
BRANCH  14  15
ATOM     15  O   UNL     1      41.014  -7.127  21.217  1.00  0.00    -0.394 OA
ATOM     16  H   UNL     1      39.988  -7.269  21.408  1.00  0.00     0.210 HD
ENDBRANCH  14  15
ENDBRANCH   9  14
BRANCH  10  17
ATOM     17  O   UNL     1      43.326  -6.194  20.176  1.00  0.00    -0.387 OA
ATOM     18  H   UNL     1      42.481  -6.763  20.153  1.00  0.00     0.211 HD
ENDBRANCH  10  17
BRANCH  12  19
ATOM     19  O   UNL     1      46.426  -5.824  21.063  1.00  0.00    -0.387 OA
ATOM     20  H   UNL     1      46.466  -6.639  20.428  1.00  0.00     0.211 HD
ENDBRANCH  12  19
BRANCH  13  21
ATOM     21  O   UNL     1      45.754  -4.580  23.976  1.00  0.00    -0.385 OA
ATOM     22  H   UNL     1      45.481  -3.895  23.314  1.00  0.00     0.211 HD
ENDBRANCH  13  21
ENDBRANCH   7   8
ENDBRANCH   1   7
BRANCH   2  23
ATOM     23  C   UNL     1      42.628  -3.525  26.426  1.00  0.00     0.191 C 
BRANCH  23  24
ATOM     24  O   UNL     1      43.886  -3.299  25.813  1.00  0.00    -0.394 OA
ATOM     25  H   UNL     1      44.366  -4.242  25.665  1.00  0.00     0.210 HD
ENDBRANCH  23  24
ENDBRANCH   2  23
BRANCH   6  26
ATOM     26  O   UNL     1      42.225  -7.093  27.469  1.00  0.00    -0.387 OA
ATOM     27  H   UNL     1      42.030  -6.433  28.167  1.00  0.00     0.211 HD
ENDBRANCH   6  26
BRANCH   5  28
ATOM     28  O   UNL     1      39.037  -7.039  27.549  1.00  0.00    -0.385 OA
ATOM     29  H   UNL     1      38.313  -6.599  28.125  1.00  0.00     0.211 HD
ENDBRANCH   5  28
BRANCH   4  30
ATOM     30  O   UNL     1      38.059  -4.990  26.427  1.00  0.00    -0.341 OA
BRANCH  30  31
ATOM     31  C   UNL     1      37.632  -5.006  25.007  1.00  0.00     0.184 C 
ATOM     32  C   UNL     1      37.107  -3.887  23.983  1.00  0.00     0.178 C 
ATOM     33  C   UNL     1      37.699  -6.489  24.170  1.00  0.00     0.180 C 
ATOM     34  O   UNL     1      38.108  -3.782  22.872  1.00  0.00    -0.342 OA
ATOM     35  C   UNL     1      37.811  -6.181  22.580  1.00  0.00     0.201 C 
ATOM     36  C   UNL     1      38.780  -4.954  22.329  1.00  0.00     0.279 C 
BRANCH  32  37
ATOM     37  C   UNL     1      35.525  -3.646  23.628  1.00  0.00     0.191 C 
BRANCH  37  38
ATOM     38  O   UNL     1      34.961  -2.357  23.432  1.00  0.00    -0.394 OA
ATOM     39  H   UNL     1      34.091  -2.355  23.905  1.00  0.00     0.210 HD
ENDBRANCH  37  38
ENDBRANCH  32  37
BRANCH  33  40
ATOM     40  O   UNL     1      36.588  -7.220  24.340  1.00  0.00    -0.387 OA
ATOM     41  H   UNL     1      35.928  -6.759  24.902  1.00  0.00     0.211 HD
ENDBRANCH  33  40
BRANCH  35  42
ATOM     42  O   UNL     1      38.063  -7.356  21.663  1.00  0.00    -0.385 OA
ATOM     43  H   UNL     1      38.994  -7.687  21.789  1.00  0.00     0.211 HD
ENDBRANCH  35  42
BRANCH  36  44
ATOM     44  O   UNL     1      38.941  -4.798  20.963  1.00  0.00    -0.366 OA
ATOM     45  H   UNL     1      38.240  -4.055  20.632  1.00  0.00     0.213 HD
ENDBRANCH  36  44
ENDBRANCH  30  31
ENDBRANCH   4  30
TORSDOF 18
ENDMDL
MODEL 3
REMARK VINA RESULT:    -4.854      5.229     11.671
REMARK INTER + INTRA:         -11.173
REMARK INTER:                  -8.577
REMARK INTRA:                  -2.596
REMARK UNBOUND:                -2.772
REMARK SMILES OC[C@@H]1O[C@H](O[C@H]2[C@@H](O)[C@H](O)[C@H](O[C@H]3[C@@H](O)[C@H](O)[C@@H](O)O[C@H]3CO)O[C@H]2CO)[C@H](O)[C@@H](O)[C@@H]1O
REMARK SMILES IDX 7 1 26 2 25 3 12 4 10 5 8 6 6 7 5 8 3 9 33 10 4 11 31 12
REMARK SMILES IDX 29 13 2 14 1 15 34 17 32 19 30 21 27 23 28 24 9 26 11 28
REMARK SMILES IDX 13 30 14 31 22 32 15 33 21 34 17 35 19 36 23 37 24 38 16 40
REMARK SMILES IDX 18 42 20 44
REMARK H PARENT 1 16 34 18 32 20 30 22 28 25 9 27 11 29 24 39 16 41 18 43
REMARK H PARENT 20 45
REMARK Flexibility Score: inf
ROOT
ATOM      1  C   UNL     1      41.663  -5.959  28.055  1.00  0.00     0.184 C 
ATOM      2  C   UNL     1      40.530  -5.569  29.094  1.00  0.00     0.178 C 
ATOM      3  O   UNL     1      39.157  -5.852  28.702  1.00  0.00    -0.341 OA
ATOM      4  C   UNL     1      38.748  -7.195  28.110  1.00  0.00     0.282 C 
ATOM      5  C   UNL     1      39.955  -8.042  27.655  1.00  0.00     0.202 C 
ATOM      6  C   UNL     1      41.316  -7.366  27.456  1.00  0.00     0.180 C 
ENDROOT
BRANCH   1   7
ATOM      7  O   UNL     1      43.097  -6.017  28.619  1.00  0.00    -0.341 OA
BRANCH   7   8
ATOM      8  C   UNL     1      43.857  -4.830  28.245  1.00  0.00     0.282 C 
ATOM      9  C   UNL     1      43.900  -3.808  26.253  1.00  0.00     0.178 C 
ATOM     10  C   UNL     1      44.539  -2.440  26.558  1.00  0.00     0.177 C 
ATOM     11  O   UNL     1      43.093  -4.114  27.355  1.00  0.00    -0.341 OA
ATOM     12  C   UNL     1      44.731  -2.288  28.121  1.00  0.00     0.179 C 
ATOM     13  C   UNL     1      44.656  -3.664  29.001  1.00  0.00     0.202 C 
BRANCH   9  14
ATOM     14  C   UNL     1      43.179  -4.305  24.937  1.00  0.00     0.191 C 
BRANCH  14  15
ATOM     15  O   UNL     1      42.216  -3.362  24.544  1.00  0.00    -0.394 OA
ATOM     16  H   UNL     1      42.688  -2.627  23.957  1.00  0.00     0.210 HD
ENDBRANCH  14  15
ENDBRANCH   9  14
BRANCH  10  17
ATOM     17  O   UNL     1      43.723  -1.474  25.884  1.00  0.00    -0.387 OA
ATOM     18  H   UNL     1      42.770  -1.616  26.215  1.00  0.00     0.211 HD
ENDBRANCH  10  17
BRANCH  12  19
ATOM     19  O   UNL     1      45.780  -1.396  28.393  1.00  0.00    -0.387 OA
ATOM     20  H   UNL     1      46.484  -1.356  27.638  1.00  0.00     0.211 HD
ENDBRANCH  12  19
BRANCH  13  21
ATOM     21  O   UNL     1      44.055  -3.408  30.253  1.00  0.00    -0.385 OA
ATOM     22  H   UNL     1      44.007  -2.427  30.390  1.00  0.00     0.211 HD
ENDBRANCH  13  21
ENDBRANCH   7   8
ENDBRANCH   1   7
BRANCH   2  23
ATOM     23  C   UNL     1      40.793  -5.936  30.601  1.00  0.00     0.191 C 
BRANCH  23  24
ATOM     24  O   UNL     1      41.418  -7.198  30.766  1.00  0.00    -0.394 OA
ATOM     25  H   UNL     1      42.355  -7.050  31.257  1.00  0.00     0.210 HD
ENDBRANCH  23  24
ENDBRANCH   2  23
BRANCH   6  26
ATOM     26  O   UNL     1      42.267  -8.277  28.085  1.00  0.00    -0.387 OA
ATOM     27  H   UNL     1      41.804  -8.438  28.935  1.00  0.00     0.211 HD
ENDBRANCH   6  26
BRANCH   5  28
ATOM     28  O   UNL     1      39.560  -8.741  26.464  1.00  0.00    -0.385 OA
ATOM     29  H   UNL     1      40.125  -9.590  26.375  1.00  0.00     0.211 HD
ENDBRANCH   5  28
BRANCH   4  30
ATOM     30  O   UNL     1      37.753  -7.072  27.066  1.00  0.00    -0.341 OA
BRANCH  30  31
ATOM     31  C   UNL     1      37.912  -6.173  25.897  1.00  0.00     0.184 C 
ATOM     32  C   UNL     1      38.511  -4.698  25.692  1.00  0.00     0.178 C 
ATOM     33  C   UNL     1      37.399  -6.745  24.376  1.00  0.00     0.180 C 
ATOM     34  O   UNL     1      39.698  -4.813  24.782  1.00  0.00    -0.342 OA
ATOM     35  C   UNL     1      38.203  -5.934  23.221  1.00  0.00     0.201 C 
ATOM     36  C   UNL     1      39.713  -5.728  23.650  1.00  0.00     0.279 C 
BRANCH  32  37
ATOM     37  C   UNL     1      37.593  -3.344  25.602  1.00  0.00     0.191 C 
BRANCH  37  38
ATOM     38  O   UNL     1      37.602  -2.333  26.600  1.00  0.00    -0.394 OA
ATOM     39  H   UNL     1      38.398  -2.500  27.164  1.00  0.00     0.210 HD
ENDBRANCH  37  38
ENDBRANCH  32  37
BRANCH  33  40
ATOM     40  O   UNL     1      36.094  -6.520  24.161  1.00  0.00    -0.387 OA
ATOM     41  H   UNL     1      35.619  -7.339  23.899  1.00  0.00     0.211 HD
ENDBRANCH  33  40
BRANCH  35  42
ATOM     42  O   UNL     1      38.031  -6.408  21.796  1.00  0.00    -0.385 OA
ATOM     43  H   UNL     1      37.206  -6.008  21.406  1.00  0.00     0.211 HD
ENDBRANCH  35  42
BRANCH  36  44
ATOM     44  O   UNL     1      40.390  -5.140  22.595  1.00  0.00    -0.366 OA
ATOM     45  H   UNL     1      41.409  -4.995  22.900  1.00  0.00     0.213 HD
ENDBRANCH  36  44
ENDBRANCH  30  31
ENDBRANCH   4  30
TORSDOF 18
ENDMDL
MODEL 4
REMARK VINA RESULT:    -4.821      8.658     11.913
REMARK INTER + INTRA:         -11.115
REMARK INTER:                  -9.039
REMARK INTRA:                  -2.076
REMARK UNBOUND:                -2.772
REMARK SMILES OC[C@@H]1O[C@H](O[C@H]2[C@@H](O)[C@H](O)[C@H](O[C@H]3[C@@H](O)[C@H](O)[C@@H](O)O[C@H]3CO)O[C@H]2CO)[C@H](O)[C@@H](O)[C@@H]1O
REMARK SMILES IDX 7 1 26 2 25 3 12 4 10 5 8 6 6 7 5 8 3 9 33 10 4 11 31 12
REMARK SMILES IDX 29 13 2 14 1 15 34 17 32 19 30 21 27 23 28 24 9 26 11 28
REMARK SMILES IDX 13 30 14 31 22 32 15 33 21 34 17 35 19 36 23 37 24 38 16 40
REMARK SMILES IDX 18 42 20 44
REMARK H PARENT 1 16 34 18 32 20 30 22 28 25 9 27 11 29 24 39 16 41 18 43
REMARK H PARENT 20 45
REMARK Flexibility Score: inf
ROOT
ATOM      1  C   UNL     1      42.556  -6.412  24.045  1.00  0.00     0.184 C 
ATOM      2  C   UNL     1      41.584  -7.031  22.956  1.00  0.00     0.178 C 
ATOM      3  O   UNL     1      40.485  -6.190  22.505  1.00  0.00    -0.341 OA
ATOM      4  C   UNL     1      40.696  -4.733  22.108  1.00  0.00     0.282 C 
ATOM      5  C   UNL     1      42.061  -4.179  22.568  1.00  0.00     0.202 C 
ATOM      6  C   UNL     1      42.850  -4.923  23.651  1.00  0.00     0.180 C 
ENDROOT
BRANCH   1   7
ATOM      7  O   UNL     1      43.905  -7.136  24.228  1.00  0.00    -0.341 OA
BRANCH   7   8
ATOM      8  C   UNL     1      44.328  -7.115  25.623  1.00  0.00     0.282 C 
ATOM      9  C   UNL     1      43.060  -6.740  27.429  1.00  0.00     0.178 C 
ATOM     10  C   UNL     1      43.939  -7.219  28.599  1.00  0.00     0.177 C 
ATOM     11  O   UNL     1      43.299  -7.629  26.374  1.00  0.00    -0.341 OA
ATOM     12  C   UNL     1      45.248  -7.900  28.027  1.00  0.00     0.179 C 
ATOM     13  C   UNL     1      45.610  -7.581  26.464  1.00  0.00     0.202 C 
BRANCH   9  14
ATOM     14  C   UNL     1      41.531  -6.340  27.426  1.00  0.00     0.191 C 
BRANCH  14  15
ATOM     15  O   UNL     1      40.743  -7.494  27.555  1.00  0.00    -0.394 OA
ATOM     16  H   UNL     1      40.466  -7.819  26.592  1.00  0.00     0.210 HD
ENDBRANCH  14  15
ENDBRANCH   9  14
BRANCH  10  17
ATOM     17  O   UNL     1      43.080  -8.010  29.430  1.00  0.00    -0.387 OA
ATOM     18  H   UNL     1      43.029  -8.933  29.002  1.00  0.00     0.211 HD
ENDBRANCH  10  17
BRANCH  12  19
ATOM     19  O   UNL     1      46.286  -7.816  28.968  1.00  0.00    -0.387 OA
ATOM     20  H   UNL     1      45.988  -8.069  29.924  1.00  0.00     0.211 HD
ENDBRANCH  12  19
BRANCH  13  21
ATOM     21  O   UNL     1      46.192  -8.717  25.859  1.00  0.00    -0.385 OA
ATOM     22  H   UNL     1      45.632  -9.510  26.062  1.00  0.00     0.211 HD
ENDBRANCH  13  21
ENDBRANCH   7   8
ENDBRANCH   1   7
BRANCH   2  23
ATOM     23  C   UNL     1      42.256  -7.802  21.761  1.00  0.00     0.191 C 
BRANCH  23  24
ATOM     24  O   UNL     1      43.475  -7.216  21.337  1.00  0.00    -0.394 OA
ATOM     25  H   UNL     1      43.513  -7.248  20.270  1.00  0.00     0.210 HD
ENDBRANCH  23  24
ENDBRANCH   2  23
BRANCH   6  26
ATOM     26  O   UNL     1      44.220  -4.940  23.151  1.00  0.00    -0.387 OA
ATOM     27  H   UNL     1      44.431  -3.984  23.213  1.00  0.00     0.211 HD
ENDBRANCH   6  26
BRANCH   5  28
ATOM     28  O   UNL     1      41.859  -2.807  22.943  1.00  0.00    -0.385 OA
ATOM     29  H   UNL     1      41.781  -2.750  23.962  1.00  0.00     0.211 HD
ENDBRANCH   5  28
BRANCH   4  30
ATOM     30  O   UNL     1      39.603  -3.875  22.513  1.00  0.00    -0.341 OA
BRANCH  30  31
ATOM     31  C   UNL     1      38.547  -4.300  23.463  1.00  0.00     0.184 C 
ATOM     32  C   UNL     1      36.952  -4.451  23.370  1.00  0.00     0.178 C 
ATOM     33  C   UNL     1      39.027  -4.784  25.026  1.00  0.00     0.180 C 
ATOM     34  O   UNL     1      36.620  -5.901  23.562  1.00  0.00    -0.342 OA
ATOM     35  C   UNL     1      37.883  -5.760  25.639  1.00  0.00     0.201 C 
ATOM     36  C   UNL     1      37.338  -6.734  24.516  1.00  0.00     0.279 C 
BRANCH  32  37
ATOM     37  C   UNL     1      35.895  -3.332  23.935  1.00  0.00     0.191 C 
BRANCH  37  38
ATOM     38  O   UNL     1      34.848  -2.786  23.146  1.00  0.00    -0.394 OA
ATOM     39  H   UNL     1      35.259  -2.094  22.570  1.00  0.00     0.210 HD
ENDBRANCH  37  38
ENDBRANCH  32  37
BRANCH  33  40
ATOM     40  O   UNL     1      39.135  -3.747  25.868  1.00  0.00    -0.387 OA
ATOM     41  H   UNL     1      39.120  -2.886  25.395  1.00  0.00     0.211 HD
ENDBRANCH  33  40
BRANCH  35  42
ATOM     42  O   UNL     1      38.191  -6.449  26.949  1.00  0.00    -0.385 OA
ATOM     43  H   UNL     1      37.679  -7.301  27.008  1.00  0.00     0.211 HD
ENDBRANCH  35  42
BRANCH  36  44
ATOM     44  O   UNL     1      36.454  -7.624  25.102  1.00  0.00    -0.366 OA
ATOM     45  H   UNL     1      36.995  -8.524  25.325  1.00  0.00     0.213 HD
ENDBRANCH  36  44
ENDBRANCH  30  31
ENDBRANCH   4  30
TORSDOF 18
ENDMDL
MODEL 5
REMARK VINA RESULT:    -4.804      7.505      9.839
REMARK INTER + INTRA:         -11.087
REMARK INTER:                  -9.012
REMARK INTRA:                  -2.075
REMARK UNBOUND:                -2.772
REMARK SMILES OC[C@@H]1O[C@H](O[C@H]2[C@@H](O)[C@H](O)[C@H](O[C@H]3[C@@H](O)[C@H](O)[C@@H](O)O[C@H]3CO)O[C@H]2CO)[C@H](O)[C@@H](O)[C@@H]1O
REMARK SMILES IDX 7 1 26 2 25 3 12 4 10 5 8 6 6 7 5 8 3 9 33 10 4 11 31 12
REMARK SMILES IDX 29 13 2 14 1 15 34 17 32 19 30 21 27 23 28 24 9 26 11 28
REMARK SMILES IDX 13 30 14 31 22 32 15 33 21 34 17 35 19 36 23 37 24 38 16 40
REMARK SMILES IDX 18 42 20 44
REMARK H PARENT 1 16 34 18 32 20 30 22 28 25 9 27 11 29 24 39 16 41 18 43
REMARK H PARENT 20 45
REMARK Flexibility Score: inf
ROOT
ATOM      1  C   UNL     1      41.691  -6.405  25.660  1.00  0.00     0.184 C 
ATOM      2  C   UNL     1      42.788  -5.278  25.452  1.00  0.00     0.178 C 
ATOM      3  O   UNL     1      43.314  -4.648  26.654  1.00  0.00    -0.341 OA
ATOM      4  C   UNL     1      43.765  -5.463  27.861  1.00  0.00     0.282 C 
ATOM      5  C   UNL     1      43.279  -6.927  27.809  1.00  0.00     0.202 C 
ATOM      6  C   UNL     1      42.137  -7.308  26.860  1.00  0.00     0.180 C 
ENDROOT
BRANCH   1   7
ATOM      7  O   UNL     1      41.428  -7.315  24.444  1.00  0.00    -0.341 OA
BRANCH   7   8
ATOM      8  C   UNL     1      40.357  -6.783  23.610  1.00  0.00     0.282 C 
ATOM      9  C   UNL     1      38.174  -6.675  24.097  1.00  0.00     0.178 C 
ATOM     10  C   UNL     1      37.614  -5.694  23.049  1.00  0.00     0.177 C 
ATOM     11  O   UNL     1      39.441  -6.190  24.445  1.00  0.00    -0.341 OA
ATOM     12  C   UNL     1      38.810  -5.080  22.214  1.00  0.00     0.179 C 
ATOM     13  C   UNL     1      40.238  -5.874  22.295  1.00  0.00     0.202 C 
BRANCH   9  14
ATOM     14  C   UNL     1      37.478  -7.263  25.388  1.00  0.00     0.191 C 
BRANCH  14  15
ATOM     15  O   UNL     1      36.092  -7.343  25.180  1.00  0.00    -0.394 OA
ATOM     16  H   UNL     1      35.650  -6.454  25.532  1.00  0.00     0.210 HD
ENDBRANCH  14  15
ENDBRANCH   9  14
BRANCH  10  17
ATOM     17  O   UNL     1      36.771  -4.792  23.775  1.00  0.00    -0.387 OA
ATOM     18  H   UNL     1      35.838  -5.204  23.778  1.00  0.00     0.211 HD
ENDBRANCH  10  17
BRANCH  12  19
ATOM     19  O   UNL     1      38.358  -4.680  20.947  1.00  0.00    -0.387 OA
ATOM     20  H   UNL     1      38.318  -5.456  20.266  1.00  0.00     0.211 HD
ENDBRANCH  12  19
BRANCH  13  21
ATOM     21  O   UNL     1      41.308  -4.954  22.252  1.00  0.00    -0.385 OA
ATOM     22  H   UNL     1      42.155  -5.453  22.122  1.00  0.00     0.211 HD
ENDBRANCH  13  21
ENDBRANCH   7   8
ENDBRANCH   1   7
BRANCH   2  23
ATOM     23  C   UNL     1      43.923  -5.577  24.406  1.00  0.00     0.191 C 
BRANCH  23  24
ATOM     24  O   UNL     1      43.930  -4.669  23.317  1.00  0.00    -0.394 OA
ATOM     25  H   UNL     1      43.268  -3.863  23.544  1.00  0.00     0.210 HD
ENDBRANCH  23  24
ENDBRANCH   2  23
BRANCH   6  26
ATOM     26  O   UNL     1      42.585  -8.550  26.238  1.00  0.00    -0.387 OA
ATOM     27  H   UNL     1      42.073  -9.196  26.769  1.00  0.00     0.211 HD
ENDBRANCH   6  26
BRANCH   5  28
ATOM     28  O   UNL     1      42.970  -7.321  29.155  1.00  0.00    -0.385 OA
ATOM     29  H   UNL     1      42.334  -6.631  29.565  1.00  0.00     0.211 HD
ENDBRANCH   5  28
BRANCH   4  30
ATOM     30  O   UNL     1      43.437  -4.832  29.121  1.00  0.00    -0.341 OA
BRANCH  30  31
ATOM     31  C   UNL     1      42.048  -4.515  29.533  1.00  0.00     0.184 C 
ATOM     32  C   UNL     1      41.045  -5.107  30.637  1.00  0.00     0.178 C 
ATOM     33  C   UNL     1      41.252  -3.235  28.737  1.00  0.00     0.180 C 
ATOM     34  O   UNL     1      40.760  -4.014  31.624  1.00  0.00    -0.342 OA
ATOM     35  C   UNL     1      40.081  -2.671  29.710  1.00  0.00     0.201 C 
ATOM     36  C   UNL     1      40.590  -2.629  31.209  1.00  0.00     0.279 C 
BRANCH  32  37
ATOM     37  C   UNL     1      39.855  -6.184  30.306  1.00  0.00     0.191 C 
BRANCH  37  38
ATOM     38  O   UNL     1      40.066  -7.588  30.274  1.00  0.00    -0.394 OA
ATOM     39  H   UNL     1      39.601  -7.961  31.065  1.00  0.00     0.210 HD
ENDBRANCH  37  38
ENDBRANCH  32  37
BRANCH  33  40
ATOM     40  O   UNL     1      40.649  -3.635  27.608  1.00  0.00    -0.387 OA
ATOM     41  H   UNL     1      39.839  -4.160  27.790  1.00  0.00     0.211 HD
ENDBRANCH  33  40
BRANCH  35  42
ATOM     42  O   UNL     1      39.365  -1.413  29.273  1.00  0.00    -0.385 OA
ATOM     43  H   UNL     1      39.402  -0.735  30.001  1.00  0.00     0.211 HD
ENDBRANCH  35  42
BRANCH  36  44
ATOM     44  O   UNL     1      39.611  -2.035  31.986  1.00  0.00    -0.366 OA
ATOM     45  H   UNL     1      39.781  -0.975  31.974  1.00  0.00     0.213 HD
ENDBRANCH  36  44
ENDBRANCH  30  31
ENDBRANCH   4  30
TORSDOF 18
ENDMDL
MODEL 6
REMARK VINA RESULT:    -4.795      6.394     10.227
REMARK INTER + INTRA:         -11.070
REMARK INTER:                  -8.516
REMARK INTRA:                  -2.555
REMARK UNBOUND:                -2.772
REMARK SMILES OC[C@@H]1O[C@H](O[C@H]2[C@@H](O)[C@H](O)[C@H](O[C@H]3[C@@H](O)[C@H](O)[C@@H](O)O[C@H]3CO)O[C@H]2CO)[C@H](O)[C@@H](O)[C@@H]1O
REMARK SMILES IDX 7 1 26 2 25 3 12 4 10 5 8 6 6 7 5 8 3 9 33 10 4 11 31 12
REMARK SMILES IDX 29 13 2 14 1 15 34 17 32 19 30 21 27 23 28 24 9 26 11 28
REMARK SMILES IDX 13 30 14 31 22 32 15 33 21 34 17 35 19 36 23 37 24 38 16 40
REMARK SMILES IDX 18 42 20 44
REMARK H PARENT 1 16 34 18 32 20 30 22 28 25 9 27 11 29 24 39 16 41 18 43
REMARK H PARENT 20 45
REMARK Flexibility Score: inf
ROOT
ATOM      1  C   UNL     1      39.443  -4.952  25.820  1.00  0.00     0.184 C 
ATOM      2  C   UNL     1      39.352  -6.312  26.631  1.00  0.00     0.178 C 
ATOM      3  O   UNL     1      40.284  -6.479  27.736  1.00  0.00    -0.341 OA
ATOM      4  C   UNL     1      40.516  -5.382  28.769  1.00  0.00     0.282 C 
ATOM      5  C   UNL     1      39.959  -4.014  28.324  1.00  0.00     0.202 C 
ATOM      6  C   UNL     1      39.627  -3.780  26.846  1.00  0.00     0.180 C 
ENDROOT
BRANCH   1   7
ATOM      7  O   UNL     1      38.231  -4.623  24.926  1.00  0.00    -0.341 OA
BRANCH   7   8
ATOM      8  C   UNL     1      38.497  -4.961  23.533  1.00  0.00     0.282 C 
ATOM      9  C   UNL     1      40.265  -4.363  22.297  1.00  0.00     0.178 C 
ATOM     10  C   UNL     1      40.197  -5.306  21.081  1.00  0.00     0.177 C 
ATOM     11  O   UNL     1      39.855  -5.122  23.400  1.00  0.00    -0.341 OA
ATOM     12  C   UNL     1      39.042  -6.365  21.304  1.00  0.00     0.179 C 
ATOM     13  C   UNL     1      37.937  -6.007  22.455  1.00  0.00     0.202 C 
BRANCH   9  14
ATOM     14  C   UNL     1      41.430  -3.393  22.746  1.00  0.00     0.191 C 
BRANCH  14  15
ATOM     15  O   UNL     1      42.657  -3.883  22.274  1.00  0.00    -0.394 OA
ATOM     16  H   UNL     1      43.300  -4.023  23.096  1.00  0.00     0.210 HD
ENDBRANCH  14  15
ENDBRANCH   9  14
BRANCH  10  17
ATOM     17  O   UNL     1      41.530  -5.796  20.897  1.00  0.00    -0.387 OA
ATOM     18  H   UNL     1      42.076  -5.465  21.691  1.00  0.00     0.211 HD
ENDBRANCH  10  17
BRANCH  12  19
ATOM     19  O   UNL     1      38.568  -6.828  20.066  1.00  0.00    -0.387 OA
ATOM     20  H   UNL     1      38.736  -6.164  19.293  1.00  0.00     0.211 HD
ENDBRANCH  12  19
BRANCH  13  21
ATOM     21  O   UNL     1      37.516  -7.187  23.107  1.00  0.00    -0.385 OA
ATOM     22  H   UNL     1      36.546  -7.116  23.301  1.00  0.00     0.211 HD
ENDBRANCH  13  21
ENDBRANCH   7   8
ENDBRANCH   1   7
BRANCH   2  23
ATOM     23  C   UNL     1      37.911  -6.820  27.003  1.00  0.00     0.191 C 
BRANCH  23  24
ATOM     24  O   UNL     1      37.156  -7.228  25.875  1.00  0.00    -0.394 OA
ATOM     25  H   UNL     1      36.364  -7.862  26.208  1.00  0.00     0.210 HD
ENDBRANCH  23  24
ENDBRANCH   2  23
BRANCH   6  26
ATOM     26  O   UNL     1      38.332  -3.107  26.870  1.00  0.00    -0.387 OA
ATOM     27  H   UNL     1      37.970  -3.413  26.011  1.00  0.00     0.211 HD
ENDBRANCH   6  26
BRANCH   5  28
ATOM     28  O   UNL     1      40.867  -3.008  28.802  1.00  0.00    -0.385 OA
ATOM     29  H   UNL     1      40.598  -2.744  29.754  1.00  0.00     0.211 HD
ENDBRANCH   5  28
BRANCH   4  30
ATOM     30  O   UNL     1      41.897  -5.289  29.192  1.00  0.00    -0.341 OA
BRANCH  30  31
ATOM     31  C   UNL     1      43.042  -5.402  28.255  1.00  0.00     0.184 C 
ATOM     32  C   UNL     1      43.598  -6.567  27.302  1.00  0.00     0.178 C 
ATOM     33  C   UNL     1      44.042  -4.038  28.050  1.00  0.00     0.180 C 
ATOM     34  O   UNL     1      43.490  -6.086  25.886  1.00  0.00    -0.342 OA
ATOM     35  C   UNL     1      44.778  -4.149  26.607  1.00  0.00     0.201 C 
ATOM     36  C   UNL     1      43.768  -4.704  25.521  1.00  0.00     0.279 C 
BRANCH  32  37
ATOM     37  C   UNL     1      44.850  -7.548  27.695  1.00  0.00     0.191 C 
BRANCH  37  38
ATOM     38  O   UNL     1      45.931  -7.135  28.519  1.00  0.00    -0.394 OA
ATOM     39  H   UNL     1      46.268  -7.950  28.971  1.00  0.00     0.210 HD
ENDBRANCH  37  38
ENDBRANCH  32  37
BRANCH  33  40
ATOM     40  O   UNL     1      45.015  -3.977  28.970  1.00  0.00    -0.387 OA
ATOM     41  H   UNL     1      45.735  -4.621  28.787  1.00  0.00     0.211 HD
ENDBRANCH  33  40
BRANCH  35  42
ATOM     42  O   UNL     1      45.576  -2.952  26.143  1.00  0.00    -0.385 OA
ATOM     43  H   UNL     1      46.511  -3.020  26.481  1.00  0.00     0.211 HD
ENDBRANCH  35  42
BRANCH  36  44
ATOM     44  O   UNL     1      44.394  -4.673  24.287  1.00  0.00    -0.366 OA
ATOM     45  H   UNL     1      43.633  -4.573  23.535  1.00  0.00     0.213 HD
ENDBRANCH  36  44
ENDBRANCH  30  31
ENDBRANCH   4  30
TORSDOF 18
ENDMDL
MODEL 7
REMARK VINA RESULT:    -4.771      6.820     10.524
REMARK INTER + INTRA:         -11.029
REMARK INTER:                  -8.905
REMARK INTRA:                  -2.124
REMARK UNBOUND:                -2.772
REMARK SMILES OC[C@@H]1O[C@H](O[C@H]2[C@@H](O)[C@H](O)[C@H](O[C@H]3[C@@H](O)[C@H](O)[C@@H](O)O[C@H]3CO)O[C@H]2CO)[C@H](O)[C@@H](O)[C@@H]1O
REMARK SMILES IDX 7 1 26 2 25 3 12 4 10 5 8 6 6 7 5 8 3 9 33 10 4 11 31 12
REMARK SMILES IDX 29 13 2 14 1 15 34 17 32 19 30 21 27 23 28 24 9 26 11 28
REMARK SMILES IDX 13 30 14 31 22 32 15 33 21 34 17 35 19 36 23 37 24 38 16 40
REMARK SMILES IDX 18 42 20 44
REMARK H PARENT 1 16 34 18 32 20 30 22 28 25 9 27 11 29 24 39 16 41 18 43
REMARK H PARENT 20 45
REMARK Flexibility Score: inf
ROOT
ATOM      1  C   UNL     1      40.447  -6.764  26.974  1.00  0.00     0.184 C 
ATOM      2  C   UNL     1      41.888  -6.657  27.629  1.00  0.00     0.178 C 
ATOM      3  O   UNL     1      41.957  -6.098  28.971  1.00  0.00    -0.341 OA
ATOM      4  C   UNL     1      41.017  -6.550  30.083  1.00  0.00     0.282 C 
ATOM      5  C   UNL     1      39.809  -7.352  29.556  1.00  0.00     0.202 C 
ATOM      6  C   UNL     1      39.449  -7.281  28.067  1.00  0.00     0.180 C 
ENDROOT
BRANCH   1   7
ATOM      7  O   UNL     1      40.337  -7.689  25.746  1.00  0.00    -0.341 OA
BRANCH   7   8
ATOM      8  C   UNL     1      39.838  -6.964  24.584  1.00  0.00     0.282 C 
ATOM      9  C   UNL     1      37.749  -6.246  24.216  1.00  0.00     0.178 C 
ATOM     10  C   UNL     1      37.907  -5.241  23.059  1.00  0.00     0.177 C 
ATOM     11  O   UNL     1      38.879  -6.085  25.027  1.00  0.00    -0.341 OA
ATOM     12  C   UNL     1      39.445  -5.033  22.751  1.00  0.00     0.179 C 
ATOM     13  C   UNL     1      40.466  -6.165  23.344  1.00  0.00     0.202 C 
BRANCH   9  14
ATOM     14  C   UNL     1      36.494  -6.524  25.136  1.00  0.00     0.191 C 
BRANCH  14  15
ATOM     15  O   UNL     1      35.323  -6.154  24.457  1.00  0.00    -0.394 OA
ATOM     16  H   UNL     1      34.904  -5.319  24.944  1.00  0.00     0.210 HD
ENDBRANCH  14  15
ENDBRANCH   9  14
BRANCH  10  17
ATOM     17  O   UNL     1      37.136  -4.094  23.437  1.00  0.00    -0.387 OA
ATOM     18  H   UNL     1      36.209  -4.434  23.687  1.00  0.00     0.211 HD
ENDBRANCH  10  17
BRANCH  12  19
ATOM     19  O   UNL     1      39.619  -4.632  21.418  1.00  0.00    -0.387 OA
ATOM     20  H   UNL     1      40.605  -4.660  21.111  1.00  0.00     0.211 HD
ENDBRANCH  12  19
BRANCH  13  21
ATOM     21  O   UNL     1      41.685  -5.565  23.730  1.00  0.00    -0.385 OA
ATOM     22  H   UNL     1      41.487  -4.738  24.240  1.00  0.00     0.211 HD
ENDBRANCH  13  21
ENDBRANCH   7   8
ENDBRANCH   1   7
BRANCH   2  23
ATOM     23  C   UNL     1      42.834  -7.902  27.467  1.00  0.00     0.191 C 
BRANCH  23  24
ATOM     24  O   UNL     1      42.128  -9.123  27.319  1.00  0.00    -0.394 OA
ATOM     25  H   UNL     1      41.480  -9.243  28.158  1.00  0.00     0.210 HD
ENDBRANCH  23  24
ENDBRANCH   2  23
BRANCH   6  26
ATOM     26  O   UNL     1      39.181  -8.666  27.694  1.00  0.00    -0.387 OA
ATOM     27  H   UNL     1      39.321  -9.101  28.562  1.00  0.00     0.211 HD
ENDBRANCH   6  26
BRANCH   5  28
ATOM     28  O   UNL     1      38.677  -7.000  30.367  1.00  0.00    -0.385 OA
ATOM     29  H   UNL     1      38.245  -7.857  30.723  1.00  0.00     0.211 HD
ENDBRANCH   5  28
BRANCH   4  30
ATOM     30  O   UNL     1      40.606  -5.466  30.948  1.00  0.00    -0.341 OA
BRANCH  30  31
ATOM     31  C   UNL     1      40.599  -4.045  30.522  1.00  0.00     0.184 C 
ATOM     32  C   UNL     1      40.853  -3.293  29.127  1.00  0.00     0.178 C 
ATOM     33  C   UNL     1      40.225  -2.863  31.692  1.00  0.00     0.180 C 
ATOM     34  O   UNL     1      39.577  -2.606  28.743  1.00  0.00    -0.342 OA
ATOM     35  C   UNL     1      39.668  -1.541  30.930  1.00  0.00     0.201 C 
ATOM     36  C   UNL     1      38.725  -1.960  29.730  1.00  0.00     0.279 C 
BRANCH  32  37
ATOM     37  C   UNL     1      42.272  -2.581  28.719  1.00  0.00     0.191 C 
BRANCH  37  38
ATOM     38  O   UNL     1      43.496  -3.295  28.612  1.00  0.00    -0.394 OA
ATOM     39  H   UNL     1      43.408  -3.888  27.823  1.00  0.00     0.210 HD
ENDBRANCH  37  38
ENDBRANCH  32  37
BRANCH  33  40
ATOM     40  O   UNL     1      41.304  -2.476  32.388  1.00  0.00    -0.387 OA
ATOM     41  H   UNL     1      41.666  -3.204  32.939  1.00  0.00     0.211 HD
ENDBRANCH  33  40
BRANCH  35  42
ATOM     42  O   UNL     1      39.108  -0.432  31.791  1.00  0.00    -0.385 OA
ATOM     43  H   UNL     1      38.431   0.085  31.273  1.00  0.00     0.211 HD
ENDBRANCH  35  42
BRANCH  36  44
ATOM     44  O   UNL     1      38.179  -0.811  29.182  1.00  0.00    -0.366 OA
ATOM     45  H   UNL     1      38.768  -0.544  28.325  1.00  0.00     0.213 HD
ENDBRANCH  36  44
ENDBRANCH  30  31
ENDBRANCH   4  30
TORSDOF 18
ENDMDL
MODEL 8
REMARK VINA RESULT:    -4.710      9.049     12.048
REMARK INTER + INTRA:         -10.923
REMARK INTER:                  -8.469
REMARK INTRA:                  -2.454
REMARK UNBOUND:                -2.772
REMARK SMILES OC[C@@H]1O[C@H](O[C@H]2[C@@H](O)[C@H](O)[C@H](O[C@H]3[C@@H](O)[C@H](O)[C@@H](O)O[C@H]3CO)O[C@H]2CO)[C@H](O)[C@@H](O)[C@@H]1O
REMARK SMILES IDX 7 1 26 2 25 3 12 4 10 5 8 6 6 7 5 8 3 9 33 10 4 11 31 12
REMARK SMILES IDX 29 13 2 14 1 15 34 17 32 19 30 21 27 23 28 24 9 26 11 28
REMARK SMILES IDX 13 30 14 31 22 32 15 33 21 34 17 35 19 36 23 37 24 38 16 40
REMARK SMILES IDX 18 42 20 44
REMARK H PARENT 1 16 34 18 32 20 30 22 28 25 9 27 11 29 24 39 16 41 18 43
REMARK H PARENT 20 45
REMARK Flexibility Score: inf
ROOT
ATOM      1  C   UNL     1      38.825  -6.034  25.174  1.00  0.00     0.184 C 
ATOM      2  C   UNL     1      39.112  -4.501  24.883  1.00  0.00     0.178 C 
ATOM      3  O   UNL     1      39.737  -4.182  23.608  1.00  0.00    -0.341 OA
ATOM      4  C   UNL     1      39.241  -4.778  22.296  1.00  0.00     0.282 C 
ATOM      5  C   UNL     1      38.293  -5.977  22.503  1.00  0.00     0.202 C 
ATOM      6  C   UNL     1      38.258  -6.682  23.864  1.00  0.00     0.180 C 
ENDROOT
BRANCH   1   7
ATOM      7  O   UNL     1      37.837  -6.324  26.321  1.00  0.00    -0.341 OA
BRANCH   7   8
ATOM      8  C   UNL     1      38.493  -7.034  27.412  1.00  0.00     0.282 C 
ATOM      9  C   UNL     1      40.576  -6.736  28.179  1.00  0.00     0.178 C 
ATOM     10  C   UNL     1      40.571  -7.458  29.539  1.00  0.00     0.177 C 
ATOM     11  O   UNL     1      39.316  -6.139  28.052  1.00  0.00    -0.341 OA
ATOM     12  C   UNL     1      39.101  -7.940  29.872  1.00  0.00     0.179 C 
ATOM     13  C   UNL     1      38.050  -7.991  28.620  1.00  0.00     0.202 C 
BRANCH   9  14
ATOM     14  C   UNL     1      41.665  -5.771  27.562  1.00  0.00     0.191 C 
BRANCH  14  15
ATOM     15  O   UNL     1      42.927  -6.382  27.630  1.00  0.00    -0.394 OA
ATOM     16  H   UNL     1      42.789  -7.419  27.749  1.00  0.00     0.210 HD
ENDBRANCH  14  15
ENDBRANCH   9  14
BRANCH  10  17
ATOM     17  O   UNL     1      41.206  -6.559  30.456  1.00  0.00    -0.387 OA
ATOM     18  H   UNL     1      41.714  -5.878  29.893  1.00  0.00     0.211 HD
ENDBRANCH  10  17
BRANCH  12  19
ATOM     19  O   UNL     1      39.140  -9.046  30.736  1.00  0.00    -0.387 OA
ATOM     20  H   UNL     1      39.636  -8.851  31.621  1.00  0.00     0.211 HD
ENDBRANCH  12  19
BRANCH  13  21
ATOM     21  O   UNL     1      36.755  -7.639  29.058  1.00  0.00    -0.385 OA
ATOM     22  H   UNL     1      36.386  -6.951  28.448  1.00  0.00     0.211 HD
ENDBRANCH  13  21
ENDBRANCH   7   8
ENDBRANCH   1   7
BRANCH   2  23
ATOM     23  C   UNL     1      37.966  -3.485  25.241  1.00  0.00     0.191 C 
BRANCH  23  24
ATOM     24  O   UNL     1      36.696  -3.882  24.751  1.00  0.00    -0.394 OA
ATOM     25  H   UNL     1      36.800  -4.829  24.268  1.00  0.00     0.210 HD
ENDBRANCH  23  24
ENDBRANCH   2  23
BRANCH   6  26
ATOM     26  O   UNL     1      36.836  -6.873  24.134  1.00  0.00    -0.387 OA
ATOM     27  H   UNL     1      36.642  -6.032  24.601  1.00  0.00     0.211 HD
ENDBRANCH   6  26
BRANCH   5  28
ATOM     28  O   UNL     1      38.562  -6.919  21.453  1.00  0.00    -0.385 OA
ATOM     29  H   UNL     1      39.535  -6.815  21.154  1.00  0.00     0.211 HD
ENDBRANCH   5  28
BRANCH   4  30
ATOM     30  O   UNL     1      40.315  -5.094  21.379  1.00  0.00    -0.341 OA
BRANCH  30  31
ATOM     31  C   UNL     1      41.612  -5.667  21.815  1.00  0.00     0.184 C 
ATOM     32  C   UNL     1      42.162  -7.160  22.025  1.00  0.00     0.178 C 
ATOM     33  C   UNL     1      42.881  -4.587  22.175  1.00  0.00     0.180 C 
ATOM     34  O   UNL     1      43.282  -7.372  21.050  1.00  0.00    -0.342 OA
ATOM     35  C   UNL     1      44.291  -5.373  22.006  1.00  0.00     0.201 C 
ATOM     36  C   UNL     1      44.240  -6.321  20.739  1.00  0.00     0.279 C 
BRANCH  32  37
ATOM     37  C   UNL     1      42.250  -7.903  23.482  1.00  0.00     0.191 C 
BRANCH  37  38
ATOM     38  O   UNL     1      42.248  -7.198  24.715  1.00  0.00    -0.394 OA
ATOM     39  H   UNL     1      41.556  -7.623  25.282  1.00  0.00     0.210 HD
ENDBRANCH  37  38
ENDBRANCH  32  37
BRANCH  33  40
ATOM     40  O   UNL     1      42.835  -4.153  23.443  1.00  0.00    -0.387 OA
ATOM     41  H   UNL     1      43.639  -3.644  23.687  1.00  0.00     0.211 HD
ENDBRANCH  33  40
BRANCH  35  42
ATOM     42  O   UNL     1      45.557  -4.552  22.105  1.00  0.00    -0.385 OA
ATOM     43  H   UNL     1      45.497  -3.933  22.883  1.00  0.00     0.211 HD
ENDBRANCH  35  42
BRANCH  36  44
ATOM     44  O   UNL     1      45.493  -6.880  20.561  1.00  0.00    -0.366 OA
ATOM     45  H   UNL     1      45.377  -7.948  20.545  1.00  0.00     0.213 HD
ENDBRANCH  36  44
ENDBRANCH  30  31
ENDBRANCH   4  30
TORSDOF 18
ENDMDL
