MODEL 1
REMARK VINA RESULT:    -3.692      0.000      0.000
REMARK INTER + INTRA:          -6.734
REMARK INTER:                  -5.634
REMARK INTRA:                  -1.100
REMARK UNBOUND:                -1.100
REMARK SMILES CCCCCCCCCCC(=O)[O-]
REMARK SMILES IDX 7 1 8 2 9 3 10 4 11 5 12 6 13 7 6 8 5 9 4 10 3 11 2 12 1 13
REMARK H PARENT
REMARK Flexibility Score: inf
ROOT
ATOM      1  C   UNL     1      25.613   4.395  10.148  1.00  0.00     0.000 C 
ENDROOT
BRANCH   1   2
ATOM      2  C   UNL     1      25.005   4.820   8.800  1.00  0.00     0.000 C 
BRANCH   2   3
ATOM      3  C   UNL     1      26.076   5.173   7.755  1.00  0.00     0.006 C 
BRANCH   3   4
ATOM      4  C   UNL     1      25.786   6.496   7.034  1.00  0.00     0.053 C 
BRANCH   4   5
ATOM      5  C   UNL     1      26.375   7.644   7.792  1.00  0.00     0.041 C 
ATOM      6  O   UNL     1      27.545   8.035   7.542  1.00  0.00    -0.550 OA
ATOM      7  O   UNL     1      25.613   8.314   8.740  1.00  0.00    -0.550 OA
ENDBRANCH   4   5
ENDBRANCH   3   4
ENDBRANCH   2   3
ENDBRANCH   1   2
BRANCH   1   8
ATOM      8  C   UNL     1      27.067   4.868  10.314  1.00  0.00     0.000 C 
BRANCH   8   9
ATOM      9  C   UNL     1      28.015   3.729  10.733  1.00  0.00    -0.000 C 
BRANCH   9  10
ATOM     10  C   UNL     1      28.874   3.218   9.565  1.00  0.00    -0.000 C 
BRANCH  10  11
ATOM     11  C   UNL     1      28.489   1.794   9.124  1.00  0.00    -0.000 C 
BRANCH  11  12
ATOM     12  C   UNL     1      27.546   1.789   7.911  1.00  0.00    -0.003 C 
ATOM     13  C   UNL     1      28.227   2.282   6.634  1.00  0.00     0.004 C 
ENDBRANCH  11  12
ENDBRANCH  10  11
ENDBRANCH   9  10
ENDBRANCH   8   9
ENDBRANCH   1   8
TORSDOF 9
ENDMDL
MODEL 2
REMARK VINA RESULT:    -3.691      1.250      2.164
REMARK INTER + INTRA:          -6.733
REMARK INTER:                  -6.099
REMARK INTRA:                  -0.634
REMARK UNBOUND:                -1.100
REMARK SMILES CCCCCCCCCCC(=O)[O-]
REMARK SMILES IDX 7 1 8 2 9 3 10 4 11 5 12 6 13 7 6 8 5 9 4 10 3 11 2 12 1 13
REMARK H PARENT
REMARK Flexibility Score: inf
ROOT
ATOM      1  C   UNL     1      27.215   4.198  10.610  1.00  0.00     0.000 C 
ENDROOT
BRANCH   1   2
ATOM      2  C   UNL     1      26.109   4.559   9.604  1.00  0.00     0.000 C 
BRANCH   2   3
ATOM      3  C   UNL     1      25.542   5.970   9.831  1.00  0.00     0.006 C 
BRANCH   3   4
ATOM      4  C   UNL     1      25.255   6.712   8.518  1.00  0.00     0.053 C 
BRANCH   4   5
ATOM      5  C   UNL     1      26.083   7.955   8.431  1.00  0.00     0.041 C 
ATOM      6  O   UNL     1      25.756   8.982   9.081  1.00  0.00    -0.550 OA
ATOM      7  O   UNL     1      27.245   7.963   7.670  1.00  0.00    -0.550 OA
ENDBRANCH   4   5
ENDBRANCH   3   4
ENDBRANCH   2   3
ENDBRANCH   1   2
BRANCH   1   8
ATOM      8  C   UNL     1      28.311   3.315   9.990  1.00  0.00     0.000 C 
BRANCH   8   9
ATOM      9  C   UNL     1      28.629   3.704   8.535  1.00  0.00    -0.000 C 
BRANCH   9  10
ATOM     10  C   UNL     1      28.464   2.527   7.560  1.00  0.00    -0.000 C 
BRANCH  10  11
ATOM     11  C   UNL     1      27.745   1.324   8.199  1.00  0.00    -0.000 C 
BRANCH  11  12
ATOM     12  C   UNL     1      28.645   0.081   8.288  1.00  0.00    -0.003 C 
ATOM     13  C   UNL     1      28.599  -0.582   9.665  1.00  0.00     0.004 C 
ENDBRANCH  11  12
ENDBRANCH  10  11
ENDBRANCH   9  10
ENDBRANCH   8   9
ENDBRANCH   1   8
TORSDOF 9
ENDMDL
MODEL 3
REMARK VINA RESULT:    -3.691      1.110      2.643
REMARK INTER + INTRA:          -6.732
REMARK INTER:                  -5.534
REMARK INTRA:                  -1.198
REMARK UNBOUND:                -1.100
REMARK SMILES CCCCCCCCCCC(=O)[O-]
REMARK SMILES IDX 7 1 8 2 9 3 10 4 11 5 12 6 13 7 6 8 5 9 4 10 3 11 2 12 1 13
REMARK H PARENT
REMARK Flexibility Score: inf
ROOT
ATOM      1  C   UNL     1      28.442   3.713   9.531  1.00  0.00     0.000 C 
ENDROOT
BRANCH   1   2
ATOM      2  C   UNL     1      27.296   4.154  10.458  1.00  0.00     0.000 C 
BRANCH   2   3
ATOM      3  C   UNL     1      26.626   5.457   9.991  1.00  0.00     0.006 C 
BRANCH   3   4
ATOM      4  C   UNL     1      26.896   5.764   8.511  1.00  0.00     0.053 C 
BRANCH   4   5
ATOM      5  C   UNL     1      26.430   7.144   8.171  1.00  0.00     0.041 C 
ATOM      6  O   UNL     1      25.243   7.489   8.409  1.00  0.00    -0.550 OA
ATOM      7  O   UNL     1      27.321   8.066   7.638  1.00  0.00    -0.550 OA
ENDBRANCH   4   5
ENDBRANCH   3   4
ENDBRANCH   2   3
ENDBRANCH   1   2
BRANCH   1   8
ATOM      8  C   UNL     1      28.777   2.219   9.677  1.00  0.00     0.000 C 
BRANCH   8   9
ATOM      9  C   UNL     1      28.429   1.410   8.415  1.00  0.00    -0.000 C 
BRANCH   9  10
ATOM     10  C   UNL     1      28.398   2.278   7.147  1.00  0.00    -0.000 C 
BRANCH  10  11
ATOM     11  C   UNL     1      27.007   2.315   6.487  1.00  0.00    -0.000 C 
BRANCH  11  12
ATOM     12  C   UNL     1      25.928   1.647   7.354  1.00  0.00    -0.003 C 
ATOM     13  C   UNL     1      24.947   2.655   7.954  1.00  0.00     0.004 C 
ENDBRANCH  11  12
ENDBRANCH  10  11
ENDBRANCH   9  10
ENDBRANCH   8   9
ENDBRANCH   1   8
TORSDOF 9
ENDMDL
MODEL 4
REMARK VINA RESULT:    -3.684      1.441      3.087
REMARK INTER + INTRA:          -6.723
REMARK INTER:                  -5.808
REMARK INTRA:                  -0.915
REMARK UNBOUND:                -1.100
REMARK SMILES CCCCCCCCCCC(=O)[O-]
REMARK SMILES IDX 7 1 8 2 9 3 10 4 11 5 12 6 13 7 6 8 5 9 4 10 3 11 2 12 1 13
REMARK H PARENT
REMARK Flexibility Score: inf
ROOT
ATOM      1  C   UNL     1      28.356   3.712   8.889  1.00  0.00     0.000 C 
ENDROOT
BRANCH   1   2
ATOM      2  C   UNL     1      27.536   3.757  10.191  1.00  0.00     0.000 C 
BRANCH   2   3
ATOM      3  C   UNL     1      26.996   5.163  10.500  1.00  0.00     0.006 C 
BRANCH   3   4
ATOM      4  C   UNL     1      25.620   5.421   9.870  1.00  0.00     0.053 C 
BRANCH   4   5
ATOM      5  C   UNL     1      25.733   6.418   8.760  1.00  0.00     0.041 C 
ATOM      6  O   UNL     1      24.706   6.784   8.130  1.00  0.00    -0.550 OA
ATOM      7  O   UNL     1      26.966   6.980   8.454  1.00  0.00    -0.550 OA
ENDBRANCH   4   5
ENDBRANCH   3   4
ENDBRANCH   2   3
ENDBRANCH   1   2
BRANCH   1   8
ATOM      8  C   UNL     1      27.553   3.143   7.707  1.00  0.00     0.000 C 
BRANCH   8   9
ATOM      9  C   UNL     1      28.396   2.214   6.814  1.00  0.00    -0.000 C 
BRANCH   9  10
ATOM     10  C   UNL     1      27.814   0.794   6.725  1.00  0.00    -0.000 C 
BRANCH  10  11
ATOM     11  C   UNL     1      27.375   0.246   8.096  1.00  0.00    -0.000 C 
BRANCH  11  12
ATOM     12  C   UNL     1      28.497  -0.527   8.807  1.00  0.00    -0.003 C 
ATOM     13  C   UNL     1      29.089   0.246   9.986  1.00  0.00     0.004 C 
ENDBRANCH  11  12
ENDBRANCH  10  11
ENDBRANCH   9  10
ENDBRANCH   8   9
ENDBRANCH   1   8
TORSDOF 9
ENDMDL
MODEL 5
REMARK VINA RESULT:    -3.659      9.627     11.385
REMARK INTER + INTRA:          -6.684
REMARK INTER:                  -6.195
REMARK INTRA:                  -0.489
REMARK UNBOUND:                -1.100
REMARK SMILES CCCCCCCCCCC(=O)[O-]
REMARK SMILES IDX 7 1 8 2 9 3 10 4 11 5 12 6 13 7 6 8 5 9 4 10 3 11 2 12 1 13
REMARK H PARENT
REMARK Flexibility Score: inf
ROOT
ATOM      1  C   UNL     1      24.043   3.155  18.393  1.00  0.00     0.000 C 
ENDROOT
BRANCH   1   2
ATOM      2  C   UNL     1      25.269   2.951  17.487  1.00  0.00     0.000 C 
BRANCH   2   3
ATOM      3  C   UNL     1      25.726   1.484  17.433  1.00  0.00     0.006 C 
BRANCH   3   4
ATOM      4  C   UNL     1      24.971   0.592  18.428  1.00  0.00     0.053 C 
BRANCH   4   5
ATOM      5  C   UNL     1      24.817  -0.790  17.877  1.00  0.00     0.041 C 
ATOM      6  O   UNL     1      25.383  -1.764  18.439  1.00  0.00    -0.550 OA
ATOM      7  O   UNL     1      24.005  -1.010  16.771  1.00  0.00    -0.550 OA
ENDBRANCH   4   5
ENDBRANCH   3   4
ENDBRANCH   2   3
ENDBRANCH   1   2
BRANCH   1   8
ATOM      8  C   UNL     1      23.416   4.550  18.230  1.00  0.00     0.000 C 
BRANCH   8   9
ATOM      9  C   UNL     1      23.649   5.143  16.829  1.00  0.00    -0.000 C 
BRANCH   9  10
ATOM     10  C   UNL     1      23.703   6.679  16.839  1.00  0.00    -0.000 C 
BRANCH  10  11
ATOM     11  C   UNL     1      23.275   7.278  18.192  1.00  0.00    -0.000 C 
BRANCH  11  12
ATOM     12  C   UNL     1      23.429   8.807  18.232  1.00  0.00    -0.003 C 
ATOM     13  C   UNL     1      23.929   9.384  16.907  1.00  0.00     0.004 C 
ENDBRANCH  11  12
ENDBRANCH  10  11
ENDBRANCH   9  10
ENDBRANCH   8   9
ENDBRANCH   1   8
TORSDOF 9
ENDMDL
MODEL 6
REMARK VINA RESULT:    -3.607      1.975      2.804
REMARK INTER + INTRA:          -6.605
REMARK INTER:                  -5.717
REMARK INTRA:                  -0.887
REMARK UNBOUND:                -1.100
REMARK SMILES CCCCCCCCCCC(=O)[O-]
REMARK SMILES IDX 7 1 8 2 9 3 10 4 11 5 12 6 13 7 6 8 5 9 4 10 3 11 2 12 1 13
REMARK H PARENT
REMARK Flexibility Score: inf
ROOT
ATOM      1  C   UNL     1      27.756   3.738  10.162  1.00  0.00     0.000 C 
ENDROOT
BRANCH   1   2
ATOM      2  C   UNL     1      26.865   4.977  10.358  1.00  0.00     0.000 C 
BRANCH   2   3
ATOM      3  C   UNL     1      26.788   5.854   9.098  1.00  0.00     0.006 C 
BRANCH   3   4
ATOM      4  C   UNL     1      25.345   6.200   8.704  1.00  0.00     0.053 C 
BRANCH   4   5
ATOM      5  C   UNL     1      25.005   5.588   7.382  1.00  0.00     0.041 C 
ATOM      6  O   UNL     1      25.874   4.945   6.738  1.00  0.00    -0.550 OA
ATOM      7  O   UNL     1      23.711   5.684   6.885  1.00  0.00    -0.550 OA
ENDBRANCH   4   5
ENDBRANCH   3   4
ENDBRANCH   2   3
ENDBRANCH   1   2
BRANCH   1   8
ATOM      8  C   UNL     1      28.555   3.789   8.849  1.00  0.00     0.000 C 
BRANCH   8   9
ATOM      9  C   UNL     1      28.389   2.511   8.006  1.00  0.00    -0.000 C 
BRANCH   9  10
ATOM     10  C   UNL     1      27.008   1.860   8.188  1.00  0.00    -0.000 C 
BRANCH  10  11
ATOM     11  C   UNL     1      27.044   0.331   8.006  1.00  0.00    -0.000 C 
BRANCH  11  12
ATOM     12  C   UNL     1      28.417  -0.268   8.347  1.00  0.00    -0.003 C 
ATOM     13  C   UNL     1      28.467  -0.863   9.755  1.00  0.00     0.004 C 
ENDBRANCH  11  12
ENDBRANCH  10  11
ENDBRANCH   9  10
ENDBRANCH   8   9
ENDBRANCH   1   8
TORSDOF 9
ENDMDL
MODEL 7
REMARK VINA RESULT:    -3.606      9.842     11.547
REMARK INTER + INTRA:          -6.603
REMARK INTER:                  -5.452
REMARK INTRA:                  -1.151
REMARK UNBOUND:                -1.100
REMARK SMILES CCCCCCCCCCC(=O)[O-]
REMARK SMILES IDX 7 1 8 2 9 3 10 4 11 5 12 6 13 7 6 8 5 9 4 10 3 11 2 12 1 13
REMARK H PARENT
REMARK Flexibility Score: inf
ROOT
ATOM      1  C   UNL     1      24.643   3.510  18.737  1.00  0.00     0.000 C 
ENDROOT
BRANCH   1   2
ATOM      2  C   UNL     1      24.726   2.773  17.390  1.00  0.00     0.000 C 
BRANCH   2   3
ATOM      3  C   UNL     1      25.664   1.555  17.440  1.00  0.00     0.006 C 
BRANCH   3   4
ATOM      4  C   UNL     1      25.080   0.392  18.253  1.00  0.00     0.053 C 
BRANCH   4   5
ATOM      5  C   UNL     1      24.987  -0.840  17.409  1.00  0.00     0.041 C 
ATOM      6  O   UNL     1      24.707  -0.750  16.185  1.00  0.00    -0.550 OA
ATOM      7  O   UNL     1      25.259  -2.084  17.964  1.00  0.00    -0.550 OA
ENDBRANCH   4   5
ENDBRANCH   3   4
ENDBRANCH   2   3
ENDBRANCH   1   2
BRANCH   1   8
ATOM      8  C   UNL     1      23.233   4.051  19.027  1.00  0.00     0.000 C 
BRANCH   8   9
ATOM      9  C   UNL     1      22.252   3.794  17.869  1.00  0.00    -0.000 C 
BRANCH   9  10
ATOM     10  C   UNL     1      21.141   2.800  18.246  1.00  0.00    -0.000 C 
BRANCH  10  11
ATOM     11  C   UNL     1      21.585   1.797  19.327  1.00  0.00    -0.000 C 
BRANCH  11  12
ATOM     12  C   UNL     1      21.390   0.337  18.890  1.00  0.00    -0.003 C 
ATOM     13  C   UNL     1      21.385   0.173  17.369  1.00  0.00     0.004 C 
ENDBRANCH  11  12
ENDBRANCH  10  11
ENDBRANCH   9  10
ENDBRANCH   8   9
ENDBRANCH   1   8
TORSDOF 9
ENDMDL
MODEL 8
REMARK VINA RESULT:    -3.588     10.267     11.876
REMARK INTER + INTRA:          -6.576
REMARK INTER:                  -5.327
REMARK INTRA:                  -1.249
REMARK UNBOUND:                -1.100
REMARK SMILES CCCCCCCCCCC(=O)[O-]
REMARK SMILES IDX 7 1 8 2 9 3 10 4 11 5 12 6 13 7 6 8 5 9 4 10 3 11 2 12 1 13
REMARK H PARENT
REMARK Flexibility Score: inf
ROOT
ATOM      1  C   UNL     1      25.319   0.662  18.555  1.00  0.00     0.000 C 
ENDROOT
BRANCH   1   2
ATOM      2  C   UNL     1      24.713  -0.680  18.106  1.00  0.00     0.000 C 
BRANCH   2   3
ATOM      3  C   UNL     1      23.952  -0.568  16.775  1.00  0.00     0.006 C 
BRANCH   3   4
ATOM      4  C   UNL     1      22.485  -1.002  16.893  1.00  0.00     0.053 C 
BRANCH   4   5
ATOM      5  C   UNL     1      22.354  -2.471  16.641  1.00  0.00     0.041 C 
ATOM      6  O   UNL     1      21.280  -3.068  16.916  1.00  0.00    -0.550 OA
ATOM      7  O   UNL     1      23.401  -3.171  16.055  1.00  0.00    -0.550 OA
ENDBRANCH   4   5
ENDBRANCH   3   4
ENDBRANCH   2   3
ENDBRANCH   1   2
BRANCH   1   8
ATOM      8  C   UNL     1      25.600   1.606  17.374  1.00  0.00     0.000 C 
BRANCH   8   9
ATOM      9  C   UNL     1      24.974   2.999  17.569  1.00  0.00    -0.000 C 
BRANCH   9  10
ATOM     10  C   UNL     1      23.943   3.027  18.709  1.00  0.00    -0.000 C 
BRANCH  10  11
ATOM     11  C   UNL     1      22.514   3.312  18.210  1.00  0.00    -0.000 C 
BRANCH  11  12
ATOM     12  C   UNL     1      21.528   2.194  18.582  1.00  0.00    -0.003 C 
ATOM     13  C   UNL     1      21.979   1.393  19.803  1.00  0.00     0.004 C 
ENDBRANCH  11  12
ENDBRANCH  10  11
ENDBRANCH   9  10
ENDBRANCH   8   9
ENDBRANCH   1   8
TORSDOF 9
ENDMDL
MODEL 9
REMARK VINA RESULT:    -3.543      2.332      3.406
REMARK INTER + INTRA:          -6.506
REMARK INTER:                  -6.152
REMARK INTRA:                  -0.354
REMARK UNBOUND:                -1.100
REMARK SMILES CCCCCCCCCCC(=O)[O-]
REMARK SMILES IDX 7 1 8 2 9 3 10 4 11 5 12 6 13 7 6 8 5 9 4 10 3 11 2 12 1 13
REMARK H PARENT
REMARK Flexibility Score: inf
ROOT
ATOM      1  C   UNL     1      28.235   3.229   8.689  1.00  0.00     0.000 C 
ENDROOT
BRANCH   1   2
ATOM      2  C   UNL     1      27.843   3.808  10.060  1.00  0.00     0.000 C 
BRANCH   2   3
ATOM      3  C   UNL     1      26.920   5.031   9.941  1.00  0.00     0.006 C 
BRANCH   3   4
ATOM      4  C   UNL     1      26.819   5.560   8.504  1.00  0.00     0.053 C 
BRANCH   4   5
ATOM      5  C   UNL     1      26.527   7.028   8.507  1.00  0.00     0.041 C 
ATOM      6  O   UNL     1      25.615   7.491   9.240  1.00  0.00    -0.550 OA
ATOM      7  O   UNL     1      27.298   7.891   7.738  1.00  0.00    -0.550 OA
ENDBRANCH   4   5
ENDBRANCH   3   4
ENDBRANCH   2   3
ENDBRANCH   1   2
BRANCH   1   8
ATOM      8  C   UNL     1      27.807   1.761   8.525  1.00  0.00     0.000 C 
BRANCH   8   9
ATOM      9  C   UNL     1      28.763   0.784   9.234  1.00  0.00    -0.000 C 
BRANCH   9  10
ATOM     10  C   UNL     1      28.428  -0.687   8.938  1.00  0.00    -0.000 C 
BRANCH  10  11
ATOM     11  C   UNL     1      28.713  -1.078   7.476  1.00  0.00    -0.000 C 
BRANCH  11  12
ATOM     12  C   UNL     1      28.722  -2.600   7.266  1.00  0.00    -0.003 C 
ATOM     13  C   UNL     1      28.324  -3.371   8.526  1.00  0.00     0.004 C 
ENDBRANCH  11  12
ENDBRANCH  10  11
ENDBRANCH   9  10
ENDBRANCH   8   9
ENDBRANCH   1   8
TORSDOF 9
ENDMDL
