MODEL 1
REMARK VINA RESULT:    -5.087      0.000      0.000
REMARK INTER + INTRA:          -5.433
REMARK INTER:                  -7.764
REMARK INTRA:                   2.331
REMARK UNBOUND:                 2.331
REMARK SMILES CC1=CCC[C@H](C)C(=O)C[C@@H](C(C)C)C(=O)C1
REMARK SMILES IDX 8 1 9 2 6 3 7 4 5 5 4 6 3 7 2 8 1 9 10 11 11 12 15 13 16 14
REMARK SMILES IDX 17 15 12 17 13 18 14 19
REMARK H PARENT
REMARK Flexibility Score: 70.00
ROOT
ATOM      1  C   UNL     1      -9.121   1.578 -19.265  1.00  0.00     0.136 C 
ATOM      2  O   UNL     1      -8.826   0.433 -18.949  1.00  0.00    -0.299 OA
ENDROOT
BRANCH   1   3
ATOM      3  C   UNL     1      -8.220   2.723 -18.857  1.00  0.00     0.053 C 
ATOM      4  C   UNL     1      -8.480   3.967 -19.714  1.00  0.00     0.016 C 
BRANCH   3   5
ATOM      5  C   UNL     1      -8.428   3.016 -17.351  1.00  0.00     0.015 C 
BRANCH   5   6
ATOM      6  C   UNL     1      -9.163   4.328 -17.014  1.00  0.00     0.028 C 
BRANCH   6   7
ATOM      7  C   UNL     1     -10.105   4.879 -18.065  1.00  0.00    -0.028 C 
ATOM      8  C   UNL     1     -11.341   4.418 -18.373  1.00  0.00    -0.070 CG0
ATOM      9  C   UNL     1     -12.053   5.055 -19.541  1.00  0.00     0.039 C 
ATOM     10  G   UNL     1     -12.086   3.366 -17.570  1.00  0.00     0.000 G0
ENDBRANCH   6   7
ENDBRANCH   5   6
ENDBRANCH   3   5
ENDBRANCH   1   3
BRANCH   1  11
ATOM     11  C   UNL     1     -10.343   1.816 -20.121  1.00  0.00     0.087 C 
BRANCH  11  12
ATOM     12  C   UNL     1     -11.666   1.464 -19.381  1.00  0.00     0.066 C 
BRANCH  12  13
ATOM     13  C   UNL     1     -11.640   1.959 -17.940  1.00  0.00     0.140 C 
ATOM     14  O   UNL     1     -11.262   1.202 -17.057  1.00  0.00    -0.299 OA
BRANCH  13  15
ATOM     15  C   UNL     1     -12.091   3.355 -17.562  1.00  0.00     0.106 CG0
ATOM     16  G   UNL     1     -11.337   4.401 -18.364  1.00  0.00     0.000 G0
ENDBRANCH  13  15
ENDBRANCH  12  13
BRANCH  12  17
ATOM     17  C   UNL     1     -12.000  -0.058 -19.476  1.00  0.00    -0.006 C 
ATOM     18  C   UNL     1     -13.499  -0.382 -19.347  1.00  0.00     0.008 C 
ATOM     19  C   UNL     1     -11.433  -0.678 -20.762  1.00  0.00     0.008 C 
ENDBRANCH  12  17
ENDBRANCH  11  12
ENDBRANCH   1  11
TORSDOF 1
ENDMDL
MODEL 2
REMARK VINA RESULT:    -4.232      1.528      3.891
REMARK INTER + INTRA:          -4.127
REMARK INTER:                  -5.243
REMARK INTRA:                   1.117
REMARK UNBOUND:                 2.331
REMARK SMILES CC1=CCC[C@H](C)C(=O)C[C@@H](C(C)C)C(=O)C1
REMARK SMILES IDX 8 1 9 2 6 3 7 4 5 5 4 6 3 7 2 8 1 9 10 11 11 12 15 13 16 14
REMARK SMILES IDX 17 15 12 17 13 18 14 19
REMARK H PARENT
REMARK Flexibility Score: 70.00
ROOT
ATOM      1  C   UNL     1     -11.753   0.922 -18.119  1.00  0.00     0.136 C 
ATOM      2  O   UNL     1     -11.587   0.691 -16.930  1.00  0.00    -0.299 OA
ENDROOT
BRANCH   1   3
ATOM      3  C   UNL     1     -11.323  -0.100 -19.148  1.00  0.00     0.053 C 
ATOM      4  C   UNL     1     -12.506  -0.549 -20.013  1.00  0.00     0.016 C 
BRANCH   3   5
ATOM      5  C   UNL     1     -10.185   0.500 -20.009  1.00  0.00     0.015 C 
BRANCH   5   6
ATOM      6  C   UNL     1      -8.959   1.024 -19.237  1.00  0.00     0.028 C 
BRANCH   6   7
ATOM      7  C   UNL     1      -8.428   2.388 -19.629  1.00  0.00    -0.028 C 
ATOM      8  C   UNL     1      -8.577   3.548 -18.944  1.00  0.00    -0.070 CG0
ATOM      9  C   UNL     1      -8.061   4.811 -19.589  1.00  0.00     0.039 C 
ATOM     10  G   UNL     1      -9.150   3.645 -17.540  1.00  0.00     0.000 G0
ENDBRANCH   6   7
ENDBRANCH   5   6
ENDBRANCH   3   5
ENDBRANCH   1   3
BRANCH   1  11
ATOM     11  C   UNL     1     -12.454   2.196 -18.533  1.00  0.00     0.087 C 
BRANCH  11  12
ATOM     12  C   UNL     1     -11.458   3.355 -18.824  1.00  0.00     0.066 C 
BRANCH  12  13
ATOM     13  C   UNL     1     -10.663   3.726 -17.578  1.00  0.00     0.140 C 
ATOM     14  O   UNL     1     -11.261   4.104 -16.581  1.00  0.00    -0.299 OA
BRANCH  13  15
ATOM     15  C   UNL     1      -9.149   3.664 -17.542  1.00  0.00     0.106 CG0
ATOM     16  G   UNL     1      -8.582   3.534 -18.946  1.00  0.00     0.000 G0
ENDBRANCH  13  15
ENDBRANCH  12  13
BRANCH  12  17
ATOM     17  C   UNL     1     -12.171   4.590 -19.458  1.00  0.00    -0.006 C 
ATOM     18  C   UNL     1     -12.248   5.816 -18.532  1.00  0.00     0.008 C 
ATOM     19  C   UNL     1     -11.532   4.980 -20.800  1.00  0.00     0.008 C 
ENDBRANCH  12  17
ENDBRANCH  11  12
ENDBRANCH   1  11
TORSDOF 1
ENDMDL
MODEL 3
REMARK VINA RESULT:    -3.900      1.420      3.133
REMARK INTER + INTRA:          -3.621
REMARK INTER:                  -5.867
REMARK INTRA:                   2.247
REMARK UNBOUND:                 2.331
REMARK SMILES CC1=CCC[C@H](C)C(=O)C[C@@H](C(C)C)C(=O)C1
REMARK SMILES IDX 8 1 9 2 6 3 7 4 5 5 4 6 3 7 2 8 1 9 10 11 11 12 15 13 16 14
REMARK SMILES IDX 17 15 12 17 13 18 14 19
REMARK H PARENT
REMARK Flexibility Score: 70.00
ROOT
ATOM      1  C   UNL     1     -11.633   2.395 -17.343  1.00  0.00     0.136 C 
ATOM      2  O   UNL     1     -11.038   1.632 -16.594  1.00  0.00    -0.299 OA
ENDROOT
BRANCH   1   3
ATOM      3  C   UNL     1     -11.512   3.889 -17.139  1.00  0.00     0.053 C 
ATOM      4  C   UNL     1     -10.179   4.254 -16.478  1.00  0.00     0.016 C 
BRANCH   3   5
ATOM      5  C   UNL     1     -11.683   4.599 -18.505  1.00  0.00     0.015 C 
BRANCH   5   6
ATOM      6  C   UNL     1     -10.384   4.896 -19.278  1.00  0.00     0.028 C 
BRANCH   6   7
ATOM      7  C   UNL     1      -9.170   4.057 -18.934  1.00  0.00    -0.028 C 
ATOM      8  C   UNL     1      -8.975   2.748 -19.227  1.00  0.00    -0.070 CG0
ATOM      9  C   UNL     1      -7.734   2.087 -18.679  1.00  0.00     0.039 C 
ATOM     10  G   UNL     1      -9.876   1.932 -20.137  1.00  0.00     0.000 G0
ENDBRANCH   6   7
ENDBRANCH   5   6
ENDBRANCH   3   5
ENDBRANCH   1   3
BRANCH   1  11
ATOM     11  C   UNL     1     -12.416   1.828 -18.504  1.00  0.00     0.087 C 
BRANCH  11  12
ATOM     12  C   UNL     1     -11.827   0.483 -19.019  1.00  0.00     0.066 C 
BRANCH  12  13
ATOM     13  C   UNL     1     -10.380   0.651 -19.466  1.00  0.00     0.140 C 
ATOM     14  O   UNL     1      -9.582  -0.250 -19.251  1.00  0.00    -0.299 OA
BRANCH  13  15
ATOM     15  C   UNL     1      -9.891   1.913 -20.148  1.00  0.00     0.106 CG0
ATOM     16  G   UNL     1      -8.998   2.716 -19.218  1.00  0.00     0.000 G0
ENDBRANCH  13  15
ENDBRANCH  12  13
BRANCH  12  17
ATOM     17  C   UNL     1     -12.717  -0.155 -20.131  1.00  0.00    -0.006 C 
ATOM     18  C   UNL     1     -11.996  -1.213 -20.984  1.00  0.00     0.008 C 
ATOM     19  C   UNL     1     -14.013  -0.739 -19.548  1.00  0.00     0.008 C 
ENDBRANCH  12  17
ENDBRANCH  11  12
ENDBRANCH   1  11
TORSDOF 1
ENDMDL
MODEL 4
REMARK VINA RESULT:    -3.899      1.869      4.040
REMARK INTER + INTRA:          -3.619
REMARK INTER:                  -4.124
REMARK INTRA:                   0.505
REMARK UNBOUND:                 2.331
REMARK SMILES CC1=CCC[C@H](C)C(=O)C[C@@H](C(C)C)C(=O)C1
REMARK SMILES IDX 8 1 9 2 6 3 7 4 5 5 4 6 3 7 2 8 1 9 10 11 11 12 15 13 16 14
REMARK SMILES IDX 17 15 12 17 13 18 14 19
REMARK H PARENT
REMARK Flexibility Score: 70.00
ROOT
ATOM      1  C   UNL     1     -11.298   1.834 -20.134  1.00  0.00     0.136 C 
ATOM      2  O   UNL     1     -10.082   1.901 -20.247  1.00  0.00    -0.299 OA
ENDROOT
BRANCH   1   3
ATOM      3  C   UNL     1     -11.947   0.515 -19.777  1.00  0.00     0.053 C 
ATOM      4  C   UNL     1     -11.376  -0.631 -20.621  1.00  0.00     0.016 C 
BRANCH   3   5
ATOM      5  C   UNL     1     -11.759   0.254 -18.263  1.00  0.00     0.015 C 
BRANCH   5   6
ATOM      6  C   UNL     1     -12.055   1.446 -17.331  1.00  0.00     0.028 C 
BRANCH   6   7
ATOM      7  C   UNL     1     -10.864   2.203 -16.782  1.00  0.00    -0.028 C 
ATOM      8  C   UNL     1     -10.519   3.486 -17.051  1.00  0.00    -0.070 CG0
ATOM      9  C   UNL     1      -9.219   3.995 -16.477  1.00  0.00     0.039 C 
ATOM     10  G   UNL     1     -11.394   4.464 -17.817  1.00  0.00     0.000 G0
ENDBRANCH   6   7
ENDBRANCH   5   6
ENDBRANCH   3   5
ENDBRANCH   1   3
BRANCH   1  11
ATOM     11  C   UNL     1     -12.123   3.092 -20.282  1.00  0.00     0.087 C 
BRANCH  11  12
ATOM     12  C   UNL     1     -11.243   4.363 -20.462  1.00  0.00     0.066 C 
BRANCH  12  13
ATOM     13  C   UNL     1     -10.757   4.891 -19.118  1.00  0.00     0.140 C 
ATOM     14  O   UNL     1      -9.805   5.657 -19.088  1.00  0.00    -0.299 OA
BRANCH  13  15
ATOM     15  C   UNL     1     -11.402   4.476 -17.810  1.00  0.00     0.106 CG0
ATOM     16  G   UNL     1     -10.515   3.499 -17.058  1.00  0.00     0.000 G0
ENDBRANCH  13  15
ENDBRANCH  12  13
BRANCH  12  17
ATOM     17  C   UNL     1     -11.970   5.461 -21.299  1.00  0.00    -0.006 C 
ATOM     18  C   UNL     1     -12.597   4.944 -22.606  1.00  0.00     0.008 C 
ATOM     19  C   UNL     1     -13.025   6.200 -20.462  1.00  0.00     0.008 C 
ENDBRANCH  12  17
ENDBRANCH  11  12
ENDBRANCH   1  11
TORSDOF 1
ENDMDL
MODEL 5
REMARK VINA RESULT:    -3.838      1.481      3.976
REMARK INTER + INTRA:          -3.527
REMARK INTER:                  -4.307
REMARK INTRA:                   0.781
REMARK UNBOUND:                 2.331
REMARK SMILES CC1=CCC[C@H](C)C(=O)C[C@@H](C(C)C)C(=O)C1
REMARK SMILES IDX 8 1 9 2 6 3 7 4 5 5 4 6 3 7 2 8 1 9 10 11 11 12 15 13 16 14
REMARK SMILES IDX 17 15 12 17 13 18 14 19
REMARK H PARENT
REMARK Flexibility Score: 70.00
ROOT
ATOM      1  C   UNL     1     -11.023   0.929 -20.057  1.00  0.00     0.136 C 
ATOM      2  O   UNL     1     -10.099   0.350 -20.613  1.00  0.00    -0.299 OA
ENDROOT
BRANCH   1   3
ATOM      3  C   UNL     1     -12.085   0.126 -19.339  1.00  0.00     0.053 C 
ATOM      4  C   UNL     1     -12.697  -0.935 -20.259  1.00  0.00     0.016 C 
BRANCH   3   5
ATOM      5  C   UNL     1     -11.465  -0.509 -18.070  1.00  0.00     0.015 C 
BRANCH   5   6
ATOM      6  C   UNL     1     -11.385   0.401 -16.829  1.00  0.00     0.028 C 
BRANCH   6   7
ATOM      7  C   UNL     1     -11.966   1.794 -16.958  1.00  0.00    -0.028 C 
ATOM      8  C   UNL     1     -11.286   2.966 -16.933  1.00  0.00    -0.070 CG0
ATOM      9  C   UNL     1     -12.091   4.242 -16.962  1.00  0.00     0.039 C 
ATOM     10  G   UNL     1      -9.771   3.076 -16.962  1.00  0.00     0.000 G0
ENDBRANCH   6   7
ENDBRANCH   5   6
ENDBRANCH   3   5
ENDBRANCH   1   3
BRANCH   1  11
ATOM     11  C   UNL     1     -11.041   2.440 -20.036  1.00  0.00     0.087 C 
BRANCH  11  12
ATOM     12  C   UNL     1      -9.667   3.046 -19.631  1.00  0.00     0.066 C 
BRANCH  12  13
ATOM     13  C   UNL     1      -9.209   2.518 -18.277  1.00  0.00     0.140 C 
ATOM     14  O   UNL     1      -8.382   1.618 -18.238  1.00  0.00    -0.299 OA
BRANCH  13  15
ATOM     15  C   UNL     1      -9.765   3.057 -16.974  1.00  0.00     0.106 CG0
ATOM     16  G   UNL     1     -11.280   2.956 -16.953  1.00  0.00     0.000 G0
ENDBRANCH  13  15
ENDBRANCH  12  13
BRANCH  12  17
ATOM     17  C   UNL     1      -9.680   4.606 -19.682  1.00  0.00    -0.006 C 
ATOM     18  C   UNL     1      -8.391   5.228 -20.247  1.00  0.00     0.008 C 
ATOM     19  C   UNL     1     -10.902   5.133 -20.449  1.00  0.00     0.008 C 
ENDBRANCH  12  17
ENDBRANCH  11  12
ENDBRANCH   1  11
TORSDOF 1
ENDMDL
MODEL 6
REMARK VINA RESULT:    -3.830      1.460      3.636
REMARK INTER + INTRA:          -3.513
REMARK INTER:                  -4.675
REMARK INTRA:                   1.162
REMARK UNBOUND:                 2.331
REMARK SMILES CC1=CCC[C@H](C)C(=O)C[C@@H](C(C)C)C(=O)C1
REMARK SMILES IDX 8 1 9 2 6 3 7 4 5 5 4 6 3 7 2 8 1 9 10 11 11 12 15 13 16 14
REMARK SMILES IDX 17 15 12 17 13 18 14 19
REMARK H PARENT
REMARK Flexibility Score: 70.00
ROOT
ATOM      1  C   UNL     1     -10.454   0.889 -19.917  1.00  0.00     0.136 C 
ATOM      2  O   UNL     1     -10.204  -0.264 -20.239  1.00  0.00    -0.299 OA
ENDROOT
BRANCH   1   3
ATOM      3  C   UNL     1     -11.745   1.202 -19.191  1.00  0.00     0.053 C 
ATOM      4  C   UNL     1     -12.739   0.041 -19.301  1.00  0.00     0.016 C 
BRANCH   3   5
ATOM      5  C   UNL     1     -11.423   1.537 -17.714  1.00  0.00     0.015 C 
BRANCH   5   6
ATOM      6  C   UNL     1     -11.703   2.988 -17.275  1.00  0.00     0.028 C 
BRANCH   6   7
ATOM      7  C   UNL     1     -12.307   3.916 -18.309  1.00  0.00    -0.028 C 
ATOM      8  C   UNL     1     -11.723   5.004 -18.867  1.00  0.00    -0.070 CG0
ATOM      9  C   UNL     1     -12.563   5.850 -19.793  1.00  0.00     0.039 C 
ATOM     10  G   UNL     1     -10.261   5.377 -18.688  1.00  0.00     0.000 G0
ENDBRANCH   6   7
ENDBRANCH   5   6
ENDBRANCH   3   5
ENDBRANCH   1   3
BRANCH   1  11
ATOM     11  C   UNL     1      -9.432   1.969 -20.187  1.00  0.00     0.087 C 
BRANCH  11  12
ATOM     12  C   UNL     1      -9.251   2.933 -18.978  1.00  0.00     0.066 C 
BRANCH  12  13
ATOM     13  C   UNL     1      -9.366   4.389 -19.413  1.00  0.00     0.140 C 
ATOM     14  O   UNL     1      -8.699   4.782 -20.359  1.00  0.00    -0.299 OA
BRANCH  13  15
ATOM     15  C   UNL     1     -10.264   5.375 -18.692  1.00  0.00     0.106 CG0
ATOM     16  G   UNL     1     -11.726   5.001 -18.870  1.00  0.00     0.000 G0
ENDBRANCH  13  15
ENDBRANCH  12  13
BRANCH  12  17
ATOM     17  C   UNL     1      -7.927   2.652 -18.201  1.00  0.00    -0.006 C 
ATOM     18  C   UNL     1      -8.037   2.849 -16.680  1.00  0.00     0.008 C 
ATOM     19  C   UNL     1      -7.379   1.251 -18.515  1.00  0.00     0.008 C 
ENDBRANCH  12  17
ENDBRANCH  11  12
ENDBRANCH   1  11
TORSDOF 1
ENDMDL
MODEL 7
REMARK VINA RESULT:    -3.809      1.876      3.692
REMARK INTER + INTRA:          -3.481
REMARK INTER:                  -3.867
REMARK INTRA:                   0.386
REMARK UNBOUND:                 2.331
REMARK SMILES CC1=CCC[C@H](C)C(=O)C[C@@H](C(C)C)C(=O)C1
REMARK SMILES IDX 8 1 9 2 6 3 7 4 5 5 4 6 3 7 2 8 1 9 10 11 11 12 15 13 16 14
REMARK SMILES IDX 17 15 12 17 13 18 14 19
REMARK H PARENT
REMARK Flexibility Score: 70.00
ROOT
ATOM      1  C   UNL     1      -9.002   4.083 -17.804  1.00  0.00     0.136 C 
ATOM      2  O   UNL     1      -8.415   5.068 -17.377  1.00  0.00    -0.299 OA
ENDROOT
BRANCH   1   3
ATOM      3  C   UNL     1      -8.610   3.501 -19.144  1.00  0.00     0.053 C 
ATOM      4  C   UNL     1      -8.005   4.570 -20.060  1.00  0.00     0.016 C 
BRANCH   3   5
ATOM      5  C   UNL     1      -7.628   2.326 -18.915  1.00  0.00     0.015 C 
BRANCH   5   6
ATOM      6  C   UNL     1      -8.253   0.918 -18.888  1.00  0.00     0.028 C 
BRANCH   6   7
ATOM      7  C   UNL     1      -9.481   0.693 -19.746  1.00  0.00    -0.028 C 
ATOM      8  C   UNL     1     -10.767   0.616 -19.326  1.00  0.00    -0.070 CG0
ATOM      9  C   UNL     1     -11.818   0.268 -20.352  1.00  0.00     0.039 C 
ATOM     10  G   UNL     1     -11.226   0.941 -17.914  1.00  0.00     0.000 G0
ENDBRANCH   6   7
ENDBRANCH   5   6
ENDBRANCH   3   5
ENDBRANCH   1   3
BRANCH   1  11
ATOM     11  C   UNL     1     -10.058   3.424 -16.948  1.00  0.00     0.087 C 
BRANCH  11  12
ATOM     12  C   UNL     1     -11.486   3.565 -17.551  1.00  0.00     0.066 C 
BRANCH  12  13
ATOM     13  C   UNL     1     -12.080   2.202 -17.885  1.00  0.00     0.140 C 
ATOM     14  O   UNL     1     -13.277   2.114 -18.117  1.00  0.00    -0.299 OA
BRANCH  13  15
ATOM     15  C   UNL     1     -11.236   0.944 -17.915  1.00  0.00     0.106 CG0
ATOM     16  G   UNL     1     -10.787   0.630 -19.333  1.00  0.00     0.000 G0
ENDBRANCH  13  15
ENDBRANCH  12  13
BRANCH  12  17
ATOM     17  C   UNL     1     -11.510   4.535 -18.773  1.00  0.00    -0.006 C 
ATOM     18  C   UNL     1     -11.750   3.838 -20.124  1.00  0.00     0.008 C 
ATOM     19  C   UNL     1     -12.529   5.667 -18.573  1.00  0.00     0.008 C 
ENDBRANCH  12  17
ENDBRANCH  11  12
ENDBRANCH   1  11
TORSDOF 1
ENDMDL
MODEL 8
REMARK VINA RESULT:    -3.427      1.344      2.112
REMARK INTER + INTRA:          -2.898
REMARK INTER:                  -3.307
REMARK INTRA:                   0.408
REMARK UNBOUND:                 2.331
REMARK SMILES CC1=CCC[C@H](C)C(=O)C[C@@H](C(C)C)C(=O)C1
REMARK SMILES IDX 8 1 9 2 6 3 7 4 5 5 4 6 3 7 2 8 1 9 10 11 11 12 15 13 16 14
REMARK SMILES IDX 17 15 12 17 13 18 14 19
REMARK H PARENT
REMARK Flexibility Score: 70.00
ROOT
ATOM      1  C   UNL     1      -8.885   3.473 -18.732  1.00  0.00     0.136 C 
ATOM      2  O   UNL     1      -8.377   3.637 -17.631  1.00  0.00    -0.299 OA
ENDROOT
BRANCH   1   3
ATOM      3  C   UNL     1      -9.161   4.669 -19.615  1.00  0.00     0.053 C 
ATOM      4  C   UNL     1      -7.993   4.934 -20.572  1.00  0.00     0.016 C 
BRANCH   3   5
ATOM      5  C   UNL     1     -10.484   4.434 -20.384  1.00  0.00     0.015 C 
BRANCH   5   6
ATOM      6  C   UNL     1     -11.752   5.030 -19.743  1.00  0.00     0.028 C 
BRANCH   6   7
ATOM      7  C   UNL     1     -11.762   5.168 -18.234  1.00  0.00    -0.028 C 
ATOM      8  C   UNL     1     -12.175   4.243 -17.334  1.00  0.00    -0.070 CG0
ATOM      9  C   UNL     1     -12.204   4.646 -15.881  1.00  0.00     0.039 C 
ATOM     10  G   UNL     1     -12.526   2.807 -17.685  1.00  0.00     0.000 G0
ENDBRANCH   6   7
ENDBRANCH   5   6
ENDBRANCH   3   5
ENDBRANCH   1   3
BRANCH   1  11
ATOM     11  C   UNL     1      -9.159   2.068 -19.216  1.00  0.00     0.087 C 
BRANCH  11  12
ATOM     12  C   UNL     1     -10.677   1.726 -19.222  1.00  0.00     0.066 C 
BRANCH  12  13
ATOM     13  C   UNL     1     -11.301   1.965 -17.853  1.00  0.00     0.140 C 
ATOM     14  O   UNL     1     -10.799   1.439 -16.869  1.00  0.00    -0.299 OA
BRANCH  13  15
ATOM     15  C   UNL     1     -12.543   2.815 -17.672  1.00  0.00     0.106 CG0
ATOM     16  G   UNL     1     -12.170   4.250 -17.340  1.00  0.00     0.000 G0
ENDBRANCH  13  15
ENDBRANCH  12  13
BRANCH  12  17
ATOM     17  C   UNL     1     -10.948   0.282 -19.750  1.00  0.00    -0.006 C 
ATOM     18  C   UNL     1     -12.348   0.087 -20.358  1.00  0.00     0.008 C 
ATOM     19  C   UNL     1      -9.870  -0.161 -20.751  1.00  0.00     0.008 C 
ENDBRANCH  12  17
ENDBRANCH  11  12
ENDBRANCH   1  11
TORSDOF 1
ENDMDL
MODEL 9
REMARK VINA RESULT:    -3.139      1.907      4.403
REMARK INTER + INTRA:          -2.460
REMARK INTER:                  -3.788
REMARK INTRA:                   1.328
REMARK UNBOUND:                 2.331
REMARK SMILES CC1=CCC[C@H](C)C(=O)C[C@@H](C(C)C)C(=O)C1
REMARK SMILES IDX 8 1 9 2 6 3 7 4 5 5 4 6 3 7 2 8 1 9 10 11 11 12 15 13 16 14
REMARK SMILES IDX 17 15 12 17 13 18 14 19
REMARK H PARENT
REMARK Flexibility Score: 70.00
ROOT
ATOM      1  C   UNL     1     -11.865   4.896 -18.988  1.00  0.00     0.136 C 
ATOM      2  O   UNL     1     -12.047   6.103 -19.070  1.00  0.00    -0.299 OA
ENDROOT
BRANCH   1   3
ATOM      3  C   UNL     1     -11.654   4.083 -20.247  1.00  0.00     0.053 C 
ATOM      4  C   UNL     1     -11.864   4.937 -21.502  1.00  0.00     0.016 C 
BRANCH   3   5
ATOM      5  C   UNL     1     -10.237   3.461 -20.213  1.00  0.00     0.015 C 
BRANCH   5   6
ATOM      6  C   UNL     1     -10.169   1.928 -20.354  1.00  0.00     0.028 C 
BRANCH   6   7
ATOM      7  C   UNL     1     -11.482   1.173 -20.306  1.00  0.00    -0.028 C 
ATOM      8  C   UNL     1     -11.971   0.455 -19.266  1.00  0.00    -0.070 CG0
ATOM      9  C   UNL     1     -13.251  -0.312 -19.488  1.00  0.00     0.039 C 
ATOM     10  G   UNL     1     -11.361   0.441 -17.874  1.00  0.00     0.000 G0
ENDBRANCH   6   7
ENDBRANCH   5   6
ENDBRANCH   3   5
ENDBRANCH   1   3
BRANCH   1  11
ATOM     11  C   UNL     1     -11.780   4.254 -17.623  1.00  0.00     0.087 C 
BRANCH  11  12
ATOM     12  C   UNL     1     -10.824   3.026 -17.602  1.00  0.00     0.066 C 
BRANCH  12  13
ATOM     13  C   UNL     1     -11.557   1.765 -17.159  1.00  0.00     0.140 C 
ATOM     14  O   UNL     1     -12.311   1.821 -16.198  1.00  0.00    -0.299 OA
BRANCH  13  15
ATOM     15  C   UNL     1     -11.362   0.434 -17.858  1.00  0.00     0.106 CG0
ATOM     16  G   UNL     1     -11.967   0.464 -19.251  1.00  0.00     0.000 G0
ENDBRANCH  13  15
ENDBRANCH  12  13
BRANCH  12  17
ATOM     17  C   UNL     1      -9.546   3.296 -16.747  1.00  0.00    -0.006 C 
ATOM     18  C   UNL     1      -8.233   2.883 -17.433  1.00  0.00     0.008 C 
ATOM     19  C   UNL     1      -9.471   4.764 -16.300  1.00  0.00     0.008 C 
ENDBRANCH  12  17
ENDBRANCH  11  12
ENDBRANCH   1  11
TORSDOF 1
ENDMDL
