MODEL 1
REMARK VINA RESULT:    -5.323      0.000      0.000
REMARK INTER + INTRA:         -14.760
REMARK INTER:                 -11.546
REMARK INTRA:                  -3.213
REMARK UNBOUND:                -3.213
REMARK SMILES CCCCCCCCCCCCCCCCCCCCCC(=O)[O-]
REMARK SMILES IDX 12 1 11 2 10 3 9 4 8 5 7 6 6 7 5 8 4 9 3 10 2 11 1 12 13 13
REMARK SMILES IDX 14 14 15 15 16 16 17 17 18 18 19 19 20 20 21 21 22 22 23 23
REMARK SMILES IDX 24 24
REMARK H PARENT
REMARK Flexibility Score: inf
ROOT
ATOM      1  C   UNL     1     120.232 178.808 124.178  1.00  0.00     0.000 C 
ENDROOT
BRANCH   1   2
ATOM      2  C   UNL     1     120.181 179.743 125.400  1.00  0.00     0.000 C 
BRANCH   2   3
ATOM      3  C   UNL     1     121.163 179.391 126.537  1.00  0.00     0.000 C 
BRANCH   3   4
ATOM      4  C   UNL     1     120.538 178.643 127.729  1.00  0.00    -0.000 C 
BRANCH   4   5
ATOM      5  C   UNL     1     120.887 177.144 127.740  1.00  0.00    -0.000 C 
BRANCH   5   6
ATOM      6  C   UNL     1     119.811 176.285 127.056  1.00  0.00    -0.000 C 
BRANCH   6   7
ATOM      7  C   UNL     1     118.399 176.866 127.231  1.00  0.00    -0.000 C 
BRANCH   7   8
ATOM      8  C   UNL     1     117.663 177.066 125.893  1.00  0.00    -0.000 C 
BRANCH   8   9
ATOM      9  C   UNL     1     116.796 178.342 125.850  1.00  0.00    -0.000 C 
BRANCH   9  10
ATOM     10  C   UNL     1     116.428 178.740 124.410  1.00  0.00    -0.000 C 
BRANCH  10  11
ATOM     11  C   UNL     1     114.954 179.152 124.269  1.00  0.00    -0.003 C 
ATOM     12  C   UNL     1     114.293 179.452 125.614  1.00  0.00     0.004 C 
ENDBRANCH  10  11
ENDBRANCH   9  10
ENDBRANCH   8   9
ENDBRANCH   7   8
ENDBRANCH   6   7
ENDBRANCH   5   6
ENDBRANCH   4   5
ENDBRANCH   3   4
ENDBRANCH   2   3
ENDBRANCH   1   2
BRANCH   1  13
ATOM     13  C   UNL     1     121.613 178.190 123.893  1.00  0.00     0.000 C 
BRANCH  13  14
ATOM     14  C   UNL     1     121.636 176.648 123.990  1.00  0.00     0.000 C 
BRANCH  14  15
ATOM     15  C   UNL     1     122.882 176.124 124.725  1.00  0.00     0.000 C 
BRANCH  15  16
ATOM     16  C   UNL     1     123.800 177.256 125.212  1.00  0.00     0.000 C 
BRANCH  16  17
ATOM     17  C   UNL     1     125.076 177.388 124.367  1.00  0.00     0.000 C 
BRANCH  17  18
ATOM     18  C   UNL     1     125.421 176.060 123.681  1.00  0.00     0.000 C 
BRANCH  18  19
ATOM     19  C   UNL     1     125.826 176.288 122.218  1.00  0.00     0.000 C 
BRANCH  19  20
ATOM     20  C   UNL     1     125.396 177.668 121.686  1.00  0.00     0.006 C 
BRANCH  20  21
ATOM     21  C   UNL     1     124.442 177.615 120.483  1.00  0.00     0.053 C 
BRANCH  21  22
ATOM     22  C   UNL     1     125.099 178.073 119.216  1.00  0.00     0.041 C 
ATOM     23  O   UNL     1     124.423 178.196 118.159  1.00  0.00    -0.550 OA
ATOM     24  O   UNL     1     126.452 178.385 119.207  1.00  0.00    -0.550 OA
ENDBRANCH  21  22
ENDBRANCH  20  21
ENDBRANCH  19  20
ENDBRANCH  18  19
ENDBRANCH  17  18
ENDBRANCH  16  17
ENDBRANCH  15  16
ENDBRANCH  14  15
ENDBRANCH  13  14
ENDBRANCH   1  13
TORSDOF 20
ENDMDL
MODEL 2
REMARK VINA RESULT:    -5.205      1.147      2.532
REMARK INTER + INTRA:         -14.504
REMARK INTER:                 -11.377
REMARK INTRA:                  -3.127
REMARK UNBOUND:                -3.213
REMARK SMILES CCCCCCCCCCCCCCCCCCCCCC(=O)[O-]
REMARK SMILES IDX 12 1 11 2 10 3 9 4 8 5 7 6 6 7 5 8 4 9 3 10 2 11 1 12 13 13
REMARK SMILES IDX 14 14 15 15 16 16 17 17 18 18 19 19 20 20 21 21 22 22 23 23
REMARK SMILES IDX 24 24
REMARK H PARENT
REMARK Flexibility Score: inf
ROOT
ATOM      1  C   UNL     1     119.250 175.494 126.781  1.00  0.00     0.000 C 
ENDROOT
BRANCH   1   2
ATOM      2  C   UNL     1     119.017 176.525 127.902  1.00  0.00     0.000 C 
BRANCH   2   3
ATOM      3  C   UNL     1     120.274 176.907 128.712  1.00  0.00     0.000 C 
BRANCH   3   4
ATOM      4  C   UNL     1     120.739 178.365 128.543  1.00  0.00    -0.000 C 
BRANCH   4   5
ATOM      5  C   UNL     1     122.094 178.477 127.822  1.00  0.00    -0.000 C 
BRANCH   5   6
ATOM      6  C   UNL     1     121.999 179.280 126.514  1.00  0.00    -0.000 C 
BRANCH   6   7
ATOM      7  C   UNL     1     120.545 179.526 126.082  1.00  0.00    -0.000 C 
BRANCH   7   8
ATOM      8  C   UNL     1     120.308 179.245 124.587  1.00  0.00    -0.000 C 
BRANCH   8   9
ATOM      9  C   UNL     1     119.039 178.411 124.308  1.00  0.00    -0.000 C 
BRANCH   9  10
ATOM     10  C   UNL     1     117.922 178.702 125.325  1.00  0.00    -0.000 C 
BRANCH  10  11
ATOM     11  C   UNL     1     116.543 178.234 124.837  1.00  0.00    -0.003 C 
ATOM     12  C   UNL     1     116.225 178.707 123.419  1.00  0.00     0.004 C 
ENDBRANCH  10  11
ENDBRANCH   9  10
ENDBRANCH   8   9
ENDBRANCH   7   8
ENDBRANCH   6   7
ENDBRANCH   5   6
ENDBRANCH   4   5
ENDBRANCH   3   4
ENDBRANCH   2   3
ENDBRANCH   1   2
BRANCH   1  13
ATOM     13  C   UNL     1     120.728 175.193 126.474  1.00  0.00     0.000 C 
BRANCH  13  14
ATOM     14  C   UNL     1     121.003 174.884 124.986  1.00  0.00     0.000 C 
BRANCH  14  15
ATOM     15  C   UNL     1     121.816 175.992 124.295  1.00  0.00     0.000 C 
BRANCH  15  16
ATOM     16  C   UNL     1     123.229 176.141 124.882  1.00  0.00     0.000 C 
BRANCH  16  17
ATOM     17  C   UNL     1     124.080 177.169 124.121  1.00  0.00     0.000 C 
BRANCH  17  18
ATOM     18  C   UNL     1     125.226 176.484 123.367  1.00  0.00     0.000 C 
BRANCH  18  19
ATOM     19  C   UNL     1     125.556 177.237 122.070  1.00  0.00     0.000 C 
BRANCH  19  20
ATOM     20  C   UNL     1     124.315 177.494 121.195  1.00  0.00     0.006 C 
BRANCH  20  21
ATOM     21  C   UNL     1     124.441 176.985 119.750  1.00  0.00     0.053 C 
BRANCH  21  22
ATOM     22  C   UNL     1     124.923 178.049 118.812  1.00  0.00     0.041 C 
ATOM     23  O   UNL     1     125.338 179.151 119.262  1.00  0.00    -0.550 OA
ATOM     24  O   UNL     1     124.936 177.817 117.443  1.00  0.00    -0.550 OA
ENDBRANCH  21  22
ENDBRANCH  20  21
ENDBRANCH  19  20
ENDBRANCH  18  19
ENDBRANCH  17  18
ENDBRANCH  16  17
ENDBRANCH  15  16
ENDBRANCH  14  15
ENDBRANCH  13  14
ENDBRANCH   1  13
TORSDOF 20
ENDMDL
MODEL 3
REMARK VINA RESULT:    -5.127      1.453      2.845
REMARK INTER + INTRA:         -14.336
REMARK INTER:                 -11.155
REMARK INTRA:                  -3.181
REMARK UNBOUND:                -3.213
REMARK SMILES CCCCCCCCCCCCCCCCCCCCCC(=O)[O-]
REMARK SMILES IDX 12 1 11 2 10 3 9 4 8 5 7 6 6 7 5 8 4 9 3 10 2 11 1 12 13 13
REMARK SMILES IDX 14 14 15 15 16 16 17 17 18 18 19 19 20 20 21 21 22 22 23 23
REMARK SMILES IDX 24 24
REMARK H PARENT
REMARK Flexibility Score: inf
ROOT
ATOM      1  C   UNL     1     121.385 178.011 123.803  1.00  0.00     0.000 C 
ENDROOT
BRANCH   1   2
ATOM      2  C   UNL     1     120.087 178.657 124.320  1.00  0.00     0.000 C 
BRANCH   2   3
ATOM      3  C   UNL     1     120.284 179.823 125.312  1.00  0.00     0.000 C 
BRANCH   3   4
ATOM      4  C   UNL     1     120.607 179.402 126.756  1.00  0.00    -0.000 C 
BRANCH   4   5
ATOM      5  C   UNL     1     122.116 179.215 126.998  1.00  0.00    -0.000 C 
BRANCH   5   6
ATOM      6  C   UNL     1     122.437 177.889 127.707  1.00  0.00    -0.000 C 
BRANCH   6   7
ATOM      7  C   UNL     1     121.173 177.169 128.204  1.00  0.00    -0.000 C 
BRANCH   7   8
ATOM      8  C   UNL     1     121.056 175.729 127.672  1.00  0.00    -0.000 C 
BRANCH   8   9
ATOM      9  C   UNL     1     119.616 175.329 127.283  1.00  0.00    -0.000 C 
BRANCH   9  10
ATOM     10  C   UNL     1     118.632 176.503 127.428  1.00  0.00    -0.000 C 
BRANCH  10  11
ATOM     11  C   UNL     1     117.877 176.804 126.124  1.00  0.00    -0.003 C 
ATOM     12  C   UNL     1     116.741 177.808 126.317  1.00  0.00     0.004 C 
ENDBRANCH  10  11
ENDBRANCH   9  10
ENDBRANCH   8   9
ENDBRANCH   7   8
ENDBRANCH   6   7
ENDBRANCH   5   6
ENDBRANCH   4   5
ENDBRANCH   3   4
ENDBRANCH   2   3
ENDBRANCH   1   2
BRANCH   1  13
ATOM     13  C   UNL     1     121.593 176.545 124.228  1.00  0.00     0.000 C 
BRANCH  13  14
ATOM     14  C   UNL     1     123.075 176.164 124.438  1.00  0.00     0.000 C 
BRANCH  14  15
ATOM     15  C   UNL     1     124.018 177.373 124.308  1.00  0.00     0.000 C 
BRANCH  15  16
ATOM     16  C   UNL     1     125.243 177.074 123.427  1.00  0.00     0.000 C 
BRANCH  16  17
ATOM     17  C   UNL     1     124.858 176.696 121.989  1.00  0.00     0.000 C 
BRANCH  17  18
ATOM     18  C   UNL     1     123.908 177.737 121.383  1.00  0.00     0.000 C 
BRANCH  18  19
ATOM     19  C   UNL     1     123.937 177.677 119.848  1.00  0.00     0.000 C 
BRANCH  19  20
ATOM     20  C   UNL     1     125.126 178.444 119.242  1.00  0.00     0.006 C 
BRANCH  20  21
ATOM     21  C   UNL     1     125.953 177.636 118.229  1.00  0.00     0.053 C 
BRANCH  21  22
ATOM     22  C   UNL     1     127.338 177.348 118.726  1.00  0.00     0.041 C 
ATOM     23  O   UNL     1     128.096 176.577 118.081  1.00  0.00    -0.550 OA
ATOM     24  O   UNL     1     127.798 177.950 119.891  1.00  0.00    -0.550 OA
ENDBRANCH  21  22
ENDBRANCH  20  21
ENDBRANCH  19  20
ENDBRANCH  18  19
ENDBRANCH  17  18
ENDBRANCH  16  17
ENDBRANCH  15  16
ENDBRANCH  14  15
ENDBRANCH  13  14
ENDBRANCH   1  13
TORSDOF 20
ENDMDL
MODEL 4
REMARK VINA RESULT:    -5.127      3.410      7.850
REMARK INTER + INTRA:         -14.335
REMARK INTER:                 -11.094
REMARK INTRA:                  -3.241
REMARK UNBOUND:                -3.213
REMARK SMILES CCCCCCCCCCCCCCCCCCCCCC(=O)[O-]
REMARK SMILES IDX 12 1 11 2 10 3 9 4 8 5 7 6 6 7 5 8 4 9 3 10 2 11 1 12 13 13
REMARK SMILES IDX 14 14 15 15 16 16 17 17 18 18 19 19 20 20 21 21 22 22 23 23
REMARK SMILES IDX 24 24
REMARK H PARENT
REMARK Flexibility Score: inf
ROOT
ATOM      1  C   UNL     1     119.278 175.152 127.546  1.00  0.00     0.000 C 
ENDROOT
BRANCH   1   2
ATOM      2  C   UNL     1     119.577 175.147 126.035  1.00  0.00     0.000 C 
BRANCH   2   3
ATOM      3  C   UNL     1     120.843 174.368 125.620  1.00  0.00     0.000 C 
BRANCH   3   4
ATOM      4  C   UNL     1     121.975 175.230 125.033  1.00  0.00    -0.000 C 
BRANCH   4   5
ATOM      5  C   UNL     1     121.474 176.229 123.974  1.00  0.00    -0.000 C 
BRANCH   5   6
ATOM      6  C   UNL     1     122.481 177.360 123.710  1.00  0.00    -0.000 C 
BRANCH   6   7
ATOM      7  C   UNL     1     123.682 177.309 124.668  1.00  0.00    -0.000 C 
BRANCH   7   8
ATOM      8  C   UNL     1     125.024 177.128 123.936  1.00  0.00    -0.000 C 
BRANCH   8   9
ATOM      9  C   UNL     1     124.871 176.742 122.449  1.00  0.00    -0.000 C 
BRANCH   9  10
ATOM     10  C   UNL     1     125.575 177.743 121.517  1.00  0.00    -0.000 C 
BRANCH  10  11
ATOM     11  C   UNL     1     125.908 177.138 120.145  1.00  0.00    -0.003 C 
ATOM     12  C   UNL     1     125.003 177.662 119.031  1.00  0.00     0.004 C 
ENDBRANCH  10  11
ENDBRANCH   9  10
ENDBRANCH   8   9
ENDBRANCH   7   8
ENDBRANCH   6   7
ENDBRANCH   5   6
ENDBRANCH   4   5
ENDBRANCH   3   4
ENDBRANCH   2   3
ENDBRANCH   1   2
BRANCH   1  13
ATOM     13  C   UNL     1     119.693 176.438 128.284  1.00  0.00     0.000 C 
BRANCH  13  14
ATOM     14  C   UNL     1     121.219 176.575 128.482  1.00  0.00     0.000 C 
BRANCH  14  15
ATOM     15  C   UNL     1     121.779 177.867 127.861  1.00  0.00     0.000 C 
BRANCH  15  16
ATOM     16  C   UNL     1     120.677 178.884 127.521  1.00  0.00     0.000 C 
BRANCH  16  17
ATOM     17  C   UNL     1     120.818 179.454 126.101  1.00  0.00     0.000 C 
BRANCH  17  18
ATOM     18  C   UNL     1     119.445 179.784 125.502  1.00  0.00     0.000 C 
BRANCH  18  19
ATOM     19  C   UNL     1     118.755 178.514 124.982  1.00  0.00     0.000 C 
BRANCH  19  20
ATOM     20  C   UNL     1     117.492 178.149 125.782  1.00  0.00     0.006 C 
BRANCH  20  21
ATOM     21  C   UNL     1     116.185 178.226 124.976  1.00  0.00     0.053 C 
BRANCH  21  22
ATOM     22  C   UNL     1     115.791 179.638 124.664  1.00  0.00     0.041 C 
ATOM     23  O   UNL     1     115.831 180.520 125.563  1.00  0.00    -0.550 OA
ATOM     24  O   UNL     1     115.403 179.983 123.376  1.00  0.00    -0.550 OA
ENDBRANCH  21  22
ENDBRANCH  20  21
ENDBRANCH  19  20
ENDBRANCH  18  19
ENDBRANCH  17  18
ENDBRANCH  16  17
ENDBRANCH  15  16
ENDBRANCH  14  15
ENDBRANCH  13  14
ENDBRANCH   1  13
TORSDOF 20
ENDMDL
MODEL 5
REMARK VINA RESULT:    -5.118      3.017      7.562
REMARK INTER + INTRA:         -14.315
REMARK INTER:                 -10.949
REMARK INTRA:                  -3.366
REMARK UNBOUND:                -3.213
REMARK SMILES CCCCCCCCCCCCCCCCCCCCCC(=O)[O-]
REMARK SMILES IDX 12 1 11 2 10 3 9 4 8 5 7 6 6 7 5 8 4 9 3 10 2 11 1 12 13 13
REMARK SMILES IDX 14 14 15 15 16 16 17 17 18 18 19 19 20 20 21 21 22 22 23 23
REMARK SMILES IDX 24 24
REMARK H PARENT
REMARK Flexibility Score: inf
ROOT
ATOM      1  C   UNL     1     121.055 179.613 126.340  1.00  0.00     0.000 C 
ENDROOT
BRANCH   1   2
ATOM      2  C   UNL     1     119.954 179.316 125.305  1.00  0.00     0.000 C 
BRANCH   2   3
ATOM      3  C   UNL     1     120.422 178.547 124.051  1.00  0.00     0.000 C 
BRANCH   3   4
ATOM      4  C   UNL     1     120.761 177.064 124.286  1.00  0.00    -0.000 C 
BRANCH   4   5
ATOM      5  C   UNL     1     122.113 176.658 123.673  1.00  0.00    -0.000 C 
BRANCH   5   6
ATOM      6  C   UNL     1     123.189 176.403 124.741  1.00  0.00    -0.000 C 
BRANCH   6   7
ATOM      7  C   UNL     1     124.327 177.435 124.682  1.00  0.00    -0.000 C 
BRANCH   7   8
ATOM      8  C   UNL     1     125.601 176.884 124.016  1.00  0.00    -0.000 C 
BRANCH   8   9
ATOM      9  C   UNL     1     125.451 176.644 122.498  1.00  0.00    -0.000 C 
BRANCH   9  10
ATOM     10  C   UNL     1     125.986 177.827 121.672  1.00  0.00    -0.000 C 
BRANCH  10  11
ATOM     11  C   UNL     1     125.115 178.131 120.444  1.00  0.00    -0.003 C 
ATOM     12  C   UNL     1     123.724 177.503 120.535  1.00  0.00     0.004 C 
ENDBRANCH  10  11
ENDBRANCH   9  10
ENDBRANCH   8   9
ENDBRANCH   7   8
ENDBRANCH   6   7
ENDBRANCH   5   6
ENDBRANCH   4   5
ENDBRANCH   3   4
ENDBRANCH   2   3
ENDBRANCH   1   2
BRANCH   1  13
ATOM     13  C   UNL     1     120.891 178.885 127.687  1.00  0.00     0.000 C 
BRANCH  13  14
ATOM     14  C   UNL     1     122.122 178.045 128.092  1.00  0.00     0.000 C 
BRANCH  14  15
ATOM     15  C   UNL     1     121.835 176.533 128.075  1.00  0.00     0.000 C 
BRANCH  15  16
ATOM     16  C   UNL     1     120.423 176.195 128.581  1.00  0.00     0.000 C 
BRANCH  16  17
ATOM     17  C   UNL     1     119.676 175.231 127.646  1.00  0.00     0.000 C 
BRANCH  17  18
ATOM     18  C   UNL     1     118.701 175.991 126.738  1.00  0.00     0.000 C 
BRANCH  18  19
ATOM     19  C   UNL     1     117.717 176.827 127.569  1.00  0.00     0.000 C 
BRANCH  19  20
ATOM     20  C   UNL     1     116.966 177.877 126.729  1.00  0.00     0.006 C 
BRANCH  20  21
ATOM     21  C   UNL     1     116.703 177.456 125.274  1.00  0.00     0.053 C 
BRANCH  21  22
ATOM     22  C   UNL     1     116.430 178.630 124.384  1.00  0.00     0.041 C 
ATOM     23  O   UNL     1     115.976 179.701 124.867  1.00  0.00    -0.550 OA
ATOM     24  O   UNL     1     116.698 178.547 123.023  1.00  0.00    -0.550 OA
ENDBRANCH  21  22
ENDBRANCH  20  21
ENDBRANCH  19  20
ENDBRANCH  18  19
ENDBRANCH  17  18
ENDBRANCH  16  17
ENDBRANCH  15  16
ENDBRANCH  14  15
ENDBRANCH  13  14
ENDBRANCH   1  13
TORSDOF 20
ENDMDL
MODEL 6
REMARK VINA RESULT:    -5.115      3.222      8.358
REMARK INTER + INTRA:         -14.309
REMARK INTER:                 -11.222
REMARK INTRA:                  -3.087
REMARK UNBOUND:                -3.213
REMARK SMILES CCCCCCCCCCCCCCCCCCCCCC(=O)[O-]
REMARK SMILES IDX 12 1 11 2 10 3 9 4 8 5 7 6 6 7 5 8 4 9 3 10 2 11 1 12 13 13
REMARK SMILES IDX 14 14 15 15 16 16 17 17 18 18 19 19 20 20 21 21 22 22 23 23
REMARK SMILES IDX 24 24
REMARK H PARENT
REMARK Flexibility Score: inf
ROOT
ATOM      1  C   UNL     1     123.091 177.131 125.021  1.00  0.00     0.000 C 
ENDROOT
BRANCH   1   2
ATOM      2  C   UNL     1     122.646 177.600 123.624  1.00  0.00     0.000 C 
BRANCH   2   3
ATOM      3  C   UNL     1     123.523 177.102 122.454  1.00  0.00     0.000 C 
BRANCH   3   4
ATOM      4  C   UNL     1     123.657 178.085 121.277  1.00  0.00    -0.000 C 
BRANCH   4   5
ATOM      5  C   UNL     1     124.800 177.712 120.318  1.00  0.00    -0.000 C 
BRANCH   5   6
ATOM      6  C   UNL     1     125.932 176.946 121.022  1.00  0.00    -0.000 C 
BRANCH   6   7
ATOM      7  C   UNL     1     127.151 177.836 121.311  1.00  0.00    -0.000 C 
BRANCH   7   8
ATOM      8  C   UNL     1     127.056 178.559 122.667  1.00  0.00    -0.000 C 
BRANCH   8   9
ATOM      9  C   UNL     1     126.977 177.601 123.875  1.00  0.00    -0.000 C 
BRANCH   9  10
ATOM     10  C   UNL     1     128.210 176.685 123.966  1.00  0.00    -0.000 C 
BRANCH  10  11
ATOM     11  C   UNL     1     127.838 175.219 124.233  1.00  0.00    -0.003 C 
ATOM     12  C   UNL     1     126.378 174.910 123.905  1.00  0.00     0.004 C 
ENDBRANCH  10  11
ENDBRANCH   9  10
ENDBRANCH   8   9
ENDBRANCH   7   8
ENDBRANCH   6   7
ENDBRANCH   5   6
ENDBRANCH   4   5
ENDBRANCH   3   4
ENDBRANCH   2   3
ENDBRANCH   1   2
BRANCH   1  13
ATOM     13  C   UNL     1     124.018 178.107 125.768  1.00  0.00     0.000 C 
BRANCH  13  14
ATOM     14  C   UNL     1     123.318 178.880 126.908  1.00  0.00     0.000 C 
BRANCH  14  15
ATOM     15  C   UNL     1     122.015 178.200 127.365  1.00  0.00     0.000 C 
BRANCH  15  16
ATOM     16  C   UNL     1     120.812 179.158 127.344  1.00  0.00     0.000 C 
BRANCH  16  17
ATOM     17  C   UNL     1     120.512 179.699 125.938  1.00  0.00     0.000 C 
BRANCH  17  18
ATOM     18  C   UNL     1     119.134 179.232 125.452  1.00  0.00     0.000 C 
BRANCH  18  19
ATOM     19  C   UNL     1     119.205 177.800 124.901  1.00  0.00     0.000 C 
BRANCH  19  20
ATOM     20  C   UNL     1     118.375 176.800 125.726  1.00  0.00     0.006 C 
BRANCH  20  21
ATOM     21  C   UNL     1     119.210 175.871 126.623  1.00  0.00     0.053 C 
BRANCH  21  22
ATOM     22  C   UNL     1     119.556 174.583 125.940  1.00  0.00     0.041 C 
ATOM     23  O   UNL     1     118.810 173.576 126.069  1.00  0.00    -0.550 OA
ATOM     24  O   UNL     1     120.691 174.501 125.143  1.00  0.00    -0.550 OA
ENDBRANCH  21  22
ENDBRANCH  20  21
ENDBRANCH  19  20
ENDBRANCH  18  19
ENDBRANCH  17  18
ENDBRANCH  16  17
ENDBRANCH  15  16
ENDBRANCH  14  15
ENDBRANCH  13  14
ENDBRANCH   1  13
TORSDOF 20
ENDMDL
MODEL 7
REMARK VINA RESULT:    -5.103      3.212      8.489
REMARK INTER + INTRA:         -14.282
REMARK INTER:                 -10.760
REMARK INTRA:                  -3.522
REMARK UNBOUND:                -3.213
REMARK SMILES CCCCCCCCCCCCCCCCCCCCCC(=O)[O-]
REMARK SMILES IDX 12 1 11 2 10 3 9 4 8 5 7 6 6 7 5 8 4 9 3 10 2 11 1 12 13 13
REMARK SMILES IDX 14 14 15 15 16 16 17 17 18 18 19 19 20 20 21 21 22 22 23 23
REMARK SMILES IDX 24 24
REMARK H PARENT
REMARK Flexibility Score: inf
ROOT
ATOM      1  C   UNL     1     122.997 177.562 122.559  1.00  0.00     0.000 C 
ENDROOT
BRANCH   1   2
ATOM      2  C   UNL     1     123.761 177.815 121.247  1.00  0.00     0.000 C 
BRANCH   2   3
ATOM      3  C   UNL     1     125.138 177.125 121.146  1.00  0.00     0.000 C 
BRANCH   3   4
ATOM      4  C   UNL     1     126.235 177.958 120.459  1.00  0.00    -0.000 C 
BRANCH   4   5
ATOM      5  C   UNL     1     127.500 178.106 121.323  1.00  0.00    -0.000 C 
BRANCH   5   6
ATOM      6  C   UNL     1     127.175 178.394 122.797  1.00  0.00    -0.000 C 
BRANCH   6   7
ATOM      7  C   UNL     1     128.068 177.596 123.761  1.00  0.00    -0.000 C 
BRANCH   7   8
ATOM      8  C   UNL     1     127.320 176.443 124.454  1.00  0.00    -0.000 C 
BRANCH   8   9
ATOM      9  C   UNL     1     127.782 175.043 123.996  1.00  0.00    -0.000 C 
BRANCH   9  10
ATOM     10  C   UNL     1     126.716 174.332 123.145  1.00  0.00    -0.000 C 
BRANCH  10  11
ATOM     11  C   UNL     1     127.095 174.266 121.659  1.00  0.00    -0.003 C 
ATOM     12  C   UNL     1     128.582 174.519 121.415  1.00  0.00     0.004 C 
ENDBRANCH  10  11
ENDBRANCH   9  10
ENDBRANCH   8   9
ENDBRANCH   7   8
ENDBRANCH   6   7
ENDBRANCH   5   6
ENDBRANCH   4   5
ENDBRANCH   3   4
ENDBRANCH   2   3
ENDBRANCH   1   2
BRANCH   1  13
ATOM     13  C   UNL     1     123.860 177.036 123.721  1.00  0.00     0.000 C 
BRANCH  13  14
ATOM     14  C   UNL     1     123.130 176.019 124.625  1.00  0.00     0.000 C 
BRANCH  14  15
ATOM     15  C   UNL     1     121.643 175.867 124.260  1.00  0.00     0.000 C 
BRANCH  15  16
ATOM     16  C   UNL     1     120.803 175.317 125.424  1.00  0.00     0.000 C 
BRANCH  16  17
ATOM     17  C   UNL     1     119.557 176.170 125.708  1.00  0.00     0.000 C 
BRANCH  17  18
ATOM     18  C   UNL     1     119.548 177.435 124.840  1.00  0.00     0.000 C 
BRANCH  18  19
ATOM     19  C   UNL     1     119.306 178.686 125.699  1.00  0.00     0.000 C 
BRANCH  19  20
ATOM     20  C   UNL     1     120.274 178.790 126.891  1.00  0.00     0.006 C 
BRANCH  20  21
ATOM     21  C   UNL     1     121.661 179.350 126.535  1.00  0.00     0.053 C 
BRANCH  21  22
ATOM     22  C   UNL     1     122.771 178.550 127.146  1.00  0.00     0.041 C 
ATOM     23  O   UNL     1     123.971 178.888 126.964  1.00  0.00    -0.550 OA
ATOM     24  O   UNL     1     122.478 177.445 127.936  1.00  0.00    -0.550 OA
ENDBRANCH  21  22
ENDBRANCH  20  21
ENDBRANCH  19  20
ENDBRANCH  18  19
ENDBRANCH  17  18
ENDBRANCH  16  17
ENDBRANCH  15  16
ENDBRANCH  14  15
ENDBRANCH  13  14
ENDBRANCH   1  13
TORSDOF 20
ENDMDL
MODEL 8
REMARK VINA RESULT:    -5.058      4.136      8.516
REMARK INTER + INTRA:         -14.184
REMARK INTER:                 -10.951
REMARK INTRA:                  -3.233
REMARK UNBOUND:                -3.213
REMARK SMILES CCCCCCCCCCCCCCCCCCCCCC(=O)[O-]
REMARK SMILES IDX 12 1 11 2 10 3 9 4 8 5 7 6 6 7 5 8 4 9 3 10 2 11 1 12 13 13
REMARK SMILES IDX 14 14 15 15 16 16 17 17 18 18 19 19 20 20 21 21 22 22 23 23
REMARK SMILES IDX 24 24
REMARK H PARENT
REMARK Flexibility Score: inf
ROOT
ATOM      1  C   UNL     1     122.502 177.767 123.173  1.00  0.00     0.000 C 
ENDROOT
BRANCH   1   2
ATOM      2  C   UNL     1     123.504 177.238 122.130  1.00  0.00     0.000 C 
BRANCH   2   3
ATOM      3  C   UNL     1     123.664 178.114 120.870  1.00  0.00     0.000 C 
BRANCH   3   4
ATOM      4  C   UNL     1     124.615 177.548 119.800  1.00  0.00    -0.000 C 
BRANCH   4   5
ATOM      5  C   UNL     1     126.091 177.882 120.079  1.00  0.00    -0.000 C 
BRANCH   5   6
ATOM      6  C   UNL     1     126.974 176.626 120.155  1.00  0.00    -0.000 C 
BRANCH   6   7
ATOM      7  C   UNL     1     126.243 175.435 120.796  1.00  0.00    -0.000 C 
BRANCH   7   8
ATOM      8  C   UNL     1     126.935 174.926 122.073  1.00  0.00    -0.000 C 
BRANCH   8   9
ATOM      9  C   UNL     1     126.187 175.298 123.372  1.00  0.00    -0.000 C 
BRANCH   9  10
ATOM     10  C   UNL     1     126.960 176.334 124.206  1.00  0.00    -0.000 C 
BRANCH  10  11
ATOM     11  C   UNL     1     126.698 177.776 123.748  1.00  0.00    -0.003 C 
ATOM     12  C   UNL     1     127.966 178.488 123.279  1.00  0.00     0.004 C 
ENDBRANCH  10  11
ENDBRANCH   9  10
ENDBRANCH   8   9
ENDBRANCH   7   8
ENDBRANCH   6   7
ENDBRANCH   5   6
ENDBRANCH   4   5
ENDBRANCH   3   4
ENDBRANCH   2   3
ENDBRANCH   1   2
BRANCH   1  13
ATOM     13  C   UNL     1     122.062 176.738 124.230  1.00  0.00     0.000 C 
BRANCH  13  14
ATOM     14  C   UNL     1     122.982 176.690 125.470  1.00  0.00     0.000 C 
BRANCH  14  15
ATOM     15  C   UNL     1     123.646 178.046 125.763  1.00  0.00     0.000 C 
BRANCH  15  16
ATOM     16  C   UNL     1     123.104 178.703 127.044  1.00  0.00     0.000 C 
BRANCH  16  17
ATOM     17  C   UNL     1     121.663 179.211 126.884  1.00  0.00     0.000 C 
BRANCH  17  18
ATOM     18  C   UNL     1     120.794 178.781 128.072  1.00  0.00     0.000 C 
BRANCH  18  19
ATOM     19  C   UNL     1     121.474 177.660 128.872  1.00  0.00     0.000 C 
BRANCH  19  20
ATOM     20  C   UNL     1     120.896 176.268 128.561  1.00  0.00     0.006 C 
BRANCH  20  21
ATOM     21  C   UNL     1     121.917 175.123 128.648  1.00  0.00     0.053 C 
BRANCH  21  22
ATOM     22  C   UNL     1     121.596 174.002 127.707  1.00  0.00     0.041 C 
ATOM     23  O   UNL     1     121.980 172.829 127.961  1.00  0.00    -0.550 OA
ATOM     24  O   UNL     1     120.854 174.249 126.559  1.00  0.00    -0.550 OA
ENDBRANCH  21  22
ENDBRANCH  20  21
ENDBRANCH  19  20
ENDBRANCH  18  19
ENDBRANCH  17  18
ENDBRANCH  16  17
ENDBRANCH  15  16
ENDBRANCH  14  15
ENDBRANCH  13  14
ENDBRANCH   1  13
TORSDOF 20
ENDMDL
MODEL 9
REMARK VINA RESULT:    -5.014      1.718      2.267
REMARK INTER + INTRA:         -14.090
REMARK INTER:                 -11.072
REMARK INTRA:                  -3.018
REMARK UNBOUND:                -3.213
REMARK SMILES CCCCCCCCCCCCCCCCCCCCCC(=O)[O-]
REMARK SMILES IDX 12 1 11 2 10 3 9 4 8 5 7 6 6 7 5 8 4 9 3 10 2 11 1 12 13 13
REMARK SMILES IDX 14 14 15 15 16 16 17 17 18 18 19 19 20 20 21 21 22 22 23 23
REMARK SMILES IDX 24 24
REMARK H PARENT
REMARK Flexibility Score: inf
ROOT
ATOM      1  C   UNL     1     119.899 178.953 124.353  1.00  0.00     0.000 C 
ENDROOT
BRANCH   1   2
ATOM      2  C   UNL     1     119.984 179.654 125.722  1.00  0.00     0.000 C 
BRANCH   2   3
ATOM      3  C   UNL     1     121.285 179.397 126.511  1.00  0.00     0.000 C 
BRANCH   3   4
ATOM      4  C   UNL     1     121.084 178.902 127.954  1.00  0.00    -0.000 C 
BRANCH   4   5
ATOM      5  C   UNL     1     121.774 177.553 128.223  1.00  0.00    -0.000 C 
BRANCH   5   6
ATOM      6  C   UNL     1     120.843 176.356 127.972  1.00  0.00    -0.000 C 
BRANCH   6   7
ATOM      7  C   UNL     1     119.367 176.699 128.228  1.00  0.00    -0.000 C 
BRANCH   7   8
ATOM      8  C   UNL     1     118.491 176.552 126.971  1.00  0.00    -0.000 C 
BRANCH   8   9
ATOM      9  C   UNL     1     117.176 177.359 127.035  1.00  0.00    -0.000 C 
BRANCH   9  10
ATOM     10  C   UNL     1     116.637 177.695 125.633  1.00  0.00    -0.000 C 
BRANCH  10  11
ATOM     11  C   UNL     1     115.577 178.806 125.660  1.00  0.00    -0.003 C 
ATOM     12  C   UNL     1     115.464 179.549 124.329  1.00  0.00     0.004 C 
ENDBRANCH  10  11
ENDBRANCH   9  10
ENDBRANCH   8   9
ENDBRANCH   7   8
ENDBRANCH   6   7
ENDBRANCH   5   6
ENDBRANCH   4   5
ENDBRANCH   3   4
ENDBRANCH   2   3
ENDBRANCH   1   2
BRANCH   1  13
ATOM     13  C   UNL     1     121.162 178.172 123.947  1.00  0.00     0.000 C 
BRANCH  13  14
ATOM     14  C   UNL     1     121.085 176.661 124.258  1.00  0.00     0.000 C 
BRANCH  14  15
ATOM     15  C   UNL     1     122.443 176.078 124.686  1.00  0.00     0.000 C 
BRANCH  15  16
ATOM     16  C   UNL     1     123.598 177.074 124.496  1.00  0.00     0.000 C 
BRANCH  16  17
ATOM     17  C   UNL     1     124.553 176.663 123.366  1.00  0.00     0.000 C 
BRANCH  17  18
ATOM     18  C   UNL     1     124.243 177.434 122.076  1.00  0.00     0.000 C 
BRANCH  18  19
ATOM     19  C   UNL     1     125.446 177.413 121.122  1.00  0.00     0.000 C 
BRANCH  19  20
ATOM     20  C   UNL     1     126.667 178.165 121.682  1.00  0.00     0.006 C 
BRANCH  20  21
ATOM     21  C   UNL     1     128.023 177.575 121.262  1.00  0.00     0.053 C 
BRANCH  21  22
ATOM     22  C   UNL     1     128.186 176.152 121.703  1.00  0.00     0.041 C 
ATOM     23  O   UNL     1     128.122 175.856 122.926  1.00  0.00    -0.550 OA
ATOM     24  O   UNL     1     128.385 175.150 120.762  1.00  0.00    -0.550 OA
ENDBRANCH  21  22
ENDBRANCH  20  21
ENDBRANCH  19  20
ENDBRANCH  18  19
ENDBRANCH  17  18
ENDBRANCH  16  17
ENDBRANCH  15  16
ENDBRANCH  14  15
ENDBRANCH  13  14
ENDBRANCH   1  13
TORSDOF 20
ENDMDL
