MODEL 1
REMARK VINA RESULT:    -0.217      0.000      0.000
REMARK INTER + INTRA:           0.210
REMARK INTER:                  -0.332
REMARK INTRA:                   0.541
REMARK UNBOUND:                 0.541
REMARK SMILES CC(=O)CCC=C(C)CCC=C(C)CCC=C(C)C
REMARK SMILES IDX 10 1 11 2 12 3 13 4 14 5 15 6 16 7 18 8 17 9 19 10 9 11 7 12
REMARK SMILES IDX 6 13 8 14 5 15 4 16 2 17 3 18 1 19
REMARK H PARENT
REMARK Flexibility Score: inf
ROOT
ATOM      1  C   UNL     1      30.498  23.793  32.442  1.00  0.00     0.032 C 
ENDROOT
BRANCH   1   2
ATOM      2  C   UNL     1      29.816  24.049  31.118  1.00  0.00    -0.028 C 
ATOM      3  C   UNL     1      30.417  24.536  30.007  1.00  0.00    -0.077 C 
ATOM      4  C   UNL     1      29.591  24.663  28.753  1.00  0.00     0.039 C 
BRANCH   3   5
ATOM      5  C   UNL     1      31.872  24.966  29.970  1.00  0.00     0.034 C 
BRANCH   5   6
ATOM      6  C   UNL     1      32.726  24.030  29.105  1.00  0.00     0.032 C 
BRANCH   6   7
ATOM      7  C   UNL     1      33.956  24.740  28.585  1.00  0.00    -0.028 C 
ATOM      8  C   UNL     1      35.343  22.655  28.492  1.00  0.00     0.039 C 
ATOM      9  C   UNL     1      35.141  24.141  28.328  1.00  0.00    -0.080 C 
ATOM     10  C   UNL     1      36.316  24.968  27.875  1.00  0.00     0.039 C 
ENDBRANCH   6   7
ENDBRANCH   5   6
ENDBRANCH   3   5
ENDBRANCH   1   2
BRANCH   1  11
ATOM     11  C   UNL     1      31.058  25.092  33.034  1.00  0.00     0.034 C 
BRANCH  11  12
ATOM     12  C   UNL     1      32.209  24.826  33.982  1.00  0.00    -0.077 C 
ATOM     13  C   UNL     1      33.467  25.125  33.585  1.00  0.00    -0.028 C 
ATOM     14  C   UNL     1      31.921  24.201  35.326  1.00  0.00     0.039 C 
BRANCH  13  15
ATOM     15  C   UNL     1      34.702  24.927  34.431  1.00  0.00     0.035 C 
BRANCH  15  16
ATOM     16  C   UNL     1      35.841  24.280  33.631  1.00  0.00     0.079 C 
BRANCH  16  17
ATOM     17  C   UNL     1      35.761  24.633  32.168  1.00  0.00     0.130 C 
ATOM     18  O   UNL     1      34.669  24.716  31.626  1.00  0.00    -0.300 OA
ATOM     19  C   UNL     1      36.999  24.885  31.359  1.00  0.00     0.087 C 
ENDBRANCH  16  17
ENDBRANCH  15  16
ENDBRANCH  13  15
ENDBRANCH  11  12
ENDBRANCH   1  11
TORSDOF 9
ENDMDL
MODEL 2
REMARK VINA RESULT:     2.465      1.685      5.032
REMARK INTER + INTRA:           4.303
REMARK INTER:                   3.285
REMARK INTRA:                   1.017
REMARK UNBOUND:                 0.541
REMARK SMILES CC(=O)CCC=C(C)CCC=C(C)CCC=C(C)C
REMARK SMILES IDX 10 1 11 2 12 3 13 4 14 5 15 6 16 7 18 8 17 9 19 10 9 11 7 12
REMARK SMILES IDX 6 13 8 14 5 15 4 16 2 17 3 18 1 19
REMARK H PARENT
REMARK Flexibility Score: inf
ROOT
ATOM      1  C   UNL     1      30.585  25.043  34.760  1.00  0.00     0.032 C 
ENDROOT
BRANCH   1   2
ATOM      2  C   UNL     1      31.361  24.498  35.938  1.00  0.00    -0.028 C 
ATOM      3  C   UNL     1      32.613  23.990  35.885  1.00  0.00    -0.077 C 
ATOM      4  C   UNL     1      33.256  23.554  37.177  1.00  0.00     0.039 C 
BRANCH   3   5
ATOM      5  C   UNL     1      33.391  23.829  34.592  1.00  0.00     0.034 C 
BRANCH   5   6
ATOM      6  C   UNL     1      34.177  25.097  34.232  1.00  0.00     0.032 C 
BRANCH   6   7
ATOM      7  C   UNL     1      34.532  25.118  32.762  1.00  0.00    -0.028 C 
ATOM      8  C   UNL     1      36.953  24.602  33.153  1.00  0.00     0.039 C 
ATOM      9  C   UNL     1      35.775  24.921  32.267  1.00  0.00    -0.080 C 
ATOM     10  C   UNL     1      36.017  25.033  30.784  1.00  0.00     0.039 C 
ENDBRANCH   6   7
ENDBRANCH   5   6
ENDBRANCH   3   5
ENDBRANCH   1   2
BRANCH   1  11
ATOM     11  C   UNL     1      31.454  25.080  33.498  1.00  0.00     0.034 C 
BRANCH  11  12
ATOM     12  C   UNL     1      30.619  24.980  32.239  1.00  0.00    -0.077 C 
ATOM     13  C   UNL     1      31.242  24.982  31.038  1.00  0.00    -0.028 C 
ATOM     14  C   UNL     1      29.115  24.918  32.360  1.00  0.00     0.039 C 
BRANCH  13  15
ATOM     15  C   UNL     1      30.537  24.873  29.707  1.00  0.00     0.035 C 
BRANCH  15  16
ATOM     16  C   UNL     1      31.531  24.706  28.550  1.00  0.00     0.079 C 
BRANCH  16  17
ATOM     17  C   UNL     1      32.339  23.442  28.691  1.00  0.00     0.130 C 
ATOM     18  O   UNL     1      33.470  23.497  29.151  1.00  0.00    -0.300 OA
ATOM     19  C   UNL     1      31.784  22.111  28.276  1.00  0.00     0.087 C 
ENDBRANCH  16  17
ENDBRANCH  15  16
ENDBRANCH  13  15
ENDBRANCH  11  12
ENDBRANCH   1  11
TORSDOF 9
ENDMDL
