MODEL 1
REMARK VINA RESULT:    -6.958      0.000      0.000
REMARK INTER + INTRA:          -8.626
REMARK INTER:                  -8.382
REMARK INTRA:                  -0.245
REMARK UNBOUND:                -0.245
REMARK SMILES O=c1c(O)c(-c2ccc(O)c(O)c2)oc2cc(O)cc(O)c12
REMARK SMILES IDX 5 1 3 2 2 3 1 4 22 5 20 6 19 7 17 8 16 9 15 10 14 11 6 12
REMARK SMILES IDX 7 13 8 14 9 15 13 16 11 17 10 18 12 20 4 22 21 24 18 26
REMARK H PARENT 10 19 12 21 4 23 21 25 18 27
REMARK Flexibility Score: inf
ROOT
ATOM      1  C   UNL     1      18.894  25.069  40.961  1.00  0.00     0.180 A 
ATOM      2  C   UNL     1      19.921  26.018  41.119  1.00  0.00     0.208 A 
ATOM      3  C   UNL     1      19.971  26.774  42.301  1.00  0.00     0.238 A 
ATOM      4  O   UNL     1      20.892  27.620  42.458  1.00  0.00    -0.285 OA
ATOM      5  C   UNL     1      18.987  26.583  43.292  1.00  0.00     0.111 A 
ATOM      6  C   UNL     1      18.962  27.305  44.509  1.00  0.00     0.134 A 
ATOM      7  C   UNL     1      17.942  27.064  45.441  1.00  0.00     0.093 A 
ATOM      8  C   UNL     1      16.948  26.115  45.180  1.00  0.00     0.123 A 
ATOM      9  C   UNL     1      16.968  25.400  43.981  1.00  0.00     0.094 A 
ATOM     10  C   UNL     1      17.976  25.625  43.039  1.00  0.00     0.146 A 
ATOM     11  O   UNL     1      17.974  24.926  41.911  1.00  0.00    -0.452 OA
ENDROOT
BRANCH   1  12
ATOM     12  C   UNL     1      18.785  24.220  39.752  1.00  0.00     0.025 A 
ATOM     13  C   UNL     1      17.704  24.403  38.875  1.00  0.00     0.016 A 
ATOM     14  C   UNL     1      17.571  23.600  37.740  1.00  0.00     0.051 A 
ATOM     15  C   UNL     1      18.507  22.593  37.471  1.00  0.00     0.157 A 
ATOM     16  C   UNL     1      19.712  23.195  39.491  1.00  0.00     0.062 A 
ATOM     17  C   UNL     1      19.580  22.388  38.355  1.00  0.00     0.158 A 
BRANCH  15  18
ATOM     18  O   UNL     1      18.373  21.794  36.336  1.00  0.00    -0.504 OA
ATOM     19  H   UNL     1      19.092  21.760  35.624  1.00  0.00     0.293 HD
ENDBRANCH  15  18
BRANCH  17  20
ATOM     20  O   UNL     1      20.521  21.384  38.125  1.00  0.00    -0.504 OA
ATOM     21  H   UNL     1      20.251  20.444  37.860  1.00  0.00     0.293 HD
ENDBRANCH  17  20
ENDBRANCH   1  12
BRANCH   2  22
ATOM     22  O   UNL     1      20.856  26.223  40.101  1.00  0.00    -0.502 OA
ATOM     23  H   UNL     1      21.644  25.604  39.954  1.00  0.00     0.293 HD
ENDBRANCH   2  22
BRANCH   6  24
ATOM     24  O   UNL     1      19.939  28.259  44.797  1.00  0.00    -0.507 OA
ATOM     25  H   UNL     1      19.779  29.000  45.470  1.00  0.00     0.293 HD
ENDBRANCH   6  24
BRANCH   8  26
ATOM     26  O   UNL     1      15.934  25.875  46.105  1.00  0.00    -0.508 OA
ATOM     27  H   UNL     1      16.085  25.999  47.100  1.00  0.00     0.293 HD
ENDBRANCH   8  26
TORSDOF 6
ENDMDL
MODEL 2
REMARK VINA RESULT:    -6.885     12.077     13.777
REMARK INTER + INTRA:          -8.538
REMARK INTER:                  -8.653
REMARK INTRA:                   0.115
REMARK UNBOUND:                -0.245
REMARK SMILES O=c1c(O)c(-c2ccc(O)c(O)c2)oc2cc(O)cc(O)c12
REMARK SMILES IDX 5 1 3 2 2 3 1 4 22 5 20 6 19 7 17 8 16 9 15 10 14 11 6 12
REMARK SMILES IDX 7 13 8 14 9 15 13 16 11 17 10 18 12 20 4 22 21 24 18 26
REMARK H PARENT 10 19 12 21 4 23 21 25 18 27
REMARK Flexibility Score: inf
ROOT
ATOM      1  C   UNL     1      28.084  23.456  50.077  1.00  0.00     0.180 A 
ATOM      2  C   UNL     1      27.002  23.740  50.931  1.00  0.00     0.208 A 
ATOM      3  C   UNL     1      27.129  23.461  52.302  1.00  0.00     0.238 A 
ATOM      4  O   UNL     1      26.171  23.719  53.079  1.00  0.00    -0.285 OA
ATOM      5  C   UNL     1      28.322  22.887  52.789  1.00  0.00     0.111 A 
ATOM      6  C   UNL     1      28.530  22.572  54.153  1.00  0.00     0.134 A 
ATOM      7  C   UNL     1      29.742  21.993  54.557  1.00  0.00     0.093 A 
ATOM      8  C   UNL     1      30.749  21.725  53.624  1.00  0.00     0.123 A 
ATOM      9  C   UNL     1      30.550  22.034  52.278  1.00  0.00     0.094 A 
ATOM     10  C   UNL     1      29.349  22.612  51.854  1.00  0.00     0.146 A 
ATOM     11  O   UNL     1      29.189  22.902  50.569  1.00  0.00    -0.452 OA
ENDROOT
BRANCH   1  12
ATOM     12  C   UNL     1      28.034  23.739  48.623  1.00  0.00     0.025 A 
ATOM     13  C   UNL     1      29.131  24.356  48.002  1.00  0.00     0.016 A 
ATOM     14  C   UNL     1      29.097  24.651  46.637  1.00  0.00     0.051 A 
ATOM     15  C   UNL     1      27.960  24.348  45.876  1.00  0.00     0.157 A 
ATOM     16  C   UNL     1      26.887  23.456  47.862  1.00  0.00     0.062 A 
ATOM     17  C   UNL     1      26.848  23.752  46.494  1.00  0.00     0.158 A 
BRANCH  15  18
ATOM     18  O   UNL     1      27.930  24.643  44.513  1.00  0.00    -0.504 OA
ATOM     19  H   UNL     1      27.961  25.597  44.177  1.00  0.00     0.293 HD
ENDBRANCH  15  18
BRANCH  17  20
ATOM     20  O   UNL     1      25.695  23.452  45.768  1.00  0.00    -0.504 OA
ATOM     21  H   UNL     1      25.710  23.324  44.763  1.00  0.00     0.293 HD
ENDBRANCH  17  20
ENDBRANCH   1  12
BRANCH   2  22
ATOM     22  O   UNL     1      25.813  24.262  50.417  1.00  0.00    -0.502 OA
ATOM     23  H   UNL     1      25.161  24.789  50.985  1.00  0.00     0.293 HD
ENDBRANCH   2  22
BRANCH   6  24
ATOM     24  O   UNL     1      27.543  22.826  55.106  1.00  0.00    -0.507 OA
ATOM     25  H   UNL     1      27.692  22.639  56.092  1.00  0.00     0.293 HD
ENDBRANCH   6  24
BRANCH   8  26
ATOM     26  O   UNL     1      31.953  21.150  54.024  1.00  0.00    -0.508 OA
ATOM     27  H   UNL     1      32.034  20.646  54.900  1.00  0.00     0.293 HD
ENDBRANCH   8  26
TORSDOF 6
ENDMDL
MODEL 3
REMARK VINA RESULT:    -6.855      1.815      3.367
REMARK INTER + INTRA:          -8.502
REMARK INTER:                  -8.185
REMARK INTRA:                  -0.317
REMARK UNBOUND:                -0.245
REMARK SMILES O=c1c(O)c(-c2ccc(O)c(O)c2)oc2cc(O)cc(O)c12
REMARK SMILES IDX 5 1 3 2 2 3 1 4 22 5 20 6 19 7 17 8 16 9 15 10 14 11 6 12
REMARK SMILES IDX 7 13 8 14 9 15 13 16 11 17 10 18 12 20 4 22 21 24 18 26
REMARK H PARENT 10 19 12 21 4 23 21 25 18 27
REMARK Flexibility Score: inf
ROOT
ATOM      1  C   UNL     1      17.870  24.368  42.517  1.00  0.00     0.180 A 
ATOM      2  C   UNL     1      16.935  23.601  43.238  1.00  0.00     0.208 A 
ATOM      3  C   UNL     1      16.405  24.121  44.430  1.00  0.00     0.238 A 
ATOM      4  O   UNL     1      15.560  23.448  45.079  1.00  0.00    -0.285 OA
ATOM      5  C   UNL     1      16.832  25.384  44.890  1.00  0.00     0.111 A 
ATOM      6  C   UNL     1      16.352  25.978  46.081  1.00  0.00     0.134 A 
ATOM      7  C   UNL     1      16.833  27.234  46.477  1.00  0.00     0.093 A 
ATOM      8  C   UNL     1      17.785  27.907  45.703  1.00  0.00     0.123 A 
ATOM      9  C   UNL     1      18.262  27.327  44.527  1.00  0.00     0.094 A 
ATOM     10  C   UNL     1      17.794  26.076  44.115  1.00  0.00     0.146 A 
ATOM     11  O   UNL     1      18.260  25.550  42.989  1.00  0.00    -0.452 OA
ENDROOT
BRANCH   1  12
ATOM     12  C   UNL     1      18.459  23.897  41.243  1.00  0.00     0.025 A 
ATOM     13  C   UNL     1      17.854  24.256  40.028  1.00  0.00     0.016 A 
ATOM     14  C   UNL     1      18.381  23.806  38.815  1.00  0.00     0.051 A 
ATOM     15  C   UNL     1      19.511  22.978  38.799  1.00  0.00     0.157 A 
ATOM     16  C   UNL     1      19.580  23.049  41.224  1.00  0.00     0.062 A 
ATOM     17  C   UNL     1      20.109  22.594  40.011  1.00  0.00     0.158 A 
BRANCH  15  18
ATOM     18  O   UNL     1      20.035  22.531  37.587  1.00  0.00    -0.504 OA
ATOM     19  H   UNL     1      20.834  21.909  37.552  1.00  0.00     0.293 HD
ENDBRANCH  15  18
BRANCH  17  20
ATOM     20  O   UNL     1      21.226  21.758  40.030  1.00  0.00    -0.504 OA
ATOM     21  H   UNL     1      21.860  21.725  40.819  1.00  0.00     0.293 HD
ENDBRANCH  17  20
ENDBRANCH   1  12
BRANCH   2  22
ATOM     22  O   UNL     1      16.565  22.331  42.787  1.00  0.00    -0.502 OA
ATOM     23  H   UNL     1      15.615  22.107  42.519  1.00  0.00     0.293 HD
ENDBRANCH   2  22
BRANCH   6  24
ATOM     24  O   UNL     1      15.403  25.329  46.874  1.00  0.00    -0.507 OA
ATOM     25  H   UNL     1      14.418  25.334  46.638  1.00  0.00     0.293 HD
ENDBRANCH   6  24
BRANCH   8  26
ATOM     26  O   UNL     1      18.265  29.156  46.095  1.00  0.00    -0.508 OA
ATOM     27  H   UNL     1      18.395  29.906  45.426  1.00  0.00     0.293 HD
ENDBRANCH   8  26
TORSDOF 6
ENDMDL
MODEL 4
REMARK VINA RESULT:    -6.817     12.175     13.599
REMARK INTER + INTRA:          -8.456
REMARK INTER:                  -8.505
REMARK INTRA:                   0.049
REMARK UNBOUND:                -0.245
REMARK SMILES O=c1c(O)c(-c2ccc(O)c(O)c2)oc2cc(O)cc(O)c12
REMARK SMILES IDX 5 1 3 2 2 3 1 4 22 5 20 6 19 7 17 8 16 9 15 10 14 11 6 12
REMARK SMILES IDX 7 13 8 14 9 15 13 16 11 17 10 18 12 20 4 22 21 24 18 26
REMARK H PARENT 10 19 12 21 4 23 21 25 18 27
REMARK Flexibility Score: inf
ROOT
ATOM      1  C   UNL     1      28.841  23.174  49.618  1.00  0.00     0.180 A 
ATOM      2  C   UNL     1      30.055  22.537  49.940  1.00  0.00     0.208 A 
ATOM      3  C   UNL     1      30.290  22.158  51.271  1.00  0.00     0.238 A 
ATOM      4  O   UNL     1      31.368  21.578  51.570  1.00  0.00    -0.285 OA
ATOM      5  C   UNL     1      29.321  22.439  52.257  1.00  0.00     0.111 A 
ATOM      6  C   UNL     1      29.481  22.095  53.620  1.00  0.00     0.134 A 
ATOM      7  C   UNL     1      28.475  22.417  54.543  1.00  0.00     0.093 A 
ATOM      8  C   UNL     1      27.313  23.077  54.127  1.00  0.00     0.123 A 
ATOM      9  C   UNL     1      27.150  23.418  52.784  1.00  0.00     0.094 A 
ATOM     10  C   UNL     1      28.141  23.105  51.849  1.00  0.00     0.146 A 
ATOM     11  O   UNL     1      27.957  23.436  50.576  1.00  0.00    -0.452 OA
ENDROOT
BRANCH   1  12
ATOM     12  C   UNL     1      28.512  23.586  48.234  1.00  0.00     0.025 A 
ATOM     13  C   UNL     1      29.444  24.334  47.496  1.00  0.00     0.016 A 
ATOM     14  C   UNL     1      29.146  24.751  46.197  1.00  0.00     0.051 A 
ATOM     15  C   UNL     1      27.907  24.441  45.621  1.00  0.00     0.157 A 
ATOM     16  C   UNL     1      27.261  23.295  47.661  1.00  0.00     0.062 A 
ATOM     17  C   UNL     1      26.959  23.713  46.360  1.00  0.00     0.158 A 
BRANCH  15  18
ATOM     18  O   UNL     1      27.613  24.858  44.323  1.00  0.00    -0.504 OA
ATOM     19  H   UNL     1      27.840  24.286  43.519  1.00  0.00     0.293 HD
ENDBRANCH  15  18
BRANCH  17  20
ATOM     20  O   UNL     1      25.710  23.402  45.821  1.00  0.00    -0.504 OA
ATOM     21  H   UNL     1      25.087  22.734  46.259  1.00  0.00     0.293 HD
ENDBRANCH  17  20
ENDBRANCH   1  12
BRANCH   2  22
ATOM     22  O   UNL     1      31.019  22.314  48.954  1.00  0.00    -0.502 OA
ATOM     23  H   UNL     1      31.764  22.974  48.766  1.00  0.00     0.293 HD
ENDBRANCH   2  22
BRANCH   6  24
ATOM     24  O   UNL     1      30.630  21.438  54.065  1.00  0.00    -0.507 OA
ATOM     25  H   UNL     1      30.715  20.428  54.027  1.00  0.00     0.293 HD
ENDBRANCH   6  24
BRANCH   8  26
ATOM     26  O   UNL     1      26.313  23.399  55.043  1.00  0.00    -0.508 OA
ATOM     27  H   UNL     1      25.366  23.603  54.742  1.00  0.00     0.293 HD
ENDBRANCH   8  26
TORSDOF 6
ENDMDL
MODEL 5
REMARK VINA RESULT:    -6.579      3.446      6.315
REMARK INTER + INTRA:          -8.170
REMARK INTER:                  -7.847
REMARK INTRA:                  -0.323
REMARK UNBOUND:                -0.245
REMARK SMILES O=c1c(O)c(-c2ccc(O)c(O)c2)oc2cc(O)cc(O)c12
REMARK SMILES IDX 5 1 3 2 2 3 1 4 22 5 20 6 19 7 17 8 16 9 15 10 14 11 6 12
REMARK SMILES IDX 7 13 8 14 9 15 13 16 11 17 10 18 12 20 4 22 21 24 18 26
REMARK H PARENT 10 19 12 21 4 23 21 25 18 27
REMARK Flexibility Score: inf
ROOT
ATOM      1  C   UNL     1      17.232  24.426  42.736  1.00  0.00     0.180 A 
ATOM      2  C   UNL     1      15.902  24.705  42.366  1.00  0.00     0.208 A 
ATOM      3  C   UNL     1      14.929  23.706  42.530  1.00  0.00     0.238 A 
ATOM      4  O   UNL     1      13.733  23.948  42.213  1.00  0.00    -0.285 OA
ATOM      5  C   UNL     1      15.302  22.445  43.039  1.00  0.00     0.111 A 
ATOM      6  C   UNL     1      14.386  21.385  43.232  1.00  0.00     0.134 A 
ATOM      7  C   UNL     1      14.838  20.156  43.734  1.00  0.00     0.093 A 
ATOM      8  C   UNL     1      16.188  19.968  44.047  1.00  0.00     0.123 A 
ATOM      9  C   UNL     1      17.097  21.011  43.860  1.00  0.00     0.094 A 
ATOM     10  C   UNL     1      16.666  22.244  43.361  1.00  0.00     0.146 A 
ATOM     11  O   UNL     1      17.551  23.220  43.199  1.00  0.00    -0.452 OA
ENDROOT
BRANCH   1  12
ATOM     12  C   UNL     1      18.311  25.432  42.610  1.00  0.00     0.025 A 
ATOM     13  C   UNL     1      19.018  25.541  41.402  1.00  0.00     0.016 A 
ATOM     14  C   UNL     1      20.053  26.469  41.269  1.00  0.00     0.051 A 
ATOM     15  C   UNL     1      20.408  27.292  42.346  1.00  0.00     0.157 A 
ATOM     16  C   UNL     1      18.683  26.246  43.696  1.00  0.00     0.062 A 
ATOM     17  C   UNL     1      19.722  27.175  43.566  1.00  0.00     0.158 A 
BRANCH  15  18
ATOM     18  O   UNL     1      21.441  28.219  42.209  1.00  0.00    -0.504 OA
ATOM     19  H   UNL     1      21.920  28.352  41.327  1.00  0.00     0.293 HD
ENDBRANCH  15  18
BRANCH  17  20
ATOM     20  O   UNL     1      20.060  27.969  44.662  1.00  0.00    -0.504 OA
ATOM     21  H   UNL     1      19.811  27.713  45.610  1.00  0.00     0.293 HD
ENDBRANCH  17  20
ENDBRANCH   1  12
BRANCH   2  22
ATOM     22  O   UNL     1      15.567  25.945  41.818  1.00  0.00    -0.502 OA
ATOM     23  H   UNL     1      15.115  26.035  40.916  1.00  0.00     0.293 HD
ENDBRANCH   2  22
BRANCH   6  24
ATOM     24  O   UNL     1      13.033  21.542  42.927  1.00  0.00    -0.507 OA
ATOM     25  H   UNL     1      12.727  21.932  42.042  1.00  0.00     0.293 HD
ENDBRANCH   6  24
BRANCH   8  26
ATOM     26  O   UNL     1      16.639  18.747  44.546  1.00  0.00    -0.508 OA
ATOM     27  H   UNL     1      17.629  18.541  44.625  1.00  0.00     0.293 HD
ENDBRANCH   8  26
TORSDOF 6
ENDMDL
MODEL 6
REMARK VINA RESULT:    -6.574     10.928     12.598
REMARK INTER + INTRA:          -8.164
REMARK INTER:                  -8.334
REMARK INTRA:                   0.170
REMARK UNBOUND:                -0.245
REMARK SMILES O=c1c(O)c(-c2ccc(O)c(O)c2)oc2cc(O)cc(O)c12
REMARK SMILES IDX 5 1 3 2 2 3 1 4 22 5 20 6 19 7 17 8 16 9 15 10 14 11 6 12
REMARK SMILES IDX 7 13 8 14 9 15 13 16 11 17 10 18 12 20 4 22 21 24 18 26
REMARK H PARENT 10 19 12 21 4 23 21 25 18 27
REMARK Flexibility Score: inf
ROOT
ATOM      1  C   UNL     1      27.426  23.576  49.824  1.00  0.00     0.180 A 
ATOM      2  C   UNL     1      27.855  24.280  50.965  1.00  0.00     0.208 A 
ATOM      3  C   UNL     1      27.393  23.873  52.227  1.00  0.00     0.238 A 
ATOM      4  O   UNL     1      27.778  24.490  53.256  1.00  0.00    -0.285 OA
ATOM      5  C   UNL     1      26.498  22.788  52.325  1.00  0.00     0.111 A 
ATOM      6  C   UNL     1      25.982  22.318  53.556  1.00  0.00     0.134 A 
ATOM      7  C   UNL     1      25.087  21.238  53.570  1.00  0.00     0.093 A 
ATOM      8  C   UNL     1      24.699  20.620  52.376  1.00  0.00     0.123 A 
ATOM      9  C   UNL     1      25.205  21.079  51.159  1.00  0.00     0.094 A 
ATOM     10  C   UNL     1      26.099  22.154  51.124  1.00  0.00     0.146 A 
ATOM     11  O   UNL     1      26.569  22.566  49.953  1.00  0.00    -0.452 OA
ENDROOT
BRANCH   1  12
ATOM     12  C   UNL     1      27.883  23.932  48.461  1.00  0.00     0.025 A 
ATOM     13  C   UNL     1      29.218  24.316  48.259  1.00  0.00     0.016 A 
ATOM     14  C   UNL     1      29.666  24.676  46.986  1.00  0.00     0.051 A 
ATOM     15  C   UNL     1      28.783  24.672  45.898  1.00  0.00     0.157 A 
ATOM     16  C   UNL     1      26.995  23.949  47.371  1.00  0.00     0.062 A 
ATOM     17  C   UNL     1      27.440  24.311  46.095  1.00  0.00     0.158 A 
BRANCH  15  18
ATOM     18  O   UNL     1      29.233  25.030  44.628  1.00  0.00    -0.504 OA
ATOM     19  H   UNL     1      29.977  24.520  44.166  1.00  0.00     0.293 HD
ENDBRANCH  15  18
BRANCH  17  20
ATOM     20  O   UNL     1      26.531  24.311  45.036  1.00  0.00    -0.504 OA
ATOM     21  H   UNL     1      25.985  23.492  44.796  1.00  0.00     0.293 HD
ENDBRANCH  17  20
ENDBRANCH   1  12
BRANCH   2  22
ATOM     22  O   UNL     1      28.703  25.383  50.837  1.00  0.00    -0.502 OA
ATOM     23  H   UNL     1      29.711  25.290  50.789  1.00  0.00     0.293 HD
ENDBRANCH   2  22
BRANCH   6  24
ATOM     24  O   UNL     1      26.349  22.915  54.763  1.00  0.00    -0.507 OA
ATOM     25  H   UNL     1      26.296  23.919  54.900  1.00  0.00     0.293 HD
ENDBRANCH   6  24
BRANCH   8  26
ATOM     26  O   UNL     1      23.810  19.547  52.387  1.00  0.00    -0.508 OA
ATOM     27  H   UNL     1      23.851  18.833  53.106  1.00  0.00     0.293 HD
ENDBRANCH   8  26
TORSDOF 6
ENDMDL
MODEL 7
REMARK VINA RESULT:    -6.257      4.125      6.656
REMARK INTER + INTRA:          -7.782
REMARK INTER:                  -7.450
REMARK INTRA:                  -0.332
REMARK UNBOUND:                -0.245
REMARK SMILES O=c1c(O)c(-c2ccc(O)c(O)c2)oc2cc(O)cc(O)c12
REMARK SMILES IDX 5 1 3 2 2 3 1 4 22 5 20 6 19 7 17 8 16 9 15 10 14 11 6 12
REMARK SMILES IDX 7 13 8 14 9 15 13 16 11 17 10 18 12 20 4 22 21 24 18 26
REMARK H PARENT 10 19 12 21 4 23 21 25 18 27
REMARK Flexibility Score: inf
ROOT
ATOM      1  C   UNL     1      16.762  23.462  42.822  1.00  0.00     0.180 A 
ATOM      2  C   UNL     1      15.383  23.576  42.567  1.00  0.00     0.208 A 
ATOM      3  C   UNL     1      14.543  22.495  42.880  1.00  0.00     0.238 A 
ATOM      4  O   UNL     1      13.305  22.588  42.665  1.00  0.00    -0.285 OA
ATOM      5  C   UNL     1      15.097  21.316  43.422  1.00  0.00     0.111 A 
ATOM      6  C   UNL     1      14.323  20.181  43.761  1.00  0.00     0.134 A 
ATOM      7  C   UNL     1      14.951  19.042  44.287  1.00  0.00     0.093 A 
ATOM      8  C   UNL     1      16.337  19.018  44.479  1.00  0.00     0.123 A 
ATOM      9  C   UNL     1      17.104  20.135  44.147  1.00  0.00     0.094 A 
ATOM     10  C   UNL     1      16.498  21.280  43.622  1.00  0.00     0.146 A 
ATOM     11  O   UNL     1      17.252  22.330  43.320  1.00  0.00    -0.452 OA
ENDROOT
BRANCH   1  12
ATOM     12  C   UNL     1      17.709  24.565  42.537  1.00  0.00     0.025 A 
ATOM     13  C   UNL     1      18.387  24.593  41.308  1.00  0.00     0.016 A 
ATOM     14  C   UNL     1      19.299  25.612  41.027  1.00  0.00     0.051 A 
ATOM     15  C   UNL     1      19.559  26.611  41.974  1.00  0.00     0.157 A 
ATOM     16  C   UNL     1      17.987  25.557  43.494  1.00  0.00     0.062 A 
ATOM     17  C   UNL     1      18.902  26.579  43.216  1.00  0.00     0.158 A 
BRANCH  15  18
ATOM     18  O   UNL     1      20.469  27.628  41.690  1.00  0.00    -0.504 OA
ATOM     19  H   UNL     1      20.171  28.509  41.289  1.00  0.00     0.293 HD
ENDBRANCH  15  18
BRANCH  17  20
ATOM     20  O   UNL     1      19.149  27.550  44.187  1.00  0.00    -0.504 OA
ATOM     21  H   UNL     1      20.014  27.574  44.715  1.00  0.00     0.293 HD
ENDBRANCH  17  20
ENDBRANCH   1  12
BRANCH   2  22
ATOM     22  O   UNL     1      14.865  24.735  41.983  1.00  0.00    -0.502 OA
ATOM     23  H   UNL     1      13.942  25.088  42.205  1.00  0.00     0.293 HD
ENDBRANCH   2  22
BRANCH   6  24
ATOM     24  O   UNL     1      12.940  20.176  43.579  1.00  0.00    -0.507 OA
ATOM     25  H   UNL     1      12.298  20.178  44.364  1.00  0.00     0.293 HD
ENDBRANCH   6  24
BRANCH   8  26
ATOM     26  O   UNL     1      16.962  17.887  45.001  1.00  0.00    -0.508 OA
ATOM     27  H   UNL     1      17.896  17.931  45.391  1.00  0.00     0.293 HD
ENDBRANCH   8  26
TORSDOF 6
ENDMDL
MODEL 8
REMARK VINA RESULT:    -6.235      4.276      7.440
REMARK INTER + INTRA:          -7.755
REMARK INTER:                  -7.430
REMARK INTRA:                  -0.325
REMARK UNBOUND:                -0.245
REMARK SMILES O=c1c(O)c(-c2ccc(O)c(O)c2)oc2cc(O)cc(O)c12
REMARK SMILES IDX 5 1 3 2 2 3 1 4 22 5 20 6 19 7 17 8 16 9 15 10 14 11 6 12
REMARK SMILES IDX 7 13 8 14 9 15 13 16 11 17 10 18 12 20 4 22 21 24 18 26
REMARK H PARENT 10 19 12 21 4 23 21 25 18 27
REMARK Flexibility Score: inf
ROOT
ATOM      1  C   UNL     1      16.315  24.047  44.370  1.00  0.00     0.180 A 
ATOM      2  C   UNL     1      15.222  24.015  43.484  1.00  0.00     0.208 A 
ATOM      3  C   UNL     1      14.587  22.787  43.234  1.00  0.00     0.238 A 
ATOM      4  O   UNL     1      13.601  22.748  42.450  1.00  0.00    -0.285 OA
ATOM      5  C   UNL     1      15.066  21.616  43.855  1.00  0.00     0.111 A 
ATOM      6  C   UNL     1      14.487  20.340  43.655  1.00  0.00     0.134 A 
ATOM      7  C   UNL     1      15.028  19.220  44.302  1.00  0.00     0.093 A 
ATOM      8  C   UNL     1      16.136  19.351  45.146  1.00  0.00     0.123 A 
ATOM      9  C   UNL     1      16.711  20.607  45.348  1.00  0.00     0.094 A 
ATOM     10  C   UNL     1      16.186  21.736  44.712  1.00  0.00     0.146 A 
ATOM     11  O   UNL     1      16.749  22.919  44.927  1.00  0.00    -0.452 OA
ENDROOT
BRANCH   1  12
ATOM     12  C   UNL     1      17.025  25.305  44.699  1.00  0.00     0.025 A 
ATOM     13  C   UNL     1      16.571  26.094  45.768  1.00  0.00     0.016 A 
ATOM     14  C   UNL     1      17.213  27.294  46.082  1.00  0.00     0.051 A 
ATOM     15  C   UNL     1      18.307  27.732  45.325  1.00  0.00     0.157 A 
ATOM     16  C   UNL     1      18.110  25.756  43.928  1.00  0.00     0.062 A 
ATOM     17  C   UNL     1      18.754  26.960  44.239  1.00  0.00     0.158 A 
BRANCH  15  18
ATOM     18  O   UNL     1      18.946  28.929  45.642  1.00  0.00    -0.504 OA
ATOM     19  H   UNL     1      19.606  29.362  45.007  1.00  0.00     0.293 HD
ENDBRANCH  15  18
BRANCH  17  20
ATOM     20  O   UNL     1      19.831  27.374  43.455  1.00  0.00    -0.504 OA
ATOM     21  H   UNL     1      19.758  28.150  42.808  1.00  0.00     0.293 HD
ENDBRANCH  17  20
ENDBRANCH   1  12
BRANCH   2  22
ATOM     22  O   UNL     1      14.797  25.181  42.843  1.00  0.00    -0.502 OA
ATOM     23  H   UNL     1      13.827  25.349  42.609  1.00  0.00     0.293 HD
ENDBRANCH   2  22
BRANCH   6  24
ATOM     24  O   UNL     1      13.382  20.177  42.818  1.00  0.00    -0.507 OA
ATOM     25  H   UNL     1      12.860  19.309  42.786  1.00  0.00     0.293 HD
ENDBRANCH   6  24
BRANCH   8  26
ATOM     26  O   UNL     1      16.676  18.239  45.789  1.00  0.00    -0.508 OA
ATOM     27  H   UNL     1      16.335  17.935  46.694  1.00  0.00     0.293 HD
ENDBRANCH   8  26
TORSDOF 6
ENDMDL
MODEL 9
REMARK VINA RESULT:    -6.166      3.538      5.734
REMARK INTER + INTRA:          -7.673
REMARK INTER:                  -7.354
REMARK INTRA:                  -0.319
REMARK UNBOUND:                -0.245
REMARK SMILES O=c1c(O)c(-c2ccc(O)c(O)c2)oc2cc(O)cc(O)c12
REMARK SMILES IDX 5 1 3 2 2 3 1 4 22 5 20 6 19 7 17 8 16 9 15 10 14 11 6 12
REMARK SMILES IDX 7 13 8 14 9 15 13 16 11 17 10 18 12 20 4 22 21 24 18 26
REMARK H PARENT 10 19 12 21 4 23 21 25 18 27
REMARK Flexibility Score: inf
ROOT
ATOM      1  C   UNL     1      17.221  23.309  42.595  1.00  0.00     0.180 A 
ATOM      2  C   UNL     1      17.528  24.439  43.377  1.00  0.00     0.208 A 
ATOM      3  C   UNL     1      18.197  25.518  42.777  1.00  0.00     0.238 A 
ATOM      4  O   UNL     1      18.467  26.539  43.465  1.00  0.00    -0.285 OA
ATOM      5  C   UNL     1      18.564  25.442  41.418  1.00  0.00     0.111 A 
ATOM      6  C   UNL     1      19.243  26.482  40.740  1.00  0.00     0.134 A 
ATOM      7  C   UNL     1      19.583  26.326  39.388  1.00  0.00     0.093 A 
ATOM      8  C   UNL     1      19.257  25.150  38.703  1.00  0.00     0.123 A 
ATOM      9  C   UNL     1      18.587  24.122  39.367  1.00  0.00     0.094 A 
ATOM     10  C   UNL     1      18.239  24.258  40.714  1.00  0.00     0.146 A 
ATOM     11  O   UNL     1      17.597  23.266  41.319  1.00  0.00    -0.452 OA
ENDROOT
BRANCH   1  12
ATOM     12  C   UNL     1      16.501  22.140  43.150  1.00  0.00     0.025 A 
ATOM     13  C   UNL     1      15.099  22.154  43.203  1.00  0.00     0.016 A 
ATOM     14  C   UNL     1      14.401  21.071  43.741  1.00  0.00     0.051 A 
ATOM     15  C   UNL     1      15.093  19.964  44.248  1.00  0.00     0.157 A 
ATOM     16  C   UNL     1      17.195  21.037  43.678  1.00  0.00     0.062 A 
ATOM     17  C   UNL     1      16.498  19.951  44.220  1.00  0.00     0.158 A 
BRANCH  15  18
ATOM     18  O   UNL     1      14.394  18.883  44.784  1.00  0.00    -0.504 OA
ATOM     19  H   UNL     1      13.827  18.278  44.202  1.00  0.00     0.293 HD
ENDBRANCH  15  18
BRANCH  17  20
ATOM     20  O   UNL     1      17.219  18.870  44.731  1.00  0.00    -0.504 OA
ATOM     21  H   UNL     1      17.997  18.458  44.230  1.00  0.00     0.293 HD
ENDBRANCH  17  20
ENDBRANCH   1  12
BRANCH   2  22
ATOM     22  O   UNL     1      17.197  24.470  44.734  1.00  0.00    -0.502 OA
ATOM     23  H   UNL     1      17.898  24.541  45.462  1.00  0.00     0.293 HD
ENDBRANCH   2  22
BRANCH   6  24
ATOM     24  O   UNL     1      19.583  27.666  41.397  1.00  0.00    -0.507 OA
ATOM     25  H   UNL     1      20.060  27.661  42.292  1.00  0.00     0.293 HD
ENDBRANCH   6  24
BRANCH   8  26
ATOM     26  O   UNL     1      19.595  24.993  37.360  1.00  0.00    -0.508 OA
ATOM     27  H   UNL     1      18.985  24.504  36.715  1.00  0.00     0.293 HD
ENDBRANCH   8  26
TORSDOF 6
ENDMDL
