MODEL 1
REMARK VINA RESULT:    -4.159      0.000      0.000
REMARK INTER + INTRA:          -5.132
REMARK INTER:                  -5.861
REMARK INTRA:                   0.730
REMARK UNBOUND:                 0.730
REMARK SMILES CC1=CCC(=C(C)C)C(=O)CC(C)=CCC1
REMARK SMILES IDX 12 1 14 2 13 3 15 4 16 5 2 6 1 7 3 8 11 10 9 11 10 12 5 13
REMARK SMILES IDX 6 14 7 15 8 16 4 17
REMARK H PARENT
REMARK Flexibility Score: 60.00
ROOT
ATOM      1  C   UNL     1      -2.519  28.753  54.427  1.00  0.00    -0.070 C 
ATOM      2  C   UNL     1      -2.811  29.884  53.749  1.00  0.00    -0.027 C 
ATOM      3  C   UNL     1      -2.289  28.858  55.913  1.00  0.00     0.039 C 
ENDROOT
BRANCH   2   4
ATOM      4  C   UNL     1      -2.979  29.998  52.250  1.00  0.00     0.032 C 
BRANCH   4   5
ATOM      5  C   UNL     1      -2.099  31.074  51.579  1.00  0.00     0.034 C 
BRANCH   5   6
ATOM      6  C   UNL     1      -0.995  30.489  50.715  1.00  0.00    -0.077 C 
ATOM      7  C   UNL     1      -1.104  30.667  49.222  1.00  0.00     0.039 C 
ATOM      8  C   UNL     1       0.041  29.758  51.193  1.00  0.00    -0.023 CG0
ATOM      9  G   UNL     1       0.363  29.466  52.646  1.00  0.00     0.000 G0
ENDBRANCH   5   6
ENDBRANCH   4   5
ENDBRANCH   2   4
BRANCH   1  10
ATOM     10  C   UNL     1      -2.321  27.409  53.754  1.00  0.00     0.111 C 
BRANCH  10  11
ATOM     11  C   UNL     1      -1.214  27.455  52.734  1.00  0.00     0.163 C 
ATOM     12  O   UNL     1      -1.429  26.946  51.601  1.00  0.00    -0.294 OA
BRANCH  11  13
ATOM     13  C   UNL     1       0.133  28.022  53.039  1.00  0.00    -0.002 C 
ATOM     14  C   UNL     1       1.066  27.284  53.714  1.00  0.00    -0.069 C 
ATOM     15  C   UNL     1       2.377  27.881  54.176  1.00  0.00     0.039 C 
ATOM     16  C   UNL     1       0.829  25.826  54.036  1.00  0.00     0.039 C 
BRANCH  13  17
ATOM     17  C   UNL     1       0.381  29.472  52.653  1.00  0.00     0.066 CG0
ATOM     18  G   UNL     1       0.038  29.748  51.203  1.00  0.00     0.000 G0
ENDBRANCH  13  17
ENDBRANCH  11  13
ENDBRANCH  10  11
ENDBRANCH   1  10
TORSDOF 0
ENDMDL
MODEL 2
REMARK VINA RESULT:    -3.416      7.569      9.683
REMARK INTER + INTRA:          -4.084
REMARK INTER:                  -4.675
REMARK INTRA:                   0.592
REMARK UNBOUND:                 0.730
REMARK SMILES CC1=CCC(=C(C)C)C(=O)CC(C)=CCC1
REMARK SMILES IDX 12 1 14 2 13 3 15 4 16 5 2 6 1 7 3 8 11 10 9 11 10 12 5 13
REMARK SMILES IDX 6 14 7 15 8 16 4 17
REMARK H PARENT
REMARK Flexibility Score: 60.00
ROOT
ATOM      1  C   UNL     1      -0.568  33.702  62.385  1.00  0.00    -0.070 C 
ATOM      2  C   UNL     1      -0.652  34.876  61.723  1.00  0.00    -0.027 C 
ATOM      3  C   UNL     1      -0.358  33.746  63.878  1.00  0.00     0.039 C 
ENDROOT
BRANCH   2   4
ATOM      4  C   UNL     1      -0.764  35.039  60.223  1.00  0.00     0.032 C 
BRANCH   4   5
ATOM      5  C   UNL     1      -2.119  35.588  59.729  1.00  0.00     0.034 C 
BRANCH   5   6
ATOM      6  C   UNL     1      -3.303  35.045  60.509  1.00  0.00    -0.077 C 
ATOM      7  C   UNL     1      -3.944  35.949  61.531  1.00  0.00     0.039 C 
ATOM      8  C   UNL     1      -3.777  33.780  60.395  1.00  0.00    -0.023 CG0
ATOM      9  G   UNL     1      -3.307  32.710  59.429  1.00  0.00     0.000 G0
ENDBRANCH   5   6
ENDBRANCH   4   5
ENDBRANCH   2   4
BRANCH   1  10
ATOM     10  C   UNL     1      -0.581  32.354  61.692  1.00  0.00     0.111 C 
BRANCH  10  11
ATOM     11  C   UNL     1      -1.985  31.862  61.458  1.00  0.00     0.163 C 
ATOM     12  O   UNL     1      -2.707  31.627  62.464  1.00  0.00    -0.294 OA
BRANCH  11  13
ATOM     13  C   UNL     1      -2.521  31.590  60.091  1.00  0.00    -0.002 C 
ATOM     14  C   UNL     1      -2.233  30.417  59.449  1.00  0.00    -0.069 C 
ATOM     15  C   UNL     1      -2.626  30.177  58.008  1.00  0.00     0.039 C 
ATOM     16  C   UNL     1      -1.499  29.297  60.152  1.00  0.00     0.039 C 
BRANCH  13  17
ATOM     17  C   UNL     1      -3.311  32.701  59.419  1.00  0.00     0.066 CG0
ATOM     18  G   UNL     1      -3.761  33.763  60.403  1.00  0.00     0.000 G0
ENDBRANCH  13  17
ENDBRANCH  11  13
ENDBRANCH  10  11
ENDBRANCH   1  10
TORSDOF 0
ENDMDL
MODEL 3
REMARK VINA RESULT:    -3.270      8.401     10.978
REMARK INTER + INTRA:          -3.879
REMARK INTER:                  -4.426
REMARK INTRA:                   0.547
REMARK UNBOUND:                 0.730
REMARK SMILES CC1=CCC(=C(C)C)C(=O)CC(C)=CCC1
REMARK SMILES IDX 12 1 14 2 13 3 15 4 16 5 2 6 1 7 3 8 11 10 9 11 10 12 5 13
REMARK SMILES IDX 6 14 7 15 8 16 4 17
REMARK H PARENT
REMARK Flexibility Score: 60.00
ROOT
ATOM      1  C   UNL     1      -0.604  33.699  62.481  1.00  0.00    -0.070 C 
ATOM      2  C   UNL     1      -0.064  32.653  61.817  1.00  0.00    -0.027 C 
ATOM      3  C   UNL     1      -0.236  33.880  63.932  1.00  0.00     0.039 C 
ENDROOT
BRANCH   2   4
ATOM      4  C   UNL     1      -0.383  32.250  60.394  1.00  0.00     0.032 C 
BRANCH   4   5
ATOM      5  C   UNL     1      -1.158  30.922  60.254  1.00  0.00     0.034 C 
BRANCH   5   6
ATOM      6  C   UNL     1      -2.643  31.121  60.007  1.00  0.00    -0.077 C 
ATOM      7  C   UNL     1      -3.136  31.019  58.585  1.00  0.00     0.039 C 
ATOM      8  C   UNL     1      -3.539  31.451  60.968  1.00  0.00    -0.023 CG0
ATOM      9  G   UNL     1      -3.278  31.588  62.455  1.00  0.00     0.000 G0
ENDBRANCH   5   6
ENDBRANCH   4   5
ENDBRANCH   2   4
BRANCH   1  10
ATOM     10  C   UNL     1      -1.624  34.636  61.867  1.00  0.00     0.111 C 
BRANCH  10  11
ATOM     11  C   UNL     1      -3.025  34.100  62.004  1.00  0.00     0.163 C 
ATOM     12  O   UNL     1      -3.934  34.628  61.309  1.00  0.00    -0.294 OA
BRANCH  11  13
ATOM     13  C   UNL     1      -3.378  33.018  62.972  1.00  0.00    -0.002 C 
ATOM     14  C   UNL     1      -3.687  33.315  64.270  1.00  0.00    -0.069 C 
ATOM     15  C   UNL     1      -3.892  32.236  65.311  1.00  0.00     0.039 C 
ATOM     16  C   UNL     1      -3.835  34.747  64.733  1.00  0.00     0.039 C 
BRANCH  13  17
ATOM     17  C   UNL     1      -3.285  31.584  62.476  1.00  0.00     0.066 CG0
ATOM     18  G   UNL     1      -3.525  31.475  60.983  1.00  0.00     0.000 G0
ENDBRANCH  13  17
ENDBRANCH  11  13
ENDBRANCH  10  11
ENDBRANCH   1  10
TORSDOF 0
ENDMDL
MODEL 4
REMARK VINA RESULT:    -2.974      7.742     10.072
REMARK INTER + INTRA:          -3.462
REMARK INTER:                  -4.955
REMARK INTRA:                   1.493
REMARK UNBOUND:                 0.730
REMARK SMILES CC1=CCC(=C(C)C)C(=O)CC(C)=CCC1
REMARK SMILES IDX 12 1 14 2 13 3 15 4 16 5 2 6 1 7 3 8 11 10 9 11 10 12 5 13
REMARK SMILES IDX 6 14 7 15 8 16 4 17
REMARK H PARENT
REMARK Flexibility Score: 60.00
ROOT
ATOM      1  C   UNL     1      -0.757  33.401  62.307  1.00  0.00    -0.070 C 
ATOM      2  C   UNL     1      -0.518  32.335  61.512  1.00  0.00    -0.027 C 
ATOM      3  C   UNL     1      -0.026  33.480  63.623  1.00  0.00     0.039 C 
ENDROOT
BRANCH   2   4
ATOM      4  C   UNL     1      -1.221  32.030  60.208  1.00  0.00     0.032 C 
BRANCH   4   5
ATOM      5  C   UNL     1      -2.719  31.682  60.344  1.00  0.00     0.034 C 
BRANCH   5   6
ATOM      6  C   UNL     1      -3.534  32.066  59.122  1.00  0.00    -0.077 C 
ATOM      7  C   UNL     1      -3.727  31.023  58.051  1.00  0.00     0.039 C 
ATOM      8  C   UNL     1      -4.040  33.304  58.901  1.00  0.00    -0.023 CG0
ATOM      9  G   UNL     1      -3.988  34.495  59.837  1.00  0.00     0.000 G0
ENDBRANCH   5   6
ENDBRANCH   4   5
ENDBRANCH   2   4
BRANCH   1  10
ATOM     10  C   UNL     1      -1.787  34.465  61.983  1.00  0.00     0.111 C 
BRANCH  10  11
ATOM     11  C   UNL     1      -1.594  35.022  60.597  1.00  0.00     0.163 C 
ATOM     12  O   UNL     1      -0.419  35.276  60.216  1.00  0.00    -0.294 OA
BRANCH  11  13
ATOM     13  C   UNL     1      -2.741  35.336  59.693  1.00  0.00    -0.002 C 
ATOM     14  C   UNL     1      -2.679  36.392  58.827  1.00  0.00    -0.069 C 
ATOM     15  C   UNL     1      -3.877  36.833  58.015  1.00  0.00     0.039 C 
ATOM     16  C   UNL     1      -1.401  37.180  58.640  1.00  0.00     0.039 C 
BRANCH  13  17
ATOM     17  C   UNL     1      -3.999  34.496  59.847  1.00  0.00     0.066 CG0
ATOM     18  G   UNL     1      -4.028  33.322  58.888  1.00  0.00     0.000 G0
ENDBRANCH  13  17
ENDBRANCH  11  13
ENDBRANCH  10  11
ENDBRANCH   1  10
TORSDOF 0
ENDMDL
MODEL 5
REMARK VINA RESULT:    -2.905      9.742     11.974
REMARK INTER + INTRA:          -3.365
REMARK INTER:                  -3.717
REMARK INTRA:                   0.353
REMARK UNBOUND:                 0.730
REMARK SMILES CC1=CCC(=C(C)C)C(=O)CC(C)=CCC1
REMARK SMILES IDX 12 1 14 2 13 3 15 4 16 5 2 6 1 7 3 8 11 10 9 11 10 12 5 13
REMARK SMILES IDX 6 14 7 15 8 16 4 17
REMARK H PARENT
REMARK Flexibility Score: 60.00
ROOT
ATOM      1  C   UNL     1      -0.795  33.197  63.036  1.00  0.00    -0.070 C 
ATOM      2  C   UNL     1      -0.173  33.182  61.837  1.00  0.00    -0.027 C 
ATOM      3  C   UNL     1      -0.011  33.676  64.232  1.00  0.00     0.039 C 
ENDROOT
BRANCH   2   4
ATOM      4  C   UNL     1      -0.756  32.649  60.546  1.00  0.00     0.032 C 
BRANCH   4   5
ATOM      5  C   UNL     1      -2.012  33.393  60.046  1.00  0.00     0.034 C 
BRANCH   5   6
ATOM      6  C   UNL     1      -1.903  34.902  60.174  1.00  0.00    -0.077 C 
ATOM      7  C   UNL     1      -0.858  35.602  59.342  1.00  0.00     0.039 C 
ATOM      8  C   UNL     1      -2.633  35.650  61.036  1.00  0.00    -0.023 CG0
ATOM      9  G   UNL     1      -3.745  35.170  61.949  1.00  0.00     0.000 G0
ENDBRANCH   5   6
ENDBRANCH   4   5
ENDBRANCH   2   4
BRANCH   1  10
ATOM     10  C   UNL     1      -2.201  32.673  63.250  1.00  0.00     0.111 C 
BRANCH  10  11
ATOM     11  C   UNL     1      -3.070  33.683  63.952  1.00  0.00     0.163 C 
ATOM     12  O   UNL     1      -3.665  33.326  65.004  1.00  0.00    -0.294 OA
BRANCH  11  13
ATOM     13  C   UNL     1      -3.295  35.058  63.413  1.00  0.00    -0.002 C 
ATOM     14  C   UNL     1      -3.185  36.153  64.225  1.00  0.00    -0.069 C 
ATOM     15  C   UNL     1      -3.560  37.541  63.752  1.00  0.00     0.039 C 
ATOM     16  C   UNL     1      -2.682  36.029  65.646  1.00  0.00     0.039 C 
BRANCH  13  17
ATOM     17  C   UNL     1      -3.739  35.174  61.964  1.00  0.00     0.066 CG0
ATOM     18  G   UNL     1      -2.623  35.650  61.056  1.00  0.00     0.000 G0
ENDBRANCH  13  17
ENDBRANCH  11  13
ENDBRANCH  10  11
ENDBRANCH   1  10
TORSDOF 0
ENDMDL
MODEL 6
REMARK VINA RESULT:    -2.881      1.617      4.512
REMARK INTER + INTRA:          -3.331
REMARK INTER:                  -4.444
REMARK INTRA:                   1.114
REMARK UNBOUND:                 0.730
REMARK SMILES CC1=CCC(=C(C)C)C(=O)CC(C)=CCC1
REMARK SMILES IDX 12 1 14 2 13 3 15 4 16 5 2 6 1 7 3 8 11 10 9 11 10 12 5 13
REMARK SMILES IDX 6 14 7 15 8 16 4 17
REMARK H PARENT
REMARK Flexibility Score: 60.00
ROOT
ATOM      1  C   UNL     1       0.604  27.723  53.275  1.00  0.00    -0.070 C 
ATOM      2  C   UNL     1      -0.441  26.961  53.666  1.00  0.00    -0.027 C 
ATOM      3  C   UNL     1       1.785  27.835  54.206  1.00  0.00     0.039 C 
ENDROOT
BRANCH   2   4
ATOM      4  C   UNL     1      -1.748  26.802  52.920  1.00  0.00     0.032 C 
BRANCH   4   5
ATOM      5  C   UNL     1      -2.972  27.434  53.617  1.00  0.00     0.034 C 
BRANCH   5   6
ATOM      6  C   UNL     1      -2.682  28.800  54.211  1.00  0.00    -0.077 C 
ATOM      7  C   UNL     1      -2.516  28.893  55.707  1.00  0.00     0.039 C 
ATOM      8  C   UNL     1      -2.631  29.950  53.495  1.00  0.00    -0.023 CG0
ATOM      9  G   UNL     1      -2.748  30.096  51.991  1.00  0.00     0.000 G0
ENDBRANCH   5   6
ENDBRANCH   4   5
ENDBRANCH   2   4
BRANCH   1  10
ATOM     10  C   UNL     1       0.606  28.537  51.997  1.00  0.00     0.111 C 
BRANCH  10  11
ATOM     11  C   UNL     1      -0.185  29.809  52.147  1.00  0.00     0.163 C 
ATOM     12  O   UNL     1       0.150  30.614  53.057  1.00  0.00    -0.294 OA
BRANCH  11  13
ATOM     13  C   UNL     1      -1.379  30.115  51.302  1.00  0.00    -0.002 C 
ATOM     14  C   UNL     1      -1.233  30.468  49.989  1.00  0.00    -0.069 C 
ATOM     15  C   UNL     1      -2.403  30.936  49.152  1.00  0.00     0.039 C 
ATOM     16  C   UNL     1       0.115  30.411  49.306  1.00  0.00     0.039 C 
BRANCH  13  17
ATOM     17  C   UNL     1      -2.736  30.108  51.987  1.00  0.00     0.066 CG0
ATOM     18  G   UNL     1      -2.621  29.965  53.492  1.00  0.00     0.000 G0
ENDBRANCH  13  17
ENDBRANCH  11  13
ENDBRANCH  10  11
ENDBRANCH   1  10
TORSDOF 0
ENDMDL
MODEL 7
REMARK VINA RESULT:    -2.876      9.632     11.371
REMARK INTER + INTRA:          -3.323
REMARK INTER:                  -3.819
REMARK INTRA:                   0.496
REMARK UNBOUND:                 0.730
REMARK SMILES CC1=CCC(=C(C)C)C(=O)CC(C)=CCC1
REMARK SMILES IDX 12 1 14 2 13 3 15 4 16 5 2 6 1 7 3 8 11 10 9 11 10 12 5 13
REMARK SMILES IDX 6 14 7 15 8 16 4 17
REMARK H PARENT
REMARK Flexibility Score: 60.00
ROOT
ATOM      1  C   UNL     1      -0.729  34.647  60.604  1.00  0.00    -0.070 C 
ATOM      2  C   UNL     1      -1.348  35.724  60.071  1.00  0.00    -0.027 C 
ATOM      3  C   UNL     1       0.567  34.870  61.340  1.00  0.00     0.039 C 
ENDROOT
BRANCH   2   4
ATOM      4  C   UNL     1      -2.598  35.693  59.219  1.00  0.00     0.032 C 
BRANCH   4   5
ATOM      5  C   UNL     1      -3.921  35.637  60.012  1.00  0.00     0.034 C 
BRANCH   5   6
ATOM      6  C   UNL     1      -3.821  36.274  61.386  1.00  0.00    -0.077 C 
ATOM      7  C   UNL     1      -3.821  37.780  61.462  1.00  0.00     0.039 C 
ATOM      8  C   UNL     1      -3.663  35.581  62.540  1.00  0.00    -0.023 CG0
ATOM      9  G   UNL     1      -3.653  34.075  62.708  1.00  0.00     0.000 G0
ENDBRANCH   5   6
ENDBRANCH   4   5
ENDBRANCH   2   4
BRANCH   1  10
ATOM     10  C   UNL     1      -1.226  33.227  60.419  1.00  0.00     0.111 C 
BRANCH  10  11
ATOM     11  C   UNL     1      -1.757  32.651  61.704  1.00  0.00     0.163 C 
ATOM     12  O   UNL     1      -1.845  31.398  61.803  1.00  0.00    -0.294 OA
BRANCH  11  13
ATOM     13  C   UNL     1      -2.234  33.510  62.830  1.00  0.00    -0.002 C 
ATOM     14  C   UNL     1      -1.458  33.704  63.938  1.00  0.00    -0.069 C 
ATOM     15  C   UNL     1      -1.974  34.434  65.159  1.00  0.00     0.039 C 
ATOM     16  C   UNL     1      -0.036  33.192  64.000  1.00  0.00     0.039 C 
BRANCH  13  17
ATOM     17  C   UNL     1      -3.644  34.070  62.728  1.00  0.00     0.066 CG0
ATOM     18  G   UNL     1      -3.652  35.575  62.538  1.00  0.00     0.000 G0
ENDBRANCH  13  17
ENDBRANCH  11  13
ENDBRANCH  10  11
ENDBRANCH   1  10
TORSDOF 0
ENDMDL
MODEL 8
REMARK VINA RESULT:    -2.866      9.295     11.654
REMARK INTER + INTRA:          -3.309
REMARK INTER:                  -3.766
REMARK INTRA:                   0.457
REMARK UNBOUND:                 0.730
REMARK SMILES CC1=CCC(=C(C)C)C(=O)CC(C)=CCC1
REMARK SMILES IDX 12 1 14 2 13 3 15 4 16 5 2 6 1 7 3 8 11 10 9 11 10 12 5 13
REMARK SMILES IDX 6 14 7 15 8 16 4 17
REMARK H PARENT
REMARK Flexibility Score: 60.00
ROOT
ATOM      1  C   UNL     1      -0.751  34.899  61.224  1.00  0.00    -0.070 C 
ATOM      2  C   UNL     1      -1.582  35.782  61.821  1.00  0.00    -0.027 C 
ATOM      3  C   UNL     1       0.659  35.343  60.930  1.00  0.00     0.039 C 
ENDROOT
BRANCH   2   4
ATOM      4  C   UNL     1      -3.050  35.559  62.109  1.00  0.00     0.032 C 
BRANCH   4   5
ATOM      5  C   UNL     1      -3.449  35.697  63.594  1.00  0.00     0.034 C 
BRANCH   5   6
ATOM      6  C   UNL     1      -2.701  34.739  64.504  1.00  0.00    -0.077 C 
ATOM      7  C   UNL     1      -1.900  35.329  65.637  1.00  0.00     0.039 C 
ATOM      8  C   UNL     1      -2.651  33.397  64.324  1.00  0.00    -0.023 CG0
ATOM      9  G   UNL     1      -3.385  32.587  63.274  1.00  0.00     0.000 G0
ENDBRANCH   5   6
ENDBRANCH   4   5
ENDBRANCH   2   4
BRANCH   1  10
ATOM     10  C   UNL     1      -1.194  33.527  60.756  1.00  0.00     0.111 C 
BRANCH  10  11
ATOM     11  C   UNL     1      -1.218  32.534  61.888  1.00  0.00     0.163 C 
ATOM     12  O   UNL     1      -0.128  32.252  62.454  1.00  0.00    -0.294 OA
BRANCH  11  13
ATOM     13  C   UNL     1      -2.468  31.836  62.314  1.00  0.00    -0.002 C 
ATOM     14  C   UNL     1      -2.792  30.610  61.801  1.00  0.00    -0.069 C 
ATOM     15  C   UNL     1      -4.123  29.949  62.090  1.00  0.00     0.039 C 
ATOM     16  C   UNL     1      -1.832  29.852  60.912  1.00  0.00     0.039 C 
BRANCH  13  17
ATOM     17  C   UNL     1      -3.395  32.583  63.259  1.00  0.00     0.066 CG0
ATOM     18  G   UNL     1      -2.635  33.375  64.304  1.00  0.00     0.000 G0
ENDBRANCH  13  17
ENDBRANCH  11  13
ENDBRANCH  10  11
ENDBRANCH   1  10
TORSDOF 0
ENDMDL
MODEL 9
REMARK VINA RESULT:    -2.769      1.599      3.833
REMARK INTER + INTRA:          -3.173
REMARK INTER:                  -4.566
REMARK INTRA:                   1.393
REMARK UNBOUND:                 0.730
REMARK SMILES CC1=CCC(=C(C)C)C(=O)CC(C)=CCC1
REMARK SMILES IDX 12 1 14 2 13 3 15 4 16 5 2 6 1 7 3 8 11 10 9 11 10 12 5 13
REMARK SMILES IDX 6 14 7 15 8 16 4 17
REMARK H PARENT
REMARK Flexibility Score: 60.00
ROOT
ATOM      1  C   UNL     1      -1.811  30.276  50.408  1.00  0.00    -0.070 C 
ATOM      2  C   UNL     1      -2.924  30.462  51.152  1.00  0.00    -0.027 C 
ATOM      3  C   UNL     1      -1.576  31.206  49.244  1.00  0.00     0.039 C 
ENDROOT
BRANCH   2   4
ATOM      4  C   UNL     1      -3.381  29.579  52.292  1.00  0.00     0.032 C 
BRANCH   4   5
ATOM      5  C   UNL     1      -3.027  30.103  53.700  1.00  0.00     0.034 C 
BRANCH   5   6
ATOM      6  C   UNL     1      -2.880  28.996  54.729  1.00  0.00    -0.077 C 
ATOM      7  C   UNL     1      -3.412  29.253  56.117  1.00  0.00     0.039 C 
ATOM      8  C   UNL     1      -2.242  27.822  54.502  1.00  0.00    -0.023 CG0
ATOM      9  G   UNL     1      -1.650  27.341  53.192  1.00  0.00     0.000 G0
ENDBRANCH   5   6
ENDBRANCH   4   5
ENDBRANCH   2   4
BRANCH   1  10
ATOM     10  C   UNL     1      -0.845  29.130  50.629  1.00  0.00     0.111 C 
BRANCH  10  11
ATOM     11  C   UNL     1      -0.250  29.163  52.012  1.00  0.00     0.163 C 
ATOM     12  O   UNL     1       0.337  30.215  52.382  1.00  0.00    -0.294 OA
BRANCH  11  13
ATOM     13  C   UNL     1      -0.280  27.981  52.925  1.00  0.00    -0.002 C 
ATOM     14  C   UNL     1       0.879  27.451  53.419  1.00  0.00    -0.069 C 
ATOM     15  C   UNL     1       0.896  26.164  54.215  1.00  0.00     0.039 C 
ATOM     16  C   UNL     1       2.212  28.129  53.191  1.00  0.00     0.039 C 
BRANCH  13  17
ATOM     17  C   UNL     1      -1.634  27.346  53.197  1.00  0.00     0.066 CG0
ATOM     18  G   UNL     1      -2.242  27.823  54.501  1.00  0.00     0.000 G0
ENDBRANCH  13  17
ENDBRANCH  11  13
ENDBRANCH  10  11
ENDBRANCH   1  10
TORSDOF 0
ENDMDL
