MODEL 1
REMARK VINA RESULT:    -5.063      0.000      0.000
REMARK INTER + INTRA:          -7.599
REMARK INTER:                  -6.839
REMARK INTRA:                  -0.760
REMARK UNBOUND:                -0.760
REMARK SMILES CC(=O)CCC=C(C)CCC=C(C)C
REMARK SMILES IDX 7 1 6 2 8 3 9 4 10 5 11 6 13 7 12 8 14 9 5 10 4 11 2 12 3 13
REMARK SMILES IDX 1 14
REMARK H PARENT
REMARK Flexibility Score: inf
ROOT
ATOM      1  C   UNL     1      -9.309 -24.156 -17.063  1.00  0.00    -0.077 C 
ATOM      2  C   UNL     1      -9.127 -25.495 -17.142  1.00  0.00    -0.028 C 
ATOM      3  C   UNL     1      -9.565 -23.313 -18.290  1.00  0.00     0.039 C 
ENDROOT
BRANCH   1   4
ATOM      4  C   UNL     1      -9.231 -23.486 -15.710  1.00  0.00     0.034 C 
BRANCH   4   5
ATOM      5  C   UNL     1      -8.393 -22.203 -15.785  1.00  0.00     0.032 C 
BRANCH   5   6
ATOM      6  C   UNL     1      -6.920 -22.523 -15.756  1.00  0.00    -0.028 C 
ATOM      7  C   UNL     1      -4.576 -22.453 -16.488  1.00  0.00     0.039 C 
ATOM      8  C   UNL     1      -6.025 -22.081 -16.667  1.00  0.00    -0.080 C 
ATOM      9  C   UNL     1      -6.439 -21.247 -17.857  1.00  0.00     0.039 C 
ENDBRANCH   5   6
ENDBRANCH   4   5
ENDBRANCH   1   4
BRANCH   2  10
ATOM     10  C   UNL     1      -9.223 -26.295 -18.416  1.00  0.00     0.035 C 
BRANCH  10  11
ATOM     11  C   UNL     1     -10.273 -27.401 -18.283  1.00  0.00     0.079 C 
BRANCH  11  12
ATOM     12  C   UNL     1      -9.765 -28.691 -18.871  1.00  0.00     0.130 C 
ATOM     13  O   UNL     1      -8.841 -29.277 -18.329  1.00  0.00    -0.300 OA
ATOM     14  C   UNL     1     -10.361 -29.268 -20.121  1.00  0.00     0.087 C 
ENDBRANCH  11  12
ENDBRANCH  10  11
ENDBRANCH   2  10
TORSDOF 6
ENDMDL
MODEL 2
REMARK VINA RESULT:    -5.030      1.110      1.585
REMARK INTER + INTRA:          -7.554
REMARK INTER:                  -6.814
REMARK INTRA:                  -0.740
REMARK UNBOUND:                -0.760
REMARK SMILES CC(=O)CCC=C(C)CCC=C(C)C
REMARK SMILES IDX 7 1 6 2 8 3 9 4 10 5 11 6 13 7 12 8 14 9 5 10 4 11 2 12 3 13
REMARK SMILES IDX 1 14
REMARK H PARENT
REMARK Flexibility Score: inf
ROOT
ATOM      1  C   UNL     1      -8.981 -24.485 -17.055  1.00  0.00    -0.077 C 
ATOM      2  C   UNL     1      -8.616 -25.236 -18.120  1.00  0.00    -0.028 C 
ATOM      3  C   UNL     1      -9.596 -25.100 -15.820  1.00  0.00     0.039 C 
ENDROOT
BRANCH   1   4
ATOM      4  C   UNL     1      -8.788 -22.986 -17.115  1.00  0.00     0.034 C 
BRANCH   4   5
ATOM      5  C   UNL     1      -7.994 -22.490 -15.900  1.00  0.00     0.032 C 
BRANCH   5   6
ATOM      6  C   UNL     1      -6.612 -22.047 -16.309  1.00  0.00    -0.028 C 
ATOM      7  C   UNL     1      -4.194 -22.252 -16.698  1.00  0.00     0.039 C 
ATOM      8  C   UNL     1      -5.504 -22.817 -16.215  1.00  0.00    -0.080 C 
ATOM      9  C   UNL     1      -5.545 -24.209 -15.627  1.00  0.00     0.039 C 
ENDBRANCH   5   6
ENDBRANCH   4   5
ENDBRANCH   1   4
BRANCH   2  10
ATOM     10  C   UNL     1      -8.711 -26.740 -18.176  1.00  0.00     0.035 C 
BRANCH  10  11
ATOM     11  C   UNL     1     -10.094 -27.177 -18.667  1.00  0.00     0.079 C 
BRANCH  11  12
ATOM     12  C   UNL     1     -10.170 -28.677 -18.776  1.00  0.00     0.130 C 
ATOM     13  O   UNL     1     -10.710 -29.318 -17.887  1.00  0.00    -0.300 OA
ATOM     14  C   UNL     1      -9.585 -29.407 -19.948  1.00  0.00     0.087 C 
ENDBRANCH  11  12
ENDBRANCH  10  11
ENDBRANCH   2  10
TORSDOF 6
ENDMDL
MODEL 3
REMARK VINA RESULT:    -4.985      2.343      6.787
REMARK INTER + INTRA:          -7.493
REMARK INTER:                  -6.900
REMARK INTRA:                  -0.593
REMARK UNBOUND:                -0.760
REMARK SMILES CC(=O)CCC=C(C)CCC=C(C)C
REMARK SMILES IDX 7 1 6 2 8 3 9 4 10 5 11 6 13 7 12 8 14 9 5 10 4 11 2 12 3 13
REMARK SMILES IDX 1 14
REMARK H PARENT
REMARK Flexibility Score: inf
ROOT
ATOM      1  C   UNL     1      -9.268 -25.406 -17.619  1.00  0.00    -0.077 C 
ATOM      2  C   UNL     1      -8.988 -24.346 -18.413  1.00  0.00    -0.028 C 
ATOM      3  C   UNL     1      -9.853 -25.232 -16.237  1.00  0.00     0.039 C 
ENDROOT
BRANCH   1   4
ATOM      4  C   UNL     1      -8.965 -26.799 -18.123  1.00  0.00     0.034 C 
BRANCH   4   5
ATOM      5  C   UNL     1     -10.259 -27.594 -18.338  1.00  0.00     0.032 C 
BRANCH   5   6
ATOM      6  C   UNL     1     -10.103 -28.573 -19.474  1.00  0.00    -0.028 C 
ATOM      7  C   UNL     1      -9.550 -30.706 -20.561  1.00  0.00     0.039 C 
ATOM      8  C   UNL     1      -9.613 -29.826 -19.340  1.00  0.00    -0.080 C 
ATOM      9  C   UNL     1      -9.114 -30.353 -18.014  1.00  0.00     0.039 C 
ENDBRANCH   5   6
ENDBRANCH   4   5
ENDBRANCH   1   4
BRANCH   2  10
ATOM     10  C   UNL     1      -9.280 -22.911 -18.055  1.00  0.00     0.035 C 
BRANCH  10  11
ATOM     11  C   UNL     1      -7.989 -22.166 -17.708  1.00  0.00     0.079 C 
BRANCH  11  12
ATOM     12  C   UNL     1      -7.676 -22.298 -16.241  1.00  0.00     0.130 C 
ATOM     13  O   UNL     1      -8.562 -22.125 -15.419  1.00  0.00    -0.300 OA
ATOM     14  C   UNL     1      -6.292 -22.626 -15.763  1.00  0.00     0.087 C 
ENDBRANCH  11  12
ENDBRANCH  10  11
ENDBRANCH   2  10
TORSDOF 6
ENDMDL
MODEL 4
REMARK VINA RESULT:    -4.939      1.264      1.806
REMARK INTER + INTRA:          -7.432
REMARK INTER:                  -6.967
REMARK INTRA:                  -0.465
REMARK UNBOUND:                -0.760
REMARK SMILES CC(=O)CCC=C(C)CCC=C(C)C
REMARK SMILES IDX 7 1 6 2 8 3 9 4 10 5 11 6 13 7 12 8 14 9 5 10 4 11 2 12 3 13
REMARK SMILES IDX 1 14
REMARK H PARENT
REMARK Flexibility Score: inf
ROOT
ATOM      1  C   UNL     1      -9.049 -24.457 -16.417  1.00  0.00    -0.077 C 
ATOM      2  C   UNL     1      -8.871 -25.031 -17.629  1.00  0.00    -0.028 C 
ATOM      3  C   UNL     1      -9.915 -25.093 -15.354  1.00  0.00     0.039 C 
ENDROOT
BRANCH   1   4
ATOM      4  C   UNL     1      -8.381 -23.132 -16.129  1.00  0.00     0.034 C 
BRANCH   4   5
ATOM      5  C   UNL     1      -8.304 -22.274 -17.399  1.00  0.00     0.032 C 
BRANCH   5   6
ATOM      6  C   UNL     1      -6.908 -21.741 -17.600  1.00  0.00    -0.028 C 
ATOM      7  C   UNL     1      -5.170 -20.197 -18.396  1.00  0.00     0.039 C 
ATOM      8  C   UNL     1      -6.610 -20.631 -18.313  1.00  0.00    -0.080 C 
ATOM      9  C   UNL     1      -7.673 -19.835 -19.035  1.00  0.00     0.039 C 
ENDBRANCH   5   6
ENDBRANCH   4   5
ENDBRANCH   1   4
BRANCH   2  10
ATOM     10  C   UNL     1      -9.440 -26.369 -18.032  1.00  0.00     0.035 C 
BRANCH  10  11
ATOM     11  C   UNL     1      -8.317 -27.355 -18.366  1.00  0.00     0.079 C 
BRANCH  11  12
ATOM     12  C   UNL     1      -8.884 -28.700 -18.739  1.00  0.00     0.130 C 
ATOM     13  O   UNL     1      -8.322 -29.716 -18.360  1.00  0.00    -0.300 OA
ATOM     14  C   UNL     1     -10.121 -28.821 -19.580  1.00  0.00     0.087 C 
ENDBRANCH  11  12
ENDBRANCH  10  11
ENDBRANCH   2  10
TORSDOF 6
ENDMDL
MODEL 5
REMARK VINA RESULT:    -4.883      1.435      2.561
REMARK INTER + INTRA:          -7.356
REMARK INTER:                  -6.720
REMARK INTRA:                  -0.636
REMARK UNBOUND:                -0.760
REMARK SMILES CC(=O)CCC=C(C)CCC=C(C)C
REMARK SMILES IDX 7 1 6 2 8 3 9 4 10 5 11 6 13 7 12 8 14 9 5 10 4 11 2 12 3 13
REMARK SMILES IDX 1 14
REMARK H PARENT
REMARK Flexibility Score: inf
ROOT
ATOM      1  C   UNL     1      -9.053 -26.486 -17.970  1.00  0.00    -0.077 C 
ATOM      2  C   UNL     1      -7.836 -26.986 -18.289  1.00  0.00    -0.028 C 
ATOM      3  C   UNL     1     -10.326 -27.057 -18.549  1.00  0.00     0.039 C 
ENDROOT
BRANCH   1   4
ATOM      4  C   UNL     1      -9.134 -25.308 -17.026  1.00  0.00     0.034 C 
BRANCH   4   5
ATOM      5  C   UNL     1      -9.446 -24.016 -17.792  1.00  0.00     0.032 C 
BRANCH   5   6
ATOM      6  C   UNL     1      -8.197 -23.194 -17.985  1.00  0.00    -0.028 C 
ATOM      7  C   UNL     1      -6.376 -21.667 -17.358  1.00  0.00     0.039 C 
ATOM      8  C   UNL     1      -7.650 -22.403 -17.034  1.00  0.00    -0.080 C 
ATOM      9  C   UNL     1      -8.287 -22.227 -15.675  1.00  0.00     0.039 C 
ENDBRANCH   5   6
ENDBRANCH   4   5
ENDBRANCH   1   4
BRANCH   2  10
ATOM     10  C   UNL     1      -7.613 -28.183 -19.179  1.00  0.00     0.035 C 
BRANCH  10  11
ATOM     11  C   UNL     1      -7.488 -29.461 -18.346  1.00  0.00     0.079 C 
BRANCH  11  12
ATOM     12  C   UNL     1      -8.712 -30.324 -18.509  1.00  0.00     0.130 C 
ATOM     13  O   UNL     1      -9.116 -30.981 -17.561  1.00  0.00    -0.300 OA
ATOM     14  C   UNL     1      -9.441 -30.407 -19.817  1.00  0.00     0.087 C 
ENDBRANCH  11  12
ENDBRANCH  10  11
ENDBRANCH   2  10
TORSDOF 6
ENDMDL
MODEL 6
REMARK VINA RESULT:    -4.873      1.475      1.804
REMARK INTER + INTRA:          -7.342
REMARK INTER:                  -6.343
REMARK INTRA:                  -1.000
REMARK UNBOUND:                -0.760
REMARK SMILES CC(=O)CCC=C(C)CCC=C(C)C
REMARK SMILES IDX 7 1 6 2 8 3 9 4 10 5 11 6 13 7 12 8 14 9 5 10 4 11 2 12 3 13
REMARK SMILES IDX 1 14
REMARK H PARENT
REMARK Flexibility Score: inf
ROOT
ATOM      1  C   UNL     1      -8.885 -23.441 -16.789  1.00  0.00    -0.077 C 
ATOM      2  C   UNL     1      -9.080 -24.738 -16.454  1.00  0.00    -0.028 C 
ATOM      3  C   UNL     1      -9.241 -22.910 -18.157  1.00  0.00     0.039 C 
ENDROOT
BRANCH   1   4
ATOM      4  C   UNL     1      -8.273 -22.506 -15.770  1.00  0.00     0.034 C 
BRANCH   4   5
ATOM      5  C   UNL     1      -6.813 -22.195 -16.124  1.00  0.00     0.032 C 
BRANCH   5   6
ATOM      6  C   UNL     1      -5.925 -23.373 -15.812  1.00  0.00    -0.028 C 
ATOM      7  C   UNL     1      -4.446 -25.278 -16.286  1.00  0.00     0.039 C 
ATOM      8  C   UNL     1      -5.341 -24.157 -16.747  1.00  0.00    -0.080 C 
ATOM      9  C   UNL     1      -5.575 -23.949 -18.226  1.00  0.00     0.039 C 
ENDBRANCH   5   6
ENDBRANCH   4   5
ENDBRANCH   1   4
BRANCH   2  10
ATOM     10  C   UNL     1      -9.720 -25.764 -17.355  1.00  0.00     0.035 C 
BRANCH  10  11
ATOM     11  C   UNL     1      -8.654 -26.621 -18.044  1.00  0.00     0.079 C 
BRANCH  11  12
ATOM     12  C   UNL     1      -9.265 -27.872 -18.617  1.00  0.00     0.130 C 
ATOM     13  O   UNL     1     -10.441 -27.871 -18.946  1.00  0.00    -0.300 OA
ATOM     14  C   UNL     1      -8.463 -29.129 -18.782  1.00  0.00     0.087 C 
ENDBRANCH  11  12
ENDBRANCH  10  11
ENDBRANCH   2  10
TORSDOF 6
ENDMDL
MODEL 7
REMARK VINA RESULT:    -4.839      1.567      2.173
REMARK INTER + INTRA:          -7.297
REMARK INTER:                  -6.176
REMARK INTRA:                  -1.121
REMARK UNBOUND:                -0.760
REMARK SMILES CC(=O)CCC=C(C)CCC=C(C)C
REMARK SMILES IDX 7 1 6 2 8 3 9 4 10 5 11 6 13 7 12 8 14 9 5 10 4 11 2 12 3 13
REMARK SMILES IDX 1 14
REMARK H PARENT
REMARK Flexibility Score: inf
ROOT
ATOM      1  C   UNL     1      -7.038 -24.700 -17.311  1.00  0.00    -0.077 C 
ATOM      2  C   UNL     1      -8.383 -24.823 -17.222  1.00  0.00    -0.028 C 
ATOM      3  C   UNL     1      -6.280 -25.120 -18.549  1.00  0.00     0.039 C 
ENDROOT
BRANCH   1   4
ATOM      4  C   UNL     1      -6.273 -24.147 -16.130  1.00  0.00     0.034 C 
BRANCH   4   5
ATOM      5  C   UNL     1      -6.593 -22.661 -15.921  1.00  0.00     0.032 C 
BRANCH   5   6
ATOM      6  C   UNL     1      -5.752 -21.800 -16.830  1.00  0.00    -0.028 C 
ATOM      7  C   UNL     1      -5.279 -20.261 -18.685  1.00  0.00     0.039 C 
ATOM      8  C   UNL     1      -6.233 -21.111 -17.889  1.00  0.00    -0.080 C 
ATOM      9  C   UNL     1      -7.686 -21.185 -18.299  1.00  0.00     0.039 C 
ENDBRANCH   5   6
ENDBRANCH   4   5
ENDBRANCH   1   4
BRANCH   2  10
ATOM     10  C   UNL     1      -9.270 -25.315 -18.337  1.00  0.00     0.035 C 
BRANCH  10  11
ATOM     11  C   UNL     1     -10.050 -26.558 -17.900  1.00  0.00     0.079 C 
BRANCH  11  12
ATOM     12  C   UNL     1      -9.645 -27.756 -18.719  1.00  0.00     0.130 C 
ATOM     13  O   UNL     1     -10.462 -28.281 -19.460  1.00  0.00    -0.300 OA
ATOM     14  C   UNL     1      -8.261 -28.328 -18.636  1.00  0.00     0.087 C 
ENDBRANCH  11  12
ENDBRANCH  10  11
ENDBRANCH   2  10
TORSDOF 6
ENDMDL
MODEL 8
REMARK VINA RESULT:    -4.809      1.396      2.075
REMARK INTER + INTRA:          -7.256
REMARK INTER:                  -6.804
REMARK INTRA:                  -0.452
REMARK UNBOUND:                -0.760
REMARK SMILES CC(=O)CCC=C(C)CCC=C(C)C
REMARK SMILES IDX 7 1 6 2 8 3 9 4 10 5 11 6 13 7 12 8 14 9 5 10 4 11 2 12 3 13
REMARK SMILES IDX 1 14
REMARK H PARENT
REMARK Flexibility Score: inf
ROOT
ATOM      1  C   UNL     1      -8.133 -24.783 -16.880  1.00  0.00    -0.077 C 
ATOM      2  C   UNL     1      -8.171 -25.755 -17.822  1.00  0.00    -0.028 C 
ATOM      3  C   UNL     1      -9.302 -24.523 -15.958  1.00  0.00     0.039 C 
ENDROOT
BRANCH   1   4
ATOM      4  C   UNL     1      -6.896 -23.922 -16.766  1.00  0.00     0.034 C 
BRANCH   4   5
ATOM      5  C   UNL     1      -7.264 -22.491 -16.353  1.00  0.00     0.032 C 
BRANCH   5   6
ATOM      6  C   UNL     1      -7.808 -21.719 -17.529  1.00  0.00    -0.028 C 
ATOM      7  C   UNL     1      -7.743 -20.218 -19.473  1.00  0.00     0.039 C 
ATOM      8  C   UNL     1      -7.071 -20.896 -18.307  1.00  0.00    -0.080 C 
ATOM      9  C   UNL     1      -5.609 -20.627 -18.031  1.00  0.00     0.039 C 
ENDBRANCH   5   6
ENDBRANCH   4   5
ENDBRANCH   1   4
BRANCH   2  10
ATOM     10  C   UNL     1      -9.320 -26.712 -18.014  1.00  0.00     0.035 C 
BRANCH  10  11
ATOM     11  C   UNL     1      -8.850 -27.986 -18.722  1.00  0.00     0.079 C 
BRANCH  11  12
ATOM     12  C   UNL     1      -9.992 -28.953 -18.892  1.00  0.00     0.130 C 
ATOM     13  O   UNL     1     -10.703 -29.219 -17.935  1.00  0.00    -0.300 OA
ATOM     14  C   UNL     1     -10.270 -29.610 -20.212  1.00  0.00     0.087 C 
ENDBRANCH  11  12
ENDBRANCH  10  11
ENDBRANCH   2  10
TORSDOF 6
ENDMDL
MODEL 9
REMARK VINA RESULT:    -4.758      2.446      6.494
REMARK INTER + INTRA:          -7.187
REMARK INTER:                  -6.355
REMARK INTRA:                  -0.832
REMARK UNBOUND:                -0.760
REMARK SMILES CC(=O)CCC=C(C)CCC=C(C)C
REMARK SMILES IDX 7 1 6 2 8 3 9 4 10 5 11 6 13 7 12 8 14 9 5 10 4 11 2 12 3 13
REMARK SMILES IDX 1 14
REMARK H PARENT
REMARK Flexibility Score: inf
ROOT
ATOM      1  C   UNL     1      -6.417 -26.951 -19.132  1.00  0.00    -0.077 C 
ATOM      2  C   UNL     1      -7.326 -26.318 -18.354  1.00  0.00    -0.028 C 
ATOM      3  C   UNL     1      -5.509 -26.194 -20.072  1.00  0.00     0.039 C 
ENDROOT
BRANCH   1   4
ATOM      4  C   UNL     1      -6.327 -28.459 -19.073  1.00  0.00     0.034 C 
BRANCH   4   5
ATOM      5  C   UNL     1      -7.585 -29.055 -18.428  1.00  0.00     0.032 C 
BRANCH   5   6
ATOM      6  C   UNL     1      -8.572 -29.489 -19.482  1.00  0.00    -0.028 C 
ATOM      7  C   UNL     1     -10.703 -29.527 -20.706  1.00  0.00     0.039 C 
ATOM      8  C   UNL     1      -9.841 -29.030 -19.574  1.00  0.00    -0.080 C 
ATOM      9  C   UNL     1     -10.415 -28.056 -18.571  1.00  0.00     0.039 C 
ENDBRANCH   5   6
ENDBRANCH   4   5
ENDBRANCH   1   4
BRANCH   2  10
ATOM     10  C   UNL     1      -7.491 -24.821 -18.280  1.00  0.00     0.035 C 
BRANCH  10  11
ATOM     11  C   UNL     1      -8.950 -24.450 -18.002  1.00  0.00     0.079 C 
BRANCH  11  12
ATOM     12  C   UNL     1      -9.130 -24.036 -16.565  1.00  0.00     0.130 C 
ATOM     13  O   UNL     1      -9.731 -24.772 -15.798  1.00  0.00    -0.300 OA
ATOM     14  C   UNL     1      -8.598 -22.729 -16.056  1.00  0.00     0.087 C 
ENDBRANCH  11  12
ENDBRANCH  10  11
ENDBRANCH   2  10
TORSDOF 6
ENDMDL
