MODEL 1
REMARK VINA RESULT:    -5.001      0.000      0.000
REMARK INTER + INTRA:          -6.102
REMARK INTER:                  -6.024
REMARK INTRA:                  -0.078
REMARK UNBOUND:                -0.078
REMARK SMILES O=c1c(O)c(-c2ccc(O)c(O)c2)oc2cc(O)cc(O)c12
REMARK SMILES IDX 5 1 3 2 2 3 1 4 22 5 20 6 19 7 17 8 16 9 15 10 14 11 6 12
REMARK SMILES IDX 7 13 8 14 9 15 13 16 11 17 10 18 12 20 4 22 21 24 18 26
REMARK H PARENT 10 19 12 21 4 23 21 25 18 27
REMARK Flexibility Score: inf
ROOT
ATOM      1  C   UNL     1     -29.351  21.284  48.470  1.00  0.00     0.180 A 
ATOM      2  C   UNL     1     -29.418  20.224  49.394  1.00  0.00     0.208 A 
ATOM      3  C   UNL     1     -29.643  20.518  50.749  1.00  0.00     0.238 A 
ATOM      4  O   UNL     1     -29.716  19.574  51.583  1.00  0.00    -0.285 OA
ATOM      5  C   UNL     1     -29.777  21.860  51.158  1.00  0.00     0.111 A 
ATOM      6  C   UNL     1     -30.003  22.240  52.503  1.00  0.00     0.134 A 
ATOM      7  C   UNL     1     -30.117  23.599  52.832  1.00  0.00     0.093 A 
ATOM      8  C   UNL     1     -30.009  24.583  51.846  1.00  0.00     0.123 A 
ATOM      9  C   UNL     1     -29.788  24.213  50.516  1.00  0.00     0.094 A 
ATOM     10  C   UNL     1     -29.673  22.864  50.167  1.00  0.00     0.146 A 
ATOM     11  O   UNL     1     -29.468  22.539  48.895  1.00  0.00    -0.452 OA
ENDROOT
BRANCH   1  12
ATOM     12  C   UNL     1     -29.135  21.056  47.023  1.00  0.00     0.025 A 
ATOM     13  C   UNL     1     -30.099  21.494  46.104  1.00  0.00     0.016 A 
ATOM     14  C   UNL     1     -29.925  21.271  44.735  1.00  0.00     0.051 A 
ATOM     15  C   UNL     1     -28.792  20.591  44.268  1.00  0.00     0.157 A 
ATOM     16  C   UNL     1     -28.009  20.355  46.553  1.00  0.00     0.062 A 
ATOM     17  C   UNL     1     -27.833  20.127  45.183  1.00  0.00     0.158 A 
BRANCH  15  18
ATOM     18  O   UNL     1     -28.621  20.371  42.903  1.00  0.00    -0.504 OA
ATOM     19  H   UNL     1     -28.314  19.475  42.543  1.00  0.00     0.293 HD
ENDBRANCH  15  18
BRANCH  17  20
ATOM     20  O   UNL     1     -26.702  19.435  44.752  1.00  0.00    -0.504 OA
ATOM     21  H   UNL     1     -26.672  18.424  44.714  1.00  0.00     0.293 HD
ENDBRANCH  17  20
ENDBRANCH   1  12
BRANCH   2  22
ATOM     22  O   UNL     1     -29.232  18.906  48.970  1.00  0.00    -0.502 OA
ATOM     23  H   UNL     1     -29.960  18.206  49.039  1.00  0.00     0.293 HD
ENDBRANCH   2  22
BRANCH   6  24
ATOM     24  O   UNL     1     -30.114  21.282  53.512  1.00  0.00    -0.507 OA
ATOM     25  H   UNL     1     -30.053  21.530  54.492  1.00  0.00     0.293 HD
ENDBRANCH   6  24
BRANCH   8  26
ATOM     26  O   UNL     1     -30.125  25.925  52.199  1.00  0.00    -0.508 OA
ATOM     27  H   UNL     1     -30.859  26.249  52.819  1.00  0.00     0.293 HD
ENDBRANCH   8  26
TORSDOF 6
ENDMDL
MODEL 2
REMARK VINA RESULT:    -3.677      1.398      6.857
REMARK INTER + INTRA:          -4.507
REMARK INTER:                  -4.759
REMARK INTRA:                   0.252
REMARK UNBOUND:                -0.078
REMARK SMILES O=c1c(O)c(-c2ccc(O)c(O)c2)oc2cc(O)cc(O)c12
REMARK SMILES IDX 5 1 3 2 2 3 1 4 22 5 20 6 19 7 17 8 16 9 15 10 14 11 6 12
REMARK SMILES IDX 7 13 8 14 9 15 13 16 11 17 10 18 12 20 4 22 21 24 18 26
REMARK H PARENT 10 19 12 21 4 23 21 25 18 27
REMARK Flexibility Score: inf
ROOT
ATOM      1  C   UNL     1     -28.997  21.495  47.911  1.00  0.00     0.180 A 
ATOM      2  C   UNL     1     -28.243  20.325  47.699  1.00  0.00     0.208 A 
ATOM      3  C   UNL     1     -27.983  19.916  46.382  1.00  0.00     0.238 A 
ATOM      4  O   UNL     1     -27.299  18.875  46.180  1.00  0.00    -0.285 OA
ATOM      5  C   UNL     1     -28.494  20.668  45.305  1.00  0.00     0.111 A 
ATOM      6  C   UNL     1     -28.280  20.321  43.949  1.00  0.00     0.134 A 
ATOM      7  C   UNL     1     -28.830  21.116  42.932  1.00  0.00     0.093 A 
ATOM      8  C   UNL     1     -29.589  22.247  43.243  1.00  0.00     0.123 A 
ATOM      9  C   UNL     1     -29.802  22.594  44.581  1.00  0.00     0.094 A 
ATOM     10  C   UNL     1     -29.262  21.816  45.608  1.00  0.00     0.146 A 
ATOM     11  O   UNL     1     -29.475  22.171  46.870  1.00  0.00    -0.452 OA
ENDROOT
BRANCH   1  12
ATOM     12  C   UNL     1     -29.298  22.002  49.270  1.00  0.00     0.025 A 
ATOM     13  C   UNL     1     -29.356  23.386  49.493  1.00  0.00     0.016 A 
ATOM     14  C   UNL     1     -29.619  23.887  50.771  1.00  0.00     0.051 A 
ATOM     15  C   UNL     1     -29.811  23.011  51.847  1.00  0.00     0.157 A 
ATOM     16  C   UNL     1     -29.471  21.126  50.357  1.00  0.00     0.062 A 
ATOM     17  C   UNL     1     -29.731  21.624  51.639  1.00  0.00     0.158 A 
BRANCH  15  18
ATOM     18  O   UNL     1     -30.074  23.513  53.121  1.00  0.00    -0.504 OA
ATOM     19  H   UNL     1     -30.543  22.956  53.825  1.00  0.00     0.293 HD
ENDBRANCH  15  18
BRANCH  17  20
ATOM     20  O   UNL     1     -29.903  20.726  52.692  1.00  0.00    -0.504 OA
ATOM     21  H   UNL     1     -29.988  19.729  52.540  1.00  0.00     0.293 HD
ENDBRANCH  17  20
ENDBRANCH   1  12
BRANCH   2  22
ATOM     22  O   UNL     1     -27.790  19.571  48.784  1.00  0.00    -0.502 OA
ATOM     23  H   UNL     1     -28.365  18.871  49.236  1.00  0.00     0.293 HD
ENDBRANCH   2  22
BRANCH   6  24
ATOM     24  O   UNL     1     -27.527  19.197  43.604  1.00  0.00    -0.507 OA
ATOM     25  H   UNL     1     -26.965  19.170  42.762  1.00  0.00     0.293 HD
ENDBRANCH   6  24
BRANCH   8  26
ATOM     26  O   UNL     1     -30.125  23.019  42.215  1.00  0.00    -0.508 OA
ATOM     27  H   UNL     1     -30.803  23.750  42.400  1.00  0.00     0.293 HD
ENDBRANCH   8  26
TORSDOF 6
ENDMDL
MODEL 3
REMARK VINA RESULT:    -3.637      1.150      1.232
REMARK INTER + INTRA:          -4.459
REMARK INTER:                  -4.924
REMARK INTRA:                   0.464
REMARK UNBOUND:                -0.078
REMARK SMILES O=c1c(O)c(-c2ccc(O)c(O)c2)oc2cc(O)cc(O)c12
REMARK SMILES IDX 5 1 3 2 2 3 1 4 22 5 20 6 19 7 17 8 16 9 15 10 14 11 6 12
REMARK SMILES IDX 7 13 8 14 9 15 13 16 11 17 10 18 12 20 4 22 21 24 18 26
REMARK H PARENT 10 19 12 21 4 23 21 25 18 27
REMARK Flexibility Score: inf
ROOT
ATOM      1  C   UNL     1     -29.292  21.218  47.876  1.00  0.00     0.180 A 
ATOM      2  C   UNL     1     -28.970  20.051  48.595  1.00  0.00     0.208 A 
ATOM      3  C   UNL     1     -28.960  20.101  49.998  1.00  0.00     0.238 A 
ATOM      4  O   UNL     1     -28.683  19.059  50.653  1.00  0.00    -0.285 OA
ATOM      5  C   UNL     1     -29.251  21.313  50.655  1.00  0.00     0.111 A 
ATOM      6  C   UNL     1     -29.260  21.448  52.064  1.00  0.00     0.134 A 
ATOM      7  C   UNL     1     -29.552  22.692  52.643  1.00  0.00     0.093 A 
ATOM      8  C   UNL     1     -29.834  23.802  51.843  1.00  0.00     0.123 A 
ATOM      9  C   UNL     1     -29.828  23.674  50.450  1.00  0.00     0.094 A 
ATOM     10  C   UNL     1     -29.541  22.443  49.855  1.00  0.00     0.146 A 
ATOM     11  O   UNL     1     -29.548  22.348  48.530  1.00  0.00    -0.452 OA
ENDROOT
BRANCH   1  12
ATOM     12  C   UNL     1     -29.342  21.242  46.396  1.00  0.00     0.025 A 
ATOM     13  C   UNL     1     -29.663  22.437  45.736  1.00  0.00     0.016 A 
ATOM     14  C   UNL     1     -29.735  22.478  44.340  1.00  0.00     0.051 A 
ATOM     15  C   UNL     1     -29.504  21.319  43.587  1.00  0.00     0.157 A 
ATOM     16  C   UNL     1     -29.131  20.076  45.637  1.00  0.00     0.062 A 
ATOM     17  C   UNL     1     -29.205  20.113  44.240  1.00  0.00     0.158 A 
BRANCH  15  18
ATOM     18  O   UNL     1     -29.575  21.364  42.196  1.00  0.00    -0.504 OA
ATOM     19  H   UNL     1     -30.417  21.095  41.698  1.00  0.00     0.293 HD
ENDBRANCH  15  18
BRANCH  17  20
ATOM     20  O   UNL     1     -28.984  18.939  43.520  1.00  0.00    -0.504 OA
ATOM     21  H   UNL     1     -28.116  18.421  43.588  1.00  0.00     0.293 HD
ENDBRANCH  17  20
ENDBRANCH   1  12
BRANCH   2  22
ATOM     22  O   UNL     1     -28.636  18.875  47.920  1.00  0.00    -0.502 OA
ATOM     23  H   UNL     1     -29.240  18.461  47.220  1.00  0.00     0.293 HD
ENDBRANCH   2  22
BRANCH   6  24
ATOM     24  O   UNL     1     -28.981  20.359  52.892  1.00  0.00    -0.507 OA
ATOM     25  H   UNL     1     -28.051  20.190  53.255  1.00  0.00     0.293 HD
ENDBRANCH   6  24
BRANCH   8  26
ATOM     26  O   UNL     1     -30.119  25.026  52.442  1.00  0.00    -0.508 OA
ATOM     27  H   UNL     1     -29.586  25.860  52.224  1.00  0.00     0.293 HD
ENDBRANCH   8  26
TORSDOF 6
ENDMDL
MODEL 4
REMARK VINA RESULT:    -2.032      2.111      3.297
REMARK INTER + INTRA:          -2.526
REMARK INTER:                  -2.238
REMARK INTRA:                  -0.288
REMARK UNBOUND:                -0.078
REMARK SMILES O=c1c(O)c(-c2ccc(O)c(O)c2)oc2cc(O)cc(O)c12
REMARK SMILES IDX 5 1 3 2 2 3 1 4 22 5 20 6 19 7 17 8 16 9 15 10 14 11 6 12
REMARK SMILES IDX 7 13 8 14 9 15 13 16 11 17 10 18 12 20 4 22 21 24 18 26
REMARK H PARENT 10 19 12 21 4 23 21 25 18 27
REMARK Flexibility Score: inf
ROOT
ATOM      1  C   UNL     1     -28.541  21.423  49.719  1.00  0.00     0.180 A 
ATOM      2  C   UNL     1     -29.354  22.540  49.989  1.00  0.00     0.208 A 
ATOM      3  C   UNL     1     -29.408  23.038  51.300  1.00  0.00     0.238 A 
ATOM      4  O   UNL     1     -30.125  24.046  51.551  1.00  0.00    -0.285 OA
ATOM      5  C   UNL     1     -28.666  22.405  52.317  1.00  0.00     0.111 A 
ATOM      6  C   UNL     1     -28.668  22.843  53.664  1.00  0.00     0.134 A 
ATOM      7  C   UNL     1     -27.910  22.153  54.621  1.00  0.00     0.093 A 
ATOM      8  C   UNL     1     -27.152  21.036  54.261  1.00  0.00     0.123 A 
ATOM      9  C   UNL     1     -27.146  20.599  52.932  1.00  0.00     0.094 A 
ATOM     10  C   UNL     1     -27.894  21.274  51.963  1.00  0.00     0.146 A 
ATOM     11  O   UNL     1     -27.866  20.842  50.707  1.00  0.00    -0.452 OA
ENDROOT
BRANCH   1  12
ATOM     12  C   UNL     1     -28.417  20.849  48.359  1.00  0.00     0.025 A 
ATOM     13  C   UNL     1     -29.044  19.628  48.065  1.00  0.00     0.016 A 
ATOM     14  C   UNL     1     -28.924  19.059  46.795  1.00  0.00     0.051 A 
ATOM     15  C   UNL     1     -28.161  19.693  45.805  1.00  0.00     0.157 A 
ATOM     16  C   UNL     1     -27.635  21.472  47.369  1.00  0.00     0.062 A 
ATOM     17  C   UNL     1     -27.510  20.902  46.097  1.00  0.00     0.158 A 
BRANCH  15  18
ATOM     18  O   UNL     1     -28.044  19.123  44.539  1.00  0.00    -0.504 OA
ATOM     19  H   UNL     1     -28.305  18.159  44.364  1.00  0.00     0.293 HD
ENDBRANCH  15  18
BRANCH  17  20
ATOM     20  O   UNL     1     -26.732  21.551  45.138  1.00  0.00    -0.504 OA
ATOM     21  H   UNL     1     -25.825  21.202  44.855  1.00  0.00     0.293 HD
ENDBRANCH  17  20
ENDBRANCH   1  12
BRANCH   2  22
ATOM     22  O   UNL     1     -30.117  23.119  48.972  1.00  0.00    -0.502 OA
ATOM     23  H   UNL     1     -29.699  23.530  48.147  1.00  0.00     0.293 HD
ENDBRANCH   2  22
BRANCH   6  24
ATOM     24  O   UNL     1     -29.414  23.955  54.057  1.00  0.00    -0.507 OA
ATOM     25  H   UNL     1     -29.905  23.982  54.942  1.00  0.00     0.293 HD
ENDBRANCH   6  24
BRANCH   8  26
ATOM     26  O   UNL     1     -26.409  20.367  55.231  1.00  0.00    -0.508 OA
ATOM     27  H   UNL     1     -25.714  20.847  55.790  1.00  0.00     0.293 HD
ENDBRANCH   8  26
TORSDOF 6
ENDMDL
