MODEL 1
REMARK VINA RESULT:    -5.967      0.000      0.000
REMARK INTER + INTRA:          -9.802
REMARK INTER:                  -8.758
REMARK INTRA:                  -1.044
REMARK UNBOUND:                -1.044
REMARK SMILES Cc1cc2c(C(C)C)c(O)c(O)c(C=O)c2c(O)c1-c1c(C)cc2c(C(C)C)c(O)c(O)c(C=O)c2c1O
REMARK SMILES IDX 1 1 2 2 3 3 4 4 16 5 13 6 11 7 9 8 5 9 17 10 19 11 20 12
REMARK SMILES IDX 37 13 21 14 36 15 23 16 22 17 24 18 33 19 25 20 31 21 29 22
REMARK SMILES IDX 38 23 34 25 35 26 26 27 27 28 28 29 32 30 30 32 18 34 6 36
REMARK SMILES IDX 7 37 8 38 14 39 15 40 10 41 12 43
REMARK H PARENT 38 24 32 31 30 33 18 35 10 42 12 44
REMARK Flexibility Score: inf
ROOT
ATOM      1  C   UNL     1      15.747  15.624 -22.476  1.00  0.00     0.045 C 
ATOM      2  C   UNL     1      15.183  14.769 -21.368  1.00  0.00    -0.039 A 
ATOM      3  C   UNL     1      15.257  13.377 -21.468  1.00  0.00     0.013 A 
ATOM      4  C   UNL     1      14.739  12.532 -20.462  1.00  0.00    -0.006 A 
ATOM      5  C   UNL     1      14.269  13.123 -19.254  1.00  0.00     0.039 A 
ATOM      6  C   UNL     1      14.004  12.283 -18.134  1.00  0.00     0.072 A 
ATOM      7  C   UNL     1      14.143  10.888 -18.252  1.00  0.00     0.169 A 
ATOM      8  C   UNL     1      14.457  10.303 -19.496  1.00  0.00     0.162 A 
ATOM      9  C   UNL     1      14.699  11.116 -20.628  1.00  0.00     0.008 A 
ATOM     10  C   UNL     1      14.066  14.533 -19.215  1.00  0.00     0.132 A 
ATOM     11  C   UNL     1      14.543  15.349 -20.262  1.00  0.00     0.031 A 
ENDROOT
BRANCH  11  12
ATOM     12  C   UNL     1      14.378  16.826 -20.195  1.00  0.00     0.031 A 
ATOM     13  C   UNL     1      15.253  17.601 -19.403  1.00  0.00     0.132 A 
ATOM     14  C   UNL     1      13.373  17.449 -20.950  1.00  0.00    -0.039 A 
ATOM     15  C   UNL     1      15.087  19.019 -19.316  1.00  0.00     0.039 A 
ATOM     16  C   UNL     1      13.232  18.836 -20.900  1.00  0.00     0.013 A 
ATOM     17  C   UNL     1      12.476  16.649 -21.866  1.00  0.00     0.045 C 
ATOM     18  C   UNL     1      14.030  19.637 -20.053  1.00  0.00    -0.006 A 
ATOM     19  C   UNL     1      15.970  19.845 -18.554  1.00  0.00     0.072 A 
ATOM     20  C   UNL     1      13.818  21.048 -19.961  1.00  0.00     0.008 A 
ATOM     21  C   UNL     1      15.836  21.247 -18.601  1.00  0.00     0.169 A 
ATOM     22  C   UNL     1      14.800  21.838 -19.330  1.00  0.00     0.162 A 
BRANCH  13  23
ATOM     23  O   UNL     1      16.297  16.965 -18.724  1.00  0.00    -0.507 OA
ATOM     24  H   UNL     1      16.227  16.611 -17.778  1.00  0.00     0.293 HD
ENDBRANCH  13  23
BRANCH  19  25
ATOM     25  C   UNL     1      17.036  19.274 -17.705  1.00  0.00     0.264 C 
ATOM     26  O   UNL     1      16.900  19.222 -16.454  1.00  0.00    -0.298 OA
ENDBRANCH  19  25
BRANCH  20  27
ATOM     27  C   UNL     1      12.561  21.719 -20.546  1.00  0.00     0.017 C 
ATOM     28  C   UNL     1      12.872  22.380 -21.892  1.00  0.00     0.012 C 
ATOM     29  C   UNL     1      11.876  22.706 -19.581  1.00  0.00     0.012 C 
ENDBRANCH  20  27
BRANCH  21  30
ATOM     30  O   UNL     1      16.706  22.092 -17.900  1.00  0.00    -0.504 OA
ATOM     31  H   UNL     1      16.494  23.049 -17.652  1.00  0.00     0.293 HD
ENDBRANCH  21  30
BRANCH  22  32
ATOM     32  O   UNL     1      14.741  23.230 -19.426  1.00  0.00    -0.504 OA
ATOM     33  H   UNL     1      15.334  23.767 -20.048  1.00  0.00     0.293 HD
ENDBRANCH  22  32
ENDBRANCH  11  12
BRANCH  10  34
ATOM     34  O   UNL     1      13.353  15.112 -18.159  1.00  0.00    -0.507 OA
ATOM     35  H   UNL     1      12.476  14.749 -17.805  1.00  0.00     0.293 HD
ENDBRANCH  10  34
BRANCH   9  36
ATOM     36  C   UNL     1      14.902  10.466 -22.010  1.00  0.00     0.017 C 
ATOM     37  C   UNL     1      16.283   9.810 -22.110  1.00  0.00     0.012 C 
ATOM     38  C   UNL     1      13.783   9.483 -22.404  1.00  0.00     0.012 C 
ENDBRANCH   9  36
BRANCH   6  39
ATOM     39  C   UNL     1      13.747  12.839 -16.784  1.00  0.00     0.264 C 
ATOM     40  O   UNL     1      12.595  12.798 -16.276  1.00  0.00    -0.298 OA
ENDBRANCH   6  39
BRANCH   8  41
ATOM     41  O   UNL     1      14.548   8.915 -19.632  1.00  0.00    -0.504 OA
ATOM     42  H   UNL     1      15.368   8.367 -19.419  1.00  0.00     0.293 HD
ENDBRANCH   8  41
BRANCH   7  43
ATOM     43  O   UNL     1      13.993  10.107 -17.099  1.00  0.00    -0.504 OA
ATOM     44  H   UNL     1      13.660   9.155 -17.085  1.00  0.00     0.293 HD
ENDBRANCH   7  43
TORSDOF 11
ENDMDL
MODEL 2
REMARK VINA RESULT:    -5.934      3.410      9.525
REMARK INTER + INTRA:          -9.753
REMARK INTER:                  -8.341
REMARK INTRA:                  -1.412
REMARK UNBOUND:                -1.044
REMARK SMILES Cc1cc2c(C(C)C)c(O)c(O)c(C=O)c2c(O)c1-c1c(C)cc2c(C(C)C)c(O)c(O)c(C=O)c2c1O
REMARK SMILES IDX 1 1 2 2 3 3 4 4 16 5 13 6 11 7 9 8 5 9 17 10 19 11 20 12
REMARK SMILES IDX 37 13 21 14 36 15 23 16 22 17 24 18 33 19 25 20 31 21 29 22
REMARK SMILES IDX 38 23 34 25 35 26 26 27 27 28 28 29 32 30 30 32 18 34 6 36
REMARK SMILES IDX 7 37 8 38 14 39 15 40 10 41 12 43
REMARK H PARENT 38 24 32 31 30 33 18 35 10 42 12 44
REMARK Flexibility Score: inf
ROOT
ATOM      1  C   UNL     1      16.188  15.057 -20.303  1.00  0.00     0.045 C 
ATOM      2  C   UNL     1      16.471  15.157 -18.825  1.00  0.00    -0.039 A 
ATOM      3  C   UNL     1      16.610  16.415 -18.234  1.00  0.00     0.013 A 
ATOM      4  C   UNL     1      16.880  16.564 -16.857  1.00  0.00    -0.006 A 
ATOM      5  C   UNL     1      16.859  15.403 -16.031  1.00  0.00     0.039 A 
ATOM      6  C   UNL     1      16.854  15.564 -14.616  1.00  0.00     0.072 A 
ATOM      7  C   UNL     1      16.939  16.852 -14.053  1.00  0.00     0.169 A 
ATOM      8  C   UNL     1      17.118  17.981 -14.877  1.00  0.00     0.162 A 
ATOM      9  C   UNL     1      17.151  17.842 -16.285  1.00  0.00     0.008 A 
ATOM     10  C   UNL     1      16.858  14.121 -16.652  1.00  0.00     0.132 A 
ATOM     11  C   UNL     1      16.643  14.004 -18.042  1.00  0.00     0.031 A 
ENDROOT
BRANCH  11  12
ATOM     12  C   UNL     1      16.589  12.663 -18.681  1.00  0.00     0.031 A 
ATOM     13  C   UNL     1      17.759  12.088 -19.224  1.00  0.00     0.132 A 
ATOM     14  C   UNL     1      15.378  11.953 -18.710  1.00  0.00    -0.039 A 
ATOM     15  C   UNL     1      17.711  10.808 -19.860  1.00  0.00     0.039 A 
ATOM     16  C   UNL     1      15.334  10.687 -19.293  1.00  0.00     0.013 A 
ATOM     17  C   UNL     1      14.132  12.512 -18.065  1.00  0.00     0.045 C 
ATOM     18  C   UNL     1      16.462  10.117 -19.925  1.00  0.00    -0.006 A 
ATOM     19  C   UNL     1      18.876  10.176 -20.392  1.00  0.00     0.072 A 
ATOM     20  C   UNL     1      16.374   8.850 -20.582  1.00  0.00     0.008 A 
ATOM     21  C   UNL     1      18.796   8.862 -20.897  1.00  0.00     0.169 A 
ATOM     22  C   UNL     1      17.568   8.197 -20.950  1.00  0.00     0.162 A 
BRANCH  13  23
ATOM     23  O   UNL     1      18.970  12.779 -19.110  1.00  0.00    -0.507 OA
ATOM     24  H   UNL     1      19.830  12.495 -19.563  1.00  0.00     0.293 HD
ENDBRANCH  13  23
BRANCH  19  25
ATOM     25  C   UNL     1      20.186  10.860 -20.432  1.00  0.00     0.264 C 
ATOM     26  O   UNL     1      21.118  10.505 -19.663  1.00  0.00    -0.298 OA
ENDBRANCH  19  25
BRANCH  20  27
ATOM     27  C   UNL     1      15.018   8.182 -20.879  1.00  0.00     0.017 C 
ATOM     28  C   UNL     1      14.810   6.953 -19.990  1.00  0.00     0.012 C 
ATOM     29  C   UNL     1      14.804   7.842 -22.366  1.00  0.00     0.012 C 
ENDBRANCH  20  27
BRANCH  21  30
ATOM     30  O   UNL     1      19.923   8.195 -21.391  1.00  0.00    -0.504 OA
ATOM     31  H   UNL     1      19.989   7.192 -21.498  1.00  0.00     0.293 HD
ENDBRANCH  21  30
BRANCH  22  32
ATOM     32  O   UNL     1      17.531   6.867 -21.377  1.00  0.00    -0.504 OA
ATOM     33  H   UNL     1      17.530   6.081 -20.739  1.00  0.00     0.293 HD
ENDBRANCH  22  32
ENDBRANCH  11  12
BRANCH  10  34
ATOM     34  O   UNL     1      17.115  12.972 -15.895  1.00  0.00    -0.507 OA
ATOM     35  H   UNL     1      17.981  12.449 -15.941  1.00  0.00     0.293 HD
ENDBRANCH  10  34
BRANCH   9  36
ATOM     36  C   UNL     1      17.486  19.060 -17.168  1.00  0.00     0.017 C 
ATOM     37  C   UNL     1      16.293  20.016 -17.260  1.00  0.00     0.012 C 
ATOM     38  C   UNL     1      18.768  19.800 -16.743  1.00  0.00     0.012 C 
ENDBRANCH   9  36
BRANCH   6  39
ATOM     39  C   UNL     1      16.593  14.428 -13.700  1.00  0.00     0.264 C 
ATOM     40  O   UNL     1      17.511  13.947 -12.985  1.00  0.00    -0.298 OA
ENDBRANCH   6  39
BRANCH   8  41
ATOM     41  O   UNL     1      17.252  19.257 -14.323  1.00  0.00    -0.504 OA
ATOM     42  H   UNL     1      16.516  19.945 -14.272  1.00  0.00     0.293 HD
ENDBRANCH   8  41
BRANCH   7  43
ATOM     43  O   UNL     1      16.809  16.978 -12.664  1.00  0.00    -0.504 OA
ATOM     44  H   UNL     1      15.933  17.042 -12.170  1.00  0.00     0.293 HD
ENDBRANCH   7  43
TORSDOF 11
ENDMDL
MODEL 3
REMARK VINA RESULT:    -5.922      3.401      5.657
REMARK INTER + INTRA:          -9.735
REMARK INTER:                  -8.545
REMARK INTRA:                  -1.190
REMARK UNBOUND:                -1.044
REMARK SMILES Cc1cc2c(C(C)C)c(O)c(O)c(C=O)c2c(O)c1-c1c(C)cc2c(C(C)C)c(O)c(O)c(C=O)c2c1O
REMARK SMILES IDX 1 1 2 2 3 3 4 4 16 5 13 6 11 7 9 8 5 9 17 10 19 11 20 12
REMARK SMILES IDX 37 13 21 14 36 15 23 16 22 17 24 18 33 19 25 20 31 21 29 22
REMARK SMILES IDX 38 23 34 25 35 26 26 27 27 28 28 29 32 30 30 32 18 34 6 36
REMARK SMILES IDX 7 37 8 38 14 39 15 40 10 41 12 43
REMARK H PARENT 38 24 32 31 30 33 18 35 10 42 12 44
REMARK Flexibility Score: inf
ROOT
ATOM      1  C   UNL     1      14.967  12.544 -17.124  1.00  0.00     0.045 C 
ATOM      2  C   UNL     1      16.163  11.992 -17.859  1.00  0.00    -0.039 A 
ATOM      3  C   UNL     1      16.258  10.615 -18.081  1.00  0.00     0.013 A 
ATOM      4  C   UNL     1      17.359  10.046 -18.758  1.00  0.00    -0.006 A 
ATOM      5  C   UNL     1      18.313  10.918 -19.357  1.00  0.00     0.039 A 
ATOM      6  C   UNL     1      19.264  10.377 -20.268  1.00  0.00     0.072 A 
ATOM      7  C   UNL     1      19.296   8.991 -20.512  1.00  0.00     0.169 A 
ATOM      8  C   UNL     1      18.452   8.120 -19.795  1.00  0.00     0.162 A 
ATOM      9  C   UNL     1      17.515   8.633 -18.867  1.00  0.00     0.008 A 
ATOM     10  C   UNL     1      18.289  12.300 -19.012  1.00  0.00     0.132 A 
ATOM     11  C   UNL     1      17.204  12.833 -18.283  1.00  0.00     0.031 A 
ENDROOT
BRANCH  11  12
ATOM     12  C   UNL     1      17.154  14.285 -17.969  1.00  0.00     0.031 A 
ATOM     13  C   UNL     1      16.427  15.166 -18.799  1.00  0.00     0.132 A 
ATOM     14  C   UNL     1      17.802  14.772 -16.823  1.00  0.00    -0.039 A 
ATOM     15  C   UNL     1      16.392  16.567 -18.516  1.00  0.00     0.039 A 
ATOM     16  C   UNL     1      17.738  16.132 -16.520  1.00  0.00     0.013 A 
ATOM     17  C   UNL     1      18.518  13.839 -15.876  1.00  0.00     0.045 C 
ATOM     18  C   UNL     1      17.095  17.057 -17.373  1.00  0.00    -0.006 A 
ATOM     19  C   UNL     1      15.642  17.487 -19.310  1.00  0.00     0.072 A 
ATOM     20  C   UNL     1      17.107  18.457 -17.081  1.00  0.00     0.008 A 
ATOM     21  C   UNL     1      15.541  18.837 -18.916  1.00  0.00     0.169 A 
ATOM     22  C   UNL     1      16.231  19.302 -17.793  1.00  0.00     0.162 A 
BRANCH  13  23
ATOM     23  O   UNL     1      15.723  14.644 -19.889  1.00  0.00    -0.507 OA
ATOM     24  H   UNL     1      16.146  14.409 -20.779  1.00  0.00     0.293 HD
ENDBRANCH  13  23
BRANCH  19  25
ATOM     25  C   UNL     1      14.955  17.070 -20.550  1.00  0.00     0.264 C 
ATOM     26  O   UNL     1      13.704  16.920 -20.570  1.00  0.00    -0.298 OA
ENDBRANCH  19  25
BRANCH  20  27
ATOM     27  C   UNL     1      18.033  19.054 -16.004  1.00  0.00     0.017 C 
ATOM     28  C   UNL     1      19.504  18.883 -16.395  1.00  0.00     0.012 C 
ATOM     29  C   UNL     1      17.764  18.518 -14.585  1.00  0.00     0.012 C 
ENDBRANCH  20  27
BRANCH  21  30
ATOM     30  O   UNL     1      14.784  19.761 -19.646  1.00  0.00    -0.504 OA
ATOM     31  H   UNL     1      14.971  20.754 -19.677  1.00  0.00     0.293 HD
ENDBRANCH  21  30
BRANCH  22  32
ATOM     32  O   UNL     1      16.047  20.623 -17.378  1.00  0.00    -0.504 OA
ATOM     33  H   UNL     1      15.934  20.887 -16.407  1.00  0.00     0.293 HD
ENDBRANCH  22  32
ENDBRANCH  11  12
BRANCH  10  34
ATOM     34  O   UNL     1      19.363  13.130 -19.354  1.00  0.00    -0.507 OA
ATOM     35  H   UNL     1      20.333  12.895 -19.182  1.00  0.00     0.293 HD
ENDBRANCH  10  34
BRANCH   9  36
ATOM     36  C   UNL     1      16.697   7.666 -17.989  1.00  0.00     0.017 C 
ATOM     37  C   UNL     1      15.652   6.919 -18.822  1.00  0.00     0.012 C 
ATOM     38  C   UNL     1      17.562   6.692 -17.166  1.00  0.00     0.012 C 
ENDBRANCH   9  36
BRANCH   6  39
ATOM     39  C   UNL     1      20.125  11.244 -21.108  1.00  0.00     0.264 C 
ATOM     40  O   UNL     1      19.743  11.629 -22.245  1.00  0.00    -0.298 OA
ENDBRANCH   6  39
BRANCH   8  41
ATOM     41  O   UNL     1      18.512   6.737 -19.996  1.00  0.00    -0.504 OA
ATOM     42  H   UNL     1      17.866   6.068 -19.605  1.00  0.00     0.293 HD
ENDBRANCH   8  41
BRANCH   7  43
ATOM     43  O   UNL     1      20.163   8.512 -21.503  1.00  0.00    -0.504 OA
ATOM     44  H   UNL     1      20.714   7.671 -21.431  1.00  0.00     0.293 HD
ENDBRANCH   7  43
TORSDOF 11
ENDMDL
MODEL 4
REMARK VINA RESULT:    -5.896      0.812      9.051
REMARK INTER + INTRA:          -9.697
REMARK INTER:                  -8.543
REMARK INTRA:                  -1.154
REMARK UNBOUND:                -1.044
REMARK SMILES Cc1cc2c(C(C)C)c(O)c(O)c(C=O)c2c(O)c1-c1c(C)cc2c(C(C)C)c(O)c(O)c(C=O)c2c1O
REMARK SMILES IDX 1 1 2 2 3 3 4 4 16 5 13 6 11 7 9 8 5 9 17 10 19 11 20 12
REMARK SMILES IDX 37 13 21 14 36 15 23 16 22 17 24 18 33 19 25 20 31 21 29 22
REMARK SMILES IDX 38 23 34 25 35 26 26 27 27 28 28 29 32 30 30 32 18 34 6 36
REMARK SMILES IDX 7 37 8 38 14 39 15 40 10 41 12 43
REMARK H PARENT 38 24 32 31 30 33 18 35 10 42 12 44
REMARK Flexibility Score: inf
ROOT
ATOM      1  C   UNL     1      12.405  16.136 -21.593  1.00  0.00     0.045 C 
ATOM      2  C   UNL     1      13.346  17.060 -20.859  1.00  0.00    -0.039 A 
ATOM      3  C   UNL     1      13.102  18.436 -20.864  1.00  0.00     0.013 A 
ATOM      4  C   UNL     1      13.953  19.344 -20.199  1.00  0.00    -0.006 A 
ATOM      5  C   UNL     1      14.997  18.822 -19.381  1.00  0.00     0.039 A 
ATOM      6  C   UNL     1      15.682  19.701 -18.494  1.00  0.00     0.072 A 
ATOM      7  C   UNL     1      15.372  21.074 -18.484  1.00  0.00     0.169 A 
ATOM      8  C   UNL     1      14.449  21.605 -19.408  1.00  0.00     0.162 A 
ATOM      9  C   UNL     1      13.774  20.754 -20.315  1.00  0.00     0.008 A 
ATOM     10  C   UNL     1      15.327  17.440 -19.491  1.00  0.00     0.132 A 
ATOM     11  C   UNL     1      14.488  16.564 -20.212  1.00  0.00     0.031 A 
ENDROOT
BRANCH  11  12
ATOM     12  C   UNL     1      14.805  15.113 -20.281  1.00  0.00     0.031 A 
ATOM     13  C   UNL     1      14.355  14.239 -19.267  1.00  0.00     0.132 A 
ATOM     14  C   UNL     1      15.521  14.608 -21.378  1.00  0.00    -0.039 A 
ATOM     15  C   UNL     1      14.673  12.846 -19.315  1.00  0.00     0.039 A 
ATOM     16  C   UNL     1      15.800  13.243 -21.450  1.00  0.00     0.013 A 
ATOM     17  C   UNL     1      15.943  15.509 -22.514  1.00  0.00     0.045 C 
ATOM     18  C   UNL     1      15.444  12.353 -20.413  1.00  0.00    -0.006 A 
ATOM     19  C   UNL     1      14.210  11.923 -18.329  1.00  0.00     0.072 A 
ATOM     20  C   UNL     1      15.807  10.971 -20.474  1.00  0.00     0.008 A 
ATOM     21  C   UNL     1      14.449  10.543 -18.490  1.00  0.00     0.169 A 
ATOM     22  C   UNL     1      15.201  10.074 -19.571  1.00  0.00     0.162 A 
BRANCH  13  23
ATOM     23  O   UNL     1      13.573  14.753 -18.227  1.00  0.00    -0.507 OA
ATOM     24  H   UNL     1      12.855  14.228 -17.744  1.00  0.00     0.293 HD
ENDBRANCH  13  23
BRANCH  19  25
ATOM     25  C   UNL     1      13.477  12.368 -17.125  1.00  0.00     0.264 C 
ATOM     26  O   UNL     1      12.221  12.282 -17.072  1.00  0.00    -0.298 OA
ENDBRANCH  19  25
BRANCH  20  27
ATOM     27  C   UNL     1      16.823  10.444 -21.505  1.00  0.00     0.017 C 
ATOM     28  C   UNL     1      16.204   9.337 -22.363  1.00  0.00     0.012 C 
ATOM     29  C   UNL     1      18.160   9.992 -20.886  1.00  0.00     0.012 C 
ENDBRANCH  20  27
BRANCH  21  30
ATOM     30  O   UNL     1      13.978   9.603 -17.565  1.00  0.00    -0.504 OA
ATOM     31  H   UNL     1      14.353   8.670 -17.459  1.00  0.00     0.293 HD
ENDBRANCH  21  30
BRANCH  22  32
ATOM     32  O   UNL     1      15.351   8.697 -19.750  1.00  0.00    -0.504 OA
ATOM     33  H   UNL     1      14.670   8.125 -20.234  1.00  0.00     0.293 HD
ENDBRANCH  22  32
ENDBRANCH  11  12
BRANCH  10  34
ATOM     34  O   UNL     1      16.509  16.952 -18.922  1.00  0.00    -0.507 OA
ATOM     35  H   UNL     1      16.552  16.128 -18.334  1.00  0.00     0.293 HD
ENDBRANCH  10  34
BRANCH   9  36
ATOM     36  C   UNL     1      12.876  21.359 -21.411  1.00  0.00     0.017 C 
ATOM     37  C   UNL     1      11.886  22.365 -20.815  1.00  0.00     0.012 C 
ATOM     38  C   UNL     1      13.659  21.971 -22.588  1.00  0.00     0.012 C 
ENDBRANCH   9  36
BRANCH   6  39
ATOM     39  C   UNL     1      16.604  19.195 -17.449  1.00  0.00     0.264 C 
ATOM     40  O   UNL     1      17.830  19.485 -17.472  1.00  0.00    -0.298 OA
ENDBRANCH   6  39
BRANCH   8  41
ATOM     41  O   UNL     1      14.172  22.975 -19.437  1.00  0.00    -0.504 OA
ATOM     42  H   UNL     1      14.252  23.563 -20.253  1.00  0.00     0.293 HD
ENDBRANCH   8  41
BRANCH   7  43
ATOM     43  O   UNL     1      15.979  21.884 -17.516  1.00  0.00    -0.504 OA
ATOM     44  H   UNL     1      15.684  21.953 -16.554  1.00  0.00     0.293 HD
ENDBRANCH   7  43
TORSDOF 11
ENDMDL
MODEL 5
REMARK VINA RESULT:    -5.627      4.769     10.745
REMARK INTER + INTRA:          -9.302
REMARK INTER:                  -8.106
REMARK INTRA:                  -1.196
REMARK UNBOUND:                -1.044
REMARK SMILES Cc1cc2c(C(C)C)c(O)c(O)c(C=O)c2c(O)c1-c1c(C)cc2c(C(C)C)c(O)c(O)c(C=O)c2c1O
REMARK SMILES IDX 1 1 2 2 3 3 4 4 16 5 13 6 11 7 9 8 5 9 17 10 19 11 20 12
REMARK SMILES IDX 37 13 21 14 36 15 23 16 22 17 24 18 33 19 25 20 31 21 29 22
REMARK SMILES IDX 38 23 34 25 35 26 26 27 27 28 28 29 32 30 30 32 18 34 6 36
REMARK SMILES IDX 7 37 8 38 14 39 15 40 10 41 12 43
REMARK H PARENT 38 24 32 31 30 33 18 35 10 42 12 44
REMARK Flexibility Score: inf
ROOT
ATOM      1  C   UNL     1      21.376  13.033 -15.186  1.00  0.00     0.045 C 
ATOM      2  C   UNL     1      20.447  14.170 -15.535  1.00  0.00    -0.039 A 
ATOM      3  C   UNL     1      20.645  15.424 -14.951  1.00  0.00     0.013 A 
ATOM      4  C   UNL     1      19.801  16.519 -15.238  1.00  0.00    -0.006 A 
ATOM      5  C   UNL     1      18.822  16.372 -16.262  1.00  0.00     0.039 A 
ATOM      6  C   UNL     1      18.157  17.532 -16.751  1.00  0.00     0.072 A 
ATOM      7  C   UNL     1      18.422  18.790 -16.177  1.00  0.00     0.169 A 
ATOM      8  C   UNL     1      19.275  18.901 -15.061  1.00  0.00     0.162 A 
ATOM      9  C   UNL     1      19.927  17.757 -14.542  1.00  0.00     0.008 A 
ATOM     10  C   UNL     1      18.532  15.065 -16.750  1.00  0.00     0.132 A 
ATOM     11  C   UNL     1      19.358  13.976 -16.400  1.00  0.00     0.031 A 
ENDROOT
BRANCH  11  12
ATOM     12  C   UNL     1      19.086  12.622 -16.952  1.00  0.00     0.031 A 
ATOM     13  C   UNL     1      19.613  12.250 -18.208  1.00  0.00     0.132 A 
ATOM     14  C   UNL     1      18.336  11.703 -16.203  1.00  0.00    -0.039 A 
ATOM     15  C   UNL     1      19.338  10.958 -18.756  1.00  0.00     0.039 A 
ATOM     16  C   UNL     1      18.098  10.427 -16.716  1.00  0.00     0.013 A 
ATOM     17  C   UNL     1      17.830  12.049 -14.823  1.00  0.00     0.045 C 
ATOM     18  C   UNL     1      18.532  10.047 -18.005  1.00  0.00    -0.006 A 
ATOM     19  C   UNL     1      19.878  10.529 -20.007  1.00  0.00     0.072 A 
ATOM     20  C   UNL     1      18.212   8.761 -18.539  1.00  0.00     0.008 A 
ATOM     21  C   UNL     1      19.677   9.203 -20.442  1.00  0.00     0.169 A 
ATOM     22  C   UNL     1      18.891   8.322 -19.695  1.00  0.00     0.162 A 
BRANCH  13  23
ATOM     23  O   UNL     1      20.426  13.155 -18.898  1.00  0.00    -0.507 OA
ATOM     24  H   UNL     1      20.943  12.927 -19.739  1.00  0.00     0.293 HD
ENDBRANCH  13  23
BRANCH  19  25
ATOM     25  C   UNL     1      20.653  11.438 -20.876  1.00  0.00     0.264 C 
ATOM     26  O   UNL     1      20.253  11.709 -22.040  1.00  0.00    -0.298 OA
ENDBRANCH  19  25
BRANCH  20  27
ATOM     27  C   UNL     1      17.166   7.844 -17.877  1.00  0.00     0.017 C 
ATOM     28  C   UNL     1      17.838   6.633 -17.223  1.00  0.00     0.012 C 
ATOM     29  C   UNL     1      16.029   7.412 -18.822  1.00  0.00     0.012 C 
ENDBRANCH  20  27
BRANCH  21  30
ATOM     30  O   UNL     1      20.223   8.734 -21.643  1.00  0.00    -0.504 OA
ATOM     31  H   UNL     1      20.363   7.756 -21.862  1.00  0.00     0.293 HD
ENDBRANCH  21  30
BRANCH  22  32
ATOM     32  O   UNL     1      18.777   6.992 -20.107  1.00  0.00    -0.504 OA
ATOM     33  H   UNL     1      19.576   6.385 -20.240  1.00  0.00     0.293 HD
ENDBRANCH  22  32
ENDBRANCH  11  12
BRANCH  10  34
ATOM     34  O   UNL     1      17.400  14.844 -17.543  1.00  0.00    -0.507 OA
ATOM     35  H   UNL     1      17.224  13.984 -18.047  1.00  0.00     0.293 HD
ENDBRANCH  10  34
BRANCH   9  36
ATOM     36  C   UNL     1      20.744  17.865 -13.240  1.00  0.00     0.017 C 
ATOM     37  C   UNL     1      20.008  17.199 -12.074  1.00  0.00     0.012 C 
ATOM     38  C   UNL     1      22.187  17.341 -13.367  1.00  0.00     0.012 C 
ENDBRANCH   9  36
BRANCH   6  39
ATOM     39  C   UNL     1      17.311  17.494 -17.968  1.00  0.00     0.264 C 
ATOM     40  O   UNL     1      16.061  17.632 -17.892  1.00  0.00    -0.298 OA
ENDBRANCH   6  39
BRANCH   8  41
ATOM     41  O   UNL     1      19.504  20.140 -14.455  1.00  0.00    -0.504 OA
ATOM     42  H   UNL     1      18.793  20.714 -14.028  1.00  0.00     0.293 HD
ENDBRANCH   8  41
BRANCH   7  43
ATOM     43  O   UNL     1      17.842  19.922 -16.765  1.00  0.00    -0.504 OA
ATOM     44  H   UNL     1      16.869  20.175 -16.694  1.00  0.00     0.293 HD
ENDBRANCH   7  43
TORSDOF 11
ENDMDL
MODEL 6
REMARK VINA RESULT:    -5.625      1.925      3.257
REMARK INTER + INTRA:          -9.300
REMARK INTER:                  -8.052
REMARK INTRA:                  -1.248
REMARK UNBOUND:                -1.044
REMARK SMILES Cc1cc2c(C(C)C)c(O)c(O)c(C=O)c2c(O)c1-c1c(C)cc2c(C(C)C)c(O)c(O)c(C=O)c2c1O
REMARK SMILES IDX 1 1 2 2 3 3 4 4 16 5 13 6 11 7 9 8 5 9 17 10 19 11 20 12
REMARK SMILES IDX 37 13 21 14 36 15 23 16 22 17 24 18 33 19 25 20 31 21 29 22
REMARK SMILES IDX 38 23 34 25 35 26 26 27 27 28 28 29 32 30 30 32 18 34 6 36
REMARK SMILES IDX 7 37 8 38 14 39 15 40 10 41 12 43
REMARK H PARENT 38 24 32 31 30 33 18 35 10 42 12 44
REMARK Flexibility Score: inf
ROOT
ATOM      1  C   UNL     1      13.707  14.494 -17.337  1.00  0.00     0.045 C 
ATOM      2  C   UNL     1      14.554  13.849 -18.406  1.00  0.00    -0.039 A 
ATOM      3  C   UNL     1      14.824  12.480 -18.336  1.00  0.00     0.013 A 
ATOM      4  C   UNL     1      15.616  11.829 -19.307  1.00  0.00    -0.006 A 
ATOM      5  C   UNL     1      16.018  12.562 -20.460  1.00  0.00     0.039 A 
ATOM      6  C   UNL     1      16.573  11.858 -21.566  1.00  0.00     0.072 A 
ATOM      7  C   UNL     1      16.780  10.468 -21.483  1.00  0.00     0.169 A 
ATOM      8  C   UNL     1      16.525   9.778 -20.281  1.00  0.00     0.162 A 
ATOM      9  C   UNL     1      15.997  10.462 -19.161  1.00  0.00     0.008 A 
ATOM     10  C   UNL     1      15.863  13.979 -20.458  1.00  0.00     0.132 A 
ATOM     11  C   UNL     1      15.114  14.612 -19.443  1.00  0.00     0.031 A 
ENDROOT
BRANCH  11  12
ATOM     12  C   UNL     1      14.908  16.084 -19.471  1.00  0.00     0.031 A 
ATOM     13  C   UNL     1      15.771  16.934 -18.746  1.00  0.00     0.132 A 
ATOM     14  C   UNL     1      13.877  16.627 -20.252  1.00  0.00    -0.039 A 
ATOM     15  C   UNL     1      15.566  18.350 -18.750  1.00  0.00     0.039 A 
ATOM     16  C   UNL     1      13.697  18.010 -20.292  1.00  0.00     0.013 A 
ATOM     17  C   UNL     1      12.992  15.744 -21.100  1.00  0.00     0.045 C 
ATOM     18  C   UNL     1      14.482  18.887 -19.511  1.00  0.00    -0.006 A 
ATOM     19  C   UNL     1      16.434  19.248 -18.058  1.00  0.00     0.072 A 
ATOM     20  C   UNL     1      14.231  20.295 -19.511  1.00  0.00     0.008 A 
ATOM     21  C   UNL     1      16.260  20.641 -18.196  1.00  0.00     0.169 A 
ATOM     22  C   UNL     1      15.198  21.152 -18.947  1.00  0.00     0.162 A 
BRANCH  13  23
ATOM     23  O   UNL     1      16.841  16.374 -18.041  1.00  0.00    -0.507 OA
ATOM     24  H   UNL     1      17.436  16.893 -17.406  1.00  0.00     0.293 HD
ENDBRANCH  13  23
BRANCH  19  25
ATOM     25  C   UNL     1      17.526  18.765 -17.188  1.00  0.00     0.264 C 
ATOM     26  O   UNL     1      17.403  18.785 -15.934  1.00  0.00    -0.298 OA
ENDBRANCH  19  25
BRANCH  20  27
ATOM     27  C   UNL     1      12.948  20.891 -20.121  1.00  0.00     0.017 C 
ATOM     28  C   UNL     1      13.261  21.648 -21.414  1.00  0.00     0.012 C 
ATOM     29  C   UNL     1      12.140  21.763 -19.142  1.00  0.00     0.012 C 
ENDBRANCH  20  27
BRANCH  21  30
ATOM     30  O   UNL     1      17.113  21.554 -17.565  1.00  0.00    -0.504 OA
ATOM     31  H   UNL     1      16.976  22.555 -17.564  1.00  0.00     0.293 HD
ENDBRANCH  21  30
BRANCH  22  32
ATOM     32  O   UNL     1      15.099  22.533 -19.135  1.00  0.00    -0.504 OA
ATOM     33  H   UNL     1      14.660  22.950 -19.947  1.00  0.00     0.293 HD
ENDBRANCH  22  32
ENDBRANCH  11  12
BRANCH  10  34
ATOM     34  O   UNL     1      16.490  14.757 -21.439  1.00  0.00    -0.507 OA
ATOM     35  H   UNL     1      16.482  14.532 -22.426  1.00  0.00     0.293 HD
ENDBRANCH  10  34
BRANCH   9  36
ATOM     36  C   UNL     1      15.854   9.730 -17.813  1.00  0.00     0.017 C 
ATOM     37  C   UNL     1      14.751   8.669 -17.879  1.00  0.00     0.012 C 
ATOM     38  C   UNL     1      17.174   9.136 -17.286  1.00  0.00     0.012 C 
ENDBRANCH   9  36
BRANCH   6  39
ATOM     39  C   UNL     1      16.790  12.511 -22.880  1.00  0.00     0.264 C 
ATOM     40  O   UNL     1      17.929  12.521 -23.417  1.00  0.00    -0.298 OA
ENDBRANCH   6  39
BRANCH   8  41
ATOM     41  O   UNL     1      16.775   8.406 -20.177  1.00  0.00    -0.504 OA
ATOM     42  H   UNL     1      17.449   7.899 -20.729  1.00  0.00     0.293 HD
ENDBRANCH   8  41
BRANCH   7  43
ATOM     43  O   UNL     1      17.213   9.793 -22.632  1.00  0.00    -0.504 OA
ATOM     44  H   UNL     1      18.143   9.850 -23.019  1.00  0.00     0.293 HD
ENDBRANCH   7  43
TORSDOF 11
ENDMDL
MODEL 7
REMARK VINA RESULT:    -5.585      3.598     10.058
REMARK INTER + INTRA:          -9.240
REMARK INTER:                  -7.884
REMARK INTRA:                  -1.356
REMARK UNBOUND:                -1.044
REMARK SMILES Cc1cc2c(C(C)C)c(O)c(O)c(C=O)c2c(O)c1-c1c(C)cc2c(C(C)C)c(O)c(O)c(C=O)c2c1O
REMARK SMILES IDX 1 1 2 2 3 3 4 4 16 5 13 6 11 7 9 8 5 9 17 10 19 11 20 12
REMARK SMILES IDX 37 13 21 14 36 15 23 16 22 17 24 18 33 19 25 20 31 21 29 22
REMARK SMILES IDX 38 23 34 25 35 26 26 27 27 28 28 29 32 30 30 32 18 34 6 36
REMARK SMILES IDX 7 37 8 38 14 39 15 40 10 41 12 43
REMARK H PARENT 38 24 32 31 30 33 18 35 10 42 12 44
REMARK Flexibility Score: inf
ROOT
ATOM      1  C   UNL     1      19.847  14.140 -16.384  1.00  0.00     0.045 C 
ATOM      2  C   UNL     1      18.693  14.929 -16.950  1.00  0.00    -0.039 A 
ATOM      3  C   UNL     1      18.601  16.298 -16.685  1.00  0.00     0.013 A 
ATOM      4  C   UNL     1      17.538  17.082 -17.185  1.00  0.00    -0.006 A 
ATOM      5  C   UNL     1      16.627  16.485 -18.103  1.00  0.00     0.039 A 
ATOM      6  C   UNL     1      15.727  17.321 -18.823  1.00  0.00     0.072 A 
ATOM      7  C   UNL     1      15.699  18.706 -18.572  1.00  0.00     0.169 A 
ATOM      8  C   UNL     1      16.494  19.263 -17.551  1.00  0.00     0.162 A 
ATOM      9  C   UNL     1      17.378  18.447 -16.806  1.00  0.00     0.008 A 
ATOM     10  C   UNL     1      16.641  15.068 -18.257  1.00  0.00     0.132 A 
ATOM     11  C   UNL     1      17.684  14.301 -17.697  1.00  0.00     0.031 A 
ENDROOT
BRANCH  11  12
ATOM     12  C   UNL     1      17.726  12.829 -17.904  1.00  0.00     0.031 A 
ATOM     13  C   UNL     1      18.419  12.288 -19.009  1.00  0.00     0.132 A 
ATOM     14  C   UNL     1      17.106  11.978 -16.976  1.00  0.00    -0.039 A 
ATOM     15  C   UNL     1      18.445  10.875 -19.226  1.00  0.00     0.039 A 
ATOM     16  C   UNL     1      17.163  10.597 -17.162  1.00  0.00     0.013 A 
ATOM     17  C   UNL     1      16.429  12.530 -15.743  1.00  0.00     0.045 C 
ATOM     18  C   UNL     1      17.770  10.021 -18.300  1.00  0.00    -0.006 A 
ATOM     19  C   UNL     1      19.161  10.283 -20.312  1.00  0.00     0.072 A 
ATOM     20  C   UNL     1      17.750   8.607 -18.507  1.00  0.00     0.008 A 
ATOM     21  C   UNL     1      19.257   8.880 -20.410  1.00  0.00     0.169 A 
ATOM     22  C   UNL     1      18.595   8.058 -19.494  1.00  0.00     0.162 A 
BRANCH  13  23
ATOM     23  O   UNL     1      19.097  13.152 -19.874  1.00  0.00    -0.507 OA
ATOM     24  H   UNL     1      18.776  14.081 -20.116  1.00  0.00     0.293 HD
ENDBRANCH  13  23
BRANCH  19  25
ATOM     25  C   UNL     1      19.817  11.101 -21.353  1.00  0.00     0.264 C 
ATOM     26  O   UNL     1      19.252  11.301 -22.461  1.00  0.00    -0.298 OA
ENDBRANCH  19  25
BRANCH  20  27
ATOM     27  C   UNL     1      16.848   7.677 -17.674  1.00  0.00     0.017 C 
ATOM     28  C   UNL     1      17.683   6.821 -16.717  1.00  0.00     0.012 C 
ATOM     29  C   UNL     1      15.899   6.808 -18.521  1.00  0.00     0.012 C 
ENDBRANCH  20  27
BRANCH  21  30
ATOM     30  O   UNL     1      19.982   8.263 -21.436  1.00  0.00    -0.504 OA
ATOM     31  H   UNL     1      20.230   7.283 -21.449  1.00  0.00     0.293 HD
ENDBRANCH  21  30
BRANCH  22  32
ATOM     32  O   UNL     1      18.775   6.674 -19.565  1.00  0.00    -0.504 OA
ATOM     33  H   UNL     1      18.040   6.035 -19.845  1.00  0.00     0.293 HD
ENDBRANCH  22  32
ENDBRANCH  11  12
BRANCH  10  34
ATOM     34  O   UNL     1      15.594  14.423 -18.927  1.00  0.00    -0.507 OA
ATOM     35  H   UNL     1      15.731  13.692 -19.614  1.00  0.00     0.293 HD
ENDBRANCH  10  34
BRANCH   9  36
ATOM     36  C   UNL     1      18.137  19.038 -15.602  1.00  0.00     0.017 C 
ATOM     37  C   UNL     1      17.801  18.278 -14.315  1.00  0.00     0.012 C 
ATOM     38  C   UNL     1      19.659  19.138 -15.815  1.00  0.00     0.012 C 
ENDBRANCH   9  36
BRANCH   6  39
ATOM     39  C   UNL     1      14.923  16.810 -19.959  1.00  0.00     0.264 C 
ATOM     40  O   UNL     1      13.685  16.611 -19.839  1.00  0.00    -0.298 OA
ENDBRANCH   6  39
BRANCH   8  41
ATOM     41  O   UNL     1      16.436  20.630 -17.263  1.00  0.00    -0.504 OA
ATOM     42  H   UNL     1      15.767  21.274 -17.657  1.00  0.00     0.293 HD
ENDBRANCH   8  41
BRANCH   7  43
ATOM     43  O   UNL     1      14.889  19.510 -19.384  1.00  0.00    -0.504 OA
ATOM     44  H   UNL     1      14.152  19.169 -19.983  1.00  0.00     0.293 HD
ENDBRANCH   7  43
TORSDOF 11
ENDMDL
MODEL 8
REMARK VINA RESULT:    -5.573      1.844      9.045
REMARK INTER + INTRA:          -9.222
REMARK INTER:                  -8.106
REMARK INTRA:                  -1.116
REMARK UNBOUND:                -1.044
REMARK SMILES Cc1cc2c(C(C)C)c(O)c(O)c(C=O)c2c(O)c1-c1c(C)cc2c(C(C)C)c(O)c(O)c(C=O)c2c1O
REMARK SMILES IDX 1 1 2 2 3 3 4 4 16 5 13 6 11 7 9 8 5 9 17 10 19 11 20 12
REMARK SMILES IDX 37 13 21 14 36 15 23 16 22 17 24 18 33 19 25 20 31 21 29 22
REMARK SMILES IDX 38 23 34 25 35 26 26 27 27 28 28 29 32 30 30 32 18 34 6 36
REMARK SMILES IDX 7 37 8 38 14 39 15 40 10 41 12 43
REMARK H PARENT 38 24 32 31 30 33 18 35 10 42 12 44
REMARK Flexibility Score: inf
ROOT
ATOM      1  C   UNL     1      12.595  15.807 -21.289  1.00  0.00     0.045 C 
ATOM      2  C   UNL     1      13.547  16.719 -20.556  1.00  0.00    -0.039 A 
ATOM      3  C   UNL     1      13.394  18.103 -20.665  1.00  0.00     0.013 A 
ATOM      4  C   UNL     1      14.260  19.001 -20.004  1.00  0.00    -0.006 A 
ATOM      5  C   UNL     1      15.215  18.473 -19.087  1.00  0.00     0.039 A 
ATOM      6  C   UNL     1      15.900  19.367 -18.216  1.00  0.00     0.072 A 
ATOM      7  C   UNL     1      15.681  20.754 -18.314  1.00  0.00     0.169 A 
ATOM      8  C   UNL     1      14.853  21.276 -19.329  1.00  0.00     0.162 A 
ATOM      9  C   UNL     1      14.182  20.408 -20.222  1.00  0.00     0.008 A 
ATOM     10  C   UNL     1      15.460  17.069 -19.087  1.00  0.00     0.132 A 
ATOM     11  C   UNL     1      14.612  16.199 -19.804  1.00  0.00     0.031 A 
ENDROOT
BRANCH  11  12
ATOM     12  C   UNL     1      14.837  14.730 -19.759  1.00  0.00     0.031 A 
ATOM     13  C   UNL     1      15.546  14.089 -20.799  1.00  0.00     0.132 A 
ATOM     14  C   UNL     1      14.374  13.988 -18.662  1.00  0.00    -0.039 A 
ATOM     15  C   UNL     1      15.747  12.674 -20.774  1.00  0.00     0.039 A 
ATOM     16  C   UNL     1      14.603  12.612 -18.613  1.00  0.00     0.013 A 
ATOM     17  C   UNL     1      13.684  14.662 -17.500  1.00  0.00     0.045 C 
ATOM     18  C   UNL     1      15.230  11.922 -19.674  1.00  0.00    -0.006 A 
ATOM     19  C   UNL     1      16.487  11.991 -21.788  1.00  0.00     0.072 A 
ATOM     20  C   UNL     1      15.386  10.502 -19.636  1.00  0.00     0.008 A 
ATOM     21  C   UNL     1      16.761  10.614 -21.651  1.00  0.00     0.169 A 
ATOM     22  C   UNL     1      16.252   9.893 -20.568  1.00  0.00     0.162 A 
BRANCH  13  23
ATOM     23  O   UNL     1      16.068  14.862 -21.841  1.00  0.00    -0.507 OA
ATOM     24  H   UNL     1      16.593  14.484 -22.620  1.00  0.00     0.293 HD
ENDBRANCH  13  23
BRANCH  19  25
ATOM     25  C   UNL     1      16.985  12.685 -22.993  1.00  0.00     0.264 C 
ATOM     26  O   UNL     1      18.163  12.498 -23.400  1.00  0.00    -0.298 OA
ENDBRANCH  19  25
BRANCH  20  27
ATOM     27  C   UNL     1      14.649   9.632 -18.600  1.00  0.00     0.017 C 
ATOM     28  C   UNL     1      15.627   9.080 -17.558  1.00  0.00     0.012 C 
ATOM     29  C   UNL     1      13.800   8.507 -19.222  1.00  0.00     0.012 C 
ENDBRANCH  20  27
BRANCH  21  30
ATOM     30  O   UNL     1      17.516   9.918 -22.603  1.00  0.00    -0.504 OA
ATOM     31  H   UNL     1      18.493  10.091 -22.793  1.00  0.00     0.293 HD
ENDBRANCH  21  30
BRANCH  22  32
ATOM     32  O   UNL     1      16.607   8.551 -20.414  1.00  0.00    -0.504 OA
ATOM     33  H   UNL     1      17.235   8.225 -19.689  1.00  0.00     0.293 HD
ENDBRANCH  22  32
ENDBRANCH  11  12
BRANCH  10  34
ATOM     34  O   UNL     1      16.570  16.549 -18.411  1.00  0.00    -0.507 OA
ATOM     35  H   UNL     1      17.333  16.067 -18.870  1.00  0.00     0.293 HD
ENDBRANCH  10  34
BRANCH   9  36
ATOM     36  C   UNL     1      13.394  20.991 -21.411  1.00  0.00     0.017 C 
ATOM     37  C   UNL     1      13.706  20.230 -22.702  1.00  0.00     0.012 C 
ATOM     38  C   UNL     1      11.876  21.083 -21.165  1.00  0.00     0.012 C 
ENDBRANCH   9  36
BRANCH   6  39
ATOM     39  C   UNL     1      16.721  18.878 -17.082  1.00  0.00     0.264 C 
ATOM     40  O   UNL     1      17.978  18.955 -17.111  1.00  0.00    -0.298 OA
ENDBRANCH   6  39
BRANCH   8  41
ATOM     41  O   UNL     1      14.669  22.655 -19.463  1.00  0.00    -0.504 OA
ATOM     42  H   UNL     1      14.441  23.283 -18.708  1.00  0.00     0.293 HD
ENDBRANCH   8  41
BRANCH   7  43
ATOM     43  O   UNL     1      16.279  21.589 -17.361  1.00  0.00    -0.504 OA
ATOM     44  H   UNL     1      15.822  22.362 -16.904  1.00  0.00     0.293 HD
ENDBRANCH   7  43
TORSDOF 11
ENDMDL
MODEL 9
REMARK VINA RESULT:    -5.390      4.328      6.907
REMARK INTER + INTRA:          -8.955
REMARK INTER:                  -7.679
REMARK INTRA:                  -1.276
REMARK UNBOUND:                -1.044
REMARK SMILES Cc1cc2c(C(C)C)c(O)c(O)c(C=O)c2c(O)c1-c1c(C)cc2c(C(C)C)c(O)c(O)c(C=O)c2c1O
REMARK SMILES IDX 1 1 2 2 3 3 4 4 16 5 13 6 11 7 9 8 5 9 17 10 19 11 20 12
REMARK SMILES IDX 37 13 21 14 36 15 23 16 22 17 24 18 33 19 25 20 31 21 29 22
REMARK SMILES IDX 38 23 34 25 35 26 26 27 27 28 28 29 32 30 30 32 18 34 6 36
REMARK SMILES IDX 7 37 8 38 14 39 15 40 10 41 12 43
REMARK H PARENT 38 24 32 31 30 33 18 35 10 42 12 44
REMARK Flexibility Score: inf
ROOT
ATOM      1  C   UNL     1      15.872  12.033 -15.844  1.00  0.00     0.045 C 
ATOM      2  C   UNL     1      16.926  11.550 -16.809  1.00  0.00    -0.039 A 
ATOM      3  C   UNL     1      16.788  10.294 -17.407  1.00  0.00     0.013 A 
ATOM      4  C   UNL     1      17.748   9.793 -18.313  1.00  0.00    -0.006 A 
ATOM      5  C   UNL     1      18.800  10.656 -18.735  1.00  0.00     0.039 A 
ATOM      6  C   UNL     1      19.607  10.268 -19.842  1.00  0.00     0.072 A 
ATOM      7  C   UNL     1      19.403   9.019 -20.459  1.00  0.00     0.169 A 
ATOM      8  C   UNL     1      18.465   8.108 -19.934  1.00  0.00     0.162 A 
ATOM      9  C   UNL     1      17.669   8.462 -18.819  1.00  0.00     0.008 A 
ATOM     10  C   UNL     1      19.016  11.871 -18.022  1.00  0.00     0.132 A 
ATOM     11  C   UNL     1      18.068  12.321 -17.079  1.00  0.00     0.031 A 
ENDROOT
BRANCH  11  12
ATOM     12  C   UNL     1      18.268  13.615 -16.375  1.00  0.00     0.031 A 
ATOM     13  C   UNL     1      17.799  14.816 -16.952  1.00  0.00     0.132 A 
ATOM     14  C   UNL     1      18.892  13.635 -15.118  1.00  0.00    -0.039 A 
ATOM     15  C   UNL     1      18.007  16.067 -16.292  1.00  0.00     0.039 A 
ATOM     16  C   UNL     1      19.062  14.848 -14.452  1.00  0.00     0.013 A 
ATOM     17  C   UNL     1      19.330  12.356 -14.445  1.00  0.00     0.045 C 
ATOM     18  C   UNL     1      18.686  16.079 -15.034  1.00  0.00    -0.006 A 
ATOM     19  C   UNL     1      17.520  17.300 -16.823  1.00  0.00     0.072 A 
ATOM     20  C   UNL     1      18.938  17.317 -14.365  1.00  0.00     0.008 A 
ATOM     21  C   UNL     1      17.644  18.487 -16.073  1.00  0.00     0.169 A 
ATOM     22  C   UNL     1      18.306  18.483 -14.843  1.00  0.00     0.162 A 
BRANCH  13  23
ATOM     23  O   UNL     1      17.108  14.760 -18.167  1.00  0.00    -0.507 OA
ATOM     24  H   UNL     1      16.494  14.002 -18.436  1.00  0.00     0.293 HD
ENDBRANCH  13  23
BRANCH  19  25
ATOM     25  C   UNL     1      16.879  17.379 -18.152  1.00  0.00     0.264 C 
ATOM     26  O   UNL     1      15.633  17.537 -18.255  1.00  0.00    -0.298 OA
ENDBRANCH  19  25
BRANCH  20  27
ATOM     27  C   UNL     1      19.862  17.400 -13.135  1.00  0.00     0.017 C 
ATOM     28  C   UNL     1      19.063  17.745 -11.875  1.00  0.00     0.012 C 
ATOM     29  C   UNL     1      21.058  18.354 -13.318  1.00  0.00     0.012 C 
ENDBRANCH  20  27
BRANCH  21  30
ATOM     30  O   UNL     1      17.144  19.709 -16.542  1.00  0.00    -0.504 OA
ATOM     31  H   UNL     1      17.452  20.614 -16.213  1.00  0.00     0.293 HD
ENDBRANCH  21  30
BRANCH  22  32
ATOM     32  O   UNL     1      18.342  19.655 -14.083  1.00  0.00    -0.504 OA
ATOM     33  H   UNL     1      19.027  20.387 -14.228  1.00  0.00     0.293 HD
ENDBRANCH  22  32
ENDBRANCH  11  12
BRANCH  10  34
ATOM     34  O   UNL     1      20.192  12.603 -18.221  1.00  0.00    -0.507 OA
ATOM     35  H   UNL     1      20.291  13.584 -17.988  1.00  0.00     0.293 HD
ENDBRANCH  10  34
BRANCH   9  36
ATOM     36  C   UNL     1      16.749   7.411 -18.168  1.00  0.00     0.017 C 
ATOM     37  C   UNL     1      15.647   6.972 -19.137  1.00  0.00     0.012 C 
ATOM     38  C   UNL     1      17.504   6.199 -17.589  1.00  0.00     0.012 C 
ENDBRANCH   9  36
BRANCH   6  39
ATOM     39  C   UNL     1      20.554  11.208 -20.487  1.00  0.00     0.264 C 
ATOM     40  O   UNL     1      20.282  11.747 -21.592  1.00  0.00    -0.298 OA
ENDBRANCH   6  39
BRANCH   8  41
ATOM     41  O   UNL     1      18.291   6.846 -20.511  1.00  0.00    -0.504 OA
ATOM     42  H   UNL     1      18.540   5.972 -20.074  1.00  0.00     0.293 HD
ENDBRANCH   8  41
BRANCH   7  43
ATOM     43  O   UNL     1      20.132   8.725 -21.618  1.00  0.00    -0.504 OA
ATOM     44  H   UNL     1      20.483   7.813 -21.864  1.00  0.00     0.293 HD
ENDBRANCH   7  43
TORSDOF 11
ENDMDL
