MODEL 1
REMARK VINA RESULT:    -2.973      0.000      0.000
REMARK INTER + INTRA:          -3.326
REMARK INTER:                  -3.321
REMARK INTRA:                  -0.006
REMARK UNBOUND:                -0.006
REMARK SMILES CCCC(=O)[O-]
REMARK SMILES IDX 3 1 4 2 5 3 6 4 2 5 1 6
REMARK H PARENT
REMARK Flexibility Score: inf
ROOT
ATOM      1  C   UNL     1       7.729   6.025  -9.025  1.00  0.00     0.052 C 
ENDROOT
BRANCH   1   2
ATOM      2  C   UNL     1       7.716   5.940  -7.532  1.00  0.00     0.041 C 
ATOM      3  O   UNL     1       7.957   6.962  -6.837  1.00  0.00    -0.550 OA
ATOM      4  O   UNL     1       7.488   4.721  -6.907  1.00  0.00    -0.550 OA
ENDBRANCH   1   2
BRANCH   1   5
ATOM      5  C   UNL     1       9.163   5.946  -9.555  1.00  0.00     0.003 C 
ATOM      6  C   UNL     1       9.210   6.193 -11.060  1.00  0.00     0.004 C 
ENDBRANCH   1   5
TORSDOF 2
ENDMDL
MODEL 2
REMARK VINA RESULT:    -2.952     12.983     13.382
REMARK INTER + INTRA:          -3.303
REMARK INTER:                  -3.265
REMARK INTRA:                  -0.038
REMARK UNBOUND:                -0.006
REMARK SMILES CCCC(=O)[O-]
REMARK SMILES IDX 3 1 4 2 5 3 6 4 2 5 1 6
REMARK H PARENT
REMARK Flexibility Score: inf
ROOT
ATOM      1  C   UNL     1      10.042   0.352   2.828  1.00  0.00     0.052 C 
ENDROOT
BRANCH   1   2
ATOM      2  C   UNL     1       9.553  -0.958   2.298  1.00  0.00     0.041 C 
ATOM      3  O   UNL     1       8.337  -1.269   2.397  1.00  0.00    -0.550 OA
ATOM      4  O   UNL     1      10.450  -1.859   1.738  1.00  0.00    -0.550 OA
ENDBRANCH   1   2
BRANCH   1   5
ATOM      5  C   UNL     1      11.572   0.385   2.848  1.00  0.00     0.003 C 
ATOM      6  C   UNL     1      12.107   0.293   4.274  1.00  0.00     0.004 C 
ENDBRANCH   1   5
TORSDOF 2
ENDMDL
MODEL 3
REMARK VINA RESULT:    -2.949     11.492     12.254
REMARK INTER + INTRA:          -3.300
REMARK INTER:                  -3.265
REMARK INTRA:                  -0.035
REMARK UNBOUND:                -0.006
REMARK SMILES CCCC(=O)[O-]
REMARK SMILES IDX 3 1 4 2 5 3 6 4 2 5 1 6
REMARK H PARENT
REMARK Flexibility Score: inf
ROOT
ATOM      1  C   UNL     1      11.456   0.570   0.862  1.00  0.00     0.052 C 
ENDROOT
BRANCH   1   2
ATOM      2  C   UNL     1      11.976  -0.609   0.104  1.00  0.00     0.041 C 
ATOM      3  O   UNL     1      11.425  -1.735   0.226  1.00  0.00    -0.550 OA
ATOM      4  O   UNL     1      13.100  -0.477  -0.702  1.00  0.00    -0.550 OA
ENDBRANCH   1   2
BRANCH   1   5
ATOM      5  C   UNL     1      11.285   0.223   2.343  1.00  0.00     0.003 C 
ATOM      6  C   UNL     1       9.810   0.169   2.731  1.00  0.00     0.004 C 
ENDBRANCH   1   5
TORSDOF 2
ENDMDL
MODEL 4
REMARK VINA RESULT:    -2.930     11.430     12.057
REMARK INTER + INTRA:          -3.278
REMARK INTER:                  -3.242
REMARK INTRA:                  -0.037
REMARK UNBOUND:                -0.006
REMARK SMILES CCCC(=O)[O-]
REMARK SMILES IDX 3 1 4 2 5 3 6 4 2 5 1 6
REMARK H PARENT
REMARK Flexibility Score: inf
ROOT
ATOM      1  C   UNL     1      12.381   0.200   1.003  1.00  0.00     0.052 C 
ENDROOT
BRANCH   1   2
ATOM      2  C   UNL     1      12.718  -0.812  -0.046  1.00  0.00     0.041 C 
ATOM      3  O   UNL     1      13.440  -0.493  -1.026  1.00  0.00    -0.550 OA
ATOM      4  O   UNL     1      12.194  -2.096   0.034  1.00  0.00    -0.550 OA
ENDBRANCH   1   2
BRANCH   1   5
ATOM      5  C   UNL     1      10.904   0.594   0.912  1.00  0.00     0.003 C 
ATOM      6  C   UNL     1      10.140   0.162   2.160  1.00  0.00     0.004 C 
ENDBRANCH   1   5
TORSDOF 2
ENDMDL
MODEL 5
REMARK VINA RESULT:    -2.894     11.488     12.388
REMARK INTER + INTRA:          -3.238
REMARK INTER:                  -3.226
REMARK INTRA:                  -0.012
REMARK UNBOUND:                -0.006
REMARK SMILES CCCC(=O)[O-]
REMARK SMILES IDX 3 1 4 2 5 3 6 4 2 5 1 6
REMARK H PARENT
REMARK Flexibility Score: inf
ROOT
ATOM      1  C   UNL     1      11.257   0.552   0.907  1.00  0.00     0.052 C 
ENDROOT
BRANCH   1   2
ATOM      2  C   UNL     1      12.603  -0.022   0.598  1.00  0.00     0.041 C 
ATOM      3  O   UNL     1      12.840  -0.508  -0.539  1.00  0.00    -0.550 OA
ATOM      4  O   UNL     1      13.582  -0.066   1.583  1.00  0.00    -0.550 OA
ENDBRANCH   1   2
BRANCH   1   5
ATOM      5  C   UNL     1      10.881   0.283   2.366  1.00  0.00     0.003 C 
ATOM      6  C   UNL     1       9.477  -0.307   2.475  1.00  0.00     0.004 C 
ENDBRANCH   1   5
TORSDOF 2
ENDMDL
MODEL 6
REMARK VINA RESULT:    -2.826     11.795     12.044
REMARK INTER + INTRA:          -3.162
REMARK INTER:                  -3.126
REMARK INTRA:                  -0.036
REMARK UNBOUND:                -0.006
REMARK SMILES CCCC(=O)[O-]
REMARK SMILES IDX 3 1 4 2 5 3 6 4 2 5 1 6
REMARK H PARENT
REMARK Flexibility Score: inf
ROOT
ATOM      1  C   UNL     1      10.923   0.511   0.892  1.00  0.00     0.052 C 
ENDROOT
BRANCH   1   2
ATOM      2  C   UNL     1      10.234  -0.243   1.985  1.00  0.00     0.041 C 
ATOM      3  O   UNL     1       9.944   0.332   3.067  1.00  0.00    -0.550 OA
ATOM      4  O   UNL     1       9.955  -1.595   1.828  1.00  0.00    -0.550 OA
ENDBRANCH   1   2
BRANCH   1   5
ATOM      5  C   UNL     1      12.428   0.234   0.917  1.00  0.00     0.003 C 
ATOM      6  C   UNL     1      12.860  -0.578  -0.301  1.00  0.00     0.004 C 
ENDBRANCH   1   5
TORSDOF 2
ENDMDL
MODEL 7
REMARK VINA RESULT:    -2.823     12.185     12.890
REMARK INTER + INTRA:          -3.158
REMARK INTER:                  -3.098
REMARK INTRA:                  -0.061
REMARK UNBOUND:                -0.006
REMARK SMILES CCCC(=O)[O-]
REMARK SMILES IDX 3 1 4 2 5 3 6 4 2 5 1 6
REMARK H PARENT
REMARK Flexibility Score: inf
ROOT
ATOM      1  C   UNL     1      11.301  -1.620   2.221  1.00  0.00     0.052 C 
ENDROOT
BRANCH   1   2
ATOM      2  C   UNL     1      11.341  -1.648   0.726  1.00  0.00     0.041 C 
ATOM      3  O   UNL     1      11.581  -0.595   0.078  1.00  0.00    -0.550 OA
ATOM      4  O   UNL     1      11.063  -2.827   0.045  1.00  0.00    -0.550 OA
ENDBRANCH   1   2
BRANCH   1   5
ATOM      5  C   UNL     1      10.480  -0.426   2.713  1.00  0.00     0.003 C 
ATOM      6  C   UNL     1       8.986  -0.663   2.516  1.00  0.00     0.004 C 
ENDBRANCH   1   5
TORSDOF 2
ENDMDL
MODEL 8
REMARK VINA RESULT:    -2.793     13.241     13.653
REMARK INTER + INTRA:          -3.126
REMARK INTER:                  -3.057
REMARK INTRA:                  -0.068
REMARK UNBOUND:                -0.006
REMARK SMILES CCCC(=O)[O-]
REMARK SMILES IDX 3 1 4 2 5 3 6 4 2 5 1 6
REMARK H PARENT
REMARK Flexibility Score: inf
ROOT
ATOM      1  C   UNL     1      11.069  -0.095   2.066  1.00  0.00     0.052 C 
ENDROOT
BRANCH   1   2
ATOM      2  C   UNL     1      11.745  -0.773   3.214  1.00  0.00     0.041 C 
ATOM      3  O   UNL     1      11.948  -0.149   4.289  1.00  0.00    -0.550 OA
ATOM      4  O   UNL     1      12.195  -2.081   3.082  1.00  0.00    -0.550 OA
ENDBRANCH   1   2
BRANCH   1   5
ATOM      5  C   UNL     1       9.623   0.257   2.425  1.00  0.00     0.003 C 
ATOM      6  C   UNL     1       8.750  -0.993   2.487  1.00  0.00     0.004 C 
ENDBRANCH   1   5
TORSDOF 2
ENDMDL
MODEL 9
REMARK VINA RESULT:    -2.764     12.115     12.801
REMARK INTER + INTRA:          -3.093
REMARK INTER:                  -3.045
REMARK INTRA:                  -0.047
REMARK UNBOUND:                -0.006
REMARK SMILES CCCC(=O)[O-]
REMARK SMILES IDX 3 1 4 2 5 3 6 4 2 5 1 6
REMARK H PARENT
REMARK Flexibility Score: inf
ROOT
ATOM      1  C   UNL     1      10.374  -0.002   2.146  1.00  0.00     0.052 C 
ENDROOT
BRANCH   1   2
ATOM      2  C   UNL     1      11.241   0.085   3.362  1.00  0.00     0.041 C 
ATOM      3  O   UNL     1      11.303   1.155   4.021  1.00  0.00    -0.550 OA
ATOM      4  O   UNL     1      12.020  -1.002   3.739  1.00  0.00    -0.550 OA
ENDBRANCH   1   2
BRANCH   1   5
ATOM      5  C   UNL     1      11.074   0.632   0.942  1.00  0.00     0.003 C 
ATOM      6  C   UNL     1      11.962  -0.379   0.223  1.00  0.00     0.004 C 
ENDBRANCH   1   5
TORSDOF 2
ENDMDL
