MODEL 1
REMARK VINA RESULT:    -4.138      0.000      0.000
REMARK INTER + INTRA:         -15.803
REMARK INTER:                 -10.912
REMARK INTRA:                  -4.892
REMARK UNBOUND:                -4.892
REMARK SMILES CCCCCCCCCCCCCCCCCCCCCCCCCCCCCC(=O)[O-]
REMARK SMILES IDX 16 1 17 2 18 3 19 4 20 5 21 6 22 7 23 8 24 9 25 10 26 11
REMARK SMILES IDX 27 12 28 13 29 14 30 15 31 16 32 17 15 18 14 19 13 20 12 21
REMARK SMILES IDX 11 22 10 23 9 24 8 25 7 26 6 27 5 28 4 29 3 30 2 31 1 32
REMARK H PARENT
REMARK Flexibility Score: inf
ROOT
ATOM      1  C   UNL     1       4.393  -0.757 399.877  1.00  0.00     0.000 C 
ENDROOT
BRANCH   1   2
ATOM      2  C   UNL     1       3.937  -2.225 399.974  1.00  0.00     0.000 C 
BRANCH   2   3
ATOM      3  C   UNL     1       3.462  -2.613 401.386  1.00  0.00     0.000 C 
BRANCH   3   4
ATOM      4  C   UNL     1       3.898  -4.025 401.839  1.00  0.00     0.000 C 
BRANCH   4   5
ATOM      5  C   UNL     1       3.732  -4.283 403.351  1.00  0.00     0.000 C 
BRANCH   5   6
ATOM      6  C   UNL     1       2.633  -3.453 404.038  1.00  0.00     0.000 C 
BRANCH   6   7
ATOM      7  C   UNL     1       3.095  -2.653 405.276  1.00  0.00     0.000 C 
BRANCH   7   8
ATOM      8  C   UNL     1       4.084  -1.505 404.984  1.00  0.00     0.000 C 
BRANCH   8   9
ATOM      9  C   UNL     1       5.462  -1.643 405.656  1.00  0.00     0.000 C 
BRANCH   9  10
ATOM     10  C   UNL     1       6.612  -1.729 404.637  1.00  0.00     0.000 C 
BRANCH  10  11
ATOM     11  C   UNL     1       6.154  -1.436 403.200  1.00  0.00     0.000 C 
BRANCH  11  12
ATOM     12  C   UNL     1       7.315  -1.427 402.189  1.00  0.00     0.000 C 
BRANCH  12  13
ATOM     13  C   UNL     1       7.962  -0.041 402.040  1.00  0.00     0.006 C 
BRANCH  13  14
ATOM     14  C   UNL     1       7.516   0.684 400.761  1.00  0.00     0.053 C 
BRANCH  14  15
ATOM     15  C   UNL     1       8.362   0.280 399.592  1.00  0.00     0.041 C 
ATOM     16  O   UNL     1       7.866  -0.403 398.658  1.00  0.00    -0.550 OA
ATOM     17  O   UNL     1       9.687   0.693 399.515  1.00  0.00    -0.550 OA
ENDBRANCH  14  15
ENDBRANCH  13  14
ENDBRANCH  12  13
ENDBRANCH  11  12
ENDBRANCH  10  11
ENDBRANCH   9  10
ENDBRANCH   8   9
ENDBRANCH   7   8
ENDBRANCH   6   7
ENDBRANCH   5   6
ENDBRANCH   4   5
ENDBRANCH   3   4
ENDBRANCH   2   3
ENDBRANCH   1   2
BRANCH   1  18
ATOM     18  C   UNL     1       3.629   0.154 400.850  1.00  0.00     0.000 C 
BRANCH  18  19
ATOM     19  C   UNL     1       3.844   1.649 400.558  1.00  0.00     0.000 C 
BRANCH  19  20
ATOM     20  C   UNL     1       4.026   2.469 401.845  1.00  0.00     0.000 C 
BRANCH  20  21
ATOM     21  C   UNL     1       4.083   1.581 403.102  1.00  0.00     0.000 C 
BRANCH  21  22
ATOM     22  C   UNL     1       5.318   1.887 403.978  1.00  0.00     0.000 C 
BRANCH  22  23
ATOM     23  C   UNL     1       6.260   2.944 403.370  1.00  0.00     0.000 C 
BRANCH  23  24
ATOM     24  C   UNL     1       6.987   3.775 404.440  1.00  0.00    -0.000 C 
BRANCH  24  25
ATOM     25  C   UNL     1       6.832   5.294 404.241  1.00  0.00    -0.000 C 
BRANCH  25  26
ATOM     26  C   UNL     1       8.136   6.109 404.308  1.00  0.00    -0.000 C 
BRANCH  26  27
ATOM     27  C   UNL     1       7.981   7.548 403.786  1.00  0.00    -0.000 C 
BRANCH  27  28
ATOM     28  C   UNL     1       7.109   8.414 404.709  1.00  0.00    -0.000 C 
BRANCH  28  29
ATOM     29  C   UNL     1       5.923   9.061 403.968  1.00  0.00    -0.000 C 
BRANCH  29  30
ATOM     30  C   UNL     1       5.469   8.236 402.753  1.00  0.00    -0.000 C 
BRANCH  30  31
ATOM     31  C   UNL     1       3.970   7.902 402.798  1.00  0.00    -0.003 C 
ATOM     32  C   UNL     1       3.742   6.395 402.806  1.00  0.00     0.004 C 
ENDBRANCH  30  31
ENDBRANCH  29  30
ENDBRANCH  28  29
ENDBRANCH  27  28
ENDBRANCH  26  27
ENDBRANCH  25  26
ENDBRANCH  24  25
ENDBRANCH  23  24
ENDBRANCH  22  23
ENDBRANCH  21  22
ENDBRANCH  20  21
ENDBRANCH  19  20
ENDBRANCH  18  19
ENDBRANCH   1  18
TORSDOF 28
ENDMDL
MODEL 2
REMARK VINA RESULT:    -4.066      3.293      7.284
REMARK INTER + INTRA:         -15.614
REMARK INTER:                  -9.583
REMARK INTRA:                  -6.031
REMARK UNBOUND:                -4.892
REMARK SMILES CCCCCCCCCCCCCCCCCCCCCCCCCCCCCC(=O)[O-]
REMARK SMILES IDX 16 1 17 2 18 3 19 4 20 5 21 6 22 7 23 8 24 9 25 10 26 11
REMARK SMILES IDX 27 12 28 13 29 14 30 15 31 16 32 17 15 18 14 19 13 20 12 21
REMARK SMILES IDX 11 22 10 23 9 24 8 25 7 26 6 27 5 28 4 29 3 30 2 31 1 32
REMARK H PARENT
REMARK Flexibility Score: inf
ROOT
ATOM      1  C   UNL     1       4.299  -1.035 400.122  1.00  0.00     0.000 C 
ENDROOT
BRANCH   1   2
ATOM      2  C   UNL     1       3.413   0.217 400.262  1.00  0.00     0.000 C 
BRANCH   2   3
ATOM      3  C   UNL     1       4.229   1.509 400.452  1.00  0.00     0.000 C 
BRANCH   3   4
ATOM      4  C   UNL     1       4.022   2.197 401.821  1.00  0.00     0.000 C 
BRANCH   4   5
ATOM      5  C   UNL     1       3.762   1.221 402.986  1.00  0.00     0.000 C 
BRANCH   5   6
ATOM      6  C   UNL     1       4.894   1.127 404.026  1.00  0.00     0.000 C 
BRANCH   6   7
ATOM      7  C   UNL     1       6.306   0.910 403.438  1.00  0.00     0.000 C 
BRANCH   7   8
ATOM      8  C   UNL     1       6.745  -0.564 403.315  1.00  0.00     0.000 C 
BRANCH   8   9
ATOM      9  C   UNL     1       7.559  -0.900 402.053  1.00  0.00     0.000 C 
BRANCH   9  10
ATOM     10  C   UNL     1       7.618   0.272 401.056  1.00  0.00     0.000 C 
BRANCH  10  11
ATOM     11  C   UNL     1       7.642  -0.197 399.592  1.00  0.00     0.000 C 
BRANCH  11  12
ATOM     12  C   UNL     1       7.311   0.929 398.596  1.00  0.00     0.000 C 
BRANCH  12  13
ATOM     13  C   UNL     1       8.423   1.146 397.557  1.00  0.00     0.006 C 
BRANCH  13  14
ATOM     14  C   UNL     1       9.546   2.057 398.075  1.00  0.00     0.053 C 
BRANCH  14  15
ATOM     15  C   UNL     1      10.741   1.253 398.488  1.00  0.00     0.041 C 
ATOM     16  O   UNL     1      11.054   1.162 399.705  1.00  0.00    -0.550 OA
ATOM     17  O   UNL     1      11.485   0.569 397.534  1.00  0.00    -0.550 OA
ENDBRANCH  14  15
ENDBRANCH  13  14
ENDBRANCH  12  13
ENDBRANCH  11  12
ENDBRANCH  10  11
ENDBRANCH   9  10
ENDBRANCH   8   9
ENDBRANCH   7   8
ENDBRANCH   6   7
ENDBRANCH   5   6
ENDBRANCH   4   5
ENDBRANCH   3   4
ENDBRANCH   2   3
ENDBRANCH   1   2
BRANCH   1  18
ATOM     18  C   UNL     1       3.660  -2.275 400.768  1.00  0.00     0.000 C 
BRANCH  18  19
ATOM     19  C   UNL     1       3.885  -2.336 402.288  1.00  0.00     0.000 C 
BRANCH  19  20
ATOM     20  C   UNL     1       3.276  -3.602 402.913  1.00  0.00     0.000 C 
BRANCH  20  21
ATOM     21  C   UNL     1       2.663  -3.333 404.300  1.00  0.00     0.000 C 
BRANCH  21  22
ATOM     22  C   UNL     1       3.142  -1.993 404.900  1.00  0.00     0.000 C 
BRANCH  22  23
ATOM     23  C   UNL     1       3.526  -2.087 406.389  1.00  0.00     0.000 C 
BRANCH  23  24
ATOM     24  C   UNL     1       4.620  -3.136 406.654  1.00  0.00    -0.000 C 
BRANCH  24  25
ATOM     25  C   UNL     1       5.958  -2.807 405.967  1.00  0.00    -0.000 C 
BRANCH  25  26
ATOM     26  C   UNL     1       6.736  -4.015 405.418  1.00  0.00    -0.000 C 
BRANCH  26  27
ATOM     27  C   UNL     1       6.629  -4.165 403.890  1.00  0.00    -0.000 C 
BRANCH  27  28
ATOM     28  C   UNL     1       7.321  -5.436 403.376  1.00  0.00    -0.000 C 
BRANCH  28  29
ATOM     29  C   UNL     1       7.626  -5.377 401.867  1.00  0.00    -0.000 C 
BRANCH  29  30
ATOM     30  C   UNL     1       6.420  -4.897 401.043  1.00  0.00    -0.000 C 
BRANCH  30  31
ATOM     31  C   UNL     1       6.812  -3.865 399.976  1.00  0.00    -0.003 C 
ATOM     32  C   UNL     1       8.268  -4.034 399.555  1.00  0.00     0.004 C 
ENDBRANCH  30  31
ENDBRANCH  29  30
ENDBRANCH  28  29
ENDBRANCH  27  28
ENDBRANCH  26  27
ENDBRANCH  25  26
ENDBRANCH  24  25
ENDBRANCH  23  24
ENDBRANCH  22  23
ENDBRANCH  21  22
ENDBRANCH  20  21
ENDBRANCH  19  20
ENDBRANCH  18  19
ENDBRANCH   1  18
TORSDOF 28
ENDMDL
MODEL 3
REMARK VINA RESULT:    -4.066      3.084      7.656
REMARK INTER + INTRA:         -15.613
REMARK INTER:                 -10.053
REMARK INTRA:                  -5.560
REMARK UNBOUND:                -4.892
REMARK SMILES CCCCCCCCCCCCCCCCCCCCCCCCCCCCCC(=O)[O-]
REMARK SMILES IDX 16 1 17 2 18 3 19 4 20 5 21 6 22 7 23 8 24 9 25 10 26 11
REMARK SMILES IDX 27 12 28 13 29 14 30 15 31 16 32 17 15 18 14 19 13 20 12 21
REMARK SMILES IDX 11 22 10 23 9 24 8 25 7 26 6 27 5 28 4 29 3 30 2 31 1 32
REMARK H PARENT
REMARK Flexibility Score: inf
ROOT
ATOM      1  C   UNL     1       6.387   1.626 404.110  1.00  0.00     0.000 C 
ENDROOT
BRANCH   1   2
ATOM      2  C   UNL     1       5.720   0.238 404.169  1.00  0.00     0.000 C 
BRANCH   2   3
ATOM      3  C   UNL     1       6.574  -0.864 403.517  1.00  0.00     0.000 C 
BRANCH   3   4
ATOM      4  C   UNL     1       7.819  -0.343 402.764  1.00  0.00     0.000 C 
BRANCH   4   5
ATOM      5  C   UNL     1       7.748  -0.510 401.232  1.00  0.00     0.000 C 
BRANCH   5   6
ATOM      6  C   UNL     1       7.417   0.774 400.450  1.00  0.00     0.000 C 
BRANCH   6   7
ATOM      7  C   UNL     1       6.882   0.549 399.019  1.00  0.00     0.000 C 
BRANCH   7   8
ATOM      8  C   UNL     1       7.665   1.274 397.904  1.00  0.00     0.000 C 
BRANCH   8   9
ATOM      9  C   UNL     1       8.206   0.364 396.787  1.00  0.00     0.000 C 
BRANCH   9  10
ATOM     10  C   UNL     1       9.025  -0.820 397.332  1.00  0.00     0.000 C 
BRANCH  10  11
ATOM     11  C   UNL     1      10.541  -0.611 397.181  1.00  0.00     0.000 C 
BRANCH  11  12
ATOM     12  C   UNL     1      11.276  -0.548 398.531  1.00  0.00     0.000 C 
BRANCH  12  13
ATOM     13  C   UNL     1      10.958   0.733 399.320  1.00  0.00     0.006 C 
BRANCH  13  14
ATOM     14  C   UNL     1      11.257   2.009 398.520  1.00  0.00     0.053 C 
BRANCH  14  15
ATOM     15  C   UNL     1      12.719   2.121 398.214  1.00  0.00     0.041 C 
ATOM     16  O   UNL     1      13.561   2.167 399.149  1.00  0.00    -0.550 OA
ATOM     17  O   UNL     1      13.155   2.133 396.894  1.00  0.00    -0.550 OA
ENDBRANCH  14  15
ENDBRANCH  13  14
ENDBRANCH  12  13
ENDBRANCH  11  12
ENDBRANCH  10  11
ENDBRANCH   9  10
ENDBRANCH   8   9
ENDBRANCH   7   8
ENDBRANCH   6   7
ENDBRANCH   5   6
ENDBRANCH   4   5
ENDBRANCH   3   4
ENDBRANCH   2   3
ENDBRANCH   1   2
BRANCH   1  18
ATOM     18  C   UNL     1       5.639   2.592 403.178  1.00  0.00     0.000 C 
BRANCH  18  19
ATOM     19  C   UNL     1       4.252   2.069 402.768  1.00  0.00     0.000 C 
BRANCH  19  20
ATOM     20  C   UNL     1       3.840   2.557 401.370  1.00  0.00     0.000 C 
BRANCH  20  21
ATOM     21  C   UNL     1       3.581   1.393 400.396  1.00  0.00     0.000 C 
BRANCH  21  22
ATOM     22  C   UNL     1       3.829   0.017 401.052  1.00  0.00     0.000 C 
BRANCH  22  23
ATOM     23  C   UNL     1       3.862  -1.150 400.046  1.00  0.00     0.000 C 
BRANCH  23  24
ATOM     24  C   UNL     1       4.040  -2.517 400.729  1.00  0.00    -0.000 C 
BRANCH  24  25
ATOM     25  C   UNL     1       5.491  -3.029 400.698  1.00  0.00    -0.000 C 
BRANCH  25  26
ATOM     26  C   UNL     1       5.682  -4.509 401.075  1.00  0.00    -0.000 C 
BRANCH  26  27
ATOM     27  C   UNL     1       4.961  -4.902 402.376  1.00  0.00    -0.000 C 
BRANCH  27  28
ATOM     28  C   UNL     1       5.693  -4.390 403.627  1.00  0.00    -0.000 C 
BRANCH  28  29
ATOM     29  C   UNL     1       4.726  -3.875 404.710  1.00  0.00    -0.000 C 
BRANCH  29  30
ATOM     30  C   UNL     1       3.404  -3.356 404.118  1.00  0.00    -0.000 C 
BRANCH  30  31
ATOM     31  C   UNL     1       2.756  -2.273 404.993  1.00  0.00    -0.003 C 
ATOM     32  C   UNL     1       3.328  -2.291 406.406  1.00  0.00     0.004 C 
ENDBRANCH  30  31
ENDBRANCH  29  30
ENDBRANCH  28  29
ENDBRANCH  27  28
ENDBRANCH  26  27
ENDBRANCH  25  26
ENDBRANCH  24  25
ENDBRANCH  23  24
ENDBRANCH  22  23
ENDBRANCH  21  22
ENDBRANCH  20  21
ENDBRANCH  19  20
ENDBRANCH  18  19
ENDBRANCH   1  18
TORSDOF 28
ENDMDL
MODEL 4
REMARK VINA RESULT:    -3.973      2.864      7.007
REMARK INTER + INTRA:         -15.368
REMARK INTER:                  -9.780
REMARK INTRA:                  -5.588
REMARK UNBOUND:                -4.892
REMARK SMILES CCCCCCCCCCCCCCCCCCCCCCCCCCCCCC(=O)[O-]
REMARK SMILES IDX 16 1 17 2 18 3 19 4 20 5 21 6 22 7 23 8 24 9 25 10 26 11
REMARK SMILES IDX 27 12 28 13 29 14 30 15 31 16 32 17 15 18 14 19 13 20 12 21
REMARK SMILES IDX 11 22 10 23 9 24 8 25 7 26 6 27 5 28 4 29 3 30 2 31 1 32
REMARK H PARENT
REMARK Flexibility Score: inf
ROOT
ATOM      1  C   UNL     1       3.245  -3.357 401.330  1.00  0.00     0.000 C 
ENDROOT
BRANCH   1   2
ATOM      2  C   UNL     1       3.974  -2.422 400.347  1.00  0.00     0.000 C 
BRANCH   2   3
ATOM      3  C   UNL     1       4.305  -1.049 400.961  1.00  0.00     0.000 C 
BRANCH   3   4
ATOM      4  C   UNL     1       3.793   0.156 400.139  1.00  0.00     0.000 C 
BRANCH   4   5
ATOM      5  C   UNL     1       4.421   1.507 400.539  1.00  0.00     0.000 C 
BRANCH   5   6
ATOM      6  C   UNL     1       3.782   2.187 401.763  1.00  0.00     0.000 C 
BRANCH   6   7
ATOM      7  C   UNL     1       4.604   2.095 403.067  1.00  0.00     0.000 C 
BRANCH   7   8
ATOM      8  C   UNL     1       6.098   2.457 402.928  1.00  0.00     0.000 C 
BRANCH   8   9
ATOM      9  C   UNL     1       7.060   1.598 403.769  1.00  0.00     0.000 C 
BRANCH   9  10
ATOM     10  C   UNL     1       8.081   0.835 402.906  1.00  0.00     0.000 C 
BRANCH  10  11
ATOM     11  C   UNL     1       7.584   0.599 401.471  1.00  0.00     0.000 C 
BRANCH  11  12
ATOM     12  C   UNL     1       7.904  -0.814 400.950  1.00  0.00     0.000 C 
BRANCH  12  13
ATOM     13  C   UNL     1       8.079  -0.858 399.423  1.00  0.00     0.006 C 
BRANCH  13  14
ATOM     14  C   UNL     1       7.480   0.371 398.724  1.00  0.00     0.053 C 
BRANCH  14  15
ATOM     15  C   UNL     1       8.513   1.078 397.901  1.00  0.00     0.041 C 
ATOM     16  O   UNL     1       8.319   2.263 397.521  1.00  0.00    -0.550 OA
ATOM     17  O   UNL     1       9.709   0.442 397.588  1.00  0.00    -0.550 OA
ENDBRANCH  14  15
ENDBRANCH  13  14
ENDBRANCH  12  13
ENDBRANCH  11  12
ENDBRANCH  10  11
ENDBRANCH   9  10
ENDBRANCH   8   9
ENDBRANCH   7   8
ENDBRANCH   6   7
ENDBRANCH   5   6
ENDBRANCH   4   5
ENDBRANCH   3   4
ENDBRANCH   2   3
ENDBRANCH   1   2
BRANCH   1  18
ATOM     18  C   UNL     1       4.045  -4.638 401.615  1.00  0.00     0.000 C 
BRANCH  18  19
ATOM     19  C   UNL     1       4.444  -4.772 403.094  1.00  0.00     0.000 C 
BRANCH  19  20
ATOM     20  C   UNL     1       5.952  -4.560 403.309  1.00  0.00     0.000 C 
BRANCH  20  21
ATOM     21  C   UNL     1       6.246  -3.521 404.406  1.00  0.00     0.000 C 
BRANCH  21  22
ATOM     22  C   UNL     1       6.036  -2.073 403.911  1.00  0.00     0.000 C 
BRANCH  22  23
ATOM     23  C   UNL     1       5.139  -1.228 404.836  1.00  0.00     0.000 C 
BRANCH  23  24
ATOM     24  C   UNL     1       3.651  -1.308 404.454  1.00  0.00    -0.000 C 
BRANCH  24  25
ATOM     25  C   UNL     1       2.871  -2.361 405.263  1.00  0.00    -0.000 C 
BRANCH  25  26
ATOM     26  C   UNL     1       3.247  -2.467 406.751  1.00  0.00    -0.000 C 
BRANCH  26  27
ATOM     27  C   UNL     1       3.791  -3.852 407.143  1.00  0.00    -0.000 C 
BRANCH  27  28
ATOM     28  C   UNL     1       4.987  -3.761 408.104  1.00  0.00    -0.000 C 
BRANCH  28  29
ATOM     29  C   UNL     1       5.459  -2.312 408.326  1.00  0.00    -0.000 C 
BRANCH  29  30
ATOM     30  C   UNL     1       5.218  -1.830 409.767  1.00  0.00    -0.000 C 
BRANCH  30  31
ATOM     31  C   UNL     1       4.149  -2.662 410.492  1.00  0.00    -0.003 C 
ATOM     32  C   UNL     1       2.852  -1.875 410.648  1.00  0.00     0.004 C 
ENDBRANCH  30  31
ENDBRANCH  29  30
ENDBRANCH  28  29
ENDBRANCH  27  28
ENDBRANCH  26  27
ENDBRANCH  25  26
ENDBRANCH  24  25
ENDBRANCH  23  24
ENDBRANCH  22  23
ENDBRANCH  21  22
ENDBRANCH  20  21
ENDBRANCH  19  20
ENDBRANCH  18  19
ENDBRANCH   1  18
TORSDOF 28
ENDMDL
MODEL 5
REMARK VINA RESULT:    -3.973      2.728      5.411
REMARK INTER + INTRA:         -15.368
REMARK INTER:                  -9.337
REMARK INTRA:                  -6.031
REMARK UNBOUND:                -4.892
REMARK SMILES CCCCCCCCCCCCCCCCCCCCCCCCCCCCCC(=O)[O-]
REMARK SMILES IDX 16 1 17 2 18 3 19 4 20 5 21 6 22 7 23 8 24 9 25 10 26 11
REMARK SMILES IDX 27 12 28 13 29 14 30 15 31 16 32 17 15 18 14 19 13 20 12 21
REMARK SMILES IDX 11 22 10 23 9 24 8 25 7 26 6 27 5 28 4 29 3 30 2 31 1 32
REMARK H PARENT
REMARK Flexibility Score: inf
ROOT
ATOM      1  C   UNL     1       3.881  -2.861 402.389  1.00  0.00     0.000 C 
ENDROOT
BRANCH   1   2
ATOM      2  C   UNL     1       3.426  -3.972 403.354  1.00  0.00     0.000 C 
BRANCH   2   3
ATOM      3  C   UNL     1       4.420  -5.145 403.428  1.00  0.00     0.000 C 
BRANCH   3   4
ATOM      4  C   UNL     1       4.038  -6.360 402.552  1.00  0.00     0.000 C 
BRANCH   4   5
ATOM      5  C   UNL     1       5.148  -6.814 401.582  1.00  0.00     0.000 C 
BRANCH   5   6
ATOM      6  C   UNL     1       6.541  -6.218 401.857  1.00  0.00     0.000 C 
BRANCH   6   7
ATOM      7  C   UNL     1       7.124  -5.361 400.712  1.00  0.00     0.000 C 
BRANCH   7   8
ATOM      8  C   UNL     1       7.157  -3.842 400.981  1.00  0.00     0.000 C 
BRANCH   8   9
ATOM      9  C   UNL     1       7.825  -3.426 402.304  1.00  0.00     0.000 C 
BRANCH   9  10
ATOM     10  C   UNL     1       9.021  -2.481 402.093  1.00  0.00     0.000 C 
BRANCH  10  11
ATOM     11  C   UNL     1       8.671  -1.011 402.373  1.00  0.00     0.000 C 
BRANCH  11  12
ATOM     12  C   UNL     1       8.569  -0.164 401.092  1.00  0.00     0.000 C 
BRANCH  12  13
ATOM     13  C   UNL     1       9.216  -0.846 399.876  1.00  0.00     0.006 C 
BRANCH  13  14
ATOM     14  C   UNL     1       8.323  -0.800 398.627  1.00  0.00     0.053 C 
BRANCH  14  15
ATOM     15  C   UNL     1       8.631   0.405 397.792  1.00  0.00     0.041 C 
ATOM     16  O   UNL     1       9.712   1.030 397.954  1.00  0.00    -0.550 OA
ATOM     17  O   UNL     1       7.742   0.814 396.804  1.00  0.00    -0.550 OA
ENDBRANCH  14  15
ENDBRANCH  13  14
ENDBRANCH  12  13
ENDBRANCH  11  12
ENDBRANCH  10  11
ENDBRANCH   9  10
ENDBRANCH   8   9
ENDBRANCH   7   8
ENDBRANCH   6   7
ENDBRANCH   5   6
ENDBRANCH   4   5
ENDBRANCH   3   4
ENDBRANCH   2   3
ENDBRANCH   1   2
BRANCH   1  18
ATOM     18  C   UNL     1       3.317  -3.052 400.973  1.00  0.00     0.000 C 
BRANCH  18  19
ATOM     19  C   UNL     1       3.974  -2.122 399.940  1.00  0.00     0.000 C 
BRANCH  19  20
ATOM     20  C   UNL     1       4.987  -1.163 400.587  1.00  0.00     0.000 C 
BRANCH  20  21
ATOM     21  C   UNL     1       4.915   0.255 399.989  1.00  0.00     0.000 C 
BRANCH  21  22
ATOM     22  C   UNL     1       3.634   1.004 400.417  1.00  0.00     0.000 C 
BRANCH  22  23
ATOM     23  C   UNL     1       3.631   1.424 401.899  1.00  0.00     0.000 C 
BRANCH  23  24
ATOM     24  C   UNL     1       4.154   2.855 402.111  1.00  0.00    -0.000 C 
BRANCH  24  25
ATOM     25  C   UNL     1       5.376   2.923 403.046  1.00  0.00    -0.000 C 
BRANCH  25  26
ATOM     26  C   UNL     1       6.240   1.651 403.104  1.00  0.00    -0.000 C 
BRANCH  26  27
ATOM     27  C   UNL     1       6.210   0.958 404.477  1.00  0.00    -0.000 C 
BRANCH  27  28
ATOM     28  C   UNL     1       5.503  -0.406 404.429  1.00  0.00    -0.000 C 
BRANCH  28  29
ATOM     29  C   UNL     1       6.306  -1.515 405.134  1.00  0.00    -0.000 C 
BRANCH  29  30
ATOM     30  C   UNL     1       5.460  -2.296 406.153  1.00  0.00    -0.000 C 
BRANCH  30  31
ATOM     31  C   UNL     1       4.011  -1.792 406.220  1.00  0.00    -0.003 C 
ATOM     32  C   UNL     1       3.112  -2.794 406.938  1.00  0.00     0.004 C 
ENDBRANCH  30  31
ENDBRANCH  29  30
ENDBRANCH  28  29
ENDBRANCH  27  28
ENDBRANCH  26  27
ENDBRANCH  25  26
ENDBRANCH  24  25
ENDBRANCH  23  24
ENDBRANCH  22  23
ENDBRANCH  21  22
ENDBRANCH  20  21
ENDBRANCH  19  20
ENDBRANCH  18  19
ENDBRANCH   1  18
TORSDOF 28
ENDMDL
MODEL 6
REMARK VINA RESULT:    -3.958      3.168      7.681
REMARK INTER + INTRA:         -15.328
REMARK INTER:                  -9.645
REMARK INTRA:                  -5.683
REMARK UNBOUND:                -4.892
REMARK SMILES CCCCCCCCCCCCCCCCCCCCCCCCCCCCCC(=O)[O-]
REMARK SMILES IDX 16 1 17 2 18 3 19 4 20 5 21 6 22 7 23 8 24 9 25 10 26 11
REMARK SMILES IDX 27 12 28 13 29 14 30 15 31 16 32 17 15 18 14 19 13 20 12 21
REMARK SMILES IDX 11 22 10 23 9 24 8 25 7 26 6 27 5 28 4 29 3 30 2 31 1 32
REMARK H PARENT
REMARK Flexibility Score: inf
ROOT
ATOM      1  C   UNL     1       6.692  -1.352 402.709  1.00  0.00     0.000 C 
ENDROOT
BRANCH   1   2
ATOM      2  C   UNL     1       7.839  -1.093 401.714  1.00  0.00     0.000 C 
BRANCH   2   3
ATOM      3  C   UNL     1       8.000   0.397 401.361  1.00  0.00     0.000 C 
BRANCH   3   4
ATOM      4  C   UNL     1       7.193   0.849 400.123  1.00  0.00     0.000 C 
BRANCH   4   5
ATOM      5  C   UNL     1       7.333  -0.083 398.902  1.00  0.00     0.000 C 
BRANCH   5   6
ATOM      6  C   UNL     1       7.928   0.574 397.643  1.00  0.00     0.000 C 
BRANCH   6   7
ATOM      7  C   UNL     1       8.430   2.022 397.835  1.00  0.00     0.000 C 
BRANCH   7   8
ATOM      8  C   UNL     1       9.941   2.159 398.120  1.00  0.00     0.000 C 
BRANCH   8   9
ATOM      9  C   UNL     1      10.756   0.863 397.961  1.00  0.00     0.000 C 
BRANCH   9  10
ATOM     10  C   UNL     1      11.314   0.345 399.298  1.00  0.00     0.000 C 
BRANCH  10  11
ATOM     11  C   UNL     1      10.895  -1.105 399.593  1.00  0.00     0.000 C 
BRANCH  11  12
ATOM     12  C   UNL     1      10.611  -1.918 398.317  1.00  0.00     0.000 C 
BRANCH  12  13
ATOM     13  C   UNL     1      10.276  -3.389 398.615  1.00  0.00     0.006 C 
BRANCH  13  14
ATOM     14  C   UNL     1       9.134  -3.542 399.629  1.00  0.00     0.053 C 
BRANCH  14  15
ATOM     15  C   UNL     1       7.862  -3.949 398.949  1.00  0.00     0.041 C 
ATOM     16  O   UNL     1       7.852  -4.180 397.710  1.00  0.00    -0.550 OA
ATOM     17  O   UNL     1       6.697  -4.113 399.689  1.00  0.00    -0.550 OA
ENDBRANCH  14  15
ENDBRANCH  13  14
ENDBRANCH  12  13
ENDBRANCH  11  12
ENDBRANCH  10  11
ENDBRANCH   9  10
ENDBRANCH   8   9
ENDBRANCH   7   8
ENDBRANCH   6   7
ENDBRANCH   5   6
ENDBRANCH   4   5
ENDBRANCH   3   4
ENDBRANCH   2   3
ENDBRANCH   1   2
BRANCH   1  18
ATOM     18  C   UNL     1       6.681  -0.336 403.862  1.00  0.00     0.000 C 
BRANCH  18  19
ATOM     19  C   UNL     1       5.338   0.401 403.993  1.00  0.00     0.000 C 
BRANCH  19  20
ATOM     20  C   UNL     1       5.497   1.923 403.846  1.00  0.00     0.000 C 
BRANCH  20  21
ATOM     21  C   UNL     1       4.735   2.477 402.628  1.00  0.00     0.000 C 
BRANCH  21  22
ATOM     22  C   UNL     1       3.736   1.452 402.049  1.00  0.00     0.000 C 
BRANCH  22  23
ATOM     23  C   UNL     1       3.702   1.425 400.509  1.00  0.00     0.000 C 
BRANCH  23  24
ATOM     24  C   UNL     1       3.284   0.054 399.948  1.00  0.00    -0.000 C 
BRANCH  24  25
ATOM     25  C   UNL     1       4.111  -1.113 400.517  1.00  0.00    -0.000 C 
BRANCH  25  26
ATOM     26  C   UNL     1       3.606  -2.521 400.158  1.00  0.00    -0.000 C 
BRANCH  26  27
ATOM     27  C   UNL     1       3.098  -3.313 401.376  1.00  0.00    -0.000 C 
BRANCH  27  28
ATOM     28  C   UNL     1       4.241  -3.985 402.154  1.00  0.00    -0.000 C 
BRANCH  28  29
ATOM     29  C   UNL     1       3.930  -4.130 403.656  1.00  0.00    -0.000 C 
BRANCH  29  30
ATOM     30  C   UNL     1       2.633  -3.409 404.059  1.00  0.00    -0.000 C 
BRANCH  30  31
ATOM     31  C   UNL     1       2.898  -2.144 404.889  1.00  0.00    -0.003 C 
ATOM     32  C   UNL     1       3.236  -2.495 406.334  1.00  0.00     0.004 C 
ENDBRANCH  30  31
ENDBRANCH  29  30
ENDBRANCH  28  29
ENDBRANCH  27  28
ENDBRANCH  26  27
ENDBRANCH  25  26
ENDBRANCH  24  25
ENDBRANCH  23  24
ENDBRANCH  22  23
ENDBRANCH  21  22
ENDBRANCH  20  21
ENDBRANCH  19  20
ENDBRANCH  18  19
ENDBRANCH   1  18
TORSDOF 28
ENDMDL
MODEL 7
REMARK VINA RESULT:    -3.956      2.991      7.707
REMARK INTER + INTRA:         -15.323
REMARK INTER:                  -8.991
REMARK INTRA:                  -6.332
REMARK UNBOUND:                -4.892
REMARK SMILES CCCCCCCCCCCCCCCCCCCCCCCCCCCCCC(=O)[O-]
REMARK SMILES IDX 16 1 17 2 18 3 19 4 20 5 21 6 22 7 23 8 24 9 25 10 26 11
REMARK SMILES IDX 27 12 28 13 29 14 30 15 31 16 32 17 15 18 14 19 13 20 12 21
REMARK SMILES IDX 11 22 10 23 9 24 8 25 7 26 6 27 5 28 4 29 3 30 2 31 1 32
REMARK H PARENT
REMARK Flexibility Score: inf
ROOT
ATOM      1  C   UNL     1       3.600  -2.463 400.404  1.00  0.00     0.000 C 
ENDROOT
BRANCH   1   2
ATOM      2  C   UNL     1       4.992  -1.815 400.535  1.00  0.00     0.000 C 
BRANCH   2   3
ATOM      3  C   UNL     1       5.055  -0.404 399.922  1.00  0.00     0.000 C 
BRANCH   3   4
ATOM      4  C   UNL     1       3.690   0.318 399.845  1.00  0.00     0.000 C 
BRANCH   4   5
ATOM      5  C   UNL     1       3.332   1.129 401.107  1.00  0.00     0.000 C 
BRANCH   5   6
ATOM      6  C   UNL     1       4.175   2.398 401.329  1.00  0.00     0.000 C 
BRANCH   6   7
ATOM      7  C   UNL     1       4.757   2.556 402.751  1.00  0.00     0.000 C 
BRANCH   7   8
ATOM      8  C   UNL     1       4.452   1.393 403.718  1.00  0.00     0.000 C 
BRANCH   8   9
ATOM      9  C   UNL     1       5.677   0.807 404.443  1.00  0.00     0.000 C 
BRANCH   9  10
ATOM     10  C   UNL     1       6.250  -0.432 403.733  1.00  0.00     0.000 C 
BRANCH  10  11
ATOM     11  C   UNL     1       7.701  -0.230 403.268  1.00  0.00     0.000 C 
BRANCH  11  12
ATOM     12  C   UNL     1       7.804   0.520 401.927  1.00  0.00     0.000 C 
BRANCH  12  13
ATOM     13  C   UNL     1       9.020   0.082 401.094  1.00  0.00     0.006 C 
BRANCH  13  14
ATOM     14  C   UNL     1       9.099  -1.442 400.921  1.00  0.00     0.053 C 
BRANCH  14  15
ATOM     15  C   UNL     1       8.545  -1.860 399.593  1.00  0.00     0.041 C 
ATOM     16  O   UNL     1       8.539  -1.053 398.626  1.00  0.00    -0.550 OA
ATOM     17  O   UNL     1       8.075  -3.155 399.411  1.00  0.00    -0.550 OA
ENDBRANCH  14  15
ENDBRANCH  13  14
ENDBRANCH  12  13
ENDBRANCH  11  12
ENDBRANCH  10  11
ENDBRANCH   9  10
ENDBRANCH   8   9
ENDBRANCH   7   8
ENDBRANCH   6   7
ENDBRANCH   5   6
ENDBRANCH   4   5
ENDBRANCH   3   4
ENDBRANCH   2   3
ENDBRANCH   1   2
BRANCH   1  18
ATOM     18  C   UNL     1       3.315  -3.461 401.537  1.00  0.00     0.000 C 
BRANCH  18  19
ATOM     19  C   UNL     1       3.651  -2.896 402.927  1.00  0.00     0.000 C 
BRANCH  19  20
ATOM     20  C   UNL     1       2.682  -3.404 404.008  1.00  0.00     0.000 C 
BRANCH  20  21
ATOM     21  C   UNL     1       2.871  -2.676 405.351  1.00  0.00     0.000 C 
BRANCH  21  22
ATOM     22  C   UNL     1       4.320  -2.783 405.875  1.00  0.00     0.000 C 
BRANCH  22  23
ATOM     23  C   UNL     1       4.681  -4.182 406.411  1.00  0.00     0.000 C 
BRANCH  23  24
ATOM     24  C   UNL     1       6.193  -4.461 406.368  1.00  0.00    -0.000 C 
BRANCH  24  25
ATOM     25  C   UNL     1       6.948  -3.572 405.362  1.00  0.00    -0.000 C 
BRANCH  25  26
ATOM     26  C   UNL     1       7.671  -4.319 404.228  1.00  0.00    -0.000 C 
BRANCH  26  27
ATOM     27  C   UNL     1       7.137  -3.963 402.829  1.00  0.00    -0.000 C 
BRANCH  27  28
ATOM     28  C   UNL     1       6.479  -5.165 402.132  1.00  0.00    -0.000 C 
BRANCH  28  29
ATOM     29  C   UNL     1       6.099  -6.286 403.116  1.00  0.00    -0.000 C 
BRANCH  29  30
ATOM     30  C   UNL     1       4.600  -6.629 403.066  1.00  0.00    -0.000 C 
BRANCH  30  31
ATOM     31  C   UNL     1       4.139  -7.038 401.659  1.00  0.00    -0.003 C 
ATOM     32  C   UNL     1       3.832  -8.531 401.594  1.00  0.00     0.004 C 
ENDBRANCH  30  31
ENDBRANCH  29  30
ENDBRANCH  28  29
ENDBRANCH  27  28
ENDBRANCH  26  27
ENDBRANCH  25  26
ENDBRANCH  24  25
ENDBRANCH  23  24
ENDBRANCH  22  23
ENDBRANCH  21  22
ENDBRANCH  20  21
ENDBRANCH  19  20
ENDBRANCH  18  19
ENDBRANCH   1  18
TORSDOF 28
ENDMDL
MODEL 8
REMARK VINA RESULT:    -3.917      3.240      7.598
REMARK INTER + INTRA:         -15.219
REMARK INTER:                  -9.420
REMARK INTRA:                  -5.800
REMARK UNBOUND:                -4.892
REMARK SMILES CCCCCCCCCCCCCCCCCCCCCCCCCCCCCC(=O)[O-]
REMARK SMILES IDX 16 1 17 2 18 3 19 4 20 5 21 6 22 7 23 8 24 9 25 10 26 11
REMARK SMILES IDX 27 12 28 13 29 14 30 15 31 16 32 17 15 18 14 19 13 20 12 21
REMARK SMILES IDX 11 22 10 23 9 24 8 25 7 26 6 27 5 28 4 29 3 30 2 31 1 32
REMARK H PARENT
REMARK Flexibility Score: inf
ROOT
ATOM      1  C   UNL     1       3.284  -3.468 402.762  1.00  0.00     0.000 C 
ENDROOT
BRANCH   1   2
ATOM      2  C   UNL     1       4.023  -2.270 402.139  1.00  0.00     0.000 C 
BRANCH   2   3
ATOM      3  C   UNL     1       3.829  -2.174 400.614  1.00  0.00     0.000 C 
BRANCH   3   4
ATOM      4  C   UNL     1       4.016  -0.752 400.037  1.00  0.00     0.000 C 
BRANCH   4   5
ATOM      5  C   UNL     1       3.381   0.365 400.891  1.00  0.00     0.000 C 
BRANCH   5   6
ATOM      6  C   UNL     1       4.134   1.708 400.874  1.00  0.00     0.000 C 
BRANCH   6   7
ATOM      7  C   UNL     1       4.730   2.142 402.231  1.00  0.00     0.000 C 
BRANCH   7   8
ATOM      8  C   UNL     1       4.412   1.205 403.416  1.00  0.00     0.000 C 
BRANCH   8   9
ATOM      9  C   UNL     1       5.636   0.531 404.061  1.00  0.00     0.000 C 
BRANCH   9  10
ATOM     10  C   UNL     1       6.911   0.677 403.211  1.00  0.00     0.000 C 
BRANCH  10  11
ATOM     11  C   UNL     1       7.422  -0.669 402.673  1.00  0.00     0.000 C 
BRANCH  11  12
ATOM     12  C   UNL     1       7.321  -0.781 401.142  1.00  0.00     0.000 C 
BRANCH  12  13
ATOM     13  C   UNL     1       7.806   0.488 400.421  1.00  0.00     0.006 C 
BRANCH  13  14
ATOM     14  C   UNL     1       7.066   0.735 399.098  1.00  0.00     0.053 C 
BRANCH  14  15
ATOM     15  C   UNL     1       8.023   1.126 398.013  1.00  0.00     0.041 C 
ATOM     16  O   UNL     1       9.079   1.752 398.294  1.00  0.00    -0.550 OA
ATOM     17  O   UNL     1       7.769   0.762 396.696  1.00  0.00    -0.550 OA
ENDBRANCH  14  15
ENDBRANCH  13  14
ENDBRANCH  12  13
ENDBRANCH  11  12
ENDBRANCH  10  11
ENDBRANCH   9  10
ENDBRANCH   8   9
ENDBRANCH   7   8
ENDBRANCH   6   7
ENDBRANCH   5   6
ENDBRANCH   4   5
ENDBRANCH   3   4
ENDBRANCH   2   3
ENDBRANCH   1   2
BRANCH   1  18
ATOM     18  C   UNL     1       3.328  -3.444 404.298  1.00  0.00     0.000 C 
BRANCH  18  19
ATOM     19  C   UNL     1       2.839  -2.110 404.886  1.00  0.00     0.000 C 
BRANCH  19  20
ATOM     20  C   UNL     1       3.575  -1.746 406.186  1.00  0.00     0.000 C 
BRANCH  20  21
ATOM     21  C   UNL     1       3.407  -2.822 407.275  1.00  0.00     0.000 C 
BRANCH  21  22
ATOM     22  C   UNL     1       4.361  -2.600 408.468  1.00  0.00     0.000 C 
BRANCH  22  23
ATOM     23  C   UNL     1       5.633  -3.467 408.411  1.00  0.00     0.000 C 
BRANCH  23  24
ATOM     24  C   UNL     1       5.652  -4.412 407.197  1.00  0.00    -0.000 C 
BRANCH  24  25
ATOM     25  C   UNL     1       6.631  -3.967 406.096  1.00  0.00    -0.000 C 
BRANCH  25  26
ATOM     26  C   UNL     1       6.732  -4.904 404.879  1.00  0.00    -0.000 C 
BRANCH  26  27
ATOM     27  C   UNL     1       6.914  -4.154 403.548  1.00  0.00    -0.000 C 
BRANCH  27  28
ATOM     28  C   UNL     1       7.932  -4.840 402.624  1.00  0.00    -0.000 C 
BRANCH  28  29
ATOM     29  C   UNL     1       7.334  -5.212 401.254  1.00  0.00    -0.000 C 
BRANCH  29  30
ATOM     30  C   UNL     1       5.810  -5.411 401.314  1.00  0.00    -0.000 C 
BRANCH  30  31
ATOM     31  C   UNL     1       5.418  -6.878 401.542  1.00  0.00    -0.003 C 
ATOM     32  C   UNL     1       4.491  -7.020 402.745  1.00  0.00     0.004 C 
ENDBRANCH  30  31
ENDBRANCH  29  30
ENDBRANCH  28  29
ENDBRANCH  27  28
ENDBRANCH  26  27
ENDBRANCH  25  26
ENDBRANCH  24  25
ENDBRANCH  23  24
ENDBRANCH  22  23
ENDBRANCH  21  22
ENDBRANCH  20  21
ENDBRANCH  19  20
ENDBRANCH  18  19
ENDBRANCH   1  18
TORSDOF 28
ENDMDL
MODEL 9
REMARK VINA RESULT:    -3.891      3.522      7.328
REMARK INTER + INTRA:         -15.152
REMARK INTER:                 -10.721
REMARK INTRA:                  -4.431
REMARK UNBOUND:                -4.892
REMARK SMILES CCCCCCCCCCCCCCCCCCCCCCCCCCCCCC(=O)[O-]
REMARK SMILES IDX 16 1 17 2 18 3 19 4 20 5 21 6 22 7 23 8 24 9 25 10 26 11
REMARK SMILES IDX 27 12 28 13 29 14 30 15 31 16 32 17 15 18 14 19 13 20 12 21
REMARK SMILES IDX 11 22 10 23 9 24 8 25 7 26 6 27 5 28 4 29 3 30 2 31 1 32
REMARK H PARENT
REMARK Flexibility Score: inf
ROOT
ATOM      1  C   UNL     1       3.735  -0.030 401.470  1.00  0.00     0.000 C 
ENDROOT
BRANCH   1   2
ATOM      2  C   UNL     1       3.482   1.162 400.527  1.00  0.00     0.000 C 
BRANCH   2   3
ATOM      3  C   UNL     1       3.955   2.503 401.118  1.00  0.00     0.000 C 
BRANCH   3   4
ATOM      4  C   UNL     1       4.357   2.435 402.609  1.00  0.00     0.000 C 
BRANCH   4   5
ATOM      5  C   UNL     1       5.861   2.661 402.868  1.00  0.00     0.000 C 
BRANCH   5   6
ATOM      6  C   UNL     1       6.531   1.616 403.781  1.00  0.00     0.000 C 
BRANCH   6   7
ATOM      7  C   UNL     1       5.557   0.764 404.625  1.00  0.00     0.000 C 
BRANCH   7   8
ATOM      8  C   UNL     1       5.721  -0.763 404.471  1.00  0.00     0.000 C 
BRANCH   8   9
ATOM      9  C   UNL     1       5.504  -1.575 405.760  1.00  0.00     0.000 C 
BRANCH   9  10
ATOM     10  C   UNL     1       4.086  -2.166 405.857  1.00  0.00     0.000 C 
BRANCH  10  11
ATOM     11  C   UNL     1       3.316  -2.078 404.530  1.00  0.00     0.000 C 
BRANCH  11  12
ATOM     12  C   UNL     1       2.997  -3.459 403.929  1.00  0.00     0.000 C 
BRANCH  12  13
ATOM     13  C   UNL     1       4.251  -4.191 403.426  1.00  0.00     0.006 C 
BRANCH  13  14
ATOM     14  C   UNL     1       4.088  -4.731 401.997  1.00  0.00     0.053 C 
BRANCH  14  15
ATOM     15  C   UNL     1       5.371  -5.317 401.495  1.00  0.00     0.041 C 
ATOM     16  O   UNL     1       6.314  -4.564 401.133  1.00  0.00    -0.550 OA
ATOM     17  O   UNL     1       5.543  -6.696 401.464  1.00  0.00    -0.550 OA
ENDBRANCH  14  15
ENDBRANCH  13  14
ENDBRANCH  12  13
ENDBRANCH  11  12
ENDBRANCH  10  11
ENDBRANCH   9  10
ENDBRANCH   8   9
ENDBRANCH   7   8
ENDBRANCH   6   7
ENDBRANCH   5   6
ENDBRANCH   4   5
ENDBRANCH   3   4
ENDBRANCH   2   3
ENDBRANCH   1   2
BRANCH   1  18
ATOM     18  C   UNL     1       3.985  -1.337 400.702  1.00  0.00     0.000 C 
BRANCH  18  19
ATOM     19  C   UNL     1       5.378  -1.390 400.055  1.00  0.00     0.000 C 
BRANCH  19  20
ATOM     20  C   UNL     1       6.479  -0.899 401.010  1.00  0.00     0.000 C 
BRANCH  20  21
ATOM     21  C   UNL     1       7.309   0.248 400.405  1.00  0.00     0.000 C 
BRANCH  21  22
ATOM     22  C   UNL     1       6.764   0.705 399.035  1.00  0.00     0.000 C 
BRANCH  22  23
ATOM     23  C   UNL     1       7.837   1.324 398.118  1.00  0.00     0.000 C 
BRANCH  23  24
ATOM     24  C   UNL     1       8.706   0.263 397.422  1.00  0.00    -0.000 C 
BRANCH  24  25
ATOM     25  C   UNL     1      10.187   0.321 397.839  1.00  0.00    -0.000 C 
BRANCH  25  26
ATOM     26  C   UNL     1      10.746   1.729 398.109  1.00  0.00    -0.000 C 
BRANCH  26  27
ATOM     27  C   UNL     1      12.276   1.755 398.274  1.00  0.00    -0.000 C 
BRANCH  27  28
ATOM     28  C   UNL     1      12.975   0.696 397.407  1.00  0.00    -0.000 C 
BRANCH  28  29
ATOM     29  C   UNL     1      14.153   1.274 396.601  1.00  0.00    -0.000 C 
BRANCH  29  30
ATOM     30  C   UNL     1      14.164   2.812 396.597  1.00  0.00    -0.000 C 
BRANCH  30  31
ATOM     31  C   UNL     1      13.778   3.399 395.232  1.00  0.00    -0.003 C 
ATOM     32  C   UNL     1      14.541   2.714 394.103  1.00  0.00     0.004 C 
ENDBRANCH  30  31
ENDBRANCH  29  30
ENDBRANCH  28  29
ENDBRANCH  27  28
ENDBRANCH  26  27
ENDBRANCH  25  26
ENDBRANCH  24  25
ENDBRANCH  23  24
ENDBRANCH  22  23
ENDBRANCH  21  22
ENDBRANCH  20  21
ENDBRANCH  19  20
ENDBRANCH  18  19
ENDBRANCH   1  18
TORSDOF 28
ENDMDL
