MODEL 1
REMARK VINA RESULT:    -4.006      0.000      0.000
REMARK INTER + INTRA:          -5.782
REMARK INTER:                  -5.411
REMARK INTRA:                  -0.371
REMARK UNBOUND:                -0.371
REMARK SMILES CCCCCCC=CC(=O)[O-]
REMARK SMILES IDX 5 1 6 2 7 3 8 4 9 5 10 6 11 7 4 8 3 9 2 10 1 11
REMARK H PARENT
REMARK Flexibility Score: inf
ROOT
ATOM      1  C   UNL     1     -52.627 122.033  -9.543  1.00  0.00     0.004 C 
ENDROOT
BRANCH   1   2
ATOM      2  C   UNL     1     -53.762 121.381  -8.745  1.00  0.00     0.027 C 
BRANCH   2   3
ATOM      3  C   UNL     1     -54.655 120.566  -9.637  1.00  0.00    -0.025 C 
ATOM      4  C   UNL     1     -55.967 120.809  -9.721  1.00  0.00     0.020 C 
BRANCH   4   5
ATOM      5  C   UNL     1     -56.850 120.029 -10.600  1.00  0.00     0.064 C 
ATOM      6  O   UNL     1     -56.549 118.841 -10.887  1.00  0.00    -0.545 OA
ATOM      7  O   UNL     1     -58.014 120.582 -11.122  1.00  0.00    -0.545 OA
ENDBRANCH   4   5
ENDBRANCH   2   3
ENDBRANCH   1   2
BRANCH   1   8
ATOM      8  C   UNL     1     -52.505 121.410 -10.939  1.00  0.00     0.000 C 
BRANCH   8   9
ATOM      9  C   UNL     1     -51.037 121.330 -11.380  1.00  0.00    -0.000 C 
BRANCH   9  10
ATOM     10  C   UNL     1     -50.074 121.924 -10.341  1.00  0.00    -0.003 C 
ATOM     11  C   UNL     1     -48.939 120.969  -9.971  1.00  0.00     0.004 C 
ENDBRANCH   9  10
ENDBRANCH   8   9
ENDBRANCH   1   8
TORSDOF 6
ENDMDL
MODEL 2
REMARK VINA RESULT:    -3.961      1.552      2.537
REMARK INTER + INTRA:          -5.722
REMARK INTER:                  -5.114
REMARK INTRA:                  -0.608
REMARK UNBOUND:                -0.371
REMARK SMILES CCCCCCC=CC(=O)[O-]
REMARK SMILES IDX 5 1 6 2 7 3 8 4 9 5 10 6 11 7 4 8 3 9 2 10 1 11
REMARK H PARENT
REMARK Flexibility Score: inf
ROOT
ATOM      1  C   UNL     1     -53.020 122.526 -12.113  1.00  0.00     0.004 C 
ENDROOT
BRANCH   1   2
ATOM      2  C   UNL     1     -54.457 122.867 -11.699  1.00  0.00     0.027 C 
BRANCH   2   3
ATOM      3  C   UNL     1     -55.388 121.719 -11.971  1.00  0.00    -0.025 C 
ATOM      4  C   UNL     1     -56.185 121.227 -11.017  1.00  0.00     0.020 C 
BRANCH   4   5
ATOM      5  C   UNL     1     -57.111 120.114 -11.273  1.00  0.00     0.064 C 
ATOM      6  O   UNL     1     -56.832 118.963 -10.846  1.00  0.00    -0.545 OA
ATOM      7  O   UNL     1     -58.291 120.311 -11.981  1.00  0.00    -0.545 OA
ENDBRANCH   4   5
ENDBRANCH   2   3
ENDBRANCH   1   2
BRANCH   1   8
ATOM      8  C   UNL     1     -52.273 121.816 -10.978  1.00  0.00     0.000 C 
BRANCH   8   9
ATOM      9  C   UNL     1     -52.766 122.300  -9.607  1.00  0.00    -0.000 C 
BRANCH   9  10
ATOM     10  C   UNL     1     -53.388 121.171  -8.771  1.00  0.00    -0.003 C 
ATOM     11  C   UNL     1     -53.260 119.801  -9.437  1.00  0.00     0.004 C 
ENDBRANCH   9  10
ENDBRANCH   8   9
ENDBRANCH   1   8
TORSDOF 6
ENDMDL
MODEL 3
REMARK VINA RESULT:    -3.638      1.316      2.112
REMARK INTER + INTRA:          -5.285
REMARK INTER:                  -4.784
REMARK INTRA:                  -0.501
REMARK UNBOUND:                -0.371
REMARK SMILES CCCCCCC=CC(=O)[O-]
REMARK SMILES IDX 5 1 6 2 7 3 8 4 9 5 10 6 11 7 4 8 3 9 2 10 1 11
REMARK H PARENT
REMARK Flexibility Score: inf
ROOT
ATOM      1  C   UNL     1     -53.527 122.289  -9.342  1.00  0.00     0.004 C 
ENDROOT
BRANCH   1   2
ATOM      2  C   UNL     1     -54.243 122.847 -10.578  1.00  0.00     0.027 C 
BRANCH   2   3
ATOM      3  C   UNL     1     -55.294 121.895 -11.075  1.00  0.00    -0.025 C 
ATOM      4  C   UNL     1     -55.912 121.046 -10.247  1.00  0.00     0.020 C 
BRANCH   4   5
ATOM      5  C   UNL     1     -56.953 120.119 -10.717  1.00  0.00     0.064 C 
ATOM      6  O   UNL     1     -58.071 120.572 -11.078  1.00  0.00    -0.545 OA
ATOM      7  O   UNL     1     -56.724 118.749 -10.767  1.00  0.00    -0.545 OA
ENDBRANCH   4   5
ENDBRANCH   2   3
ENDBRANCH   1   2
BRANCH   1   8
ATOM      8  C   UNL     1     -52.253 121.533  -9.737  1.00  0.00     0.000 C 
BRANCH   8   9
ATOM      9  C   UNL     1     -51.647 122.111 -11.025  1.00  0.00    -0.000 C 
BRANCH   9  10
ATOM     10  C   UNL     1     -51.479 121.052 -12.125  1.00  0.00    -0.003 C 
ATOM     11  C   UNL     1     -52.581 119.993 -12.101  1.00  0.00     0.004 C 
ENDBRANCH   9  10
ENDBRANCH   8   9
ENDBRANCH   1   8
TORSDOF 6
ENDMDL
MODEL 4
REMARK VINA RESULT:    -3.592      1.231      1.744
REMARK INTER + INTRA:          -5.224
REMARK INTER:                  -4.843
REMARK INTRA:                  -0.381
REMARK UNBOUND:                -0.371
REMARK SMILES CCCCCCC=CC(=O)[O-]
REMARK SMILES IDX 5 1 6 2 7 3 8 4 9 5 10 6 11 7 4 8 3 9 2 10 1 11
REMARK H PARENT
REMARK Flexibility Score: inf
ROOT
ATOM      1  C   UNL     1     -52.161 121.067  -9.982  1.00  0.00     0.004 C 
ENDROOT
BRANCH   1   2
ATOM      2  C   UNL     1     -52.790 122.146  -9.093  1.00  0.00     0.027 C 
BRANCH   2   3
ATOM      3  C   UNL     1     -54.288 122.032  -9.076  1.00  0.00    -0.025 C 
ATOM      4  C   UNL     1     -54.929 121.148  -9.847  1.00  0.00     0.020 C 
BRANCH   4   5
ATOM      5  C   UNL     1     -56.393 121.015  -9.830  1.00  0.00     0.064 C 
ATOM      6  O   UNL     1     -57.101 121.989  -9.460  1.00  0.00    -0.545 OA
ATOM      7  O   UNL     1     -57.011 119.831 -10.216  1.00  0.00    -0.545 OA
ENDBRANCH   4   5
ENDBRANCH   2   3
ENDBRANCH   1   2
BRANCH   1   8
ATOM      8  C   UNL     1     -51.493 121.689 -11.215  1.00  0.00     0.000 C 
BRANCH   8   9
ATOM      9  C   UNL     1     -49.969 121.519 -11.159  1.00  0.00    -0.000 C 
BRANCH   9  10
ATOM     10  C   UNL     1     -49.232 122.854 -10.976  1.00  0.00    -0.003 C 
ATOM     11  C   UNL     1     -49.221 123.329  -9.522  1.00  0.00     0.004 C 
ENDBRANCH   9  10
ENDBRANCH   8   9
ENDBRANCH   1   8
TORSDOF 6
ENDMDL
MODEL 5
REMARK VINA RESULT:    -3.529      1.460      2.636
REMARK INTER + INTRA:          -5.137
REMARK INTER:                  -4.585
REMARK INTRA:                  -0.552
REMARK UNBOUND:                -0.371
REMARK SMILES CCCCCCC=CC(=O)[O-]
REMARK SMILES IDX 5 1 6 2 7 3 8 4 9 5 10 6 11 7 4 8 3 9 2 10 1 11
REMARK H PARENT
REMARK Flexibility Score: inf
ROOT
ATOM      1  C   UNL     1     -52.681 121.594 -11.953  1.00  0.00     0.004 C 
ENDROOT
BRANCH   1   2
ATOM      2  C   UNL     1     -53.431 120.267 -12.125  1.00  0.00     0.027 C 
BRANCH   2   3
ATOM      3  C   UNL     1     -54.687 120.241 -11.302  1.00  0.00    -0.025 C 
ATOM      4  C   UNL     1     -55.490 121.307 -11.223  1.00  0.00     0.020 C 
BRANCH   4   5
ATOM      5  C   UNL     1     -56.730 121.292 -10.432  1.00  0.00     0.064 C 
ATOM      6  O   UNL     1     -57.728 120.651 -10.856  1.00  0.00    -0.545 OA
ATOM      7  O   UNL     1     -56.820 121.974  -9.225  1.00  0.00    -0.545 OA
ENDBRANCH   4   5
ENDBRANCH   2   3
ENDBRANCH   1   2
BRANCH   1   8
ATOM      8  C   UNL     1     -51.358 121.386 -11.206  1.00  0.00     0.000 C 
BRANCH   8   9
ATOM      9  C   UNL     1     -51.352 122.149  -9.874  1.00  0.00    -0.000 C 
BRANCH   9  10
ATOM     10  C   UNL     1     -52.623 121.904  -9.048  1.00  0.00    -0.003 C 
ATOM     11  C   UNL     1     -53.378 123.194  -8.726  1.00  0.00     0.004 C 
ENDBRANCH   9  10
ENDBRANCH   8   9
ENDBRANCH   1   8
TORSDOF 6
ENDMDL
MODEL 6
REMARK VINA RESULT:    -3.458      3.733      6.049
REMARK INTER + INTRA:          -5.042
REMARK INTER:                  -4.666
REMARK INTRA:                  -0.376
REMARK UNBOUND:                -0.371
REMARK SMILES CCCCCCC=CC(=O)[O-]
REMARK SMILES IDX 5 1 6 2 7 3 8 4 9 5 10 6 11 7 4 8 3 9 2 10 1 11
REMARK H PARENT
REMARK Flexibility Score: inf
ROOT
ATOM      1  C   UNL     1     -53.552 120.678  -9.275  1.00  0.00     0.004 C 
ENDROOT
BRANCH   1   2
ATOM      2  C   UNL     1     -53.057 120.501 -10.716  1.00  0.00     0.027 C 
BRANCH   2   3
ATOM      3  C   UNL     1     -51.858 121.363 -10.990  1.00  0.00    -0.025 C 
ATOM      4  C   UNL     1     -51.052 121.770 -10.003  1.00  0.00     0.020 C 
BRANCH   4   5
ATOM      5  C   UNL     1     -49.867 122.603 -10.258  1.00  0.00     0.064 C 
ATOM      6  O   UNL     1     -49.611 122.975 -11.433  1.00  0.00    -0.545 OA
ATOM      7  O   UNL     1     -49.024 122.986  -9.222  1.00  0.00    -0.545 OA
ENDBRANCH   4   5
ENDBRANCH   2   3
ENDBRANCH   1   2
BRANCH   1   8
ATOM      8  C   UNL     1     -54.575 121.817  -9.181  1.00  0.00     0.000 C 
BRANCH   8   9
ATOM      9  C   UNL     1     -55.994 121.267  -8.982  1.00  0.00    -0.000 C 
BRANCH   9  10
ATOM     10  C   UNL     1     -56.717 121.000 -10.311  1.00  0.00    -0.003 C 
ATOM     11  C   UNL     1     -56.842 119.510 -10.627  1.00  0.00     0.004 C 
ENDBRANCH   9  10
ENDBRANCH   8   9
ENDBRANCH   1   8
TORSDOF 6
ENDMDL
MODEL 7
REMARK VINA RESULT:    -3.416      3.730      6.028
REMARK INTER + INTRA:          -4.986
REMARK INTER:                  -4.645
REMARK INTRA:                  -0.341
REMARK UNBOUND:                -0.371
REMARK SMILES CCCCCCC=CC(=O)[O-]
REMARK SMILES IDX 5 1 6 2 7 3 8 4 9 5 10 6 11 7 4 8 3 9 2 10 1 11
REMARK H PARENT
REMARK Flexibility Score: inf
ROOT
ATOM      1  C   UNL     1     -54.721 121.696  -9.171  1.00  0.00     0.004 C 
ENDROOT
BRANCH   1   2
ATOM      2  C   UNL     1     -53.353 121.004  -9.213  1.00  0.00     0.027 C 
BRANCH   2   3
ATOM      3  C   UNL     1     -52.249 121.996  -9.441  1.00  0.00    -0.025 C 
ATOM      4  C   UNL     1     -51.102 121.640 -10.031  1.00  0.00     0.020 C 
BRANCH   4   5
ATOM      5  C   UNL     1     -50.018 122.604 -10.273  1.00  0.00     0.064 C 
ATOM      6  O   UNL     1     -49.615 122.802 -11.449  1.00  0.00    -0.545 OA
ATOM      7  O   UNL     1     -49.429 123.300  -9.224  1.00  0.00    -0.545 OA
ENDBRANCH   4   5
ENDBRANCH   2   3
ENDBRANCH   1   2
BRANCH   1   8
ATOM      8  C   UNL     1     -55.421 121.616 -10.533  1.00  0.00     0.000 C 
BRANCH   8   9
ATOM      9  C   UNL     1     -55.308 120.206 -11.128  1.00  0.00    -0.000 C 
BRANCH   9  10
ATOM     10  C   UNL     1     -56.629 119.426 -11.056  1.00  0.00    -0.003 C 
ATOM     11  C   UNL     1     -57.823 120.236 -11.561  1.00  0.00     0.004 C 
ENDBRANCH   9  10
ENDBRANCH   8   9
ENDBRANCH   1   8
TORSDOF 6
ENDMDL
MODEL 8
REMARK VINA RESULT:    -3.362      3.728      6.020
REMARK INTER + INTRA:          -4.912
REMARK INTER:                  -4.642
REMARK INTRA:                  -0.270
REMARK UNBOUND:                -0.371
REMARK SMILES CCCCCCC=CC(=O)[O-]
REMARK SMILES IDX 5 1 6 2 7 3 8 4 9 5 10 6 11 7 4 8 3 9 2 10 1 11
REMARK H PARENT
REMARK Flexibility Score: inf
ROOT
ATOM      1  C   UNL     1     -54.159 121.392  -9.127  1.00  0.00     0.004 C 
ENDROOT
BRANCH   1   2
ATOM      2  C   UNL     1     -53.222 122.331  -9.898  1.00  0.00     0.027 C 
BRANCH   2   3
ATOM      3  C   UNL     1     -51.983 121.611 -10.351  1.00  0.00    -0.025 C 
ATOM      4  C   UNL     1     -50.763 122.091 -10.089  1.00  0.00     0.020 C 
BRANCH   4   5
ATOM      5  C   UNL     1     -49.542 121.391 -10.513  1.00  0.00     0.064 C 
ATOM      6  O   UNL     1     -48.930 120.657  -9.693  1.00  0.00    -0.545 OA
ATOM      7  O   UNL     1     -49.050 121.525 -11.806  1.00  0.00    -0.545 OA
ENDBRANCH   4   5
ENDBRANCH   2   3
ENDBRANCH   1   2
BRANCH   1   8
ATOM      8  C   UNL     1     -54.321 120.054  -9.857  1.00  0.00     0.000 C 
BRANCH   8   9
ATOM      9  C   UNL     1     -55.272 120.191 -11.055  1.00  0.00    -0.000 C 
BRANCH   9  10
ATOM     10  C   UNL     1     -56.615 119.482 -10.827  1.00  0.00    -0.003 C 
ATOM     11  C   UNL     1     -57.788 120.212 -11.480  1.00  0.00     0.004 C 
ENDBRANCH   9  10
ENDBRANCH   8   9
ENDBRANCH   1   8
TORSDOF 6
ENDMDL
MODEL 9
REMARK VINA RESULT:    -3.112      3.821      5.518
REMARK INTER + INTRA:          -4.575
REMARK INTER:                  -3.933
REMARK INTRA:                  -0.642
REMARK UNBOUND:                -0.371
REMARK SMILES CCCCCCC=CC(=O)[O-]
REMARK SMILES IDX 5 1 6 2 7 3 8 4 9 5 10 6 11 7 4 8 3 9 2 10 1 11
REMARK H PARENT
REMARK Flexibility Score: inf
ROOT
ATOM      1  C   UNL     1     -53.395 119.932 -10.729  1.00  0.00     0.004 C 
ENDROOT
BRANCH   1   2
ATOM      2  C   UNL     1     -52.871 120.290 -12.125  1.00  0.00     0.027 C 
BRANCH   2   3
ATOM      3  C   UNL     1     -51.737 121.273 -12.045  1.00  0.00    -0.025 C 
ATOM      4  C   UNL     1     -51.001 121.399 -10.936  1.00  0.00     0.020 C 
BRANCH   4   5
ATOM      5  C   UNL     1     -49.879 122.346 -10.848  1.00  0.00     0.064 C 
ATOM      6  O   UNL     1     -49.506 122.963 -11.880  1.00  0.00    -0.545 OA
ATOM      7  O   UNL     1     -49.223 122.571  -9.644  1.00  0.00    -0.545 OA
ENDBRANCH   4   5
ENDBRANCH   2   3
ENDBRANCH   1   2
BRANCH   1   8
ATOM      8  C   UNL     1     -54.867 120.333 -10.574  1.00  0.00     0.000 C 
BRANCH   8   9
ATOM      9  C   UNL     1     -55.053 121.300  -9.396  1.00  0.00    -0.000 C 
BRANCH   9  10
ATOM     10  C   UNL     1     -53.745 121.559  -8.632  1.00  0.00    -0.003 C 
ATOM     11  C   UNL     1     -53.332 123.031  -8.648  1.00  0.00     0.004 C 
ENDBRANCH   9  10
ENDBRANCH   8   9
ENDBRANCH   1   8
TORSDOF 6
ENDMDL
