MODEL 1
REMARK VINA RESULT:    -3.974      0.000      0.000
REMARK INTER + INTRA:          -6.908
REMARK INTER:                  -5.833
REMARK INTRA:                  -1.076
REMARK UNBOUND:                -1.076
REMARK SMILES CCCOC(=O)c1ccccc1C(=O)OCCC
REMARK SMILES IDX 7 1 8 2 9 3 10 4 11 5 12 6 5 7 6 8 4 9 3 10 2 11 1 12 13 13
REMARK SMILES IDX 14 14 15 15 16 16 17 17 18 18
REMARK H PARENT
REMARK Flexibility Score: inf
ROOT
ATOM      1  C   UNL     1       1.948   3.499  -5.787  1.00  0.00     0.074 A 
ATOM      2  C   UNL     1       2.567   3.705  -7.033  1.00  0.00     0.016 A 
ATOM      3  C   UNL     1       1.919   3.354  -8.219  1.00  0.00     0.001 A 
ATOM      4  C   UNL     1       0.645   2.792  -8.179  1.00  0.00     0.001 A 
ATOM      5  C   UNL     1       0.022   2.558  -6.953  1.00  0.00     0.016 A 
ATOM      6  C   UNL     1       0.666   2.882  -5.745  1.00  0.00     0.074 A 
ENDROOT
BRANCH   1   7
ATOM      7  C   UNL     1       2.641   3.998  -4.578  1.00  0.00     0.339 C 
ATOM      8  O   UNL     1       2.608   5.224  -4.283  1.00  0.00    -0.246 OA
BRANCH   7   9
ATOM      9  O   UNL     1       3.384   3.109  -3.794  1.00  0.00    -0.462 OA
BRANCH   9  10
ATOM     10  C   UNL     1       4.539   2.431  -4.281  1.00  0.00     0.233 C 
BRANCH  10  11
ATOM     11  C   UNL     1       4.612   1.027  -3.683  1.00  0.00     0.038 C 
ATOM     12  C   UNL     1       3.264   0.577  -3.125  1.00  0.00     0.007 C 
ENDBRANCH  10  11
ENDBRANCH   9  10
ENDBRANCH   7   9
ENDBRANCH   1   7
BRANCH   6  13
ATOM     13  C   UNL     1      -0.003   2.505  -4.481  1.00  0.00     0.339 C 
ATOM     14  O   UNL     1      -0.005   1.303  -4.096  1.00  0.00    -0.246 OA
BRANCH  13  15
ATOM     15  O   UNL     1      -0.684   3.482  -3.745  1.00  0.00    -0.462 OA
BRANCH  15  16
ATOM     16  C   UNL     1      -1.281   4.636  -4.334  1.00  0.00     0.233 C 
BRANCH  16  17
ATOM     17  C   UNL     1      -2.801   4.476  -4.450  1.00  0.00     0.038 C 
ATOM     18  C   UNL     1      -3.227   4.121  -5.873  1.00  0.00     0.007 C 
ENDBRANCH  16  17
ENDBRANCH  15  16
ENDBRANCH  13  15
ENDBRANCH   6  13
TORSDOF 8
ENDMDL
MODEL 2
REMARK VINA RESULT:    -3.971      0.221      4.985
REMARK INTER + INTRA:          -6.903
REMARK INTER:                  -5.879
REMARK INTRA:                  -1.024
REMARK UNBOUND:                -1.076
REMARK SMILES CCCOC(=O)c1ccccc1C(=O)OCCC
REMARK SMILES IDX 7 1 8 2 9 3 10 4 11 5 12 6 5 7 6 8 4 9 3 10 2 11 1 12 13 13
REMARK SMILES IDX 14 14 15 15 16 16 17 17 18 18
REMARK H PARENT
REMARK Flexibility Score: inf
ROOT
ATOM      1  C   UNL     1       0.587   2.953  -5.814  1.00  0.00     0.074 A 
ATOM      2  C   UNL     1       0.012   2.562  -7.037  1.00  0.00     0.016 A 
ATOM      3  C   UNL     1       0.685   2.773  -8.242  1.00  0.00     0.001 A 
ATOM      4  C   UNL     1       1.941   3.375  -8.244  1.00  0.00     0.001 A 
ATOM      5  C   UNL     1       2.520   3.792  -7.045  1.00  0.00     0.016 A 
ATOM      6  C   UNL     1       1.849   3.611  -5.822  1.00  0.00     0.074 A 
ENDROOT
BRANCH   1   7
ATOM      7  C   UNL     1      -0.128   2.597  -4.567  1.00  0.00     0.339 C 
ATOM      8  O   UNL     1      -0.257   1.390  -4.227  1.00  0.00    -0.246 OA
BRANCH   7   9
ATOM      9  O   UNL     1      -0.712   3.608  -3.796  1.00  0.00    -0.462 OA
BRANCH   9  10
ATOM     10  C   UNL     1      -1.388   4.723  -4.371  1.00  0.00     0.233 C 
BRANCH  10  11
ATOM     11  C   UNL     1      -2.877   4.414  -4.517  1.00  0.00     0.038 C 
ATOM     12  C   UNL     1      -3.252   4.102  -5.964  1.00  0.00     0.007 C 
ENDBRANCH  10  11
ENDBRANCH   9  10
ENDBRANCH   7   9
ENDBRANCH   1   7
BRANCH   6  13
ATOM     13  C   UNL     1       2.468   4.175  -4.603  1.00  0.00     0.339 C 
ATOM     14  O   UNL     1       2.224   5.364  -4.258  1.00  0.00    -0.246 OA
BRANCH  13  15
ATOM     15  O   UNL     1       3.372   3.399  -3.869  1.00  0.00    -0.462 OA
BRANCH  15  16
ATOM     16  C   UNL     1       4.252   2.444  -4.462  1.00  0.00     0.233 C 
BRANCH  16  17
ATOM     17  C   UNL     1       4.346   1.172  -3.612  1.00  0.00     0.038 C 
ATOM     18  C   UNL     1       2.967   0.656  -3.209  1.00  0.00     0.007 C 
ENDBRANCH  16  17
ENDBRANCH  15  16
ENDBRANCH  13  15
ENDBRANCH   6  13
TORSDOF 8
ENDMDL
MODEL 3
REMARK VINA RESULT:    -3.841      1.202      4.906
REMARK INTER + INTRA:          -6.713
REMARK INTER:                  -5.746
REMARK INTRA:                  -0.967
REMARK UNBOUND:                -1.076
REMARK SMILES CCCOC(=O)c1ccccc1C(=O)OCCC
REMARK SMILES IDX 7 1 8 2 9 3 10 4 11 5 12 6 5 7 6 8 4 9 3 10 2 11 1 12 13 13
REMARK SMILES IDX 14 14 15 15 16 16 17 17 18 18
REMARK H PARENT
REMARK Flexibility Score: inf
ROOT
ATOM      1  C   UNL     1       1.551   2.135  -4.176  1.00  0.00     0.074 A 
ATOM      2  C   UNL     1       1.894   1.019  -3.390  1.00  0.00     0.016 A 
ATOM      3  C   UNL     1       3.232   0.686  -3.170  1.00  0.00     0.001 A 
ATOM      4  C   UNL     1       4.246   1.460  -3.729  1.00  0.00     0.001 A 
ATOM      5  C   UNL     1       3.928   2.557  -4.530  1.00  0.00     0.016 A 
ATOM      6  C   UNL     1       2.587   2.897  -4.785  1.00  0.00     0.074 A 
ENDROOT
BRANCH   1   7
ATOM      7  C   UNL     1       0.119   2.498  -4.274  1.00  0.00     0.339 C 
ATOM      8  O   UNL     1      -0.692   1.742  -4.876  1.00  0.00    -0.246 OA
BRANCH   7   9
ATOM      9  O   UNL     1      -0.320   3.715  -3.744  1.00  0.00    -0.462 OA
BRANCH   9  10
ATOM     10  C   UNL     1      -1.079   4.656  -4.499  1.00  0.00     0.233 C 
BRANCH  10  11
ATOM     11  C   UNL     1      -2.573   4.418  -4.282  1.00  0.00     0.038 C 
ATOM     12  C   UNL     1      -3.325   4.295  -5.605  1.00  0.00     0.007 C 
ENDBRANCH  10  11
ENDBRANCH   9  10
ENDBRANCH   7   9
ENDBRANCH   1   7
BRANCH   6  13
ATOM     13  C   UNL     1       2.320   4.002  -5.731  1.00  0.00     0.339 C 
ATOM     14  O   UNL     1       2.287   5.195  -5.323  1.00  0.00    -0.246 OA
BRANCH  13  15
ATOM     15  O   UNL     1       2.046   3.707  -7.072  1.00  0.00    -0.462 OA
BRANCH  15  16
ATOM     16  C   UNL     1       0.762   3.883  -7.670  1.00  0.00     0.233 C 
BRANCH  16  17
ATOM     17  C   UNL     1       0.179   2.544  -8.136  1.00  0.00     0.038 C 
ATOM     18  C   UNL     1      -1.337   2.614  -8.304  1.00  0.00     0.007 C 
ENDBRANCH  16  17
ENDBRANCH  15  16
ENDBRANCH  13  15
ENDBRANCH   6  13
TORSDOF 8
ENDMDL
MODEL 4
REMARK VINA RESULT:    -3.834      1.658      4.375
REMARK INTER + INTRA:          -6.703
REMARK INTER:                  -5.197
REMARK INTRA:                  -1.507
REMARK UNBOUND:                -1.076
REMARK SMILES CCCOC(=O)c1ccccc1C(=O)OCCC
REMARK SMILES IDX 7 1 8 2 9 3 10 4 11 5 12 6 5 7 6 8 4 9 3 10 2 11 1 12 13 13
REMARK SMILES IDX 14 14 15 15 16 16 17 17 18 18
REMARK H PARENT
REMARK Flexibility Score: inf
ROOT
ATOM      1  C   UNL     1       0.323   2.777  -6.097  1.00  0.00     0.074 A 
ATOM      2  C   UNL     1      -0.104   2.463  -7.401  1.00  0.00     0.016 A 
ATOM      3  C   UNL     1       0.686   2.783  -8.507  1.00  0.00     0.001 A 
ATOM      4  C   UNL     1       1.912   3.420  -8.329  1.00  0.00     0.001 A 
ATOM      5  C   UNL     1       2.344   3.761  -7.047  1.00  0.00     0.016 A 
ATOM      6  C   UNL     1       1.554   3.469  -5.920  1.00  0.00     0.074 A 
ENDROOT
BRANCH   1   7
ATOM      7  C   UNL     1      -0.507   2.307  -4.965  1.00  0.00     0.339 C 
ATOM      8  O   UNL     1      -0.033   1.503  -4.116  1.00  0.00    -0.246 OA
BRANCH   7   9
ATOM      9  O   UNL     1      -1.841   2.716  -4.874  1.00  0.00    -0.462 OA
BRANCH   9  10
ATOM     10  C   UNL     1      -2.226   3.978  -4.333  1.00  0.00     0.233 C 
BRANCH  10  11
ATOM     11  C   UNL     1      -3.243   4.653  -5.252  1.00  0.00     0.038 C 
ATOM     12  C   UNL     1      -3.451   3.865  -6.544  1.00  0.00     0.007 C 
ENDBRANCH  10  11
ENDBRANCH   9  10
ENDBRANCH   7   9
ENDBRANCH   1   7
BRANCH   6  13
ATOM     13  C   UNL     1       2.018   3.957  -4.604  1.00  0.00     0.339 C 
ATOM     14  O   UNL     1       2.945   3.356  -3.994  1.00  0.00    -0.246 OA
BRANCH  13  15
ATOM     15  O   UNL     1       1.382   5.055  -4.013  1.00  0.00    -0.462 OA
BRANCH  15  16
ATOM     16  C   UNL     1       1.387   6.365  -4.579  1.00  0.00     0.233 C 
BRANCH  16  17
ATOM     17  C   UNL     1      -0.012   6.772  -5.052  1.00  0.00     0.038 C 
ATOM     18  C   UNL     1      -0.190   6.553  -6.553  1.00  0.00     0.007 C 
ENDBRANCH  16  17
ENDBRANCH  15  16
ENDBRANCH  13  15
ENDBRANCH   6  13
TORSDOF 8
ENDMDL
MODEL 5
REMARK VINA RESULT:    -3.815      1.622      2.961
REMARK INTER + INTRA:          -6.675
REMARK INTER:                  -5.168
REMARK INTRA:                  -1.507
REMARK UNBOUND:                -1.076
REMARK SMILES CCCOC(=O)c1ccccc1C(=O)OCCC
REMARK SMILES IDX 7 1 8 2 9 3 10 4 11 5 12 6 5 7 6 8 4 9 3 10 2 11 1 12 13 13
REMARK SMILES IDX 14 14 15 15 16 16 17 17 18 18
REMARK H PARENT
REMARK Flexibility Score: inf
ROOT
ATOM      1  C   UNL     1       1.574   3.458  -5.927  1.00  0.00     0.074 A 
ATOM      2  C   UNL     1       2.325   3.739  -7.084  1.00  0.00     0.016 A 
ATOM      3  C   UNL     1       1.847   3.389  -8.348  1.00  0.00     0.001 A 
ATOM      4  C   UNL     1       0.613   2.755  -8.477  1.00  0.00     0.001 A 
ATOM      5  C   UNL     1      -0.138   2.447  -7.343  1.00  0.00     0.016 A 
ATOM      6  C   UNL     1       0.336   2.769  -6.057  1.00  0.00     0.074 A 
ENDROOT
BRANCH   1   7
ATOM      7  C   UNL     1       2.086   3.958  -4.631  1.00  0.00     0.339 C 
ATOM      8  O   UNL     1       2.991   3.329  -4.017  1.00  0.00    -0.246 OA
BRANCH   7   9
ATOM      9  O   UNL     1       1.518   5.102  -4.062  1.00  0.00    -0.462 OA
BRANCH   9  10
ATOM     10  C   UNL     1       1.458   6.353  -4.743  1.00  0.00     0.233 C 
BRANCH  10  11
ATOM     11  C   UNL     1       0.008   6.697  -5.080  1.00  0.00     0.038 C 
ATOM     12  C   UNL     1      -0.288   6.512  -6.566  1.00  0.00     0.007 C 
ENDBRANCH  10  11
ENDBRANCH   9  10
ENDBRANCH   7   9
ENDBRANCH   1   7
BRANCH   6  13
ATOM     13  C   UNL     1      -0.456   2.314  -4.894  1.00  0.00     0.339 C 
ATOM     14  O   UNL     1       0.043   1.511  -4.060  1.00  0.00    -0.246 OA
BRANCH  13  15
ATOM     15  O   UNL     1      -1.784   2.736  -4.759  1.00  0.00    -0.462 OA
BRANCH  15  16
ATOM     16  C   UNL     1      -2.155   4.006  -4.223  1.00  0.00     0.233 C 
BRANCH  16  17
ATOM     17  C   UNL     1      -3.351   4.598  -4.976  1.00  0.00     0.038 C 
ATOM     18  C   UNL     1      -3.410   4.111  -6.422  1.00  0.00     0.007 C 
ENDBRANCH  16  17
ENDBRANCH  15  16
ENDBRANCH  13  15
ENDBRANCH   6  13
TORSDOF 8
ENDMDL
MODEL 6
REMARK VINA RESULT:    -3.717      1.632      2.044
REMARK INTER + INTRA:          -6.531
REMARK INTER:                  -5.225
REMARK INTRA:                  -1.306
REMARK UNBOUND:                -1.076
REMARK SMILES CCCOC(=O)c1ccccc1C(=O)OCCC
REMARK SMILES IDX 7 1 8 2 9 3 10 4 11 5 12 6 5 7 6 8 4 9 3 10 2 11 1 12 13 13
REMARK SMILES IDX 14 14 15 15 16 16 17 17 18 18
REMARK H PARENT
REMARK Flexibility Score: inf
ROOT
ATOM      1  C   UNL     1       0.552   3.260  -5.782  1.00  0.00     0.074 A 
ATOM      2  C   UNL     1       1.688   3.287  -6.612  1.00  0.00     0.016 A 
ATOM      3  C   UNL     1       1.564   3.135  -7.995  1.00  0.00     0.001 A 
ATOM      4  C   UNL     1       0.308   2.955  -8.568  1.00  0.00     0.001 A 
ATOM      5  C   UNL     1      -0.829   2.901  -7.762  1.00  0.00     0.016 A 
ATOM      6  C   UNL     1      -0.725   3.028  -6.364  1.00  0.00     0.074 A 
ENDROOT
BRANCH   1   7
ATOM      7  C   UNL     1       0.741   3.541  -4.341  1.00  0.00     0.339 C 
ATOM      8  O   UNL     1       0.919   4.724  -3.939  1.00  0.00    -0.246 OA
BRANCH   7   9
ATOM      9  O   UNL     1       0.780   2.479  -3.432  1.00  0.00    -0.462 OA
BRANCH   9  10
ATOM     10  C   UNL     1       1.478   1.265  -3.694  1.00  0.00     0.233 C 
BRANCH  10  11
ATOM     11  C   UNL     1       2.982   1.479  -3.529  1.00  0.00     0.038 C 
ATOM     12  C   UNL     1       3.692   0.199  -3.091  1.00  0.00     0.007 C 
ENDBRANCH  10  11
ENDBRANCH   9  10
ENDBRANCH   7   9
ENDBRANCH   1   7
BRANCH   6  13
ATOM     13  C   UNL     1      -1.954   2.851  -5.560  1.00  0.00     0.339 C 
ATOM     14  O   UNL     1      -2.194   1.746  -5.001  1.00  0.00    -0.246 OA
BRANCH  13  15
ATOM     15  O   UNL     1      -2.877   3.900  -5.475  1.00  0.00    -0.462 OA
BRANCH  15  16
ATOM     16  C   UNL     1      -2.550   5.198  -4.978  1.00  0.00     0.233 C 
BRANCH  16  17
ATOM     17  C   UNL     1      -2.415   6.211  -6.119  1.00  0.00     0.038 C 
ATOM     18  C   UNL     1      -0.974   6.691  -6.285  1.00  0.00     0.007 C 
ENDBRANCH  16  17
ENDBRANCH  15  16
ENDBRANCH  13  15
ENDBRANCH   6  13
TORSDOF 8
ENDMDL
MODEL 7
REMARK VINA RESULT:    -3.711      2.429      5.098
REMARK INTER + INTRA:          -6.523
REMARK INTER:                  -5.295
REMARK INTRA:                  -1.228
REMARK UNBOUND:                -1.076
REMARK SMILES CCCOC(=O)c1ccccc1C(=O)OCCC
REMARK SMILES IDX 7 1 8 2 9 3 10 4 11 5 12 6 5 7 6 8 4 9 3 10 2 11 1 12 13 13
REMARK SMILES IDX 14 14 15 15 16 16 17 17 18 18
REMARK H PARENT
REMARK Flexibility Score: inf
ROOT
ATOM      1  C   UNL     1      -1.387   3.056  -6.865  1.00  0.00     0.074 A 
ATOM      2  C   UNL     1      -1.325   3.320  -8.246  1.00  0.00     0.016 A 
ATOM      3  C   UNL     1      -0.103   3.298  -8.922  1.00  0.00     0.001 A 
ATOM      4  C   UNL     1       1.072   3.011  -8.232  1.00  0.00     0.001 A 
ATOM      5  C   UNL     1       1.037   2.769  -6.859  1.00  0.00     0.016 A 
ATOM      6  C   UNL     1      -0.180   2.809  -6.153  1.00  0.00     0.074 A 
ENDROOT
BRANCH   1   7
ATOM      7  C   UNL     1      -2.724   2.983  -6.234  1.00  0.00     0.339 C 
ATOM      8  O   UNL     1      -3.573   2.139  -6.631  1.00  0.00    -0.246 OA
BRANCH   7   9
ATOM      9  O   UNL     1      -3.061   3.896  -5.229  1.00  0.00    -0.462 OA
BRANCH   9  10
ATOM     10  C   UNL     1      -3.872   5.043  -5.471  1.00  0.00     0.233 C 
BRANCH  10  11
ATOM     11  C   UNL     1      -4.409   5.592  -4.150  1.00  0.00     0.038 C 
ATOM     12  C   UNL     1      -3.950   7.028  -3.905  1.00  0.00     0.007 C 
ENDBRANCH  10  11
ENDBRANCH   9  10
ENDBRANCH   7   9
ENDBRANCH   1   7
BRANCH   6  13
ATOM     13  C   UNL     1      -0.132   2.654  -4.683  1.00  0.00     0.339 C 
ATOM     14  O   UNL     1      -0.209   1.507  -4.162  1.00  0.00    -0.246 OA
BRANCH  13  15
ATOM     15  O   UNL     1      -0.061   3.793  -3.873  1.00  0.00    -0.462 OA
BRANCH  15  16
ATOM     16  C   UNL     1       0.591   5.000  -4.267  1.00  0.00     0.233 C 
BRANCH  16  17
ATOM     17  C   UNL     1      -0.420   6.129  -4.494  1.00  0.00     0.038 C 
ATOM     18  C   UNL     1      -0.494   6.537  -5.963  1.00  0.00     0.007 C 
ENDBRANCH  16  17
ENDBRANCH  15  16
ENDBRANCH  13  15
ENDBRANCH   6  13
TORSDOF 8
ENDMDL
MODEL 8
REMARK VINA RESULT:    -3.666      1.548      3.827
REMARK INTER + INTRA:          -6.456
REMARK INTER:                  -5.434
REMARK INTRA:                  -1.022
REMARK UNBOUND:                -1.076
REMARK SMILES CCCOC(=O)c1ccccc1C(=O)OCCC
REMARK SMILES IDX 7 1 8 2 9 3 10 4 11 5 12 6 5 7 6 8 4 9 3 10 2 11 1 12 13 13
REMARK SMILES IDX 14 14 15 15 16 16 17 17 18 18
REMARK H PARENT
REMARK Flexibility Score: inf
ROOT
ATOM      1  C   UNL     1       2.786   2.880  -4.819  1.00  0.00     0.074 A 
ATOM      2  C   UNL     1       4.096   2.527  -4.447  1.00  0.00     0.016 A 
ATOM      3  C   UNL     1       4.331   1.429  -3.618  1.00  0.00     0.001 A 
ATOM      4  C   UNL     1       3.264   0.667  -3.148  1.00  0.00     0.001 A 
ATOM      5  C   UNL     1       1.955   1.013  -3.485  1.00  0.00     0.016 A 
ATOM      6  C   UNL     1       1.694   2.129  -4.300  1.00  0.00     0.074 A 
ENDROOT
BRANCH   1   7
ATOM      7  C   UNL     1       2.615   3.983  -5.791  1.00  0.00     0.339 C 
ATOM      8  O   UNL     1       2.663   3.755  -7.031  1.00  0.00    -0.246 OA
BRANCH   7   9
ATOM      9  O   UNL     1       2.457   5.293  -5.325  1.00  0.00    -0.462 OA
BRANCH   9  10
ATOM     10  C   UNL     1       1.253   6.034  -5.501  1.00  0.00     0.233 C 
BRANCH  10  11
ATOM     11  C   UNL     1       0.561   6.237  -4.154  1.00  0.00     0.038 C 
ATOM     12  C   UNL     1      -0.954   6.348  -4.306  1.00  0.00     0.007 C 
ENDBRANCH  10  11
ENDBRANCH   9  10
ENDBRANCH   7   9
ENDBRANCH   1   7
BRANCH   6  13
ATOM     13  C   UNL     1       0.281   2.505  -4.527  1.00  0.00     0.339 C 
ATOM     14  O   UNL     1      -0.414   2.965  -3.580  1.00  0.00    -0.246 OA
BRANCH  13  15
ATOM     15  O   UNL     1      -0.294   2.290  -5.785  1.00  0.00    -0.462 OA
BRANCH  15  16
ATOM     16  C   UNL     1      -1.157   3.228  -6.426  1.00  0.00     0.233 C 
BRANCH  16  17
ATOM     17  C   UNL     1      -2.630   2.878  -6.190  1.00  0.00     0.038 C 
ATOM     18  C   UNL     1      -3.536   4.097  -6.350  1.00  0.00     0.007 C 
ENDBRANCH  16  17
ENDBRANCH  15  16
ENDBRANCH  13  15
ENDBRANCH   6  13
TORSDOF 8
ENDMDL
MODEL 9
REMARK VINA RESULT:    -3.644      1.542      4.643
REMARK INTER + INTRA:          -6.424
REMARK INTER:                  -5.223
REMARK INTRA:                  -1.201
REMARK UNBOUND:                -1.076
REMARK SMILES CCCOC(=O)c1ccccc1C(=O)OCCC
REMARK SMILES IDX 7 1 8 2 9 3 10 4 11 5 12 6 5 7 6 8 4 9 3 10 2 11 1 12 13 13
REMARK SMILES IDX 14 14 15 15 16 16 17 17 18 18
REMARK H PARENT
REMARK Flexibility Score: inf
ROOT
ATOM      1  C   UNL     1       1.698   2.142  -4.252  1.00  0.00     0.074 A 
ATOM      2  C   UNL     1       1.902   0.978  -3.487  1.00  0.00     0.016 A 
ATOM      3  C   UNL     1       3.189   0.591  -3.108  1.00  0.00     0.001 A 
ATOM      4  C   UNL     1       4.289   1.357  -3.485  1.00  0.00     0.001 A 
ATOM      5  C   UNL     1       4.111   2.502  -4.262  1.00  0.00     0.016 A 
ATOM      6  C   UNL     1       2.826   2.898  -4.675  1.00  0.00     0.074 A 
ENDROOT
BRANCH   1   7
ATOM      7  C   UNL     1       0.302   2.557  -4.521  1.00  0.00     0.339 C 
ATOM      8  O   UNL     1      -0.392   3.090  -3.613  1.00  0.00    -0.246 OA
BRANCH   7   9
ATOM      9  O   UNL     1      -0.261   2.301  -5.776  1.00  0.00    -0.462 OA
BRANCH   9  10
ATOM     10  C   UNL     1      -1.222   3.164  -6.379  1.00  0.00     0.233 C 
BRANCH  10  11
ATOM     11  C   UNL     1      -0.884   3.372  -7.855  1.00  0.00     0.038 C 
ATOM     12  C   UNL     1      -0.017   2.241  -8.403  1.00  0.00     0.007 C 
ENDBRANCH  10  11
ENDBRANCH   9  10
ENDBRANCH   7   9
ENDBRANCH   1   7
BRANCH   6  13
ATOM     13  C   UNL     1       2.719   4.056  -5.589  1.00  0.00     0.339 C 
ATOM     14  O   UNL     1       2.612   3.877  -6.833  1.00  0.00    -0.246 OA
BRANCH  13  15
ATOM     15  O   UNL     1       2.798   5.353  -5.068  1.00  0.00    -0.462 OA
BRANCH  15  16
ATOM     16  C   UNL     1       1.737   5.976  -4.344  1.00  0.00     0.233 C 
BRANCH  16  17
ATOM     17  C   UNL     1       0.523   6.227  -5.246  1.00  0.00     0.038 C 
ATOM     18  C   UNL     1      -0.746   6.473  -4.434  1.00  0.00     0.007 C 
ENDBRANCH  16  17
ENDBRANCH  15  16
ENDBRANCH  13  15
ENDBRANCH   6  13
TORSDOF 8
ENDMDL
