MODEL 1
REMARK VINA RESULT:    -0.604      0.000      0.000
REMARK INTER + INTRA:          -0.958
REMARK INTER:                  -0.728
REMARK INTRA:                  -0.230
REMARK UNBOUND:                -0.230
REMARK SMILES Oc1cc(O)c2cc(O)c(-c3ccc(O)c(O)c3)[o+]c2c1
REMARK SMILES IDX 10 1 19 2 20 3 21 4 2 5 3 6 4 7 6 8 7 9 8 10 11 11 12 12
REMARK SMILES IDX 13 13 14 14 18 15 16 16 15 17 17 19 9 21 1 23 5 25
REMARK H PARENT 15 18 17 20 9 22 1 24 5 26
REMARK Flexibility Score: inf
ROOT
ATOM      1  C   UNL     1      29.610  37.953  27.177  1.00  0.00     0.402 A 
ATOM      2  O   UNL     1      30.114  36.725  27.095  1.00  0.00    -0.202 OA
ATOM      3  C   UNL     1      29.457  35.701  26.561  1.00  0.00     0.368 A 
ATOM      4  C   UNL     1      30.072  34.447  26.518  1.00  0.00     0.162 A 
ATOM      5  C   UNL     1      29.406  33.353  25.958  1.00  0.00     0.128 A 
ATOM      6  C   UNL     1      28.119  33.514  25.439  1.00  0.00     0.093 A 
ATOM      7  C   UNL     1      27.481  34.761  25.470  1.00  0.00     0.136 A 
ATOM      8  C   UNL     1      28.153  35.874  26.040  1.00  0.00     0.125 A 
ATOM      9  C   UNL     1      27.586  37.156  26.125  1.00  0.00     0.078 A 
ATOM     10  C   UNL     1      28.308  38.204  26.705  1.00  0.00     0.223 A 
ENDROOT
BRANCH   1  11
ATOM     11  C   UNL     1      30.445  39.014  27.787  1.00  0.00     0.087 A 
ATOM     12  C   UNL     1      30.109  39.590  29.024  1.00  0.00     0.022 A 
ATOM     13  C   UNL     1      30.900  40.605  29.569  1.00  0.00     0.051 A 
ATOM     14  C   UNL     1      32.026  41.070  28.882  1.00  0.00     0.157 A 
ATOM     15  C   UNL     1      31.566  39.497  27.091  1.00  0.00     0.068 A 
ATOM     16  C   UNL     1      32.360  40.516  27.635  1.00  0.00     0.158 A 
BRANCH  14  17
ATOM     17  O   UNL     1      32.796  42.084  29.452  1.00  0.00    -0.504 OA
ATOM     18  H   UNL     1      32.744  42.310  30.438  1.00  0.00     0.293 HD
ENDBRANCH  14  17
BRANCH  16  19
ATOM     19  O   UNL     1      33.477  40.980  26.943  1.00  0.00    -0.504 OA
ATOM     20  H   UNL     1      33.614  40.776  25.959  1.00  0.00     0.293 HD
ENDBRANCH  16  19
ENDBRANCH   1  11
BRANCH  10  21
ATOM     21  O   UNL     1      27.727  39.465  26.835  1.00  0.00    -0.500 OA
ATOM     22  H   UNL     1      26.735  39.612  26.691  1.00  0.00     0.294 HD
ENDBRANCH  10  21
BRANCH   5  23
ATOM     23  O   UNL     1      30.013  32.099  25.912  1.00  0.00    -0.507 OA
ATOM     24  H   UNL     1      30.795  31.912  25.295  1.00  0.00     0.293 HD
ENDBRANCH   5  23
BRANCH   7  25
ATOM     25  O   UNL     1      26.195  34.839  24.928  1.00  0.00    -0.507 OA
ATOM     26  H   UNL     1      25.813  34.178  24.268  1.00  0.00     0.293 HD
ENDBRANCH   7  25
TORSDOF 6
ENDMDL
MODEL 2
REMARK VINA RESULT:     0.589      3.253      5.540
REMARK INTER + INTRA:           0.480
REMARK INTER:                   0.798
REMARK INTRA:                  -0.318
REMARK UNBOUND:                -0.230
REMARK SMILES Oc1cc(O)c2cc(O)c(-c3ccc(O)c(O)c3)[o+]c2c1
REMARK SMILES IDX 10 1 19 2 20 3 21 4 2 5 3 6 4 7 6 8 7 9 8 10 11 11 12 12
REMARK SMILES IDX 13 13 14 14 18 15 16 16 15 17 17 19 9 21 1 23 5 25
REMARK H PARENT 15 18 17 20 9 22 1 24 5 26
REMARK Flexibility Score: inf
ROOT
ATOM      1  C   UNL     1      29.627  37.620  26.332  1.00  0.00     0.402 A 
ATOM      2  O   UNL     1      30.160  38.194  27.407  1.00  0.00    -0.202 OA
ATOM      3  C   UNL     1      29.538  38.268  28.580  1.00  0.00     0.368 A 
ATOM      4  C   UNL     1      30.182  38.889  29.653  1.00  0.00     0.162 A 
ATOM      5  C   UNL     1      29.552  38.977  30.898  1.00  0.00     0.128 A 
ATOM      6  C   UNL     1      28.274  38.443  31.070  1.00  0.00     0.093 A 
ATOM      7  C   UNL     1      27.607  37.815  30.010  1.00  0.00     0.136 A 
ATOM      8  C   UNL     1      28.241  37.725  28.743  1.00  0.00     0.125 A 
ATOM      9  C   UNL     1      27.643  37.127  27.622  1.00  0.00     0.078 A 
ATOM     10  C   UNL     1      28.330  37.079  26.404  1.00  0.00     0.223 A 
ENDROOT
BRANCH   1  11
ATOM     11  C   UNL     1      30.425  37.593  25.085  1.00  0.00     0.087 A 
ATOM     12  C   UNL     1      30.198  38.517  24.050  1.00  0.00     0.022 A 
ATOM     13  C   UNL     1      30.948  38.457  22.873  1.00  0.00     0.051 A 
ATOM     14  C   UNL     1      31.922  37.468  22.704  1.00  0.00     0.157 A 
ATOM     15  C   UNL     1      31.390  36.589  24.904  1.00  0.00     0.068 A 
ATOM     16  C   UNL     1      32.143  36.526  23.723  1.00  0.00     0.158 A 
BRANCH  14  17
ATOM     17  O   UNL     1      32.655  37.434  21.518  1.00  0.00    -0.504 OA
ATOM     18  H   UNL     1      32.303  37.834  20.656  1.00  0.00     0.293 HD
ENDBRANCH  14  17
BRANCH  16  19
ATOM     19  O   UNL     1      33.108  35.534  23.558  1.00  0.00    -0.504 OA
ATOM     20  H   UNL     1      32.935  34.575  23.838  1.00  0.00     0.293 HD
ENDBRANCH  16  19
ENDBRANCH   1  11
BRANCH  10  21
ATOM     21  O   UNL     1      27.717  36.529  25.278  1.00  0.00    -0.500 OA
ATOM     22  H   UNL     1      27.105  37.076  24.684  1.00  0.00     0.294 HD
ENDBRANCH  10  21
BRANCH   5  23
ATOM     23  O   UNL     1      30.188  39.596  31.973  1.00  0.00    -0.507 OA
ATOM     24  H   UNL     1      29.891  40.503  32.314  1.00  0.00     0.293 HD
ENDBRANCH   5  23
BRANCH   7  25
ATOM     25  O   UNL     1      26.331  37.304  30.265  1.00  0.00    -0.507 OA
ATOM     26  H   UNL     1      25.905  36.552  29.745  1.00  0.00     0.293 HD
ENDBRANCH   7  25
TORSDOF 6
ENDMDL
MODEL 3
REMARK VINA RESULT:     0.599      0.995      2.602
REMARK INTER + INTRA:           0.492
REMARK INTER:                   0.788
REMARK INTRA:                  -0.296
REMARK UNBOUND:                -0.230
REMARK SMILES Oc1cc(O)c2cc(O)c(-c3ccc(O)c(O)c3)[o+]c2c1
REMARK SMILES IDX 10 1 19 2 20 3 21 4 2 5 3 6 4 7 6 8 7 9 8 10 11 11 12 12
REMARK SMILES IDX 13 13 14 14 18 15 16 16 15 17 17 19 9 21 1 23 5 25
REMARK H PARENT 15 18 17 20 9 22 1 24 5 26
REMARK Flexibility Score: inf
ROOT
ATOM      1  C   UNL     1      30.528  37.299  27.470  1.00  0.00     0.402 A 
ATOM      2  O   UNL     1      29.379  37.247  26.803  1.00  0.00    -0.202 OA
ATOM      3  C   UNL     1      28.848  36.115  26.351  1.00  0.00     0.368 A 
ATOM      4  C   UNL     1      27.634  36.161  25.663  1.00  0.00     0.162 A 
ATOM      5  C   UNL     1      27.052  34.986  25.179  1.00  0.00     0.128 A 
ATOM      6  C   UNL     1      27.687  33.759  25.385  1.00  0.00     0.093 A 
ATOM      7  C   UNL     1      28.905  33.686  26.072  1.00  0.00     0.136 A 
ATOM      8  C   UNL     1      29.502  34.877  26.563  1.00  0.00     0.125 A 
ATOM      9  C   UNL     1      30.726  34.900  27.250  1.00  0.00     0.078 A 
ATOM     10  C   UNL     1      31.254  36.115  27.700  1.00  0.00     0.223 A 
ENDROOT
BRANCH   1  11
ATOM     11  C   UNL     1      31.011  38.621  27.931  1.00  0.00     0.087 A 
ATOM     12  C   UNL     1      30.434  39.265  29.040  1.00  0.00     0.022 A 
ATOM     13  C   UNL     1      30.891  40.523  29.442  1.00  0.00     0.051 A 
ATOM     14  C   UNL     1      31.917  41.161  28.739  1.00  0.00     0.157 A 
ATOM     15  C   UNL     1      32.027  39.274  27.215  1.00  0.00     0.068 A 
ATOM     16  C   UNL     1      32.486  40.537  27.617  1.00  0.00     0.158 A 
BRANCH  14  17
ATOM     17  O   UNL     1      32.352  42.416  29.166  1.00  0.00    -0.504 OA
ATOM     18  H   UNL     1      32.634  43.138  28.514  1.00  0.00     0.293 HD
ENDBRANCH  14  17
BRANCH  16  19
ATOM     19  O   UNL     1      33.505  41.171  26.907  1.00  0.00    -0.504 OA
ATOM     20  H   UNL     1      33.749  40.890  25.964  1.00  0.00     0.293 HD
ENDBRANCH  16  19
ENDBRANCH   1  11
BRANCH  10  21
ATOM     21  O   UNL     1      32.494  36.144  28.338  1.00  0.00    -0.500 OA
ATOM     22  H   UNL     1      33.230  36.775  28.045  1.00  0.00     0.294 HD
ENDBRANCH  10  21
BRANCH   5  23
ATOM     23  O   UNL     1      25.840  35.024  24.491  1.00  0.00    -0.507 OA
ATOM     24  H   UNL     1      25.595  35.805  23.894  1.00  0.00     0.293 HD
ENDBRANCH   5  23
BRANCH   7  25
ATOM     25  O   UNL     1      29.475  32.421  26.239  1.00  0.00    -0.507 OA
ATOM     26  H   UNL     1      29.109  31.707  26.851  1.00  0.00     0.293 HD
ENDBRANCH   7  25
TORSDOF 6
ENDMDL
MODEL 4
REMARK VINA RESULT:     0.977      3.265      5.448
REMARK INTER + INTRA:           0.947
REMARK INTER:                   1.213
REMARK INTRA:                  -0.266
REMARK UNBOUND:                -0.230
REMARK SMILES Oc1cc(O)c2cc(O)c(-c3ccc(O)c(O)c3)[o+]c2c1
REMARK SMILES IDX 10 1 19 2 20 3 21 4 2 5 3 6 4 7 6 8 7 9 8 10 11 11 12 12
REMARK SMILES IDX 13 13 14 14 18 15 16 16 15 17 17 19 9 21 1 23 5 25
REMARK H PARENT 15 18 17 20 9 22 1 24 5 26
REMARK Flexibility Score: inf
ROOT
ATOM      1  C   UNL     1      29.663  37.273  26.946  1.00  0.00     0.402 A 
ATOM      2  O   UNL     1      30.141  37.912  25.882  1.00  0.00    -0.202 OA
ATOM      3  C   UNL     1      29.485  38.886  25.260  1.00  0.00     0.368 A 
ATOM      4  C   UNL     1      30.072  39.500  24.151  1.00  0.00     0.162 A 
ATOM      5  C   UNL     1      29.404  40.530  23.479  1.00  0.00     0.128 A 
ATOM      6  C   UNL     1      28.146  40.946  23.919  1.00  0.00     0.093 A 
ATOM      7  C   UNL     1      27.536  40.346  25.029  1.00  0.00     0.136 A 
ATOM      8  C   UNL     1      28.208  39.299  25.712  1.00  0.00     0.125 A 
ATOM      9  C   UNL     1      27.668  38.632  26.824  1.00  0.00     0.078 A 
ATOM     10  C   UNL     1      28.389  37.605  27.443  1.00  0.00     0.223 A 
ENDROOT
BRANCH   1  11
ATOM     11  C   UNL     1      30.495  36.211  27.557  1.00  0.00     0.087 A 
ATOM     12  C   UNL     1      30.163  34.852  27.423  1.00  0.00     0.022 A 
ATOM     13  C   UNL     1      30.951  33.869  28.028  1.00  0.00     0.051 A 
ATOM     14  C   UNL     1      32.069  34.227  28.786  1.00  0.00     0.157 A 
ATOM     15  C   UNL     1      31.608  36.568  28.336  1.00  0.00     0.068 A 
ATOM     16  C   UNL     1      32.399  35.583  28.944  1.00  0.00     0.158 A 
BRANCH  14  17
ATOM     17  O   UNL     1      32.837  33.223  29.377  1.00  0.00    -0.504 OA
ATOM     18  H   UNL     1      33.664  33.430  29.924  1.00  0.00     0.293 HD
ENDBRANCH  14  17
BRANCH  16  19
ATOM     19  O   UNL     1      33.510  35.947  29.704  1.00  0.00    -0.504 OA
ATOM     20  H   UNL     1      34.007  36.814  29.536  1.00  0.00     0.293 HD
ENDBRANCH  16  19
ENDBRANCH   1  11
BRANCH  10  21
ATOM     21  O   UNL     1      27.832  36.910  28.516  1.00  0.00    -0.500 OA
ATOM     22  H   UNL     1      26.983  36.366  28.415  1.00  0.00     0.294 HD
ENDBRANCH  10  21
BRANCH   5  23
ATOM     23  O   UNL     1      29.983  41.147  22.372  1.00  0.00    -0.507 OA
ATOM     24  H   UNL     1      30.433  42.052  22.446  1.00  0.00     0.293 HD
ENDBRANCH   5  23
BRANCH   7  25
ATOM     25  O   UNL     1      26.278  40.822  25.407  1.00  0.00    -0.507 OA
ATOM     26  H   UNL     1      25.719  41.456  24.856  1.00  0.00     0.293 HD
ENDBRANCH   7  25
TORSDOF 6
ENDMDL
MODEL 5
REMARK VINA RESULT:     1.419      3.274      5.759
REMARK INTER + INTRA:           1.479
REMARK INTER:                   1.750
REMARK INTRA:                  -0.270
REMARK UNBOUND:                -0.230
REMARK SMILES Oc1cc(O)c2cc(O)c(-c3ccc(O)c(O)c3)[o+]c2c1
REMARK SMILES IDX 10 1 19 2 20 3 21 4 2 5 3 6 4 7 6 8 7 9 8 10 11 11 12 12
REMARK SMILES IDX 13 13 14 14 18 15 16 16 15 17 17 19 9 21 1 23 5 25
REMARK H PARENT 15 18 17 20 9 22 1 24 5 26
REMARK Flexibility Score: inf
ROOT
ATOM      1  C   UNL     1      30.528  38.326  26.852  1.00  0.00     0.402 A 
ATOM      2  O   UNL     1      29.383  37.821  27.302  1.00  0.00    -0.202 OA
ATOM      3  C   UNL     1      28.938  38.011  28.540  1.00  0.00     0.368 A 
ATOM      4  C   UNL     1      27.720  37.441  28.919  1.00  0.00     0.162 A 
ATOM      5  C   UNL     1      27.226  37.629  30.214  1.00  0.00     0.128 A 
ATOM      6  C   UNL     1      27.953  38.390  31.132  1.00  0.00     0.093 A 
ATOM      7  C   UNL     1      29.176  38.972  30.776  1.00  0.00     0.136 A 
ATOM      8  C   UNL     1      29.683  38.782  29.464  1.00  0.00     0.125 A 
ATOM      9  C   UNL     1      30.905  39.317  29.024  1.00  0.00     0.078 A 
ATOM     10  C   UNL     1      31.342  39.083  27.716  1.00  0.00     0.223 A 
ENDROOT
BRANCH   1  11
ATOM     11  C   UNL     1      30.911  38.050  25.448  1.00  0.00     0.087 A 
ATOM     12  C   UNL     1      30.252  38.672  24.373  1.00  0.00     0.022 A 
ATOM     13  C   UNL     1      30.616  38.378  23.056  1.00  0.00     0.051 A 
ATOM     14  C   UNL     1      31.630  37.453  22.792  1.00  0.00     0.157 A 
ATOM     15  C   UNL     1      31.916  37.106  25.179  1.00  0.00     0.068 A 
ATOM     16  C   UNL     1      32.282  36.811  23.858  1.00  0.00     0.158 A 
BRANCH  14  17
ATOM     17  O   UNL     1      31.972  37.182  21.467  1.00  0.00    -0.504 OA
ATOM     18  H   UNL     1      31.333  37.356  20.701  1.00  0.00     0.293 HD
ENDBRANCH  14  17
BRANCH  16  19
ATOM     19  O   UNL     1      33.289  35.882  23.601  1.00  0.00    -0.504 OA
ATOM     20  H   UNL     1      33.845  35.481  24.349  1.00  0.00     0.293 HD
ENDBRANCH  16  19
ENDBRANCH   1  11
BRANCH  10  21
ATOM     21  O   UNL     1      32.578  39.572  27.294  1.00  0.00    -0.500 OA
ATOM     22  H   UNL     1      33.342  38.952  27.052  1.00  0.00     0.294 HD
ENDBRANCH  10  21
BRANCH   5  23
ATOM     23  O   UNL     1      26.012  37.063  30.600  1.00  0.00    -0.507 OA
ATOM     24  H   UNL     1      25.933  36.075  30.814  1.00  0.00     0.293 HD
ENDBRANCH   5  23
BRANCH   7  25
ATOM     25  O   UNL     1      29.840  39.721  31.751  1.00  0.00    -0.507 OA
ATOM     26  H   UNL     1      29.398  40.413  32.338  1.00  0.00     0.293 HD
ENDBRANCH   7  25
TORSDOF 6
ENDMDL
MODEL 6
REMARK VINA RESULT:     2.048      1.537      6.974
REMARK INTER + INTRA:           2.236
REMARK INTER:                   2.587
REMARK INTRA:                  -0.350
REMARK UNBOUND:                -0.230
REMARK SMILES Oc1cc(O)c2cc(O)c(-c3ccc(O)c(O)c3)[o+]c2c1
REMARK SMILES IDX 10 1 19 2 20 3 21 4 2 5 3 6 4 7 6 8 7 9 8 10 11 11 12 12
REMARK SMILES IDX 13 13 14 14 18 15 16 16 15 17 17 19 9 21 1 23 5 25
REMARK H PARENT 15 18 17 20 9 22 1 24 5 26
REMARK Flexibility Score: inf
ROOT
ATOM      1  C   UNL     1      29.462  37.519  26.833  1.00  0.00     0.402 A 
ATOM      2  O   UNL     1      29.374  37.698  28.148  1.00  0.00    -0.202 OA
ATOM      3  C   UNL     1      30.052  38.635  28.804  1.00  0.00     0.368 A 
ATOM      4  C   UNL     1      29.891  38.747  30.187  1.00  0.00     0.162 A 
ATOM      5  C   UNL     1      30.589  39.725  30.901  1.00  0.00     0.128 A 
ATOM      6  C   UNL     1      31.451  40.595  30.229  1.00  0.00     0.093 A 
ATOM      7  C   UNL     1      31.630  40.503  28.843  1.00  0.00     0.136 A 
ATOM      8  C   UNL     1      30.925  39.510  28.114  1.00  0.00     0.125 A 
ATOM      9  C   UNL     1      31.052  39.336  26.726  1.00  0.00     0.078 A 
ATOM     10  C   UNL     1      30.328  38.331  26.076  1.00  0.00     0.223 A 
ENDROOT
BRANCH   1  11
ATOM     11  C   UNL     1      28.648  36.447  26.216  1.00  0.00     0.087 A 
ATOM     12  C   UNL     1      27.385  36.714  25.658  1.00  0.00     0.022 A 
ATOM     13  C   UNL     1      26.626  35.681  25.103  1.00  0.00     0.051 A 
ATOM     14  C   UNL     1      27.105  34.369  25.108  1.00  0.00     0.157 A 
ATOM     15  C   UNL     1      29.118  35.123  26.237  1.00  0.00     0.068 A 
ATOM     16  C   UNL     1      28.357  34.086  25.680  1.00  0.00     0.158 A 
BRANCH  14  17
ATOM     17  O   UNL     1      26.324  33.360  24.544  1.00  0.00    -0.504 OA
ATOM     18  H   UNL     1      26.046  32.539  25.068  1.00  0.00     0.293 HD
ENDBRANCH  14  17
BRANCH  16  19
ATOM     19  O   UNL     1      28.838  32.778  25.695  1.00  0.00    -0.504 OA
ATOM     20  H   UNL     1      28.633  32.129  24.943  1.00  0.00     0.293 HD
ENDBRANCH  16  19
ENDBRANCH   1  11
BRANCH  10  21
ATOM     21  O   UNL     1      30.492  38.126  24.706  1.00  0.00    -0.500 OA
ATOM     22  H   UNL     1      30.292  38.854  24.031  1.00  0.00     0.294 HD
ENDBRANCH  10  21
BRANCH   5  23
ATOM     23  O   UNL     1      30.435  39.843  32.281  1.00  0.00    -0.507 OA
ATOM     24  H   UNL     1      30.067  40.688  32.703  1.00  0.00     0.293 HD
ENDBRANCH   5  23
BRANCH   7  25
ATOM     25  O   UNL     1      32.507  41.412  28.246  1.00  0.00    -0.507 OA
ATOM     26  H   UNL     1      32.227  42.293  27.841  1.00  0.00     0.293 HD
ENDBRANCH   7  25
TORSDOF 6
ENDMDL
MODEL 7
REMARK VINA RESULT:     2.324      3.367      5.755
REMARK INTER + INTRA:           2.569
REMARK INTER:                   2.872
REMARK INTRA:                  -0.302
REMARK UNBOUND:                -0.230
REMARK SMILES Oc1cc(O)c2cc(O)c(-c3ccc(O)c(O)c3)[o+]c2c1
REMARK SMILES IDX 10 1 19 2 20 3 21 4 2 5 3 6 4 7 6 8 7 9 8 10 11 11 12 12
REMARK SMILES IDX 13 13 14 14 18 15 16 16 15 17 17 19 9 21 1 23 5 25
REMARK H PARENT 15 18 17 20 9 22 1 24 5 26
REMARK Flexibility Score: inf
ROOT
ATOM      1  C   UNL     1      30.443  37.272  26.192  1.00  0.00     0.402 A 
ATOM      2  O   UNL     1      29.329  37.925  26.510  1.00  0.00    -0.202 OA
ATOM      3  C   UNL     1      28.804  38.884  25.754  1.00  0.00     0.368 A 
ATOM      4  C   UNL     1      27.627  39.511  26.172  1.00  0.00     0.162 A 
ATOM      5  C   UNL     1      27.052  40.521  25.394  1.00  0.00     0.128 A 
ATOM      6  C   UNL     1      27.656  40.905  24.195  1.00  0.00     0.093 A 
ATOM      7  C   UNL     1      28.836  40.292  23.754  1.00  0.00     0.136 A 
ATOM      8  C   UNL     1      29.426  39.268  24.542  1.00  0.00     0.125 A 
ATOM      9  C   UNL     1      30.613  38.608  24.185  1.00  0.00     0.078 A 
ATOM     10  C   UNL     1      31.136  37.611  25.015  1.00  0.00     0.223 A 
ENDROOT
BRANCH   1  11
ATOM     11  C   UNL     1      30.922  36.215  27.113  1.00  0.00     0.087 A 
ATOM     12  C   UNL     1      30.308  34.951  27.159  1.00  0.00     0.022 A 
ATOM     13  C   UNL     1      30.764  33.977  28.053  1.00  0.00     0.051 A 
ATOM     14  C   UNL     1      31.825  34.254  28.920  1.00  0.00     0.157 A 
ATOM     15  C   UNL     1      31.974  36.496  28.000  1.00  0.00     0.068 A 
ATOM     16  C   UNL     1      32.432  35.520  28.897  1.00  0.00     0.158 A 
BRANCH  14  17
ATOM     17  O   UNL     1      32.257  33.261  29.799  1.00  0.00    -0.504 OA
ATOM     18  H   UNL     1      31.654  32.879  30.518  1.00  0.00     0.293 HD
ENDBRANCH  14  17
BRANCH  16  19
ATOM     19  O   UNL     1      33.485  35.805  29.764  1.00  0.00    -0.504 OA
ATOM     20  H   UNL     1      34.302  35.207  29.820  1.00  0.00     0.293 HD
ENDBRANCH  16  19
ENDBRANCH   1  11
BRANCH  10  21
ATOM     21  O   UNL     1      32.342  36.990  24.687  1.00  0.00    -0.500 OA
ATOM     22  H   UNL     1      33.199  37.518  24.572  1.00  0.00     0.294 HD
ENDBRANCH  10  21
BRANCH   5  23
ATOM     23  O   UNL     1      25.879  41.151  25.804  1.00  0.00    -0.507 OA
ATOM     24  H   UNL     1      25.532  41.981  25.336  1.00  0.00     0.293 HD
ENDBRANCH   5  23
BRANCH   7  25
ATOM     25  O   UNL     1      29.376  40.731  22.543  1.00  0.00    -0.507 OA
ATOM     26  H   UNL     1      30.261  41.208  22.452  1.00  0.00     0.293 HD
ENDBRANCH   7  25
TORSDOF 6
ENDMDL
