MODEL 1
REMARK VINA RESULT:    -1.320      0.000      0.000
REMARK INTER + INTRA:          -4.256
REMARK INTER:                  -2.864
REMARK INTRA:                  -1.392
REMARK UNBOUND:                -1.392
REMARK SMILES CCCCCCCCCCCCCCCCCCCCCC(=O)[O-]
REMARK SMILES IDX 12 1 11 2 10 3 9 4 8 5 7 6 6 7 5 8 4 9 3 10 2 11 1 12 13 13
REMARK SMILES IDX 14 14 15 15 16 16 17 17 18 18 19 19 20 20 21 21 22 22 23 23
REMARK SMILES IDX 24 24
REMARK H PARENT
REMARK Flexibility Score: inf
ROOT
ATOM      1  C   UNL     1      28.093  -0.156  43.753  1.00  0.00     0.000 C 
ENDROOT
BRANCH   1   2
ATOM      2  C   UNL     1      26.927  -0.265  42.759  1.00  0.00     0.000 C 
BRANCH   2   3
ATOM      3  C   UNL     1      25.748   0.656  43.121  1.00  0.00     0.000 C 
BRANCH   3   4
ATOM      4  C   UNL     1      25.137   1.350  41.893  1.00  0.00    -0.000 C 
BRANCH   4   5
ATOM      5  C   UNL     1      23.621   1.577  42.037  1.00  0.00    -0.000 C 
BRANCH   5   6
ATOM      6  C   UNL     1      23.059   2.507  40.949  1.00  0.00    -0.000 C 
BRANCH   6   7
ATOM      7  C   UNL     1      21.946   1.841  40.122  1.00  0.00    -0.000 C 
BRANCH   7   8
ATOM      8  C   UNL     1      21.504   0.490  40.708  1.00  0.00    -0.000 C 
BRANCH   8   9
ATOM      9  C   UNL     1      20.254   0.611  41.599  1.00  0.00    -0.000 C 
BRANCH   9  10
ATOM     10  C   UNL     1      19.620   2.009  41.542  1.00  0.00    -0.000 C 
BRANCH  10  11
ATOM     11  C   UNL     1      18.265   2.014  40.818  1.00  0.00    -0.003 C 
ATOM     12  C   UNL     1      18.320   2.865  39.553  1.00  0.00     0.004 C 
ENDBRANCH  10  11
ENDBRANCH   9  10
ENDBRANCH   8   9
ENDBRANCH   7   8
ENDBRANCH   6   7
ENDBRANCH   5   6
ENDBRANCH   4   5
ENDBRANCH   3   4
ENDBRANCH   2   3
ENDBRANCH   1   2
BRANCH   1  13
ATOM     13  C   UNL     1      28.690  -1.529  44.111  1.00  0.00     0.000 C 
BRANCH  13  14
ATOM     14  C   UNL     1      30.206  -1.604  43.852  1.00  0.00     0.000 C 
BRANCH  14  15
ATOM     15  C   UNL     1      30.733  -0.641  42.769  1.00  0.00     0.000 C 
BRANCH  15  16
ATOM     16  C   UNL     1      30.811  -1.230  41.344  1.00  0.00     0.000 C 
BRANCH  16  17
ATOM     17  C   UNL     1      31.818  -0.537  40.407  1.00  0.00     0.000 C 
BRANCH  17  18
ATOM     18  C   UNL     1      31.784   0.995  40.521  1.00  0.00     0.000 C 
BRANCH  18  19
ATOM     19  C   UNL     1      31.673   1.643  39.134  1.00  0.00     0.000 C 
BRANCH  19  20
ATOM     20  C   UNL     1      31.443   0.613  38.016  1.00  0.00     0.006 C 
BRANCH  20  21
ATOM     21  C   UNL     1      30.063   0.752  37.358  1.00  0.00     0.053 C 
BRANCH  21  22
ATOM     22  C   UNL     1      28.978   0.537  38.366  1.00  0.00     0.041 C 
ATOM     23  O   UNL     1      28.338   1.521  38.824  1.00  0.00    -0.550 OA
ATOM     24  O   UNL     1      28.707  -0.743  38.837  1.00  0.00    -0.550 OA
ENDBRANCH  21  22
ENDBRANCH  20  21
ENDBRANCH  19  20
ENDBRANCH  18  19
ENDBRANCH  17  18
ENDBRANCH  16  17
ENDBRANCH  15  16
ENDBRANCH  14  15
ENDBRANCH  13  14
ENDBRANCH   1  13
TORSDOF 20
ENDMDL
MODEL 2
REMARK VINA RESULT:    -1.049      3.012      8.748
REMARK INTER + INTRA:          -3.668
REMARK INTER:                  -3.067
REMARK INTRA:                  -0.602
REMARK UNBOUND:                -1.392
REMARK SMILES CCCCCCCCCCCCCCCCCCCCCC(=O)[O-]
REMARK SMILES IDX 12 1 11 2 10 3 9 4 8 5 7 6 6 7 5 8 4 9 3 10 2 11 1 12 13 13
REMARK SMILES IDX 14 14 15 15 16 16 17 17 18 18 19 19 20 20 21 21 22 22 23 23
REMARK SMILES IDX 24 24
REMARK H PARENT
REMARK Flexibility Score: inf
ROOT
ATOM      1  C   UNL     1      28.646  -1.544  44.497  1.00  0.00     0.000 C 
ENDROOT
BRANCH   1   2
ATOM      2  C   UNL     1      29.981  -0.798  44.350  1.00  0.00     0.000 C 
BRANCH   2   3
ATOM      3  C   UNL     1      30.806  -1.286  43.145  1.00  0.00     0.000 C 
BRANCH   3   4
ATOM      4  C   UNL     1      30.712  -0.339  41.938  1.00  0.00    -0.000 C 
BRANCH   4   5
ATOM      5  C   UNL     1      30.157  -1.036  40.683  1.00  0.00    -0.000 C 
BRANCH   5   6
ATOM      6  C   UNL     1      28.849  -0.400  40.184  1.00  0.00    -0.000 C 
BRANCH   6   7
ATOM      7  C   UNL     1      28.749  -0.385  38.649  1.00  0.00    -0.000 C 
BRANCH   7   8
ATOM      8  C   UNL     1      29.468   0.821  38.023  1.00  0.00    -0.000 C 
BRANCH   8   9
ATOM      9  C   UNL     1      30.868   0.464  37.490  1.00  0.00    -0.000 C 
BRANCH   9  10
ATOM     10  C   UNL     1      31.934   1.498  37.888  1.00  0.00    -0.000 C 
BRANCH  10  11
ATOM     11  C   UNL     1      32.119   1.598  39.409  1.00  0.00    -0.003 C 
ATOM     12  C   UNL     1      31.290   2.738  39.991  1.00  0.00     0.004 C 
ENDBRANCH  10  11
ENDBRANCH   9  10
ENDBRANCH   8   9
ENDBRANCH   7   8
ENDBRANCH   6   7
ENDBRANCH   5   6
ENDBRANCH   4   5
ENDBRANCH   3   4
ENDBRANCH   2   3
ENDBRANCH   1   2
BRANCH   1  13
ATOM     13  C   UNL     1      27.654  -1.201  43.372  1.00  0.00     0.000 C 
BRANCH  13  14
ATOM     14  C   UNL     1      27.246   0.283  43.371  1.00  0.00     0.000 C 
BRANCH  14  15
ATOM     15  C   UNL     1      25.726   0.543  43.351  1.00  0.00     0.000 C 
BRANCH  15  16
ATOM     16  C   UNL     1      25.193   1.246  42.085  1.00  0.00     0.000 C 
BRANCH  16  17
ATOM     17  C   UNL     1      23.678   1.101  41.847  1.00  0.00     0.000 C 
BRANCH  17  18
ATOM     18  C   UNL     1      23.075   2.295  41.093  1.00  0.00     0.000 C 
BRANCH  18  19
ATOM     19  C   UNL     1      21.795   1.883  40.352  1.00  0.00     0.000 C 
BRANCH  19  20
ATOM     20  C   UNL     1      21.250   0.525  40.824  1.00  0.00     0.006 C 
BRANCH  20  21
ATOM     21  C   UNL     1      20.167   0.664  41.903  1.00  0.00     0.053 C 
BRANCH  21  22
ATOM     22  C   UNL     1      19.120   1.642  41.471  1.00  0.00     0.041 C 
ATOM     23  O   UNL     1      18.046   1.745  42.122  1.00  0.00    -0.550 OA
ATOM     24  O   UNL     1      19.307   2.403  40.323  1.00  0.00    -0.550 OA
ENDBRANCH  21  22
ENDBRANCH  20  21
ENDBRANCH  19  20
ENDBRANCH  18  19
ENDBRANCH  17  18
ENDBRANCH  16  17
ENDBRANCH  15  16
ENDBRANCH  14  15
ENDBRANCH  13  14
ENDBRANCH   1  13
TORSDOF 20
ENDMDL
MODEL 3
REMARK VINA RESULT:    -0.980      3.148      8.982
REMARK INTER + INTRA:          -3.518
REMARK INTER:                  -2.114
REMARK INTRA:                  -1.404
REMARK UNBOUND:                -1.392
REMARK SMILES CCCCCCCCCCCCCCCCCCCCCC(=O)[O-]
REMARK SMILES IDX 12 1 11 2 10 3 9 4 8 5 7 6 6 7 5 8 4 9 3 10 2 11 1 12 13 13
REMARK SMILES IDX 14 14 15 15 16 16 17 17 18 18 19 19 20 20 21 21 22 22 23 23
REMARK SMILES IDX 24 24
REMARK H PARENT
REMARK Flexibility Score: inf
ROOT
ATOM      1  C   UNL     1      28.217  -1.683  43.268  1.00  0.00     0.000 C 
ENDROOT
BRANCH   1   2
ATOM      2  C   UNL     1      29.592  -1.773  43.947  1.00  0.00     0.000 C 
BRANCH   2   3
ATOM      3  C   UNL     1      30.494  -0.568  43.628  1.00  0.00     0.000 C 
BRANCH   3   4
ATOM      4  C   UNL     1      31.583  -0.897  42.593  1.00  0.00    -0.000 C 
BRANCH   4   5
ATOM      5  C   UNL     1      31.107  -0.678  41.146  1.00  0.00    -0.000 C 
BRANCH   5   6
ATOM      6  C   UNL     1      32.125   0.109  40.304  1.00  0.00    -0.000 C 
BRANCH   6   7
ATOM      7  C   UNL     1      31.883   1.627  40.357  1.00  0.00    -0.000 C 
BRANCH   7   8
ATOM      8  C   UNL     1      31.463   2.205  38.995  1.00  0.00    -0.000 C 
BRANCH   8   9
ATOM      9  C   UNL     1      31.564   1.173  37.857  1.00  0.00    -0.000 C 
BRANCH   9  10
ATOM     10  C   UNL     1      30.196   0.595  37.460  1.00  0.00    -0.000 C 
BRANCH  10  11
ATOM     11  C   UNL     1      29.092   0.945  38.469  1.00  0.00    -0.003 C 
ATOM     12  C   UNL     1      28.540  -0.311  39.137  1.00  0.00     0.004 C 
ENDBRANCH  10  11
ENDBRANCH   9  10
ENDBRANCH   8   9
ENDBRANCH   7   8
ENDBRANCH   6   7
ENDBRANCH   5   6
ENDBRANCH   4   5
ENDBRANCH   3   4
ENDBRANCH   2   3
ENDBRANCH   1   2
BRANCH   1  13
ATOM     13  C   UNL     1      27.551  -0.311  43.468  1.00  0.00     0.000 C 
BRANCH  13  14
ATOM     14  C   UNL     1      26.700   0.120  42.261  1.00  0.00     0.000 C 
BRANCH  14  15
ATOM     15  C   UNL     1      25.425   0.915  42.610  1.00  0.00     0.000 C 
BRANCH  15  16
ATOM     16  C   UNL     1      24.783   1.681  41.434  1.00  0.00     0.000 C 
BRANCH  16  17
ATOM     17  C   UNL     1      23.350   2.185  41.690  1.00  0.00     0.000 C 
BRANCH  17  18
ATOM     18  C   UNL     1      22.443   2.058  40.456  1.00  0.00     0.000 C 
BRANCH  18  19
ATOM     19  C   UNL     1      21.654   0.742  40.491  1.00  0.00     0.000 C 
BRANCH  19  20
ATOM     20  C   UNL     1      20.460   0.794  41.459  1.00  0.00     0.006 C 
BRANCH  20  21
ATOM     21  C   UNL     1      19.759   2.160  41.460  1.00  0.00     0.053 C 
BRANCH  21  22
ATOM     22  C   UNL     1      18.465   2.086  40.713  1.00  0.00     0.041 C 
ATOM     23  O   UNL     1      18.378   2.568  39.552  1.00  0.00    -0.550 OA
ATOM     24  O   UNL     1      17.342   1.532  41.317  1.00  0.00    -0.550 OA
ENDBRANCH  21  22
ENDBRANCH  20  21
ENDBRANCH  19  20
ENDBRANCH  18  19
ENDBRANCH  17  18
ENDBRANCH  16  17
ENDBRANCH  15  16
ENDBRANCH  14  15
ENDBRANCH  13  14
ENDBRANCH   1  13
TORSDOF 20
ENDMDL
MODEL 4
REMARK VINA RESULT:    -0.935      3.275      9.273
REMARK INTER + INTRA:          -3.421
REMARK INTER:                  -2.049
REMARK INTRA:                  -1.372
REMARK UNBOUND:                -1.392
REMARK SMILES CCCCCCCCCCCCCCCCCCCCCC(=O)[O-]
REMARK SMILES IDX 12 1 11 2 10 3 9 4 8 5 7 6 6 7 5 8 4 9 3 10 2 11 1 12 13 13
REMARK SMILES IDX 14 14 15 15 16 16 17 17 18 18 19 19 20 20 21 21 22 22 23 23
REMARK SMILES IDX 24 24
REMARK H PARENT
REMARK Flexibility Score: inf
ROOT
ATOM      1  C   UNL     1      28.872   0.888  38.513  1.00  0.00     0.000 C 
ENDROOT
BRANCH   1   2
ATOM      2  C   UNL     1      29.979   0.831  37.448  1.00  0.00     0.000 C 
BRANCH   2   3
ATOM      3  C   UNL     1      31.388   0.738  38.059  1.00  0.00     0.000 C 
BRANCH   3   4
ATOM      4  C   UNL     1      31.559   1.632  39.299  1.00  0.00    -0.000 C 
BRANCH   4   5
ATOM      5  C   UNL     1      31.933   0.829  40.558  1.00  0.00    -0.000 C 
BRANCH   5   6
ATOM      6  C   UNL     1      31.748  -0.685  40.368  1.00  0.00    -0.000 C 
BRANCH   6   7
ATOM      7  C   UNL     1      30.414  -1.192  40.943  1.00  0.00    -0.000 C 
BRANCH   7   8
ATOM      8  C   UNL     1      29.907  -0.326  42.108  1.00  0.00    -0.000 C 
BRANCH   8   9
ATOM      9  C   UNL     1      28.569  -0.828  42.681  1.00  0.00    -0.000 C 
BRANCH   9  10
ATOM     10  C   UNL     1      28.703  -1.362  44.116  1.00  0.00    -0.000 C 
BRANCH  10  11
ATOM     11  C   UNL     1      30.168  -1.517  44.554  1.00  0.00    -0.003 C 
ATOM     12  C   UNL     1      30.304  -1.401  46.068  1.00  0.00     0.004 C 
ENDBRANCH  10  11
ENDBRANCH   9  10
ENDBRANCH   8   9
ENDBRANCH   7   8
ENDBRANCH   6   7
ENDBRANCH   5   6
ENDBRANCH   4   5
ENDBRANCH   3   4
ENDBRANCH   2   3
ENDBRANCH   1   2
BRANCH   1  13
ATOM     13  C   UNL     1      28.338   2.314  38.729  1.00  0.00     0.000 C 
BRANCH  13  14
ATOM     14  C   UNL     1      26.820   2.422  38.498  1.00  0.00     0.000 C 
BRANCH  14  15
ATOM     15  C   UNL     1      26.219   3.821  38.743  1.00  0.00     0.000 C 
BRANCH  15  16
ATOM     16  C   UNL     1      24.693   3.852  38.974  1.00  0.00     0.000 C 
BRANCH  16  17
ATOM     17  C   UNL     1      24.218   3.188  40.280  1.00  0.00     0.000 C 
BRANCH  17  18
ATOM     18  C   UNL     1      22.728   2.817  40.254  1.00  0.00     0.000 C 
BRANCH  18  19
ATOM     19  C   UNL     1      22.478   1.507  41.014  1.00  0.00     0.000 C 
BRANCH  19  20
ATOM     20  C   UNL     1      21.181   0.807  40.574  1.00  0.00     0.006 C 
BRANCH  20  21
ATOM     21  C   UNL     1      20.134   0.745  41.695  1.00  0.00     0.053 C 
BRANCH  21  22
ATOM     22  C   UNL     1      19.040   1.736  41.445  1.00  0.00     0.041 C 
ATOM     23  O   UNL     1      18.128   1.898  42.299  1.00  0.00    -0.550 OA
ATOM     24  O   UNL     1      18.999   2.443  40.249  1.00  0.00    -0.550 OA
ENDBRANCH  21  22
ENDBRANCH  20  21
ENDBRANCH  19  20
ENDBRANCH  18  19
ENDBRANCH  17  18
ENDBRANCH  16  17
ENDBRANCH  15  16
ENDBRANCH  14  15
ENDBRANCH  13  14
ENDBRANCH   1  13
TORSDOF 20
ENDMDL
MODEL 5
REMARK VINA RESULT:    -0.828      2.954      9.635
REMARK INTER + INTRA:          -3.189
REMARK INTER:                  -2.138
REMARK INTRA:                  -1.051
REMARK UNBOUND:                -1.392
REMARK SMILES CCCCCCCCCCCCCCCCCCCCCC(=O)[O-]
REMARK SMILES IDX 12 1 11 2 10 3 9 4 8 5 7 6 6 7 5 8 4 9 3 10 2 11 1 12 13 13
REMARK SMILES IDX 14 14 15 15 16 16 17 17 18 18 19 19 20 20 21 21 22 22 23 23
REMARK SMILES IDX 24 24
REMARK H PARENT
REMARK Flexibility Score: inf
ROOT
ATOM      1  C   UNL     1      26.113   0.439  42.238  1.00  0.00     0.000 C 
ENDROOT
BRANCH   1   2
ATOM      2  C   UNL     1      27.013   0.110  43.439  1.00  0.00     0.000 C 
BRANCH   2   3
ATOM      3  C   UNL     1      27.949  -1.083  43.172  1.00  0.00     0.000 C 
BRANCH   3   4
ATOM      4  C   UNL     1      29.168  -1.103  44.108  1.00  0.00    -0.000 C 
BRANCH   4   5
ATOM      5  C   UNL     1      30.500  -0.973  43.346  1.00  0.00    -0.000 C 
BRANCH   5   6
ATOM      6  C   UNL     1      30.318  -1.065  41.822  1.00  0.00    -0.000 C 
BRANCH   6   7
ATOM      7  C   UNL     1      31.611  -0.743  41.054  1.00  0.00    -0.000 C 
BRANCH   7   8
ATOM      8  C   UNL     1      31.533   0.595  40.301  1.00  0.00    -0.000 C 
BRANCH   8   9
ATOM      9  C   UNL     1      31.841   0.450  38.800  1.00  0.00    -0.000 C 
BRANCH   9  10
ATOM     10  C   UNL     1      30.631   0.784  37.913  1.00  0.00    -0.000 C 
BRANCH  10  11
ATOM     11  C   UNL     1      29.314   0.822  38.701  1.00  0.00    -0.003 C 
ATOM     12  C   UNL     1      28.648  -0.551  38.726  1.00  0.00     0.004 C 
ENDBRANCH  10  11
ENDBRANCH   9  10
ENDBRANCH   8   9
ENDBRANCH   7   8
ENDBRANCH   6   7
ENDBRANCH   5   6
ENDBRANCH   4   5
ENDBRANCH   3   4
ENDBRANCH   2   3
ENDBRANCH   1   2
BRANCH   1  13
ATOM     13  C   UNL     1      24.809   1.141  42.656  1.00  0.00     0.000 C 
BRANCH  13  14
ATOM     14  C   UNL     1      24.099   1.828  41.476  1.00  0.00     0.000 C 
BRANCH  14  15
ATOM     15  C   UNL     1      22.560   1.723  41.489  1.00  0.00     0.000 C 
BRANCH  15  16
ATOM     16  C   UNL     1      21.954   0.781  40.428  1.00  0.00     0.000 C 
BRANCH  16  17
ATOM     17  C   UNL     1      20.911  -0.219  40.964  1.00  0.00     0.000 C 
BRANCH  17  18
ATOM     18  C   UNL     1      20.531   0.043  42.428  1.00  0.00     0.000 C 
BRANCH  18  19
ATOM     19  C   UNL     1      19.038   0.380  42.553  1.00  0.00     0.000 C 
BRANCH  19  20
ATOM     20  C   UNL     1      18.724   1.829  42.144  1.00  0.00     0.006 C 
BRANCH  20  21
ATOM     21  C   UNL     1      17.767   1.910  40.946  1.00  0.00     0.053 C 
BRANCH  21  22
ATOM     22  C   UNL     1      18.444   2.558  39.779  1.00  0.00     0.041 C 
ATOM     23  O   UNL     1      19.631   2.254  39.489  1.00  0.00    -0.550 OA
ATOM     24  O   UNL     1      17.781   3.533  39.042  1.00  0.00    -0.550 OA
ENDBRANCH  21  22
ENDBRANCH  20  21
ENDBRANCH  19  20
ENDBRANCH  18  19
ENDBRANCH  17  18
ENDBRANCH  16  17
ENDBRANCH  15  16
ENDBRANCH  14  15
ENDBRANCH  13  14
ENDBRANCH   1  13
TORSDOF 20
ENDMDL
MODEL 6
REMARK VINA RESULT:    -0.824      1.353      2.117
REMARK INTER + INTRA:          -3.179
REMARK INTER:                  -1.601
REMARK INTRA:                  -1.578
REMARK UNBOUND:                -1.392
REMARK SMILES CCCCCCCCCCCCCCCCCCCCCC(=O)[O-]
REMARK SMILES IDX 12 1 11 2 10 3 9 4 8 5 7 6 6 7 5 8 4 9 3 10 2 11 1 12 13 13
REMARK SMILES IDX 14 14 15 15 16 16 17 17 18 18 19 19 20 20 21 21 22 22 23 23
REMARK SMILES IDX 24 24
REMARK H PARENT
REMARK Flexibility Score: inf
ROOT
ATOM      1  C   UNL     1      26.229   0.445  43.181  1.00  0.00     0.000 C 
ENDROOT
BRANCH   1   2
ATOM      2  C   UNL     1      25.534   1.025  41.939  1.00  0.00     0.000 C 
BRANCH   2   3
ATOM      3  C   UNL     1      24.118   1.548  42.240  1.00  0.00     0.000 C 
BRANCH   3   4
ATOM      4  C   UNL     1      23.542   2.397  41.095  1.00  0.00    -0.000 C 
BRANCH   4   5
ATOM      5  C   UNL     1      22.051   2.110  40.839  1.00  0.00    -0.000 C 
BRANCH   5   6
ATOM      6  C   UNL     1      21.830   0.822  40.029  1.00  0.00    -0.000 C 
BRANCH   6   7
ATOM      7  C   UNL     1      20.949  -0.196  40.773  1.00  0.00    -0.000 C 
BRANCH   7   8
ATOM      8  C   UNL     1      20.656   0.225  42.223  1.00  0.00    -0.000 C 
BRANCH   8   9
ATOM      9  C   UNL     1      19.153   0.423  42.490  1.00  0.00    -0.000 C 
BRANCH   9  10
ATOM     10  C   UNL     1      18.677   1.848  42.163  1.00  0.00    -0.000 C 
BRANCH  10  11
ATOM     11  C   UNL     1      17.832   1.908  40.881  1.00  0.00    -0.003 C 
ATOM     12  C   UNL     1      18.578   2.632  39.765  1.00  0.00     0.004 C 
ENDBRANCH  10  11
ENDBRANCH   9  10
ENDBRANCH   8   9
ENDBRANCH   7   8
ENDBRANCH   6   7
ENDBRANCH   5   6
ENDBRANCH   4   5
ENDBRANCH   3   4
ENDBRANCH   2   3
ENDBRANCH   1   2
BRANCH   1  13
ATOM     13  C   UNL     1      27.279  -0.621  42.822  1.00  0.00     0.000 C 
BRANCH  13  14
ATOM     14  C   UNL     1      28.412  -0.713  43.860  1.00  0.00     0.000 C 
BRANCH  14  15
ATOM     15  C   UNL     1      29.760  -1.224  43.313  1.00  0.00     0.000 C 
BRANCH  15  16
ATOM     16  C   UNL     1      30.497  -0.255  42.364  1.00  0.00     0.000 C 
BRANCH  16  17
ATOM     17  C   UNL     1      31.494  -0.921  41.398  1.00  0.00     0.000 C 
BRANCH  17  18
ATOM     18  C   UNL     1      30.904  -1.153  39.999  1.00  0.00     0.000 C 
BRANCH  18  19
ATOM     19  C   UNL     1      29.426  -0.741  39.953  1.00  0.00     0.000 C 
BRANCH  19  20
ATOM     20  C   UNL     1      29.052  -0.025  38.645  1.00  0.00     0.006 C 
BRANCH  20  21
ATOM     21  C   UNL     1      29.316   1.486  38.701  1.00  0.00     0.053 C 
BRANCH  21  22
ATOM     22  C   UNL     1      30.774   1.756  38.900  1.00  0.00     0.041 C 
ATOM     23  O   UNL     1      31.165   2.405  39.907  1.00  0.00    -0.550 OA
ATOM     24  O   UNL     1      31.698   1.336  37.949  1.00  0.00    -0.550 OA
ENDBRANCH  21  22
ENDBRANCH  20  21
ENDBRANCH  19  20
ENDBRANCH  18  19
ENDBRANCH  17  18
ENDBRANCH  16  17
ENDBRANCH  15  16
ENDBRANCH  14  15
ENDBRANCH  13  14
ENDBRANCH   1  13
TORSDOF 20
ENDMDL
MODEL 7
REMARK VINA RESULT:    -0.655      3.357      9.716
REMARK INTER + INTRA:          -2.814
REMARK INTER:                  -1.232
REMARK INTRA:                  -1.582
REMARK UNBOUND:                -1.392
REMARK SMILES CCCCCCCCCCCCCCCCCCCCCC(=O)[O-]
REMARK SMILES IDX 12 1 11 2 10 3 9 4 8 5 7 6 6 7 5 8 4 9 3 10 2 11 1 12 13 13
REMARK SMILES IDX 14 14 15 15 16 16 17 17 18 18 19 19 20 20 21 21 22 22 23 23
REMARK SMILES IDX 24 24
REMARK H PARENT
REMARK Flexibility Score: inf
ROOT
ATOM      1  C   UNL     1      25.811   0.847  41.979  1.00  0.00     0.000 C 
ENDROOT
BRANCH   1   2
ATOM      2  C   UNL     1      26.506   0.227  43.201  1.00  0.00     0.000 C 
BRANCH   2   3
ATOM      3  C   UNL     1      27.735  -0.618  42.822  1.00  0.00     0.000 C 
BRANCH   3   4
ATOM      4  C   UNL     1      28.840  -0.573  43.890  1.00  0.00    -0.000 C 
BRANCH   4   5
ATOM      5  C   UNL     1      30.218  -0.968  43.330  1.00  0.00    -0.000 C 
BRANCH   5   6
ATOM      6  C   UNL     1      30.171  -1.303  41.830  1.00  0.00    -0.000 C 
BRANCH   6   7
ATOM      7  C   UNL     1      31.372  -0.727  41.060  1.00  0.00    -0.000 C 
BRANCH   7   8
ATOM      8  C   UNL     1      31.120   0.706  40.562  1.00  0.00    -0.000 C 
BRANCH   8   9
ATOM      9  C   UNL     1      31.615   0.928  39.121  1.00  0.00    -0.000 C 
BRANCH   9  10
ATOM     10  C   UNL     1      30.522   0.666  38.073  1.00  0.00    -0.000 C 
BRANCH  10  11
ATOM     11  C   UNL     1      29.105   0.810  38.650  1.00  0.00    -0.003 C 
ATOM     12  C   UNL     1      28.427  -0.549  38.788  1.00  0.00     0.004 C 
ENDBRANCH  10  11
ENDBRANCH   9  10
ENDBRANCH   8   9
ENDBRANCH   7   8
ENDBRANCH   6   7
ENDBRANCH   5   6
ENDBRANCH   4   5
ENDBRANCH   3   4
ENDBRANCH   2   3
ENDBRANCH   1   2
BRANCH   1  13
ATOM     13  C   UNL     1      24.368   1.287  42.284  1.00  0.00     0.000 C 
BRANCH  13  14
ATOM     14  C   UNL     1      23.943   2.529  41.481  1.00  0.00     0.000 C 
BRANCH  14  15
ATOM     15  C   UNL     1      22.745   2.317  40.533  1.00  0.00     0.000 C 
BRANCH  15  16
ATOM     16  C   UNL     1      21.961   1.005  40.745  1.00  0.00     0.000 C 
BRANCH  16  17
ATOM     17  C   UNL     1      20.654   0.889  39.938  1.00  0.00     0.000 C 
BRANCH  17  18
ATOM     18  C   UNL     1      19.669   2.031  40.229  1.00  0.00     0.000 C 
BRANCH  18  19
ATOM     19  C   UNL     1      19.381   2.135  41.734  1.00  0.00     0.000 C 
BRANCH  19  20
ATOM     20  C   UNL     1      18.259   1.185  42.187  1.00  0.00     0.006 C 
BRANCH  20  21
ATOM     21  C   UNL     1      18.712   0.222  43.293  1.00  0.00     0.053 C 
BRANCH  21  22
ATOM     22  C   UNL     1      18.556  -1.198  42.848  1.00  0.00     0.041 C 
ATOM     23  O   UNL     1      17.514  -1.841  43.143  1.00  0.00    -0.550 OA
ATOM     24  O   UNL     1      19.582  -1.827  42.152  1.00  0.00    -0.550 OA
ENDBRANCH  21  22
ENDBRANCH  20  21
ENDBRANCH  19  20
ENDBRANCH  18  19
ENDBRANCH  17  18
ENDBRANCH  16  17
ENDBRANCH  15  16
ENDBRANCH  14  15
ENDBRANCH  13  14
ENDBRANCH   1  13
TORSDOF 20
ENDMDL
MODEL 8
REMARK VINA RESULT:    -0.628      0.996      2.658
REMARK INTER + INTRA:          -2.755
REMARK INTER:                  -1.402
REMARK INTRA:                  -1.353
REMARK UNBOUND:                -1.392
REMARK SMILES CCCCCCCCCCCCCCCCCCCCCC(=O)[O-]
REMARK SMILES IDX 12 1 11 2 10 3 9 4 8 5 7 6 6 7 5 8 4 9 3 10 2 11 1 12 13 13
REMARK SMILES IDX 14 14 15 15 16 16 17 17 18 18 19 19 20 20 21 21 22 22 23 23
REMARK SMILES IDX 24 24
REMARK H PARENT
REMARK Flexibility Score: inf
ROOT
ATOM      1  C   UNL     1      25.416   0.931  41.765  1.00  0.00     0.000 C 
ENDROOT
BRANCH   1   2
ATOM      2  C   UNL     1      24.111   1.641  42.158  1.00  0.00     0.000 C 
BRANCH   2   3
ATOM      3  C   UNL     1      23.530   2.494  41.016  1.00  0.00     0.000 C 
BRANCH   3   4
ATOM      4  C   UNL     1      22.015   2.302  40.843  1.00  0.00    -0.000 C 
BRANCH   4   5
ATOM      5  C   UNL     1      21.670   1.087  39.962  1.00  0.00    -0.000 C 
BRANCH   5   6
ATOM      6  C   UNL     1      21.219  -0.130  40.787  1.00  0.00    -0.000 C 
BRANCH   6   7
ATOM      7  C   UNL     1      20.771   0.255  42.207  1.00  0.00    -0.000 C 
BRANCH   7   8
ATOM      8  C   UNL     1      19.422  -0.376  42.591  1.00  0.00    -0.000 C 
BRANCH   8   9
ATOM      9  C   UNL     1      18.284   0.659  42.666  1.00  0.00    -0.000 C 
BRANCH   9  10
ATOM     10  C   UNL     1      18.608   1.952  41.901  1.00  0.00    -0.000 C 
BRANCH  10  11
ATOM     11  C   UNL     1      17.886   2.033  40.547  1.00  0.00    -0.003 C 
ATOM     12  C   UNL     1      18.531   3.076  39.641  1.00  0.00     0.004 C 
ENDBRANCH  10  11
ENDBRANCH   9  10
ENDBRANCH   8   9
ENDBRANCH   7   8
ENDBRANCH   6   7
ENDBRANCH   5   6
ENDBRANCH   4   5
ENDBRANCH   3   4
ENDBRANCH   2   3
ENDBRANCH   1   2
BRANCH   1  13
ATOM     13  C   UNL     1      26.215   0.451  42.989  1.00  0.00     0.000 C 
BRANCH  13  14
ATOM     14  C   UNL     1      27.424  -0.422  42.605  1.00  0.00     0.000 C 
BRANCH  14  15
ATOM     15  C   UNL     1      28.211  -1.008  43.794  1.00  0.00     0.000 C 
BRANCH  15  16
ATOM     16  C   UNL     1      29.621  -0.418  44.007  1.00  0.00     0.000 C 
BRANCH  16  17
ATOM     17  C   UNL     1      30.719  -1.012  43.104  1.00  0.00     0.000 C 
BRANCH  17  18
ATOM     18  C   UNL     1      30.281  -1.142  41.638  1.00  0.00     0.000 C 
BRANCH  18  19
ATOM     19  C   UNL     1      31.407  -0.703  40.690  1.00  0.00     0.000 C 
BRANCH  19  20
ATOM     20  C   UNL     1      31.320   0.786  40.318  1.00  0.00     0.006 C 
BRANCH  20  21
ATOM     21  C   UNL     1      31.198   1.011  38.804  1.00  0.00     0.053 C 
BRANCH  21  22
ATOM     22  C   UNL     1      29.803   0.729  38.343  1.00  0.00     0.041 C 
ATOM     23  O   UNL     1      28.837   0.852  39.143  1.00  0.00    -0.550 OA
ATOM     24  O   UNL     1      29.573   0.282  37.046  1.00  0.00    -0.550 OA
ENDBRANCH  21  22
ENDBRANCH  20  21
ENDBRANCH  19  20
ENDBRANCH  18  19
ENDBRANCH  17  18
ENDBRANCH  16  17
ENDBRANCH  15  16
ENDBRANCH  14  15
ENDBRANCH  13  14
ENDBRANCH   1  13
TORSDOF 20
ENDMDL
MODEL 9
REMARK VINA RESULT:    -0.505      1.114      2.321
REMARK INTER + INTRA:          -2.488
REMARK INTER:                  -1.674
REMARK INTRA:                  -0.814
REMARK UNBOUND:                -1.392
REMARK SMILES CCCCCCCCCCCCCCCCCCCCCC(=O)[O-]
REMARK SMILES IDX 12 1 11 2 10 3 9 4 8 5 7 6 6 7 5 8 4 9 3 10 2 11 1 12 13 13
REMARK SMILES IDX 14 14 15 15 16 16 17 17 18 18 19 19 20 20 21 21 22 22 23 23
REMARK SMILES IDX 24 24
REMARK H PARENT
REMARK Flexibility Score: inf
ROOT
ATOM      1  C   UNL     1      26.449   0.093  42.613  1.00  0.00     0.000 C 
ENDROOT
BRANCH   1   2
ATOM      2  C   UNL     1      25.408   1.147  43.017  1.00  0.00     0.000 C 
BRANCH   2   3
ATOM      3  C   UNL     1      24.176   1.151  42.094  1.00  0.00     0.000 C 
BRANCH   3   4
ATOM      4  C   UNL     1      24.015   2.470  41.321  1.00  0.00    -0.000 C 
BRANCH   4   5
ATOM      5  C   UNL     1      22.632   2.602  40.659  1.00  0.00    -0.000 C 
BRANCH   5   6
ATOM      6  C   UNL     1      21.801   1.313  40.768  1.00  0.00    -0.000 C 
BRANCH   6   7
ATOM      7  C   UNL     1      20.610   1.295  39.794  1.00  0.00    -0.000 C 
BRANCH   7   8
ATOM      8  C   UNL     1      19.404   2.090  40.322  1.00  0.00    -0.000 C 
BRANCH   8   9
ATOM      9  C   UNL     1      19.302   2.061  41.858  1.00  0.00    -0.000 C 
BRANCH   9  10
ATOM     10  C   UNL     1      18.298   1.013  42.365  1.00  0.00    -0.000 C 
BRANCH  10  11
ATOM     11  C   UNL     1      18.986  -0.198  43.014  1.00  0.00    -0.003 C 
ATOM     12  C   UNL     1      18.091  -1.432  42.961  1.00  0.00     0.004 C 
ENDBRANCH  10  11
ENDBRANCH   9  10
ENDBRANCH   8   9
ENDBRANCH   7   8
ENDBRANCH   6   7
ENDBRANCH   5   6
ENDBRANCH   4   5
ENDBRANCH   3   4
ENDBRANCH   2   3
ENDBRANCH   1   2
BRANCH   1  13
ATOM     13  C   UNL     1      27.532  -0.105  43.688  1.00  0.00     0.000 C 
BRANCH  13  14
ATOM     14  C   UNL     1      28.113  -1.530  43.692  1.00  0.00     0.000 C 
BRANCH  14  15
ATOM     15  C   UNL     1      29.357  -1.727  44.583  1.00  0.00     0.000 C 
BRANCH  15  16
ATOM     16  C   UNL     1      30.610  -0.938  44.149  1.00  0.00     0.000 C 
BRANCH  16  17
ATOM     17  C   UNL     1      30.502  -0.245  42.778  1.00  0.00     0.000 C 
BRANCH  17  18
ATOM     18  C   UNL     1      30.753  -1.202  41.603  1.00  0.00     0.000 C 
BRANCH  18  19
ATOM     19  C   UNL     1      31.796  -0.620  40.638  1.00  0.00     0.000 C 
BRANCH  19  20
ATOM     20  C   UNL     1      31.376   0.746  40.068  1.00  0.00     0.006 C 
BRANCH  20  21
ATOM     21  C   UNL     1      30.798   0.643  38.650  1.00  0.00     0.053 C 
BRANCH  21  22
ATOM     22  C   UNL     1      29.308   0.516  38.700  1.00  0.00     0.041 C 
ATOM     23  O   UNL     1      28.582   1.533  38.534  1.00  0.00    -0.550 OA
ATOM     24  O   UNL     1      28.721  -0.713  38.980  1.00  0.00    -0.550 OA
ENDBRANCH  21  22
ENDBRANCH  20  21
ENDBRANCH  19  20
ENDBRANCH  18  19
ENDBRANCH  17  18
ENDBRANCH  16  17
ENDBRANCH  15  16
ENDBRANCH  14  15
ENDBRANCH  13  14
ENDBRANCH   1  13
TORSDOF 20
ENDMDL
