MODEL 1
REMARK VINA RESULT:    -2.715      0.000      0.000
REMARK INTER + INTRA:          -5.950
REMARK INTER:                  -4.302
REMARK INTRA:                  -1.648
REMARK UNBOUND:                -1.648
REMARK SMILES CCCCCCCCCCCC=O
REMARK SMILES IDX 7 1 6 2 5 3 4 4 3 5 2 6 1 7 8 8 9 9 10 10 11 11 12 12 13 13
REMARK H PARENT
REMARK Flexibility Score: inf
ROOT
ATOM      1  C   UNL     1     142.314 141.388 141.710  1.00  0.00     0.000 C 
ENDROOT
BRANCH   1   2
ATOM      2  C   UNL     1     143.117 140.189 142.231  1.00  0.00     0.000 C 
BRANCH   2   3
ATOM      3  C   UNL     1     142.207 139.202 142.977  1.00  0.00    -0.000 C 
BRANCH   3   4
ATOM      4  C   UNL     1     140.749 139.683 143.052  1.00  0.00    -0.000 C 
BRANCH   4   5
ATOM      5  C   UNL     1     139.763 138.684 142.420  1.00  0.00    -0.000 C 
BRANCH   5   6
ATOM      6  C   UNL     1     140.320 138.038 141.143  1.00  0.00    -0.003 C 
ATOM      7  C   UNL     1     139.586 138.493 139.882  1.00  0.00     0.004 C 
ENDBRANCH   5   6
ENDBRANCH   4   5
ENDBRANCH   3   4
ENDBRANCH   2   3
ENDBRANCH   1   2
BRANCH   1   8
ATOM      8  C   UNL     1     142.344 141.447 140.178  1.00  0.00     0.000 C 
BRANCH   8   9
ATOM      9  C   UNL     1     141.004 141.941 139.620  1.00  0.00     0.000 C 
BRANCH   9  10
ATOM     10  C   UNL     1     140.126 142.529 140.735  1.00  0.00     0.008 C 
BRANCH  10  11
ATOM     11  C   UNL     1     138.685 142.004 140.675  1.00  0.00     0.072 C 
BRANCH  11  12
ATOM     12  C   UNL     1     138.018 142.033 142.019  1.00  0.00     0.224 C 
ATOM     13  O   UNL     1     138.631 142.408 143.007  1.00  0.00    -0.303 OA
ENDBRANCH  11  12
ENDBRANCH  10  11
ENDBRANCH   9  10
ENDBRANCH   8   9
ENDBRANCH   1   8
TORSDOF 10
ENDMDL
MODEL 2
REMARK VINA RESULT:    -2.692      2.334      4.336
REMARK INTER + INTRA:          -5.913
REMARK INTER:                  -4.713
REMARK INTRA:                  -1.200
REMARK UNBOUND:                -1.648
REMARK SMILES CCCCCCCCCCCC=O
REMARK SMILES IDX 7 1 6 2 5 3 4 4 3 5 2 6 1 7 8 8 9 9 10 10 11 11 12 12 13 13
REMARK H PARENT
REMARK Flexibility Score: inf
ROOT
ATOM      1  C   UNL     1     142.058 139.415 141.501  1.00  0.00     0.000 C 
ENDROOT
BRANCH   1   2
ATOM      2  C   UNL     1     143.107 140.438 141.954  1.00  0.00     0.000 C 
BRANCH   2   3
ATOM      3  C   UNL     1     142.570 141.303 143.104  1.00  0.00    -0.000 C 
BRANCH   3   4
ATOM      4  C   UNL     1     141.961 142.626 142.612  1.00  0.00    -0.000 C 
BRANCH   4   5
ATOM      5  C   UNL     1     140.437 142.690 142.821  1.00  0.00    -0.000 C 
BRANCH   5   6
ATOM      6  C   UNL     1     139.655 142.267 141.568  1.00  0.00    -0.003 C 
ATOM      7  C   UNL     1     138.272 141.707 141.897  1.00  0.00     0.004 C 
ENDBRANCH   5   6
ENDBRANCH   4   5
ENDBRANCH   3   4
ENDBRANCH   2   3
ENDBRANCH   1   2
BRANCH   1   8
ATOM      8  C   UNL     1     141.185 138.964 142.678  1.00  0.00     0.000 C 
BRANCH   8   9
ATOM      9  C   UNL     1     139.893 138.302 142.183  1.00  0.00     0.000 C 
BRANCH   9  10
ATOM     10  C   UNL     1     139.877 138.203 140.651  1.00  0.00     0.008 C 
BRANCH  10  11
ATOM     11  C   UNL     1     139.789 136.750 140.165  1.00  0.00     0.072 C 
BRANCH  11  12
ATOM     12  C   UNL     1     139.577 136.663 138.682  1.00  0.00     0.224 C 
ATOM     13  O   UNL     1     138.754 137.378 138.131  1.00  0.00    -0.303 OA
ENDBRANCH  11  12
ENDBRANCH  10  11
ENDBRANCH   9  10
ENDBRANCH   8   9
ENDBRANCH   1   8
TORSDOF 10
ENDMDL
MODEL 3
REMARK VINA RESULT:    -2.688      1.653      3.752
REMARK INTER + INTRA:          -5.907
REMARK INTER:                  -4.457
REMARK INTRA:                  -1.450
REMARK UNBOUND:                -1.648
REMARK SMILES CCCCCCCCCCCC=O
REMARK SMILES IDX 7 1 6 2 5 3 4 4 3 5 2 6 1 7 8 8 9 9 10 10 11 11 12 12 13 13
REMARK H PARENT
REMARK Flexibility Score: inf
ROOT
ATOM      1  C   UNL     1     140.475 139.323 143.125  1.00  0.00     0.000 C 
ENDROOT
BRANCH   1   2
ATOM      2  C   UNL     1     139.707 138.481 142.098  1.00  0.00     0.000 C 
BRANCH   2   3
ATOM      3  C   UNL     1     140.225 138.742 140.676  1.00  0.00    -0.000 C 
BRANCH   3   4
ATOM      4  C   UNL     1     139.240 139.568 139.832  1.00  0.00    -0.000 C 
BRANCH   4   5
ATOM      5  C   UNL     1     139.485 141.083 139.951  1.00  0.00    -0.000 C 
BRANCH   5   6
ATOM      6  C   UNL     1     138.232 141.847 140.402  1.00  0.00    -0.003 C 
ATOM      7  C   UNL     1     138.117 141.948 141.922  1.00  0.00     0.004 C 
ENDBRANCH   5   6
ENDBRANCH   4   5
ENDBRANCH   3   4
ENDBRANCH   2   3
ENDBRANCH   1   2
BRANCH   1   8
ATOM      8  C   UNL     1     141.979 139.317 142.826  1.00  0.00     0.000 C 
BRANCH   8   9
ATOM      9  C   UNL     1     142.599 140.694 143.096  1.00  0.00     0.000 C 
BRANCH   9  10
ATOM     10  C   UNL     1     142.401 141.632 141.896  1.00  0.00     0.008 C 
BRANCH  10  11
ATOM     11  C   UNL     1     141.705 142.940 142.293  1.00  0.00     0.072 C 
BRANCH  11  12
ATOM     12  C   UNL     1     141.654 143.920 141.157  1.00  0.00     0.224 C 
ATOM     13  O   UNL     1     142.036 143.596 140.043  1.00  0.00    -0.303 OA
ENDBRANCH  11  12
ENDBRANCH  10  11
ENDBRANCH   9  10
ENDBRANCH   8   9
ENDBRANCH   1   8
TORSDOF 10
ENDMDL
MODEL 4
REMARK VINA RESULT:    -2.674      2.236      3.378
REMARK INTER + INTRA:          -5.884
REMARK INTER:                  -4.391
REMARK INTRA:                  -1.493
REMARK UNBOUND:                -1.648
REMARK SMILES CCCCCCCCCCCC=O
REMARK SMILES IDX 7 1 6 2 5 3 4 4 3 5 2 6 1 7 8 8 9 9 10 10 11 11 12 12 13 13
REMARK H PARENT
REMARK Flexibility Score: inf
ROOT
ATOM      1  C   UNL     1     142.699 140.633 142.388  1.00  0.00     0.000 C 
ENDROOT
BRANCH   1   2
ATOM      2  C   UNL     1     141.933 139.474 143.039  1.00  0.00     0.000 C 
BRANCH   2   3
ATOM      3  C   UNL     1     140.913 138.872 142.061  1.00  0.00    -0.000 C 
BRANCH   3   4
ATOM      4  C   UNL     1     139.528 139.530 142.174  1.00  0.00    -0.000 C 
BRANCH   4   5
ATOM      5  C   UNL     1     139.058 140.150 140.845  1.00  0.00    -0.000 C 
BRANCH   5   6
ATOM      6  C   UNL     1     138.248 141.438 141.052  1.00  0.00    -0.003 C 
ATOM      7  C   UNL     1     138.414 142.021 142.455  1.00  0.00     0.004 C 
ENDBRANCH   5   6
ENDBRANCH   4   5
ENDBRANCH   3   4
ENDBRANCH   2   3
ENDBRANCH   1   2
BRANCH   1   8
ATOM      8  C   UNL     1     142.427 141.953 143.121  1.00  0.00     0.000 C 
BRANCH   8   9
ATOM      9  C   UNL     1     141.936 143.031 142.148  1.00  0.00     0.000 C 
BRANCH   9  10
ATOM     10  C   UNL     1     142.021 142.542 140.694  1.00  0.00     0.008 C 
BRANCH  10  11
ATOM     11  C   UNL     1     141.103 143.341 139.759  1.00  0.00     0.072 C 
BRANCH  11  12
ATOM     12  C   UNL     1     141.747 144.611 139.286  1.00  0.00     0.224 C 
ATOM     13  O   UNL     1     142.816 144.580 138.697  1.00  0.00    -0.303 OA
ENDBRANCH  11  12
ENDBRANCH  10  11
ENDBRANCH   9  10
ENDBRANCH   8   9
ENDBRANCH   1   8
TORSDOF 10
ENDMDL
MODEL 5
REMARK VINA RESULT:    -2.649      1.789      2.366
REMARK INTER + INTRA:          -5.846
REMARK INTER:                  -4.568
REMARK INTRA:                  -1.277
REMARK UNBOUND:                -1.648
REMARK SMILES CCCCCCCCCCCC=O
REMARK SMILES IDX 7 1 6 2 5 3 4 4 3 5 2 6 1 7 8 8 9 9 10 10 11 11 12 12 13 13
REMARK H PARENT
REMARK Flexibility Score: inf
ROOT
ATOM      1  C   UNL     1     142.170 142.442 141.848  1.00  0.00     0.000 C 
ENDROOT
BRANCH   1   2
ATOM      2  C   UNL     1     142.550 141.651 143.107  1.00  0.00     0.000 C 
BRANCH   2   3
ATOM      3  C   UNL     1     142.925 140.205 142.754  1.00  0.00    -0.000 C 
BRANCH   3   4
ATOM      4  C   UNL     1     142.856 139.929 141.243  1.00  0.00    -0.000 C 
BRANCH   4   5
ATOM      5  C   UNL     1     141.586 139.158 140.840  1.00  0.00    -0.000 C 
BRANCH   5   6
ATOM      6  C   UNL     1     140.780 138.677 142.056  1.00  0.00    -0.003 C 
ATOM      7  C   UNL     1     139.583 137.812 141.666  1.00  0.00     0.004 C 
ENDBRANCH   5   6
ENDBRANCH   4   5
ENDBRANCH   3   4
ENDBRANCH   2   3
ENDBRANCH   1   2
BRANCH   1   8
ATOM      8  C   UNL     1     140.750 143.010 141.962  1.00  0.00     0.000 C 
BRANCH   8   9
ATOM      9  C   UNL     1     139.941 142.258 143.026  1.00  0.00     0.000 C 
BRANCH   9  10
ATOM     10  C   UNL     1     138.646 141.685 142.430  1.00  0.00     0.008 C 
BRANCH  10  11
ATOM     11  C   UNL     1     138.546 141.929 140.919  1.00  0.00     0.072 C 
BRANCH  11  12
ATOM     12  C   UNL     1     137.129 141.860 140.429  1.00  0.00     0.224 C 
ATOM     13  O   UNL     1     136.888 141.544 139.275  1.00  0.00    -0.303 OA
ENDBRANCH  11  12
ENDBRANCH  10  11
ENDBRANCH   9  10
ENDBRANCH   8   9
ENDBRANCH   1   8
TORSDOF 10
ENDMDL
MODEL 6
REMARK VINA RESULT:    -2.599      3.031      5.064
REMARK INTER + INTRA:          -5.766
REMARK INTER:                  -4.474
REMARK INTRA:                  -1.292
REMARK UNBOUND:                -1.648
REMARK SMILES CCCCCCCCCCCC=O
REMARK SMILES IDX 7 1 6 2 5 3 4 4 3 5 2 6 1 7 8 8 9 9 10 10 11 11 12 12 13 13
REMARK H PARENT
REMARK Flexibility Score: inf
ROOT
ATOM      1  C   UNL     1     141.154 138.957 142.246  1.00  0.00     0.000 C 
ENDROOT
BRANCH   1   2
ATOM      2  C   UNL     1     139.899 139.130 143.112  1.00  0.00     0.000 C 
BRANCH   2   3
ATOM      3  C   UNL     1     139.122 140.391 142.707  1.00  0.00    -0.000 C 
BRANCH   3   4
ATOM      4  C   UNL     1     139.409 140.821 141.259  1.00  0.00    -0.000 C 
BRANCH   4   5
ATOM      5  C   UNL     1     139.911 142.273 141.162  1.00  0.00    -0.000 C 
BRANCH   5   6
ATOM      6  C   UNL     1     140.565 142.757 142.465  1.00  0.00    -0.003 C 
ATOM      7  C   UNL     1     141.969 143.318 142.248  1.00  0.00     0.004 C 
ENDBRANCH   5   6
ENDBRANCH   4   5
ENDBRANCH   3   4
ENDBRANCH   2   3
ENDBRANCH   1   2
BRANCH   1   8
ATOM      8  C   UNL     1     142.387 139.547 142.941  1.00  0.00     0.000 C 
BRANCH   8   9
ATOM      9  C   UNL     1     143.586 139.595 141.986  1.00  0.00     0.000 C 
BRANCH   9  10
ATOM     10  C   UNL     1     143.236 140.359 140.700  1.00  0.00     0.008 C 
BRANCH  10  11
ATOM     11  C   UNL     1     143.657 139.594 139.439  1.00  0.00     0.072 C 
BRANCH  11  12
ATOM     12  C   UNL     1     145.149 139.522 139.294  1.00  0.00     0.224 C 
ATOM     13  O   UNL     1     145.658 138.739 138.507  1.00  0.00    -0.303 OA
ENDBRANCH  11  12
ENDBRANCH  10  11
ENDBRANCH   9  10
ENDBRANCH   8   9
ENDBRANCH   1   8
TORSDOF 10
ENDMDL
MODEL 7
REMARK VINA RESULT:    -2.596      2.447      3.735
REMARK INTER + INTRA:          -5.762
REMARK INTER:                  -4.458
REMARK INTRA:                  -1.304
REMARK UNBOUND:                -1.648
REMARK SMILES CCCCCCCCCCCC=O
REMARK SMILES IDX 7 1 6 2 5 3 4 4 3 5 2 6 1 7 8 8 9 9 10 10 11 11 12 12 13 13
REMARK H PARENT
REMARK Flexibility Score: inf
ROOT
ATOM      1  C   UNL     1     139.289 141.992 142.064  1.00  0.00     0.000 C 
ENDROOT
BRANCH   1   2
ATOM      2  C   UNL     1     139.169 140.511 142.447  1.00  0.00     0.000 C 
BRANCH   2   3
ATOM      3  C   UNL     1     139.633 139.608 141.295  1.00  0.00    -0.000 C 
BRANCH   3   4
ATOM      4  C   UNL     1     140.824 138.718 141.686  1.00  0.00    -0.000 C 
BRANCH   4   5
ATOM      5  C   UNL     1     141.337 139.007 143.109  1.00  0.00    -0.000 C 
BRANCH   5   6
ATOM      6  C   UNL     1     142.669 139.771 143.109  1.00  0.00    -0.003 C 
ATOM      7  C   UNL     1     143.402 139.681 141.771  1.00  0.00     0.004 C 
ENDBRANCH   5   6
ENDBRANCH   4   5
ENDBRANCH   3   4
ENDBRANCH   2   3
ENDBRANCH   1   2
BRANCH   1   8
ATOM      8  C   UNL     1     140.386 142.685 142.881  1.00  0.00     0.000 C 
BRANCH   8   9
ATOM      9  C   UNL     1     141.498 143.218 141.969  1.00  0.00     0.000 C 
BRANCH   9  10
ATOM     10  C   UNL     1     141.192 142.917 140.494  1.00  0.00     0.008 C 
BRANCH  10  11
ATOM     11  C   UNL     1     141.998 143.809 139.541  1.00  0.00     0.072 C 
BRANCH  11  12
ATOM     12  C   UNL     1     141.803 145.268 139.833  1.00  0.00     0.224 C 
ATOM     13  O   UNL     1     142.184 146.114 139.040  1.00  0.00    -0.303 OA
ENDBRANCH  11  12
ENDBRANCH  10  11
ENDBRANCH   9  10
ENDBRANCH   8   9
ENDBRANCH   1   8
TORSDOF 10
ENDMDL
MODEL 8
REMARK VINA RESULT:    -2.585      1.681      4.032
REMARK INTER + INTRA:          -5.744
REMARK INTER:                  -4.397
REMARK INTRA:                  -1.347
REMARK UNBOUND:                -1.648
REMARK SMILES CCCCCCCCCCCC=O
REMARK SMILES IDX 7 1 6 2 5 3 4 4 3 5 2 6 1 7 8 8 9 9 10 10 11 11 12 12 13 13
REMARK H PARENT
REMARK Flexibility Score: inf
ROOT
ATOM      1  C   UNL     1     142.559 141.426 141.447  1.00  0.00     0.000 C 
ENDROOT
BRANCH   1   2
ATOM      2  C   UNL     1     142.050 142.866 141.591  1.00  0.00     0.000 C 
BRANCH   2   3
ATOM      3  C   UNL     1     140.999 143.187 140.518  1.00  0.00    -0.000 C 
BRANCH   3   4
ATOM      4  C   UNL     1     140.322 141.925 139.959  1.00  0.00    -0.000 C 
BRANCH   4   5
ATOM      5  C   UNL     1     138.809 142.110 139.745  1.00  0.00    -0.000 C 
BRANCH   5   6
ATOM      6  C   UNL     1     137.972 141.370 140.798  1.00  0.00    -0.003 C 
ATOM      7  C   UNL     1     138.083 141.996 142.187  1.00  0.00     0.004 C 
ENDBRANCH   5   6
ENDBRANCH   4   5
ENDBRANCH   3   4
ENDBRANCH   2   3
ENDBRANCH   1   2
BRANCH   1   8
ATOM      8  C   UNL     1     142.506 140.687 142.789  1.00  0.00     0.000 C 
BRANCH   8   9
ATOM      9  C   UNL     1     141.932 139.275 142.618  1.00  0.00     0.000 C 
BRANCH   9  10
ATOM     10  C   UNL     1     140.454 139.228 143.033  1.00  0.00     0.008 C 
BRANCH  10  11
ATOM     11  C   UNL     1     139.629 138.298 142.134  1.00  0.00     0.072 C 
BRANCH  11  12
ATOM     12  C   UNL     1     140.248 138.130 140.777  1.00  0.00     0.224 C 
ATOM     13  O   UNL     1     139.565 138.227 139.769  1.00  0.00    -0.303 OA
ENDBRANCH  11  12
ENDBRANCH  10  11
ENDBRANCH   9  10
ENDBRANCH   8   9
ENDBRANCH   1   8
TORSDOF 10
ENDMDL
MODEL 9
REMARK VINA RESULT:    -0.866      1.732      3.545
REMARK INTER + INTRA:          -3.019
REMARK INTER:                  -1.745
REMARK INTRA:                  -1.274
REMARK UNBOUND:                -1.648
REMARK SMILES CCCCCCCCCCCC=O
REMARK SMILES IDX 7 1 6 2 5 3 4 4 3 5 2 6 1 7 8 8 9 9 10 10 11 11 12 12 13 13
REMARK H PARENT
REMARK Flexibility Score: inf
ROOT
ATOM      1  C   UNL     1     140.050 138.614 142.220  1.00  0.00     0.000 C 
ENDROOT
BRANCH   1   2
ATOM      2  C   UNL     1     141.196 139.086 143.125  1.00  0.00     0.000 C 
BRANCH   2   3
ATOM      3  C   UNL     1     142.225 139.900 142.327  1.00  0.00    -0.000 C 
BRANCH   3   4
ATOM      4  C   UNL     1     142.756 141.111 143.112  1.00  0.00    -0.000 C 
BRANCH   4   5
ATOM      5  C   UNL     1     142.014 142.414 142.761  1.00  0.00    -0.000 C 
BRANCH   5   6
ATOM      6  C   UNL     1     141.819 142.589 141.248  1.00  0.00    -0.003 C 
ATOM      7  C   UNL     1     141.731 144.056 140.829  1.00  0.00     0.004 C 
ENDBRANCH   5   6
ENDBRANCH   4   5
ENDBRANCH   3   4
ENDBRANCH   2   3
ENDBRANCH   1   2
BRANCH   1   8
ATOM      8  C   UNL     1     139.390 139.800 141.504  1.00  0.00     0.000 C 
BRANCH   8   9
ATOM      9  C   UNL     1     138.743 140.758 142.510  1.00  0.00     0.000 C 
BRANCH   9  10
ATOM     10  C   UNL     1     138.022 141.908 141.791  1.00  0.00     0.008 C 
BRANCH  10  11
ATOM     11  C   UNL     1     138.267 141.887 140.276  1.00  0.00     0.072 C 
BRANCH  11  12
ATOM     12  C   UNL     1     137.009 142.139 139.498  1.00  0.00     0.224 C 
ATOM     13  O   UNL     1     135.935 141.720 139.902  1.00  0.00    -0.303 OA
ENDBRANCH  11  12
ENDBRANCH  10  11
ENDBRANCH   9  10
ENDBRANCH   8   9
ENDBRANCH   1   8
TORSDOF 10
ENDMDL
