MODEL 1
REMARK VINA RESULT:    -4.237      0.000      0.000
REMARK INTER + INTRA:          -9.033
REMARK INTER:                  -7.952
REMARK INTRA:                  -1.082
REMARK UNBOUND:                -1.082
REMARK SMILES O=C([O-])CCCCCCCCCCCCCCC(=O)[O-]
REMARK SMILES IDX 10 1 9 2 8 3 7 4 6 5 5 6 4 7 2 8 1 9 3 10 11 11 12 12 13 13
REMARK SMILES IDX 14 14 15 15 16 16 17 17 18 18 19 19 20 20
REMARK H PARENT
REMARK Flexibility Score: inf
ROOT
ATOM      1  C   UNL     1      19.558  11.785 -15.935  1.00  0.00     0.000 C 
ENDROOT
BRANCH   1   2
ATOM      2  C   UNL     1      19.313  12.775 -14.786  1.00  0.00     0.000 C 
BRANCH   2   3
ATOM      3  C   UNL     1      20.042  12.326 -13.511  1.00  0.00     0.000 C 
BRANCH   3   4
ATOM      4  C   UNL     1      21.323  13.135 -13.238  1.00  0.00     0.000 C 
BRANCH   4   5
ATOM      5  C   UNL     1      21.687  14.170 -14.321  1.00  0.00     0.000 C 
BRANCH   5   6
ATOM      6  C   UNL     1      22.739  15.213 -13.901  1.00  0.00     0.006 C 
BRANCH   6   7
ATOM      7  C   UNL     1      22.820  16.400 -14.870  1.00  0.00     0.053 C 
BRANCH   7   8
ATOM      8  C   UNL     1      22.878  17.688 -14.112  1.00  0.00     0.041 C 
ATOM      9  O   UNL     1      22.658  18.780 -14.699  1.00  0.00    -0.550 OA
ATOM     10  O   UNL     1      23.125  17.679 -12.744  1.00  0.00    -0.550 OA
ENDBRANCH   7   8
ENDBRANCH   6   7
ENDBRANCH   5   6
ENDBRANCH   4   5
ENDBRANCH   3   4
ENDBRANCH   2   3
ENDBRANCH   1   2
BRANCH   1  11
ATOM     11  C   UNL     1      19.954  10.384 -15.439  1.00  0.00     0.000 C 
BRANCH  11  12
ATOM     12  C   UNL     1      19.027   9.282 -15.980  1.00  0.00     0.000 C 
BRANCH  12  13
ATOM     13  C   UNL     1      17.542   9.578 -15.714  1.00  0.00     0.000 C 
BRANCH  13  14
ATOM     14  C   UNL     1      17.104   9.176 -14.294  1.00  0.00     0.000 C 
BRANCH  14  15
ATOM     15  C   UNL     1      15.584   8.976 -14.179  1.00  0.00     0.000 C 
BRANCH  15  16
ATOM     16  C   UNL     1      14.794   9.847 -15.168  1.00  0.00     0.006 C 
BRANCH  16  17
ATOM     17  C   UNL     1      14.272  11.115 -14.484  1.00  0.00     0.053 C 
BRANCH  17  18
ATOM     18  C   UNL     1      15.293  12.207 -14.555  1.00  0.00     0.041 C 
ATOM     19  O   UNL     1      16.137  12.346 -13.633  1.00  0.00    -0.550 OA
ATOM     20  O   UNL     1      15.278  13.103 -15.617  1.00  0.00    -0.550 OA
ENDBRANCH  17  18
ENDBRANCH  16  17
ENDBRANCH  15  16
ENDBRANCH  14  15
ENDBRANCH  13  14
ENDBRANCH  12  13
ENDBRANCH  11  12
ENDBRANCH   1  11
TORSDOF 15
ENDMDL
MODEL 2
REMARK VINA RESULT:    -4.174      1.003      1.550
REMARK INTER + INTRA:          -8.916
REMARK INTER:                  -7.763
REMARK INTRA:                  -1.153
REMARK UNBOUND:                -1.082
REMARK SMILES O=C([O-])CCCCCCCCCCCCCCC(=O)[O-]
REMARK SMILES IDX 10 1 9 2 8 3 7 4 6 5 5 6 4 7 2 8 1 9 3 10 11 11 12 12 13 13
REMARK SMILES IDX 14 14 15 15 16 16 17 17 18 18 19 19 20 20
REMARK H PARENT
REMARK Flexibility Score: inf
ROOT
ATOM      1  C   UNL     1      19.140  12.418 -14.590  1.00  0.00     0.000 C 
ENDROOT
BRANCH   1   2
ATOM      2  C   UNL     1      20.163  12.732 -13.487  1.00  0.00     0.000 C 
BRANCH   2   3
ATOM      3  C   UNL     1      21.561  12.950 -14.082  1.00  0.00     0.000 C 
BRANCH   3   4
ATOM      4  C   UNL     1      21.944  14.438 -14.185  1.00  0.00     0.000 C 
BRANCH   4   5
ATOM      5  C   UNL     1      21.270  15.209 -15.338  1.00  0.00     0.000 C 
BRANCH   5   6
ATOM      6  C   UNL     1      22.068  16.410 -15.876  1.00  0.00     0.006 C 
BRANCH   6   7
ATOM      7  C   UNL     1      21.318  17.739 -15.724  1.00  0.00     0.053 C 
BRANCH   7   8
ATOM      8  C   UNL     1      22.027  18.631 -14.754  1.00  0.00     0.041 C 
ATOM      9  O   UNL     1      22.676  18.135 -13.796  1.00  0.00    -0.550 OA
ATOM     10  O   UNL     1      22.013  20.008 -14.938  1.00  0.00    -0.550 OA
ENDBRANCH   7   8
ENDBRANCH   6   7
ENDBRANCH   5   6
ENDBRANCH   4   5
ENDBRANCH   3   4
ENDBRANCH   2   3
ENDBRANCH   1   2
BRANCH   1  11
ATOM     11  C   UNL     1      19.649  11.367 -15.590  1.00  0.00     0.000 C 
BRANCH  11  12
ATOM     12  C   UNL     1      19.493   9.929 -15.066  1.00  0.00     0.000 C 
BRANCH  12  13
ATOM     13  C   UNL     1      18.047   9.605 -14.655  1.00  0.00     0.000 C 
BRANCH  13  14
ATOM     14  C   UNL     1      17.147   9.283 -15.862  1.00  0.00     0.000 C 
BRANCH  14  15
ATOM     15  C   UNL     1      15.739   8.830 -15.445  1.00  0.00     0.000 C 
BRANCH  15  16
ATOM     16  C   UNL     1      15.217   9.575 -14.208  1.00  0.00     0.006 C 
BRANCH  16  17
ATOM     17  C   UNL     1      14.377  10.790 -14.615  1.00  0.00     0.053 C 
BRANCH  17  18
ATOM     18  C   UNL     1      15.202  12.038 -14.569  1.00  0.00     0.041 C 
ATOM     19  O   UNL     1      15.752  12.395 -13.495  1.00  0.00    -0.550 OA
ATOM     20  O   UNL     1      15.323  12.833 -15.702  1.00  0.00    -0.550 OA
ENDBRANCH  17  18
ENDBRANCH  16  17
ENDBRANCH  15  16
ENDBRANCH  14  15
ENDBRANCH  13  14
ENDBRANCH  12  13
ENDBRANCH  11  12
ENDBRANCH   1  11
TORSDOF 15
ENDMDL
MODEL 3
REMARK VINA RESULT:    -4.158      1.215      7.721
REMARK INTER + INTRA:          -8.885
REMARK INTER:                  -7.858
REMARK INTRA:                  -1.027
REMARK UNBOUND:                -1.082
REMARK SMILES O=C([O-])CCCCCCCCCCCCCCC(=O)[O-]
REMARK SMILES IDX 10 1 9 2 8 3 7 4 6 5 5 6 4 7 2 8 1 9 3 10 11 11 12 12 13 13
REMARK SMILES IDX 14 14 15 15 16 16 17 17 18 18 19 19 20 20
REMARK H PARENT
REMARK Flexibility Score: inf
ROOT
ATOM      1  C   UNL     1      19.212  12.350 -14.791  1.00  0.00     0.000 C 
ENDROOT
BRANCH   1   2
ATOM      2  C   UNL     1      19.025  11.632 -13.446  1.00  0.00     0.000 C 
BRANCH   2   3
ATOM      3  C   UNL     1      18.580  10.178 -13.658  1.00  0.00     0.000 C 
BRANCH   3   4
ATOM      4  C   UNL     1      17.728   9.991 -14.927  1.00  0.00     0.000 C 
BRANCH   4   5
ATOM      5  C   UNL     1      16.478   9.105 -14.751  1.00  0.00     0.000 C 
BRANCH   5   6
ATOM      6  C   UNL     1      15.265   9.805 -14.114  1.00  0.00     0.006 C 
BRANCH   6   7
ATOM      7  C   UNL     1      14.649  10.875 -15.025  1.00  0.00     0.053 C 
BRANCH   7   8
ATOM      8  C   UNL     1      15.230  12.219 -14.718  1.00  0.00     0.041 C 
ATOM      9  O   UNL     1      15.586  12.502 -13.544  1.00  0.00    -0.550 OA
ATOM     10  O   UNL     1      15.425  13.140 -15.739  1.00  0.00    -0.550 OA
ENDBRANCH   7   8
ENDBRANCH   6   7
ENDBRANCH   5   6
ENDBRANCH   4   5
ENDBRANCH   3   4
ENDBRANCH   2   3
ENDBRANCH   1   2
BRANCH   1  11
ATOM     11  C   UNL     1      20.654  12.261 -15.317  1.00  0.00     0.000 C 
BRANCH  11  12
ATOM     12  C   UNL     1      21.619  11.637 -14.294  1.00  0.00     0.000 C 
BRANCH  12  13
ATOM     13  C   UNL     1      22.654  12.646 -13.770  1.00  0.00     0.000 C 
BRANCH  13  14
ATOM     14  C   UNL     1      22.031  14.013 -13.437  1.00  0.00     0.000 C 
BRANCH  14  15
ATOM     15  C   UNL     1      23.040  15.167 -13.558  1.00  0.00     0.000 C 
BRANCH  15  16
ATOM     16  C   UNL     1      22.697  16.138 -14.697  1.00  0.00     0.006 C 
BRANCH  16  17
ATOM     17  C   UNL     1      22.881  17.592 -14.251  1.00  0.00     0.053 C 
BRANCH  17  18
ATOM     18  C   UNL     1      21.854  18.472 -14.890  1.00  0.00     0.041 C 
ATOM     19  O   UNL     1      20.909  17.967 -15.550  1.00  0.00    -0.550 OA
ATOM     20  O   UNL     1      21.969  19.854 -14.799  1.00  0.00    -0.550 OA
ENDBRANCH  17  18
ENDBRANCH  16  17
ENDBRANCH  15  16
ENDBRANCH  14  15
ENDBRANCH  13  14
ENDBRANCH  12  13
ENDBRANCH  11  12
ENDBRANCH   1  11
TORSDOF 15
ENDMDL
MODEL 4
REMARK VINA RESULT:    -4.134      0.867      7.839
REMARK INTER + INTRA:          -8.841
REMARK INTER:                  -7.584
REMARK INTRA:                  -1.258
REMARK UNBOUND:                -1.082
REMARK SMILES O=C([O-])CCCCCCCCCCCCCCC(=O)[O-]
REMARK SMILES IDX 10 1 9 2 8 3 7 4 6 5 5 6 4 7 2 8 1 9 3 10 11 11 12 12 13 13
REMARK SMILES IDX 14 14 15 15 16 16 17 17 18 18 19 19 20 20
REMARK H PARENT
REMARK Flexibility Score: inf
ROOT
ATOM      1  C   UNL     1      20.036  11.067 -15.281  1.00  0.00     0.000 C 
ENDROOT
BRANCH   1   2
ATOM      2  C   UNL     1      19.609   9.758 -14.598  1.00  0.00     0.000 C 
BRANCH   2   3
ATOM      3  C   UNL     1      18.087   9.710 -14.410  1.00  0.00     0.000 C 
BRANCH   3   4
ATOM      4  C   UNL     1      17.353   9.083 -15.610  1.00  0.00     0.000 C 
BRANCH   4   5
ATOM      5  C   UNL     1      15.875   8.724 -15.359  1.00  0.00     0.000 C 
BRANCH   5   6
ATOM      6  C   UNL     1      15.212   9.467 -14.185  1.00  0.00     0.006 C 
BRANCH   6   7
ATOM      7  C   UNL     1      14.372  10.667 -14.639  1.00  0.00     0.053 C 
BRANCH   7   8
ATOM      8  C   UNL     1      15.203  11.911 -14.648  1.00  0.00     0.041 C 
ATOM      9  O   UNL     1      15.396  12.537 -15.724  1.00  0.00    -0.550 OA
ATOM     10  O   UNL     1      15.723  12.408 -13.459  1.00  0.00    -0.550 OA
ENDBRANCH   7   8
ENDBRANCH   6   7
ENDBRANCH   5   6
ENDBRANCH   4   5
ENDBRANCH   3   4
ENDBRANCH   2   3
ENDBRANCH   1   2
BRANCH   1  11
ATOM     11  C   UNL     1      19.153  12.261 -14.882  1.00  0.00     0.000 C 
BRANCH  11  12
ATOM     12  C   UNL     1      19.976  13.506 -14.509  1.00  0.00     0.000 C 
BRANCH  12  13
ATOM     13  C   UNL     1      21.110  13.188 -13.520  1.00  0.00     0.000 C 
BRANCH  13  14
ATOM     14  C   UNL     1      22.366  14.043 -13.767  1.00  0.00     0.000 C 
BRANCH  14  15
ATOM     15  C   UNL     1      22.432  14.595 -15.200  1.00  0.00     0.000 C 
BRANCH  15  16
ATOM     16  C   UNL     1      23.097  15.978 -15.274  1.00  0.00     0.006 C 
BRANCH  16  17
ATOM     17  C   UNL     1      22.044  17.089 -15.335  1.00  0.00     0.053 C 
BRANCH  17  18
ATOM     18  C   UNL     1      22.394  18.195 -14.390  1.00  0.00     0.041 C 
ATOM     19  O   UNL     1      22.979  17.941 -13.306  1.00  0.00    -0.550 OA
ATOM     20  O   UNL     1      22.027  19.503 -14.685  1.00  0.00    -0.550 OA
ENDBRANCH  17  18
ENDBRANCH  16  17
ENDBRANCH  15  16
ENDBRANCH  14  15
ENDBRANCH  13  14
ENDBRANCH  12  13
ENDBRANCH  11  12
ENDBRANCH   1  11
TORSDOF 15
ENDMDL
MODEL 5
REMARK VINA RESULT:    -4.002      1.886      7.929
REMARK INTER + INTRA:          -8.593
REMARK INTER:                  -7.498
REMARK INTRA:                  -1.095
REMARK UNBOUND:                -1.082
REMARK SMILES O=C([O-])CCCCCCCCCCCCCCC(=O)[O-]
REMARK SMILES IDX 10 1 9 2 8 3 7 4 6 5 5 6 4 7 2 8 1 9 3 10 11 11 12 12 13 13
REMARK SMILES IDX 14 14 15 15 16 16 17 17 18 18 19 19 20 20
REMARK H PARENT
REMARK Flexibility Score: inf
ROOT
ATOM      1  C   UNL     1      17.990  12.374 -14.745  1.00  0.00     0.000 C 
ENDROOT
BRANCH   1   2
ATOM      2  C   UNL     1      17.090  12.999 -15.822  1.00  0.00     0.000 C 
BRANCH   2   3
ATOM      3  C   UNL     1      15.617  12.963 -15.393  1.00  0.00     0.000 C 
BRANCH   3   4
ATOM      4  C   UNL     1      15.414  12.350 -13.995  1.00  0.00     0.000 C 
BRANCH   4   5
ATOM      5  C   UNL     1      14.313  11.273 -13.906  1.00  0.00     0.000 C 
BRANCH   5   6
ATOM      6  C   UNL     1      14.119  10.430 -15.179  1.00  0.00     0.006 C 
BRANCH   6   7
ATOM      7  C   UNL     1      15.391   9.681 -15.595  1.00  0.00     0.053 C 
BRANCH   7   8
ATOM      8  C   UNL     1      15.886   8.827 -14.470  1.00  0.00     0.041 C 
ATOM      9  O   UNL     1      17.044   8.998 -14.007  1.00  0.00    -0.550 OA
ATOM     10  O   UNL     1      15.048   7.877 -13.900  1.00  0.00    -0.550 OA
ENDBRANCH   7   8
ENDBRANCH   6   7
ENDBRANCH   5   6
ENDBRANCH   4   5
ENDBRANCH   3   4
ENDBRANCH   2   3
ENDBRANCH   1   2
BRANCH   1  11
ATOM     11  C   UNL     1      19.150  11.558 -15.340  1.00  0.00     0.000 C 
BRANCH  11  12
ATOM     12  C   UNL     1      20.100  11.007 -14.262  1.00  0.00     0.000 C 
BRANCH  12  13
ATOM     13  C   UNL     1      21.447  11.747 -14.231  1.00  0.00     0.000 C 
BRANCH  13  14
ATOM     14  C   UNL     1      21.364  13.097 -13.496  1.00  0.00     0.000 C 
BRANCH  14  15
ATOM     15  C   UNL     1      22.747  13.647 -13.112  1.00  0.00     0.000 C 
BRANCH  15  16
ATOM     16  C   UNL     1      22.913  15.133 -13.461  1.00  0.00     0.006 C 
BRANCH  16  17
ATOM     17  C   UNL     1      23.049  15.329 -14.974  1.00  0.00     0.053 C 
BRANCH  17  18
ATOM     18  C   UNL     1      22.116  16.398 -15.450  1.00  0.00     0.041 C 
ATOM     19  O   UNL     1      22.460  17.607 -15.400  1.00  0.00    -0.550 OA
ATOM     20  O   UNL     1      20.847  16.060 -15.904  1.00  0.00    -0.550 OA
ENDBRANCH  17  18
ENDBRANCH  16  17
ENDBRANCH  15  16
ENDBRANCH  14  15
ENDBRANCH  13  14
ENDBRANCH  12  13
ENDBRANCH  11  12
ENDBRANCH   1  11
TORSDOF 15
ENDMDL
MODEL 6
REMARK VINA RESULT:    -3.849      1.786      3.073
REMARK INTER + INTRA:          -8.305
REMARK INTER:                  -7.270
REMARK INTRA:                  -1.036
REMARK UNBOUND:                -1.082
REMARK SMILES O=C([O-])CCCCCCCCCCCCCCC(=O)[O-]
REMARK SMILES IDX 10 1 9 2 8 3 7 4 6 5 5 6 4 7 2 8 1 9 3 10 11 11 12 12 13 13
REMARK SMILES IDX 14 14 15 15 16 16 17 17 18 18 19 19 20 20
REMARK H PARENT
REMARK Flexibility Score: inf
ROOT
ATOM      1  C   UNL     1      17.566  12.395 -14.739  1.00  0.00     0.000 C 
ENDROOT
BRANCH   1   2
ATOM      2  C   UNL     1      18.683  13.034 -15.579  1.00  0.00     0.000 C 
BRANCH   2   3
ATOM      3  C   UNL     1      20.037  12.920 -14.866  1.00  0.00     0.000 C 
BRANCH   3   4
ATOM      4  C   UNL     1      20.834  14.238 -14.880  1.00  0.00     0.000 C 
BRANCH   4   5
ATOM      5  C   UNL     1      22.018  14.297 -13.893  1.00  0.00     0.000 C 
BRANCH   5   6
ATOM      6  C   UNL     1      22.869  15.577 -13.969  1.00  0.00     0.006 C 
BRANCH   6   7
ATOM      7  C   UNL     1      22.663  16.351 -15.277  1.00  0.00     0.053 C 
BRANCH   7   8
ATOM      8  C   UNL     1      22.145  17.726 -14.993  1.00  0.00     0.041 C 
ATOM      9  O   UNL     1      22.455  18.312 -13.923  1.00  0.00    -0.550 OA
ATOM     10  O   UNL     1      21.360  18.380 -15.935  1.00  0.00    -0.550 OA
ENDBRANCH   7   8
ENDBRANCH   6   7
ENDBRANCH   5   6
ENDBRANCH   4   5
ENDBRANCH   3   4
ENDBRANCH   2   3
ENDBRANCH   1   2
BRANCH   1  11
ATOM     11  C   UNL     1      16.163  12.685 -15.296  1.00  0.00     0.000 C 
BRANCH  11  12
ATOM     12  C   UNL     1      15.063  12.552 -14.228  1.00  0.00     0.000 C 
BRANCH  12  13
ATOM     13  C   UNL     1      14.493  11.126 -14.144  1.00  0.00     0.000 C 
BRANCH  13  14
ATOM     14  C   UNL     1      14.429  10.434 -15.518  1.00  0.00     0.000 C 
BRANCH  14  15
ATOM     15  C   UNL     1      14.105   8.935 -15.410  1.00  0.00     0.000 C 
BRANCH  15  16
ATOM     16  C   UNL     1      15.363   8.060 -15.318  1.00  0.00     0.006 C 
BRANCH  16  17
ATOM     17  C   UNL     1      16.514   8.670 -16.125  1.00  0.00     0.053 C 
BRANCH  17  18
ATOM     18  C   UNL     1      17.696   8.924 -15.244  1.00  0.00     0.041 C 
ATOM     19  O   UNL     1      18.856   8.950 -15.731  1.00  0.00    -0.550 OA
ATOM     20  O   UNL     1      17.519   9.083 -13.874  1.00  0.00    -0.550 OA
ENDBRANCH  17  18
ENDBRANCH  16  17
ENDBRANCH  15  16
ENDBRANCH  14  15
ENDBRANCH  13  14
ENDBRANCH  12  13
ENDBRANCH  11  12
ENDBRANCH   1  11
TORSDOF 15
ENDMDL
MODEL 7
REMARK VINA RESULT:    -3.714      1.321      7.593
REMARK INTER + INTRA:          -8.052
REMARK INTER:                  -6.977
REMARK INTRA:                  -1.075
REMARK UNBOUND:                -1.082
REMARK SMILES O=C([O-])CCCCCCCCCCCCCCC(=O)[O-]
REMARK SMILES IDX 10 1 9 2 8 3 7 4 6 5 5 6 4 7 2 8 1 9 3 10 11 11 12 12 13 13
REMARK SMILES IDX 14 14 15 15 16 16 17 17 18 18 19 19 20 20
REMARK H PARENT
REMARK Flexibility Score: inf
ROOT
ATOM      1  C   UNL     1      17.889  10.032 -14.100  1.00  0.00     0.000 C 
ENDROOT
BRANCH   1   2
ATOM      2  C   UNL     1      16.867   8.895 -14.259  1.00  0.00     0.000 C 
BRANCH   2   3
ATOM      3  C   UNL     1      16.651   8.555 -15.740  1.00  0.00     0.000 C 
BRANCH   3   4
ATOM      4  C   UNL     1      15.283   7.904 -16.012  1.00  0.00     0.000 C 
BRANCH   4   5
ATOM      5  C   UNL     1      14.067   8.833 -15.825  1.00  0.00     0.000 C 
BRANCH   5   6
ATOM      6  C   UNL     1      14.357  10.334 -16.007  1.00  0.00     0.006 C 
BRANCH   6   7
ATOM      7  C   UNL     1      14.106  11.148 -14.732  1.00  0.00     0.053 C 
BRANCH   7   8
ATOM      8  C   UNL     1      15.157  12.200 -14.570  1.00  0.00     0.041 C 
ATOM      9  O   UNL     1      15.579  12.834 -15.573  1.00  0.00    -0.550 OA
ATOM     10  O   UNL     1      15.634  12.516 -13.304  1.00  0.00    -0.550 OA
ENDBRANCH   7   8
ENDBRANCH   6   7
ENDBRANCH   5   6
ENDBRANCH   4   5
ENDBRANCH   3   4
ENDBRANCH   2   3
ENDBRANCH   1   2
BRANCH   1  11
ATOM     11  C   UNL     1      18.951  10.035 -15.212  1.00  0.00     0.000 C 
BRANCH  11  12
ATOM     12  C   UNL     1      19.710  11.371 -15.301  1.00  0.00     0.000 C 
BRANCH  12  13
ATOM     13  C   UNL     1      19.366  12.322 -14.142  1.00  0.00     0.000 C 
BRANCH  13  14
ATOM     14  C   UNL     1      20.606  13.041 -13.580  1.00  0.00     0.000 C 
BRANCH  14  15
ATOM     15  C   UNL     1      21.920  12.488 -14.154  1.00  0.00     0.000 C 
BRANCH  15  16
ATOM     16  C   UNL     1      23.123  13.399 -13.868  1.00  0.00     0.006 C 
BRANCH  16  17
ATOM     17  C   UNL     1      22.663  14.774 -13.374  1.00  0.00     0.053 C 
BRANCH  17  18
ATOM     18  C   UNL     1      22.732  15.780 -14.479  1.00  0.00     0.041 C 
ATOM     19  O   UNL     1      22.481  15.437 -15.664  1.00  0.00    -0.550 OA
ATOM     20  O   UNL     1      23.124  17.085 -14.208  1.00  0.00    -0.550 OA
ENDBRANCH  17  18
ENDBRANCH  16  17
ENDBRANCH  15  16
ENDBRANCH  14  15
ENDBRANCH  13  14
ENDBRANCH  12  13
ENDBRANCH  11  12
ENDBRANCH   1  11
TORSDOF 15
ENDMDL
MODEL 8
REMARK VINA RESULT:    -3.700      2.088      6.998
REMARK INTER + INTRA:          -8.027
REMARK INTER:                  -6.294
REMARK INTRA:                  -1.732
REMARK UNBOUND:                -1.082
REMARK SMILES O=C([O-])CCCCCCCCCCCCCCC(=O)[O-]
REMARK SMILES IDX 10 1 9 2 8 3 7 4 6 5 5 6 4 7 2 8 1 9 3 10 11 11 12 12 13 13
REMARK SMILES IDX 14 14 15 15 16 16 17 17 18 18 19 19 20 20
REMARK H PARENT
REMARK Flexibility Score: inf
ROOT
ATOM      1  C   UNL     1      18.398  10.543 -15.499  1.00  0.00     0.000 C 
ENDROOT
BRANCH   1   2
ATOM      2  C   UNL     1      18.316   9.772 -14.173  1.00  0.00     0.000 C 
BRANCH   2   3
ATOM      3  C   UNL     1      17.060   8.890 -14.129  1.00  0.00     0.000 C 
BRANCH   3   4
ATOM      4  C   UNL     1      16.304   8.857 -15.470  1.00  0.00     0.000 C 
BRANCH   4   5
ATOM      5  C   UNL     1      14.767   8.803 -15.353  1.00  0.00     0.000 C 
BRANCH   5   6
ATOM      6  C   UNL     1      14.030  10.068 -15.830  1.00  0.00     0.006 C 
BRANCH   6   7
ATOM      7  C   UNL     1      14.867  11.342 -15.661  1.00  0.00     0.053 C 
BRANCH   7   8
ATOM      8  C   UNL     1      14.884  11.769 -14.227  1.00  0.00     0.041 C 
ATOM      9  O   UNL     1      15.915  12.299 -13.736  1.00  0.00    -0.550 OA
ATOM     10  O   UNL     1      13.744  11.625 -13.447  1.00  0.00    -0.550 OA
ENDBRANCH   7   8
ENDBRANCH   6   7
ENDBRANCH   5   6
ENDBRANCH   4   5
ENDBRANCH   3   4
ENDBRANCH   2   3
ENDBRANCH   1   2
BRANCH   1  11
ATOM     11  C   UNL     1      19.802  10.503 -16.125  1.00  0.00     0.000 C 
BRANCH  11  12
ATOM     12  C   UNL     1      20.837   9.825 -15.210  1.00  0.00     0.000 C 
BRANCH  12  13
ATOM     13  C   UNL     1      22.250  10.405 -15.389  1.00  0.00     0.000 C 
BRANCH  13  14
ATOM     14  C   UNL     1      22.625  11.403 -14.278  1.00  0.00     0.000 C 
BRANCH  14  15
ATOM     15  C   UNL     1      22.654  12.857 -14.776  1.00  0.00     0.000 C 
BRANCH  15  16
ATOM     16  C   UNL     1      21.754  13.786 -13.949  1.00  0.00     0.006 C 
BRANCH  16  17
ATOM     17  C   UNL     1      20.274  13.522 -14.246  1.00  0.00     0.053 C 
BRANCH  17  18
ATOM     18  C   UNL     1      19.833  14.301 -15.445  1.00  0.00     0.041 C 
ATOM     19  O   UNL     1      18.847  13.913 -16.125  1.00  0.00    -0.550 OA
ATOM     20  O   UNL     1      20.542  15.428 -15.841  1.00  0.00    -0.550 OA
ENDBRANCH  17  18
ENDBRANCH  16  17
ENDBRANCH  15  16
ENDBRANCH  14  15
ENDBRANCH  13  14
ENDBRANCH  12  13
ENDBRANCH  11  12
ENDBRANCH   1  11
TORSDOF 15
ENDMDL
MODEL 9
REMARK VINA RESULT:    -3.596      1.166      2.109
REMARK INTER + INTRA:          -7.832
REMARK INTER:                  -6.490
REMARK INTRA:                  -1.342
REMARK UNBOUND:                -1.082
REMARK SMILES O=C([O-])CCCCCCCCCCCCCCC(=O)[O-]
REMARK SMILES IDX 10 1 9 2 8 3 7 4 6 5 5 6 4 7 2 8 1 9 3 10 11 11 12 12 13 13
REMARK SMILES IDX 14 14 15 15 16 16 17 17 18 18 19 19 20 20
REMARK H PARENT
REMARK Flexibility Score: inf
ROOT
ATOM      1  C   UNL     1      19.564   9.846 -15.170  1.00  0.00     0.000 C 
ENDROOT
BRANCH   1   2
ATOM      2  C   UNL     1      20.097  10.930 -16.119  1.00  0.00     0.000 C 
BRANCH   2   3
ATOM      3  C   UNL     1      20.272  12.265 -15.381  1.00  0.00     0.000 C 
BRANCH   3   4
ATOM      4  C   UNL     1      20.686  12.088 -13.909  1.00  0.00     0.000 C 
BRANCH   4   5
ATOM      5  C   UNL     1      21.438  13.284 -13.292  1.00  0.00     0.000 C 
BRANCH   5   6
ATOM      6  C   UNL     1      22.552  13.880 -14.172  1.00  0.00     0.006 C 
BRANCH   6   7
ATOM      7  C   UNL     1      22.796  15.368 -13.895  1.00  0.00     0.053 C 
BRANCH   7   8
ATOM      8  C   UNL     1      22.164  16.207 -14.960  1.00  0.00     0.041 C 
ATOM      9  O   UNL     1      21.410  15.679 -15.820  1.00  0.00    -0.550 OA
ATOM     10  O   UNL     1      22.366  17.582 -14.973  1.00  0.00    -0.550 OA
ENDBRANCH   7   8
ENDBRANCH   6   7
ENDBRANCH   5   6
ENDBRANCH   4   5
ENDBRANCH   3   4
ENDBRANCH   2   3
ENDBRANCH   1   2
BRANCH   1  11
ATOM     11  C   UNL     1      18.171   9.335 -15.574  1.00  0.00     0.000 C 
BRANCH  11  12
ATOM     12  C   UNL     1      17.309   8.948 -14.360  1.00  0.00     0.000 C 
BRANCH  12  13
ATOM     13  C   UNL     1      15.887   8.520 -14.761  1.00  0.00     0.000 C 
BRANCH  13  14
ATOM     14  C   UNL     1      15.335   9.337 -15.943  1.00  0.00     0.000 C 
BRANCH  14  15
ATOM     15  C   UNL     1      14.228  10.316 -15.518  1.00  0.00     0.000 C 
BRANCH  15  16
ATOM     16  C   UNL     1      14.470  10.918 -14.126  1.00  0.00     0.006 C 
BRANCH  16  17
ATOM     17  C   UNL     1      14.938  12.373 -14.232  1.00  0.00     0.053 C 
BRANCH  17  18
ATOM     18  C   UNL     1      16.407  12.432 -14.508  1.00  0.00     0.041 C 
ATOM     19  O   UNL     1      16.825  12.717 -15.660  1.00  0.00    -0.550 OA
ATOM     20  O   UNL     1      17.316  12.122 -13.502  1.00  0.00    -0.550 OA
ENDBRANCH  17  18
ENDBRANCH  16  17
ENDBRANCH  15  16
ENDBRANCH  14  15
ENDBRANCH  13  14
ENDBRANCH  12  13
ENDBRANCH  11  12
ENDBRANCH   1  11
TORSDOF 15
ENDMDL
