MODEL 1
REMARK VINA RESULT:    -5.326      0.000      0.000
REMARK INTER + INTRA:          -7.174
REMARK INTER:                  -7.506
REMARK INTRA:                   0.331
REMARK UNBOUND:                 0.331
REMARK SMILES CC1=CCC(=C(C)C)C(=O)CC(C)=CCC1
REMARK SMILES IDX 12 1 14 2 13 3 15 4 16 5 2 6 1 7 3 8 11 10 9 11 10 12 5 13
REMARK SMILES IDX 6 14 7 15 8 16 4 17
REMARK H PARENT
REMARK Flexibility Score: 60.00
ROOT
ATOM      1  C   UNL     1     -21.258 -37.949  -5.717  1.00  0.00    -0.070 C 
ATOM      2  C   UNL     1     -20.954 -37.076  -4.732  1.00  0.00    -0.027 C 
ATOM      3  C   UNL     1     -22.657 -38.511  -5.755  1.00  0.00     0.039 C 
ENDROOT
BRANCH   2   4
ATOM      4  C   UNL     1     -19.588 -36.479  -4.470  1.00  0.00     0.032 C 
BRANCH   4   5
ATOM      5  C   UNL     1     -18.669 -37.335  -3.573  1.00  0.00     0.034 C 
BRANCH   5   6
ATOM      6  C   UNL     1     -17.217 -37.312  -4.015  1.00  0.00    -0.077 C 
ATOM      7  C   UNL     1     -16.432 -36.047  -3.780  1.00  0.00     0.039 C 
ATOM      8  C   UNL     1     -16.600 -38.329  -4.666  1.00  0.00    -0.023 CG0
ATOM      9  G   UNL     1     -17.179 -39.692  -4.991  1.00  0.00     0.000 G0
ENDBRANCH   5   6
ENDBRANCH   4   5
ENDBRANCH   2   4
BRANCH   1  10
ATOM     10  C   UNL     1     -20.243 -38.456  -6.721  1.00  0.00     0.111 C 
BRANCH  10  11
ATOM     11  C   UNL     1     -19.454 -39.616  -6.177  1.00  0.00     0.163 C 
ATOM     12  O   UNL     1     -20.077 -40.522  -5.560  1.00  0.00    -0.294 OA
BRANCH  11  13
ATOM     13  C   UNL     1     -17.967 -39.698  -6.289  1.00  0.00    -0.002 C 
ATOM     14  C   UNL     1     -17.364 -39.847  -7.507  1.00  0.00    -0.069 C 
ATOM     15  C   UNL     1     -15.877 -40.089  -7.639  1.00  0.00     0.039 C 
ATOM     16  C   UNL     1     -18.162 -39.777  -8.791  1.00  0.00     0.039 C 
BRANCH  13  17
ATOM     17  C   UNL     1     -17.172 -39.703  -4.993  1.00  0.00     0.066 CG0
ATOM     18  G   UNL     1     -16.593 -38.341  -4.666  1.00  0.00     0.000 G0
ENDBRANCH  13  17
ENDBRANCH  11  13
ENDBRANCH  10  11
ENDBRANCH   1  10
TORSDOF 0
ENDMDL
MODEL 2
REMARK VINA RESULT:    -5.302      1.108      1.349
REMARK INTER + INTRA:          -7.141
REMARK INTER:                  -7.329
REMARK INTRA:                   0.189
REMARK UNBOUND:                 0.331
REMARK SMILES CC1=CCC(=C(C)C)C(=O)CC(C)=CCC1
REMARK SMILES IDX 12 1 14 2 13 3 15 4 16 5 2 6 1 7 3 8 11 10 9 11 10 12 5 13
REMARK SMILES IDX 6 14 7 15 8 16 4 17
REMARK H PARENT
REMARK Flexibility Score: 60.00
ROOT
ATOM      1  C   UNL     1     -20.667 -39.374  -6.530  1.00  0.00    -0.070 C 
ATOM      2  C   UNL     1     -20.996 -38.464  -5.587  1.00  0.00    -0.027 C 
ATOM      3  C   UNL     1     -21.649 -40.483  -6.814  1.00  0.00     0.039 C 
ENDROOT
BRANCH   2   4
ATOM      4  C   UNL     1     -20.109 -37.341  -5.096  1.00  0.00     0.032 C 
BRANCH   4   5
ATOM      5  C   UNL     1     -19.135 -37.731  -3.964  1.00  0.00     0.034 C 
BRANCH   5   6
ATOM      6  C   UNL     1     -17.746 -37.145  -4.143  1.00  0.00    -0.077 C 
ATOM      7  C   UNL     1     -17.577 -35.663  -3.924  1.00  0.00     0.039 C 
ATOM      8  C   UNL     1     -16.665 -37.853  -4.552  1.00  0.00    -0.023 CG0
ATOM      9  G   UNL     1     -16.594 -39.345  -4.813  1.00  0.00     0.000 G0
ENDBRANCH   5   6
ENDBRANCH   4   5
ENDBRANCH   2   4
BRANCH   1  10
ATOM     10  C   UNL     1     -19.331 -39.386  -7.244  1.00  0.00     0.111 C 
BRANCH  10  11
ATOM     11  C   UNL     1     -18.314 -40.217  -6.508  1.00  0.00     0.163 C 
ATOM     12  O   UNL     1     -18.674 -41.341  -6.063  1.00  0.00    -0.294 OA
BRANCH  11  13
ATOM     13  C   UNL     1     -16.928 -39.732  -6.235  1.00  0.00    -0.002 C 
ATOM     14  C   UNL     1     -15.988 -39.708  -7.227  1.00  0.00    -0.069 C 
ATOM     15  C   UNL     1     -14.539 -39.373  -6.948  1.00  0.00     0.039 C 
ATOM     16  C   UNL     1     -16.353 -40.020  -8.662  1.00  0.00     0.039 C 
BRANCH  13  17
ATOM     17  C   UNL     1     -16.591 -39.361  -4.799  1.00  0.00     0.066 CG0
ATOM     18  G   UNL     1     -16.646 -37.865  -4.562  1.00  0.00     0.000 G0
ENDBRANCH  13  17
ENDBRANCH  11  13
ENDBRANCH  10  11
ENDBRANCH   1  10
TORSDOF 0
ENDMDL
MODEL 3
REMARK VINA RESULT:    -5.036      1.940      5.007
REMARK INTER + INTRA:          -6.765
REMARK INTER:                  -7.332
REMARK INTRA:                   0.567
REMARK UNBOUND:                 0.331
REMARK SMILES CC1=CCC(=C(C)C)C(=O)CC(C)=CCC1
REMARK SMILES IDX 12 1 14 2 13 3 15 4 16 5 2 6 1 7 3 8 11 10 9 11 10 12 5 13
REMARK SMILES IDX 6 14 7 15 8 16 4 17
REMARK H PARENT
REMARK Flexibility Score: 60.00
ROOT
ATOM      1  C   UNL     1     -17.216 -37.371  -4.147  1.00  0.00    -0.070 C 
ATOM      2  C   UNL     1     -16.384 -38.280  -4.700  1.00  0.00    -0.027 C 
ATOM      3  C   UNL     1     -16.659 -36.007  -3.827  1.00  0.00     0.039 C 
ENDROOT
BRANCH   2   4
ATOM      4  C   UNL     1     -16.727 -39.723  -5.003  1.00  0.00     0.032 C 
BRANCH   4   5
ATOM      5  C   UNL     1     -17.539 -39.937  -6.297  1.00  0.00     0.034 C 
BRANCH   5   6
ATOM      6  C   UNL     1     -18.910 -40.540  -6.048  1.00  0.00    -0.077 C 
ATOM      7  C   UNL     1     -18.976 -42.000  -5.674  1.00  0.00     0.039 C 
ATOM      8  C   UNL     1     -20.078 -39.872  -6.205  1.00  0.00    -0.023 CG0
ATOM      9  G   UNL     1     -20.255 -38.407  -6.554  1.00  0.00     0.000 G0
ENDBRANCH   5   6
ENDBRANCH   4   5
ENDBRANCH   2   4
BRANCH   1  10
ATOM     10  C   UNL     1     -18.645 -37.682  -3.753  1.00  0.00     0.111 C 
BRANCH  10  11
ATOM     11  C   UNL     1     -19.633 -36.897  -4.574  1.00  0.00     0.163 C 
ATOM     12  O   UNL     1     -19.580 -35.638  -4.522  1.00  0.00    -0.294 OA
BRANCH  11  13
ATOM     13  C   UNL     1     -20.698 -37.551  -5.390  1.00  0.00    -0.002 C 
ATOM     14  C   UNL     1     -22.013 -37.453  -5.031  1.00  0.00    -0.069 C 
ATOM     15  C   UNL     1     -23.098 -38.232  -5.743  1.00  0.00     0.039 C 
ATOM     16  C   UNL     1     -22.451 -36.555  -3.894  1.00  0.00     0.039 C 
BRANCH  13  17
ATOM     17  C   UNL     1     -20.249 -38.401  -6.569  1.00  0.00     0.066 CG0
ATOM     18  G   UNL     1     -20.090 -39.862  -6.199  1.00  0.00     0.000 G0
ENDBRANCH  13  17
ENDBRANCH  11  13
ENDBRANCH  10  11
ENDBRANCH   1  10
TORSDOF 0
ENDMDL
MODEL 4
REMARK VINA RESULT:    -5.021      1.694      4.146
REMARK INTER + INTRA:          -6.744
REMARK INTER:                  -7.061
REMARK INTRA:                   0.317
REMARK UNBOUND:                 0.331
REMARK SMILES CC1=CCC(=C(C)C)C(=O)CC(C)=CCC1
REMARK SMILES IDX 12 1 14 2 13 3 15 4 16 5 2 6 1 7 3 8 11 10 9 11 10 12 5 13
REMARK SMILES IDX 6 14 7 15 8 16 4 17
REMARK H PARENT
REMARK Flexibility Score: 60.00
ROOT
ATOM      1  C   UNL     1     -17.705 -40.284  -7.661  1.00  0.00    -0.070 C 
ATOM      2  C   UNL     1     -18.876 -39.893  -8.210  1.00  0.00    -0.027 C 
ATOM      3  C   UNL     1     -16.430 -39.897  -8.366  1.00  0.00     0.039 C 
ENDROOT
BRANCH   2   4
ATOM      4  C   UNL     1     -20.255 -40.263  -7.708  1.00  0.00     0.032 C 
BRANCH   4   5
ATOM      5  C   UNL     1     -20.454 -40.106  -6.186  1.00  0.00     0.034 C 
BRANCH   5   6
ATOM      6  C   UNL     1     -20.328 -38.669  -5.713  1.00  0.00    -0.077 C 
ATOM      7  C   UNL     1     -21.238 -37.643  -6.339  1.00  0.00     0.039 C 
ATOM      8  C   UNL     1     -19.408 -38.238  -4.816  1.00  0.00    -0.023 CG0
ATOM      9  G   UNL     1     -18.411 -39.084  -4.050  1.00  0.00     0.000 G0
ENDBRANCH   5   6
ENDBRANCH   4   5
ENDBRANCH   2   4
BRANCH   1  10
ATOM     10  C   UNL     1     -17.616 -41.163  -6.430  1.00  0.00     0.111 C 
BRANCH  10  11
ATOM     11  C   UNL     1     -16.757 -40.541  -5.363  1.00  0.00     0.163 C 
ATOM     12  O   UNL     1     -15.768 -41.198  -4.938  1.00  0.00    -0.294 OA
BRANCH  11  13
ATOM     13  C   UNL     1     -17.069 -39.214  -4.753  1.00  0.00    -0.002 C 
ATOM     14  C   UNL     1     -16.148 -38.205  -4.765  1.00  0.00    -0.069 C 
ATOM     15  C   UNL     1     -16.374 -36.906  -4.021  1.00  0.00     0.039 C 
ATOM     16  C   UNL     1     -14.848 -38.338  -5.528  1.00  0.00     0.039 C 
BRANCH  13  17
ATOM     17  C   UNL     1     -18.407 -39.073  -4.043  1.00  0.00     0.066 CG0
ATOM     18  G   UNL     1     -19.397 -38.245  -4.839  1.00  0.00     0.000 G0
ENDBRANCH  13  17
ENDBRANCH  11  13
ENDBRANCH  10  11
ENDBRANCH   1  10
TORSDOF 0
ENDMDL
MODEL 5
REMARK VINA RESULT:    -4.873      1.904      3.878
REMARK INTER + INTRA:          -6.537
REMARK INTER:                  -6.869
REMARK INTRA:                   0.333
REMARK UNBOUND:                 0.331
REMARK SMILES CC1=CCC(=C(C)C)C(=O)CC(C)=CCC1
REMARK SMILES IDX 12 1 14 2 13 3 15 4 16 5 2 6 1 7 3 8 11 10 9 11 10 12 5 13
REMARK SMILES IDX 6 14 7 15 8 16 4 17
REMARK H PARENT
REMARK Flexibility Score: 60.00
ROOT
ATOM      1  C   UNL     1     -18.044 -37.175  -4.064  1.00  0.00    -0.070 C 
ATOM      2  C   UNL     1     -19.203 -36.491  -4.178  1.00  0.00    -0.027 C 
ATOM      3  C   UNL     1     -16.772 -36.385  -3.883  1.00  0.00     0.039 C 
ENDROOT
BRANCH   2   4
ATOM      4  C   UNL     1     -20.562 -37.095  -4.458  1.00  0.00     0.032 C 
BRANCH   4   5
ATOM      5  C   UNL     1     -20.880 -37.311  -5.952  1.00  0.00     0.034 C 
BRANCH   5   6
ATOM      6  C   UNL     1     -21.216 -38.752  -6.288  1.00  0.00    -0.077 C 
ATOM      7  C   UNL     1     -22.576 -39.266  -5.888  1.00  0.00     0.039 C 
ATOM      8  C   UNL     1     -20.352 -39.625  -6.863  1.00  0.00    -0.023 CG0
ATOM      9  G   UNL     1     -18.952 -39.330  -7.362  1.00  0.00     0.000 G0
ENDBRANCH   5   6
ENDBRANCH   4   5
ENDBRANCH   2   4
BRANCH   1  10
ATOM     10  C   UNL     1     -17.950 -38.681  -4.199  1.00  0.00     0.111 C 
BRANCH  10  11
ATOM     11  C   UNL     1     -17.233 -39.084  -5.459  1.00  0.00     0.163 C 
ATOM     12  O   UNL     1     -16.074 -38.626  -5.655  1.00  0.00    -0.294 OA
BRANCH  11  13
ATOM     13  C   UNL     1     -17.864 -39.947  -6.501  1.00  0.00    -0.002 C 
ATOM     14  C   UNL     1     -17.421 -41.222  -6.715  1.00  0.00    -0.069 C 
ATOM     15  C   UNL     1     -17.931 -42.065  -7.864  1.00  0.00     0.039 C 
ATOM     16  C   UNL     1     -16.390 -41.857  -5.807  1.00  0.00     0.039 C 
BRANCH  13  17
ATOM     17  C   UNL     1     -18.944 -39.315  -7.366  1.00  0.00     0.066 CG0
ATOM     18  G   UNL     1     -20.339 -39.613  -6.854  1.00  0.00     0.000 G0
ENDBRANCH  13  17
ENDBRANCH  11  13
ENDBRANCH  10  11
ENDBRANCH   1  10
TORSDOF 0
ENDMDL
MODEL 6
REMARK VINA RESULT:    -4.868      1.986      3.974
REMARK INTER + INTRA:          -6.528
REMARK INTER:                  -6.798
REMARK INTRA:                   0.269
REMARK UNBOUND:                 0.331
REMARK SMILES CC1=CCC(=C(C)C)C(=O)CC(C)=CCC1
REMARK SMILES IDX 12 1 14 2 13 3 15 4 16 5 2 6 1 7 3 8 11 10 9 11 10 12 5 13
REMARK SMILES IDX 6 14 7 15 8 16 4 17
REMARK H PARENT
REMARK Flexibility Score: 60.00
ROOT
ATOM      1  C   UNL     1     -15.641 -39.052  -5.726  1.00  0.00    -0.070 C 
ATOM      2  C   UNL     1     -15.950 -38.291  -4.654  1.00  0.00    -0.027 C 
ATOM      3  C   UNL     1     -14.223 -39.550  -5.853  1.00  0.00     0.039 C 
ENDROOT
BRANCH   2   4
ATOM      4  C   UNL     1     -17.284 -37.622  -4.400  1.00  0.00     0.032 C 
BRANCH   4   5
ATOM      5  C   UNL     1     -18.427 -38.583  -4.009  1.00  0.00     0.034 C 
BRANCH   5   6
ATOM      6  C   UNL     1     -19.636 -38.474  -4.921  1.00  0.00    -0.077 C 
ATOM      7  C   UNL     1     -20.366 -37.155  -4.962  1.00  0.00     0.039 C 
ATOM      8  C   UNL     1     -20.139 -39.501  -5.649  1.00  0.00    -0.023 CG0
ATOM      9  G   UNL     1     -19.566 -40.898  -5.777  1.00  0.00     0.000 G0
ENDBRANCH   5   6
ENDBRANCH   4   5
ENDBRANCH   2   4
BRANCH   1  10
ATOM     10  C   UNL     1     -16.619 -39.351  -6.844  1.00  0.00     0.111 C 
BRANCH  10  11
ATOM     11  C   UNL     1     -17.186 -40.741  -6.730  1.00  0.00     0.163 C 
ATOM     12  O   UNL     1     -16.394 -41.687  -6.470  1.00  0.00    -0.294 OA
BRANCH  11  13
ATOM     13  C   UNL     1     -18.629 -41.040  -6.973  1.00  0.00    -0.002 C 
ATOM     14  C   UNL     1     -19.080 -41.337  -8.228  1.00  0.00    -0.069 C 
ATOM     15  C   UNL     1     -20.554 -41.490  -8.534  1.00  0.00     0.039 C 
ATOM     16  C   UNL     1     -18.119 -41.527  -9.382  1.00  0.00     0.039 C 
BRANCH  13  17
ATOM     17  C   UNL     1     -19.575 -40.907  -5.789  1.00  0.00     0.066 CG0
ATOM     18  G   UNL     1     -20.134 -39.505  -5.653  1.00  0.00     0.000 G0
ENDBRANCH  13  17
ENDBRANCH  11  13
ENDBRANCH  10  11
ENDBRANCH   1  10
TORSDOF 0
ENDMDL
MODEL 7
REMARK VINA RESULT:    -4.706      1.778      4.017
REMARK INTER + INTRA:          -6.301
REMARK INTER:                  -6.925
REMARK INTRA:                   0.625
REMARK UNBOUND:                 0.331
REMARK SMILES CC1=CCC(=C(C)C)C(=O)CC(C)=CCC1
REMARK SMILES IDX 12 1 14 2 13 3 15 4 16 5 2 6 1 7 3 8 11 10 9 11 10 12 5 13
REMARK SMILES IDX 6 14 7 15 8 16 4 17
REMARK H PARENT
REMARK Flexibility Score: 60.00
ROOT
ATOM      1  C   UNL     1     -17.625 -37.114  -4.211  1.00  0.00    -0.070 C 
ATOM      2  C   UNL     1     -16.300 -37.308  -4.391  1.00  0.00    -0.027 C 
ATOM      3  C   UNL     1     -18.097 -35.716  -3.901  1.00  0.00     0.039 C 
ENDROOT
BRANCH   2   4
ATOM      4  C   UNL     1     -15.625 -38.645  -4.614  1.00  0.00     0.032 C 
BRANCH   4   5
ATOM      5  C   UNL     1     -15.671 -39.159  -6.069  1.00  0.00     0.034 C 
BRANCH   5   6
ATOM      6  C   UNL     1     -16.481 -40.433  -6.225  1.00  0.00    -0.077 C 
ATOM      7  C   UNL     1     -15.845 -41.727  -5.784  1.00  0.00     0.039 C 
ATOM      8  C   UNL     1     -17.709 -40.492  -6.796  1.00  0.00    -0.023 CG0
ATOM      9  G   UNL     1     -18.545 -39.328  -7.291  1.00  0.00     0.000 G0
ENDBRANCH   5   6
ENDBRANCH   4   5
ENDBRANCH   2   4
BRANCH   1  10
ATOM     10  C   UNL     1     -18.639 -38.239  -4.217  1.00  0.00     0.111 C 
BRANCH  10  11
ATOM     11  C   UNL     1     -19.639 -38.082  -5.331  1.00  0.00     0.163 C 
ATOM     12  O   UNL     1     -20.416 -37.089  -5.297  1.00  0.00    -0.294 OA
BRANCH  11  13
ATOM     13  C   UNL     1     -19.780 -39.084  -6.429  1.00  0.00    -0.002 C 
ATOM     14  C   UNL     1     -20.936 -39.798  -6.580  1.00  0.00    -0.069 C 
ATOM     15  C   UNL     1     -21.055 -40.927  -7.580  1.00  0.00     0.039 C 
ATOM     16  C   UNL     1     -22.162 -39.491  -5.747  1.00  0.00     0.039 C 
BRANCH  13  17
ATOM     17  C   UNL     1     -18.559 -39.338  -7.300  1.00  0.00     0.066 CG0
ATOM     18  G   UNL     1     -17.716 -40.489  -6.788  1.00  0.00     0.000 G0
ENDBRANCH  13  17
ENDBRANCH  11  13
ENDBRANCH  10  11
ENDBRANCH   1  10
TORSDOF 0
ENDMDL
MODEL 8
REMARK VINA RESULT:    -4.629      1.479      3.861
REMARK INTER + INTRA:          -6.191
REMARK INTER:                  -6.521
REMARK INTRA:                   0.329
REMARK UNBOUND:                 0.331
REMARK SMILES CC1=CCC(=C(C)C)C(=O)CC(C)=CCC1
REMARK SMILES IDX 12 1 14 2 13 3 15 4 16 5 2 6 1 7 3 8 11 10 9 11 10 12 5 13
REMARK SMILES IDX 6 14 7 15 8 16 4 17
REMARK H PARENT
REMARK Flexibility Score: 60.00
ROOT
ATOM      1  C   UNL     1     -19.220 -40.782  -8.072  1.00  0.00    -0.070 C 
ATOM      2  C   UNL     1     -18.036 -41.432  -8.036  1.00  0.00    -0.027 C 
ATOM      3  C   UNL     1     -20.396 -41.493  -8.693  1.00  0.00     0.039 C 
ENDROOT
BRANCH   2   4
ATOM      4  C   UNL     1     -16.726 -40.855  -7.544  1.00  0.00     0.032 C 
BRANCH   4   5
ATOM      5  C   UNL     1     -16.607 -40.732  -6.010  1.00  0.00     0.034 C 
BRANCH   5   6
ATOM      6  C   UNL     1     -16.338 -39.313  -5.544  1.00  0.00    -0.077 C 
ATOM      7  C   UNL     1     -15.011 -38.696  -5.907  1.00  0.00     0.039 C 
ATOM      8  C   UNL     1     -17.183 -38.590  -4.769  1.00  0.00    -0.023 CG0
ATOM      9  G   UNL     1     -18.567 -38.995  -4.301  1.00  0.00     0.000 G0
ENDBRANCH   5   6
ENDBRANCH   4   5
ENDBRANCH   2   4
BRANCH   1  10
ATOM     10  C   UNL     1     -19.399 -39.353  -7.605  1.00  0.00     0.111 C 
BRANCH  10  11
ATOM     11  C   UNL     1     -20.142 -39.283  -6.298  1.00  0.00     0.163 C 
ATOM     12  O   UNL     1     -21.220 -39.929  -6.191  1.00  0.00    -0.294 OA
BRANCH  11  13
ATOM     13  C   UNL     1     -19.683 -38.434  -5.159  1.00  0.00    -0.002 C 
ATOM     14  C   UNL     1     -20.191 -37.179  -4.972  1.00  0.00    -0.069 C 
ATOM     15  C   UNL     1     -19.635 -36.238  -3.925  1.00  0.00     0.039 C 
ATOM     16  C   UNL     1     -21.341 -36.666  -5.810  1.00  0.00     0.039 C 
BRANCH  13  17
ATOM     17  C   UNL     1     -18.568 -38.988  -4.284  1.00  0.00     0.066 CG0
ATOM     18  G   UNL     1     -17.193 -38.598  -4.787  1.00  0.00     0.000 G0
ENDBRANCH  13  17
ENDBRANCH  11  13
ENDBRANCH  10  11
ENDBRANCH   1  10
TORSDOF 0
ENDMDL
MODEL 9
REMARK VINA RESULT:    -4.558      2.149      4.282
REMARK INTER + INTRA:          -6.093
REMARK INTER:                  -6.396
REMARK INTRA:                   0.303
REMARK UNBOUND:                 0.331
REMARK SMILES CC1=CCC(=C(C)C)C(=O)CC(C)=CCC1
REMARK SMILES IDX 12 1 14 2 13 3 15 4 16 5 2 6 1 7 3 8 11 10 9 11 10 12 5 13
REMARK SMILES IDX 6 14 7 15 8 16 4 17
REMARK H PARENT
REMARK Flexibility Score: 60.00
ROOT
ATOM      1  C   UNL     1     -17.520 -37.904  -4.167  1.00  0.00    -0.070 C 
ATOM      2  C   UNL     1     -18.103 -36.720  -3.880  1.00  0.00    -0.027 C 
ATOM      3  C   UNL     1     -16.083 -37.891  -4.625  1.00  0.00     0.039 C 
ENDROOT
BRANCH   2   4
ATOM      4  C   UNL     1     -19.554 -36.519  -3.500  1.00  0.00     0.032 C 
BRANCH   4   5
ATOM      5  C   UNL     1     -20.441 -35.928  -4.616  1.00  0.00     0.034 C 
BRANCH   5   6
ATOM      6  C   UNL     1     -21.696 -36.741  -4.874  1.00  0.00    -0.077 C 
ATOM      7  C   UNL     1     -22.947 -36.358  -4.125  1.00  0.00     0.039 C 
ATOM      8  C   UNL     1     -21.749 -37.829  -5.683  1.00  0.00    -0.023 CG0
ATOM      9  G   UNL     1     -20.631 -38.383  -6.543  1.00  0.00     0.000 G0
ENDBRANCH   5   6
ENDBRANCH   4   5
ENDBRANCH   2   4
BRANCH   1  10
ATOM     10  C   UNL     1     -18.260 -39.226  -4.138  1.00  0.00     0.111 C 
BRANCH  10  11
ATOM     11  C   UNL     1     -18.650 -39.676  -5.520  1.00  0.00     0.163 C 
ATOM     12  O   UNL     1     -17.731 -40.002  -6.320  1.00  0.00    -0.294 OA
BRANCH  11  13
ATOM     13  C   UNL     1     -20.067 -39.690  -5.990  1.00  0.00    -0.002 C 
ATOM     14  C   UNL     1     -20.791 -40.849  -5.993  1.00  0.00    -0.069 C 
ATOM     15  C   UNL     1     -22.172 -40.928  -6.607  1.00  0.00     0.039 C 
ATOM     16  C   UNL     1     -20.243 -42.118  -5.380  1.00  0.00     0.039 C 
BRANCH  13  17
ATOM     17  C   UNL     1     -20.628 -38.390  -6.546  1.00  0.00     0.066 CG0
ATOM     18  G   UNL     1     -21.757 -37.840  -5.698  1.00  0.00     0.000 G0
ENDBRANCH  13  17
ENDBRANCH  11  13
ENDBRANCH  10  11
ENDBRANCH   1  10
TORSDOF 0
ENDMDL
