MODEL 1
REMARK VINA RESULT:    -3.623      0.000      0.000
REMARK INTER + INTRA:          -4.378
REMARK INTER:                  -4.365
REMARK INTRA:                  -0.014
REMARK UNBOUND:                -0.014
REMARK SMILES CCCCCO
REMARK SMILES IDX 4 1 3 2 2 3 1 4 5 5 6 6
REMARK H PARENT 6 7
REMARK Flexibility Score: inf
ROOT
ATOM      1  C   UNL     1      -2.088 -16.157  20.745  1.00  0.00     0.028 C 
ENDROOT
BRANCH   1   2
ATOM      2  C   UNL     1      -2.843 -17.426  20.316  1.00  0.00     0.002 C 
BRANCH   2   3
ATOM      3  C   UNL     1      -3.415 -18.204  21.510  1.00  0.00    -0.003 C 
ATOM      4  C   UNL     1      -4.462 -19.216  21.054  1.00  0.00     0.004 C 
ENDBRANCH   2   3
ENDBRANCH   1   2
BRANCH   1   5
ATOM      5  C   UNL     1      -1.206 -15.587  19.628  1.00  0.00     0.156 C 
BRANCH   5   6
ATOM      6  O   UNL     1      -0.225 -16.520  19.264  1.00  0.00    -0.396 OA
ATOM      7  H   UNL     1      -0.704 -17.306  18.891  1.00  0.00     0.210 HD
ENDBRANCH   5   6
ENDBRANCH   1   5
TORSDOF 4
ENDMDL
MODEL 2
REMARK VINA RESULT:    -3.445      2.712      4.215
REMARK INTER + INTRA:          -4.164
REMARK INTER:                  -4.154
REMARK INTRA:                  -0.010
REMARK UNBOUND:                -0.014
REMARK SMILES CCCCCO
REMARK SMILES IDX 4 1 3 2 2 3 1 4 5 5 6 6
REMARK H PARENT 6 7
REMARK Flexibility Score: inf
ROOT
ATOM      1  C   UNL     1      -4.022 -18.191  20.534  1.00  0.00     0.028 C 
ENDROOT
BRANCH   1   2
ATOM      2  C   UNL     1      -2.668 -17.605  20.965  1.00  0.00     0.002 C 
BRANCH   2   3
ATOM      3  C   UNL     1      -2.321 -16.307  20.220  1.00  0.00    -0.003 C 
ATOM      4  C   UNL     1      -0.935 -16.391  19.587  1.00  0.00     0.004 C 
ENDBRANCH   2   3
ENDBRANCH   1   2
BRANCH   1   5
ATOM      5  C   UNL     1      -4.439 -19.401  21.377  1.00  0.00     0.156 C 
BRANCH   5   6
ATOM      6  O   UNL     1      -5.254 -20.256  20.623  1.00  0.00    -0.396 OA
ATOM      7  H   UNL     1      -5.154 -19.982  19.674  1.00  0.00     0.210 HD
ENDBRANCH   5   6
ENDBRANCH   1   5
TORSDOF 4
ENDMDL
MODEL 3
REMARK VINA RESULT:    -3.392     11.848     12.690
REMARK INTER + INTRA:          -4.100
REMARK INTER:                  -4.075
REMARK INTRA:                  -0.025
REMARK UNBOUND:                -0.014
REMARK SMILES CCCCCO
REMARK SMILES IDX 4 1 3 2 2 3 1 4 5 5 6 6
REMARK H PARENT 6 7
REMARK Flexibility Score: inf
ROOT
ATOM      1  C   UNL     1      -7.813 -26.892  17.670  1.00  0.00     0.028 C 
ENDROOT
BRANCH   1   2
ATOM      2  C   UNL     1      -9.268 -27.350  17.860  1.00  0.00     0.002 C 
BRANCH   2   3
ATOM      3  C   UNL     1      -9.433 -28.323  19.036  1.00  0.00    -0.003 C 
ATOM      4  C   UNL     1     -10.875 -28.809  19.148  1.00  0.00     0.004 C 
ENDBRANCH   2   3
ENDBRANCH   1   2
BRANCH   1   5
ATOM      5  C   UNL     1      -7.238 -27.295  16.307  1.00  0.00     0.156 C 
BRANCH   5   6
ATOM      6  O   UNL     1      -8.259 -27.339  15.347  1.00  0.00    -0.396 OA
ATOM      7  H   UNL     1      -7.814 -27.406  14.462  1.00  0.00     0.210 HD
ENDBRANCH   5   6
ENDBRANCH   1   5
TORSDOF 4
ENDMDL
MODEL 4
REMARK VINA RESULT:    -3.355      1.223      1.890
REMARK INTER + INTRA:          -4.055
REMARK INTER:                  -4.022
REMARK INTRA:                  -0.033
REMARK UNBOUND:                -0.014
REMARK SMILES CCCCCO
REMARK SMILES IDX 4 1 3 2 2 3 1 4 5 5 6 6
REMARK H PARENT 6 7
REMARK Flexibility Score: inf
ROOT
ATOM      1  C   UNL     1      -1.938 -14.693  19.402  1.00  0.00     0.028 C 
ENDROOT
BRANCH   1   2
ATOM      2  C   UNL     1      -2.141 -15.565  20.651  1.00  0.00     0.002 C 
BRANCH   2   3
ATOM      3  C   UNL     1      -2.131 -17.067  20.331  1.00  0.00    -0.003 C 
ATOM      4  C   UNL     1      -3.270 -17.788  21.045  1.00  0.00     0.004 C 
ENDBRANCH   2   3
ENDBRANCH   1   2
BRANCH   1   5
ATOM      5  C   UNL     1      -0.549 -14.046  19.350  1.00  0.00     0.156 C 
BRANCH   5   6
ATOM      6  O   UNL     1       0.425 -15.016  19.072  1.00  0.00    -0.396 OA
ATOM      7  H   UNL     1       0.231 -15.792  19.660  1.00  0.00     0.210 HD
ENDBRANCH   5   6
ENDBRANCH   1   5
TORSDOF 4
ENDMDL
MODEL 5
REMARK VINA RESULT:    -3.199      9.923     11.080
REMARK INTER + INTRA:          -3.868
REMARK INTER:                  -3.858
REMARK INTRA:                  -0.010
REMARK UNBOUND:                -0.014
REMARK SMILES CCCCCO
REMARK SMILES IDX 4 1 3 2 2 3 1 4 5 5 6 6
REMARK H PARENT 6 7
REMARK Flexibility Score: inf
ROOT
ATOM      1  C   UNL     1       5.795 -12.947  17.033  1.00  0.00     0.028 C 
ENDROOT
BRANCH   1   2
ATOM      2  C   UNL     1       6.756 -11.788  17.344  1.00  0.00     0.002 C 
BRANCH   2   3
ATOM      3  C   UNL     1       7.992 -12.241  18.134  1.00  0.00    -0.003 C 
ATOM      4  C   UNL     1       8.370 -11.216  19.199  1.00  0.00     0.004 C 
ENDBRANCH   2   3
ENDBRANCH   1   2
BRANCH   1   5
ATOM      5  C   UNL     1       5.261 -12.904  15.597  1.00  0.00     0.156 C 
BRANCH   5   6
ATOM      6  O   UNL     1       3.859 -12.900  15.603  1.00  0.00    -0.396 OA
ATOM      7  H   UNL     1       3.569 -13.148  14.687  1.00  0.00     0.210 HD
ENDBRANCH   5   6
ENDBRANCH   1   5
TORSDOF 4
ENDMDL
MODEL 6
REMARK VINA RESULT:    -3.197      2.412      3.868
REMARK INTER + INTRA:          -3.865
REMARK INTER:                  -3.855
REMARK INTRA:                  -0.010
REMARK UNBOUND:                -0.014
REMARK SMILES CCCCCO
REMARK SMILES IDX 4 1 3 2 2 3 1 4 5 5 6 6
REMARK H PARENT 6 7
REMARK Flexibility Score: inf
ROOT
ATOM      1  C   UNL     1      -2.110 -15.106  19.319  1.00  0.00     0.028 C 
ENDROOT
BRANCH   1   2
ATOM      2  C   UNL     1      -1.734 -13.843  20.111  1.00  0.00     0.002 C 
BRANCH   2   3
ATOM      3  C   UNL     1      -2.877 -13.345  21.007  1.00  0.00    -0.003 C 
ATOM      4  C   UNL     1      -3.794 -12.391  20.248  1.00  0.00     0.004 C 
ENDBRANCH   2   3
ENDBRANCH   1   2
BRANCH   1   5
ATOM      5  C   UNL     1      -1.394 -16.361  19.830  1.00  0.00     0.156 C 
BRANCH   5   6
ATOM      6  O   UNL     1      -0.235 -16.596  19.077  1.00  0.00    -0.396 OA
ATOM      7  H   UNL     1       0.138 -17.461  19.390  1.00  0.00     0.210 HD
ENDBRANCH   5   6
ENDBRANCH   1   5
TORSDOF 4
ENDMDL
MODEL 7
REMARK VINA RESULT:    -3.123      2.303      3.930
REMARK INTER + INTRA:          -3.776
REMARK INTER:                  -3.697
REMARK INTRA:                  -0.079
REMARK UNBOUND:                -0.014
REMARK SMILES CCCCCO
REMARK SMILES IDX 4 1 3 2 2 3 1 4 5 5 6 6
REMARK H PARENT 6 7
REMARK Flexibility Score: inf
ROOT
ATOM      1  C   UNL     1      -1.519 -16.228  19.932  1.00  0.00     0.028 C 
ENDROOT
BRANCH   1   2
ATOM      2  C   UNL     1      -2.060 -14.961  19.249  1.00  0.00     0.002 C 
BRANCH   2   3
ATOM      3  C   UNL     1      -1.926 -13.711  20.130  1.00  0.00    -0.003 C 
ATOM      4  C   UNL     1      -3.277 -13.029  20.323  1.00  0.00     0.004 C 
ENDBRANCH   2   3
ENDBRANCH   1   2
BRANCH   1   5
ATOM      5  C   UNL     1      -2.633 -17.117  20.499  1.00  0.00     0.156 C 
BRANCH   5   6
ATOM      6  O   UNL     1      -3.067 -16.617  21.735  1.00  0.00    -0.396 OA
ATOM      7  H   UNL     1      -2.251 -16.397  22.255  1.00  0.00     0.210 HD
ENDBRANCH   5   6
ENDBRANCH   1   5
TORSDOF 4
ENDMDL
MODEL 8
REMARK VINA RESULT:    -3.110     12.433     13.527
REMARK INTER + INTRA:          -3.760
REMARK INTER:                  -3.751
REMARK INTRA:                  -0.010
REMARK UNBOUND:                -0.014
REMARK SMILES CCCCCO
REMARK SMILES IDX 4 1 3 2 2 3 1 4 5 5 6 6
REMARK H PARENT 6 7
REMARK Flexibility Score: inf
ROOT
ATOM      1  C   UNL     1      -9.246 -28.374  18.979  1.00  0.00     0.028 C 
ENDROOT
BRANCH   1   2
ATOM      2  C   UNL     1      -9.252 -27.375  17.811  1.00  0.00     0.002 C 
BRANCH   2   3
ATOM      3  C   UNL     1      -7.837 -26.974  17.369  1.00  0.00    -0.003 C 
ATOM      4  C   UNL     1      -7.459 -27.651  16.056  1.00  0.00     0.004 C 
ENDBRANCH   2   3
ENDBRANCH   1   2
BRANCH   1   5
ATOM      5  C   UNL     1     -10.652 -28.859  19.351  1.00  0.00     0.156 C 
BRANCH   5   6
ATOM      6  O   UNL     1     -10.867 -28.702  20.728  1.00  0.00    -0.396 OA
ATOM      7  H   UNL     1     -11.675 -28.133  20.827  1.00  0.00     0.210 HD
ENDBRANCH   5   6
ENDBRANCH   1   5
TORSDOF 4
ENDMDL
