MODEL 1
REMARK VINA RESULT:    -3.235      0.000      0.000
REMARK INTER + INTRA:          -7.728
REMARK INTER:                  -5.694
REMARK INTRA:                  -2.035
REMARK UNBOUND:                -2.035
REMARK SMILES CCCCCCC=CCCCCCCCC(=O)[O-]
REMARK SMILES IDX 10 1 11 2 12 3 13 4 14 5 15 6 16 7 17 8 18 9 9 10 8 11 7 12
REMARK SMILES IDX 6 13 5 14 4 15 3 16 2 17 1 18
REMARK H PARENT
REMARK Flexibility Score: inf
ROOT
ATOM      1  C   UNL     1     -99.120 -31.421 -14.024  1.00  0.00     0.004 C 
ENDROOT
BRANCH   1   2
ATOM      2  C   UNL     1     -97.933 -30.498 -13.704  1.00  0.00     0.000 C 
BRANCH   2   3
ATOM      3  C   UNL     1     -98.383 -29.175 -13.048  1.00  0.00     0.000 C 
BRANCH   3   4
ATOM      4  C   UNL     1     -99.815 -29.217 -12.493  1.00  0.00     0.000 C 
BRANCH   4   5
ATOM      5  C   UNL     1    -100.652 -27.997 -12.900  1.00  0.00     0.006 C 
BRANCH   5   6
ATOM      6  C   UNL     1    -102.130 -28.204 -12.557  1.00  0.00     0.053 C 
BRANCH   6   7
ATOM      7  C   UNL     1    -102.437 -27.641 -11.206  1.00  0.00     0.041 C 
ATOM      8  O   UNL     1    -102.204 -28.316 -10.170  1.00  0.00    -0.550 OA
ATOM      9  O   UNL     1    -102.935 -26.349 -11.089  1.00  0.00    -0.550 OA
ENDBRANCH   6   7
ENDBRANCH   5   6
ENDBRANCH   4   5
ENDBRANCH   3   4
ENDBRANCH   2   3
ENDBRANCH   1   2
BRANCH   1  10
ATOM     10  C   UNL     1     -99.337 -31.533 -15.537  1.00  0.00     0.027 C 
BRANCH  10  11
ATOM     11  C   UNL     1    -100.294 -30.482 -16.029  1.00  0.00    -0.031 C 
ATOM     12  C   UNL     1    -101.579 -30.465 -15.643  1.00  0.00    -0.031 C 
BRANCH  12  13
ATOM     13  C   UNL     1    -102.536 -29.415 -16.137  1.00  0.00     0.027 C 
BRANCH  13  14
ATOM     14  C   UNL     1    -101.816 -28.078 -16.372  1.00  0.00     0.004 C 
BRANCH  14  15
ATOM     15  C   UNL     1    -102.783 -26.886 -16.417  1.00  0.00     0.000 C 
BRANCH  15  16
ATOM     16  C   UNL     1    -103.951 -27.034 -15.431  1.00  0.00    -0.000 C 
BRANCH  16  17
ATOM     17  C   UNL     1    -104.182 -25.730 -14.656  1.00  0.00    -0.003 C 
ATOM     18  C   UNL     1    -104.324 -24.544 -15.604  1.00  0.00     0.004 C 
ENDBRANCH  16  17
ENDBRANCH  15  16
ENDBRANCH  14  15
ENDBRANCH  13  14
ENDBRANCH  12  13
ENDBRANCH  10  11
ENDBRANCH   1  10
TORSDOF 13
ENDMDL
MODEL 2
REMARK VINA RESULT:    -3.223      3.030      6.646
REMARK INTER + INTRA:          -7.708
REMARK INTER:                  -5.930
REMARK INTRA:                  -1.778
REMARK UNBOUND:                -2.035
REMARK SMILES CCCCCCC=CCCCCCCCC(=O)[O-]
REMARK SMILES IDX 10 1 11 2 12 3 13 4 14 5 15 6 16 7 17 8 18 9 9 10 8 11 7 12
REMARK SMILES IDX 6 13 5 14 4 15 3 16 2 17 1 18
REMARK H PARENT
REMARK Flexibility Score: inf
ROOT
ATOM      1  C   UNL     1    -101.827 -27.788 -13.681  1.00  0.00     0.004 C 
ENDROOT
BRANCH   1   2
ATOM      2  C   UNL     1    -102.275 -27.131 -14.995  1.00  0.00     0.000 C 
BRANCH   2   3
ATOM      3  C   UNL     1    -101.914 -27.987 -16.228  1.00  0.00     0.000 C 
BRANCH   3   4
ATOM      4  C   UNL     1    -102.764 -29.260 -16.365  1.00  0.00     0.000 C 
BRANCH   4   5
ATOM      5  C   UNL     1    -101.921 -30.542 -16.400  1.00  0.00     0.006 C 
BRANCH   5   6
ATOM      6  C   UNL     1    -100.432 -30.226 -16.232  1.00  0.00     0.053 C 
BRANCH   6   7
ATOM      7  C   UNL     1     -99.690 -31.437 -15.764  1.00  0.00     0.041 C 
ATOM      8  O   UNL     1     -98.438 -31.499 -15.884  1.00  0.00    -0.550 OA
ATOM      9  O   UNL     1    -100.375 -32.477 -15.147  1.00  0.00    -0.550 OA
ENDBRANCH   6   7
ENDBRANCH   5   6
ENDBRANCH   4   5
ENDBRANCH   3   4
ENDBRANCH   2   3
ENDBRANCH   1   2
BRANCH   1  10
ATOM     10  C   UNL     1    -100.333 -27.556 -13.430  1.00  0.00     0.027 C 
BRANCH  10  11
ATOM     11  C   UNL     1     -99.649 -28.826 -13.002  1.00  0.00    -0.031 C 
ATOM     12  C   UNL     1     -98.331 -29.008 -13.179  1.00  0.00    -0.031 C 
BRANCH  12  13
ATOM     13  C   UNL     1     -97.648 -30.279 -12.752  1.00  0.00     0.027 C 
BRANCH  13  14
ATOM     14  C   UNL     1     -96.292 -29.984 -12.093  1.00  0.00     0.004 C 
BRANCH  14  15
ATOM     15  C   UNL     1     -96.368 -29.988 -10.559  1.00  0.00     0.000 C 
BRANCH  15  16
ATOM     16  C   UNL     1     -97.351 -31.037 -10.018  1.00  0.00    -0.000 C 
BRANCH  16  17
ATOM     17  C   UNL     1     -98.318 -30.412  -9.005  1.00  0.00    -0.003 C 
ATOM     18  C   UNL     1     -99.727 -30.308  -9.580  1.00  0.00     0.004 C 
ENDBRANCH  16  17
ENDBRANCH  15  16
ENDBRANCH  14  15
ENDBRANCH  13  14
ENDBRANCH  12  13
ENDBRANCH  10  11
ENDBRANCH   1  10
TORSDOF 13
ENDMDL
MODEL 3
REMARK VINA RESULT:    -3.204      3.251      6.432
REMARK INTER + INTRA:          -7.673
REMARK INTER:                  -6.327
REMARK INTRA:                  -1.346
REMARK UNBOUND:                -2.035
REMARK SMILES CCCCCCC=CCCCCCCCC(=O)[O-]
REMARK SMILES IDX 10 1 11 2 12 3 13 4 14 5 15 6 16 7 17 8 18 9 9 10 8 11 7 12
REMARK SMILES IDX 6 13 5 14 4 15 3 16 2 17 1 18
REMARK H PARENT
REMARK Flexibility Score: inf
ROOT
ATOM      1  C   UNL     1    -105.155 -24.552 -13.164  1.00  0.00     0.004 C 
ENDROOT
BRANCH   1   2
ATOM      2  C   UNL     1    -104.544 -23.917 -11.906  1.00  0.00     0.000 C 
BRANCH   2   3
ATOM      3  C   UNL     1    -104.721 -22.384 -11.880  1.00  0.00     0.000 C 
BRANCH   3   4
ATOM      4  C   UNL     1    -103.899 -21.687 -10.784  1.00  0.00     0.000 C 
BRANCH   4   5
ATOM      5  C   UNL     1    -104.086 -22.324  -9.400  1.00  0.00     0.006 C 
BRANCH   5   6
ATOM      6  C   UNL     1    -102.739 -22.747  -8.803  1.00  0.00     0.053 C 
BRANCH   6   7
ATOM      7  C   UNL     1    -102.829 -24.127  -8.234  1.00  0.00     0.041 C 
ATOM      8  O   UNL     1    -103.176 -25.092  -8.963  1.00  0.00    -0.550 OA
ATOM      9  O   UNL     1    -102.480 -24.355  -6.909  1.00  0.00    -0.550 OA
ENDBRANCH   6   7
ENDBRANCH   5   6
ENDBRANCH   4   5
ENDBRANCH   3   4
ENDBRANCH   2   3
ENDBRANCH   1   2
BRANCH   1  10
ATOM     10  C   UNL     1    -105.086 -23.589 -14.355  1.00  0.00     0.027 C 
BRANCH  10  11
ATOM     11  C   UNL     1    -104.477 -24.255 -15.559  1.00  0.00    -0.031 C 
ATOM     12  C   UNL     1    -103.973 -25.497 -15.495  1.00  0.00    -0.031 C 
BRANCH  12  13
ATOM     13  C   UNL     1    -103.362 -26.162 -16.699  1.00  0.00     0.027 C 
BRANCH  13  14
ATOM     14  C   UNL     1    -102.387 -27.273 -16.281  1.00  0.00     0.004 C 
BRANCH  14  15
ATOM     15  C   UNL     1    -102.511 -27.640 -14.795  1.00  0.00     0.000 C 
BRANCH  15  16
ATOM     16  C   UNL     1    -101.147 -27.765 -14.100  1.00  0.00    -0.000 C 
BRANCH  16  17
ATOM     17  C   UNL     1    -101.313 -27.855 -12.578  1.00  0.00    -0.003 C 
ATOM     18  C   UNL     1    -102.670 -27.316 -12.138  1.00  0.00     0.004 C 
ENDBRANCH  16  17
ENDBRANCH  15  16
ENDBRANCH  14  15
ENDBRANCH  13  14
ENDBRANCH  12  13
ENDBRANCH  10  11
ENDBRANCH   1  10
TORSDOF 13
ENDMDL
MODEL 4
REMARK VINA RESULT:    -3.161      2.375      5.120
REMARK INTER + INTRA:          -7.599
REMARK INTER:                  -5.349
REMARK INTRA:                  -2.250
REMARK UNBOUND:                -2.035
REMARK SMILES CCCCCCC=CCCCCCCCC(=O)[O-]
REMARK SMILES IDX 10 1 11 2 12 3 13 4 14 5 15 6 16 7 17 8 18 9 9 10 8 11 7 12
REMARK SMILES IDX 6 13 5 14 4 15 3 16 2 17 1 18
REMARK H PARENT
REMARK Flexibility Score: inf
ROOT
ATOM      1  C   UNL     1    -104.165 -25.740 -11.876  1.00  0.00     0.004 C 
ENDROOT
BRANCH   1   2
ATOM      2  C   UNL     1    -103.645 -27.184 -11.957  1.00  0.00     0.000 C 
BRANCH   2   3
ATOM      3  C   UNL     1    -102.171 -27.299 -11.514  1.00  0.00     0.000 C 
BRANCH   3   4
ATOM      4  C   UNL     1    -101.209 -27.656 -12.658  1.00  0.00     0.000 C 
BRANCH   4   5
ATOM      5  C   UNL     1    -100.415 -28.943 -12.394  1.00  0.00     0.006 C 
BRANCH   5   6
ATOM      6  C   UNL     1     -99.055 -28.904 -13.097  1.00  0.00     0.053 C 
BRANCH   6   7
ATOM      7  C   UNL     1     -98.685 -30.263 -13.598  1.00  0.00     0.041 C 
ATOM      8  O   UNL     1     -98.170 -31.107 -12.819  1.00  0.00    -0.550 OA
ATOM      9  O   UNL     1     -98.958 -30.616 -14.914  1.00  0.00    -0.550 OA
ENDBRANCH   6   7
ENDBRANCH   5   6
ENDBRANCH   4   5
ENDBRANCH   3   4
ENDBRANCH   2   3
ENDBRANCH   1   2
BRANCH   1  10
ATOM     10  C   UNL     1    -104.602 -25.235 -13.256  1.00  0.00     0.027 C 
BRANCH  10  11
ATOM     11  C   UNL     1    -104.163 -26.176 -14.344  1.00  0.00    -0.031 C 
ATOM     12  C   UNL     1    -103.646 -25.726 -15.497  1.00  0.00    -0.031 C 
BRANCH  12  13
ATOM     13  C   UNL     1    -103.209 -26.667 -16.586  1.00  0.00     0.027 C 
BRANCH  13  14
ATOM     14  C   UNL     1    -102.100 -27.608 -16.090  1.00  0.00     0.004 C 
BRANCH  14  15
ATOM     15  C   UNL     1    -102.318 -29.063 -16.532  1.00  0.00     0.000 C 
BRANCH  15  16
ATOM     16  C   UNL     1    -102.411 -30.034 -15.346  1.00  0.00    -0.000 C 
BRANCH  16  17
ATOM     17  C   UNL     1    -103.717 -29.827 -14.569  1.00  0.00    -0.003 C 
ATOM     18  C   UNL     1    -103.710 -30.613 -13.261  1.00  0.00     0.004 C 
ENDBRANCH  16  17
ENDBRANCH  15  16
ENDBRANCH  14  15
ENDBRANCH  13  14
ENDBRANCH  12  13
ENDBRANCH  10  11
ENDBRANCH   1  10
TORSDOF 13
ENDMDL
MODEL 5
REMARK VINA RESULT:    -3.128      2.317      3.827
REMARK INTER + INTRA:          -7.539
REMARK INTER:                  -5.132
REMARK INTRA:                  -2.407
REMARK UNBOUND:                -2.035
REMARK SMILES CCCCCCC=CCCCCCCCC(=O)[O-]
REMARK SMILES IDX 10 1 11 2 12 3 13 4 14 5 15 6 16 7 17 8 18 9 9 10 8 11 7 12
REMARK SMILES IDX 6 13 5 14 4 15 3 16 2 17 1 18
REMARK H PARENT
REMARK Flexibility Score: inf
ROOT
ATOM      1  C   UNL     1    -103.730 -29.213 -11.634  1.00  0.00     0.004 C 
ENDROOT
BRANCH   1   2
ATOM      2  C   UNL     1    -102.319 -28.798 -11.190  1.00  0.00     0.000 C 
BRANCH   2   3
ATOM      3  C   UNL     1    -101.809 -27.557 -11.952  1.00  0.00     0.000 C 
BRANCH   3   4
ATOM      4  C   UNL     1    -100.598 -27.843 -12.855  1.00  0.00     0.000 C 
BRANCH   4   5
ATOM      5  C   UNL     1     -99.932 -29.192 -12.554  1.00  0.00     0.006 C 
BRANCH   5   6
ATOM      6  C   UNL     1     -98.616 -29.341 -13.323  1.00  0.00     0.053 C 
BRANCH   6   7
ATOM      7  C   UNL     1     -97.510 -29.739 -12.398  1.00  0.00     0.041 C 
ATOM      8  O   UNL     1     -97.718 -29.818 -11.159  1.00  0.00    -0.550 OA
ATOM      9  O   UNL     1     -96.262 -30.071 -12.911  1.00  0.00    -0.550 OA
ENDBRANCH   6   7
ENDBRANCH   5   6
ENDBRANCH   4   5
ENDBRANCH   3   4
ENDBRANCH   2   3
ENDBRANCH   1   2
BRANCH   1  10
ATOM     10  C   UNL     1    -103.681 -30.460 -12.525  1.00  0.00     0.027 C 
BRANCH  10  11
ATOM     11  C   UNL     1    -103.468 -30.090 -13.968  1.00  0.00    -0.031 C 
ATOM     12  C   UNL     1    -102.418 -30.551 -14.664  1.00  0.00    -0.031 C 
BRANCH  12  13
ATOM     13  C   UNL     1    -102.206 -30.179 -16.106  1.00  0.00     0.027 C 
BRANCH  13  14
ATOM     14  C   UNL     1    -101.572 -28.785 -16.229  1.00  0.00     0.004 C 
BRANCH  14  15
ATOM     15  C   UNL     1    -102.594 -27.704 -16.610  1.00  0.00     0.000 C 
BRANCH  15  16
ATOM     16  C   UNL     1    -102.764 -26.639 -15.516  1.00  0.00    -0.000 C 
BRANCH  16  17
ATOM     17  C   UNL     1    -104.179 -26.681 -14.925  1.00  0.00    -0.003 C 
ATOM     18  C   UNL     1    -104.390 -25.552 -13.921  1.00  0.00     0.004 C 
ENDBRANCH  16  17
ENDBRANCH  15  16
ENDBRANCH  14  15
ENDBRANCH  13  14
ENDBRANCH  12  13
ENDBRANCH  10  11
ENDBRANCH   1  10
TORSDOF 13
ENDMDL
MODEL 6
REMARK VINA RESULT:    -3.121      2.400      5.894
REMARK INTER + INTRA:          -7.528
REMARK INTER:                  -6.094
REMARK INTRA:                  -1.434
REMARK UNBOUND:                -2.035
REMARK SMILES CCCCCCC=CCCCCCCCC(=O)[O-]
REMARK SMILES IDX 10 1 11 2 12 3 13 4 14 5 15 6 16 7 17 8 18 9 9 10 8 11 7 12
REMARK SMILES IDX 6 13 5 14 4 15 3 16 2 17 1 18
REMARK H PARENT
REMARK Flexibility Score: inf
ROOT
ATOM      1  C   UNL     1    -101.613 -28.749 -10.874  1.00  0.00     0.004 C 
ENDROOT
BRANCH   1   2
ATOM      2  C   UNL     1    -101.061 -28.063 -12.132  1.00  0.00     0.000 C 
BRANCH   2   3
ATOM      3  C   UNL     1    -102.068 -28.090 -13.302  1.00  0.00     0.000 C 
BRANCH   3   4
ATOM      4  C   UNL     1    -101.418 -27.889 -14.680  1.00  0.00     0.000 C 
BRANCH   4   5
ATOM      5  C   UNL     1    -102.348 -27.195 -15.685  1.00  0.00     0.006 C 
BRANCH   5   6
ATOM      6  C   UNL     1    -103.437 -26.395 -14.965  1.00  0.00     0.053 C 
BRANCH   6   7
ATOM      7  C   UNL     1    -104.131 -25.477 -15.920  1.00  0.00     0.041 C 
ATOM      8  O   UNL     1    -104.235 -24.250 -15.660  1.00  0.00    -0.550 OA
ATOM      9  O   UNL     1    -104.620 -25.970 -17.124  1.00  0.00    -0.550 OA
ENDBRANCH   6   7
ENDBRANCH   5   6
ENDBRANCH   4   5
ENDBRANCH   3   4
ENDBRANCH   2   3
ENDBRANCH   1   2
BRANCH   1  10
ATOM     10  C   UNL     1    -100.675 -29.866 -10.400  1.00  0.00     0.027 C 
BRANCH  10  11
ATOM     11  C   UNL     1     -99.374 -29.840 -11.155  1.00  0.00    -0.031 C 
ATOM     12  C   UNL     1     -98.212 -30.155 -10.563  1.00  0.00    -0.031 C 
BRANCH  12  13
ATOM     13  C   UNL     1     -96.911 -30.127 -11.318  1.00  0.00     0.027 C 
BRANCH  13  14
ATOM     14  C   UNL     1     -97.144 -29.846 -12.810  1.00  0.00     0.004 C 
BRANCH  14  15
ATOM     15  C   UNL     1     -96.733 -31.026 -13.704  1.00  0.00     0.000 C 
BRANCH  15  16
ATOM     16  C   UNL     1     -97.930 -31.680 -14.408  1.00  0.00    -0.000 C 
BRANCH  16  17
ATOM     17  C   UNL     1     -99.063 -30.668 -14.619  1.00  0.00    -0.003 C 
ATOM     18  C   UNL     1     -99.716 -30.849 -15.986  1.00  0.00     0.004 C 
ENDBRANCH  16  17
ENDBRANCH  15  16
ENDBRANCH  14  15
ENDBRANCH  13  14
ENDBRANCH  12  13
ENDBRANCH  10  11
ENDBRANCH   1  10
TORSDOF 13
ENDMDL
MODEL 7
REMARK VINA RESULT:    -3.114      2.439      6.547
REMARK INTER + INTRA:          -7.514
REMARK INTER:                  -5.870
REMARK INTRA:                  -1.644
REMARK UNBOUND:                -2.035
REMARK SMILES CCCCCCC=CCCCCCCCC(=O)[O-]
REMARK SMILES IDX 10 1 11 2 12 3 13 4 14 5 15 6 16 7 17 8 18 9 9 10 8 11 7 12
REMARK SMILES IDX 6 13 5 14 4 15 3 16 2 17 1 18
REMARK H PARENT
REMARK Flexibility Score: inf
ROOT
ATOM      1  C   UNL     1    -104.676 -26.189 -12.395  1.00  0.00     0.004 C 
ENDROOT
BRANCH   1   2
ATOM      2  C   UNL     1    -104.431 -26.806 -13.781  1.00  0.00     0.000 C 
BRANCH   2   3
ATOM      3  C   UNL     1    -104.161 -25.733 -14.858  1.00  0.00     0.000 C 
BRANCH   3   4
ATOM      4  C   UNL     1    -103.186 -26.191 -15.954  1.00  0.00     0.000 C 
BRANCH   4   5
ATOM      5  C   UNL     1    -102.121 -27.168 -15.437  1.00  0.00     0.006 C 
BRANCH   5   6
ATOM      6  C   UNL     1    -101.846 -28.274 -16.461  1.00  0.00     0.053 C 
BRANCH   6   7
ATOM      7  C   UNL     1    -101.978 -29.621 -15.825  1.00  0.00     0.041 C 
ATOM      8  O   UNL     1    -102.860 -29.826 -14.951  1.00  0.00    -0.550 OA
ATOM      9  O   UNL     1    -101.158 -30.666 -16.234  1.00  0.00    -0.550 OA
ENDBRANCH   6   7
ENDBRANCH   5   6
ENDBRANCH   4   5
ENDBRANCH   3   4
ENDBRANCH   2   3
ENDBRANCH   1   2
BRANCH   1  10
ATOM     10  C   UNL     1    -103.492 -26.453 -11.458  1.00  0.00     0.027 C 
BRANCH  10  11
ATOM     11  C   UNL     1    -102.782 -27.728 -11.824  1.00  0.00    -0.031 C 
ATOM     12  C   UNL     1    -101.446 -27.784 -11.929  1.00  0.00    -0.031 C 
BRANCH  12  13
ATOM     13  C   UNL     1    -100.737 -29.059 -12.296  1.00  0.00     0.027 C 
BRANCH  13  14
ATOM     14  C   UNL     1     -99.522 -28.777 -13.194  1.00  0.00     0.004 C 
BRANCH  14  15
ATOM     15  C   UNL     1     -98.252 -29.491 -12.708  1.00  0.00     0.000 C 
BRANCH  15  16
ATOM     16  C   UNL     1     -98.331 -29.901 -11.230  1.00  0.00    -0.000 C 
BRANCH  16  17
ATOM     17  C   UNL     1     -96.960 -30.352 -10.712  1.00  0.00    -0.003 C 
ATOM     18  C   UNL     1     -95.838 -29.867 -11.625  1.00  0.00     0.004 C 
ENDBRANCH  16  17
ENDBRANCH  15  16
ENDBRANCH  14  15
ENDBRANCH  13  14
ENDBRANCH  12  13
ENDBRANCH  10  11
ENDBRANCH   1  10
TORSDOF 13
ENDMDL
MODEL 8
REMARK VINA RESULT:    -3.110      2.981      4.599
REMARK INTER + INTRA:          -7.508
REMARK INTER:                  -6.307
REMARK INTRA:                  -1.201
REMARK UNBOUND:                -2.035
REMARK SMILES CCCCCCC=CCCCCCCCC(=O)[O-]
REMARK SMILES IDX 10 1 11 2 12 3 13 4 14 5 15 6 16 7 17 8 18 9 9 10 8 11 7 12
REMARK SMILES IDX 6 13 5 14 4 15 3 16 2 17 1 18
REMARK H PARENT
REMARK Flexibility Score: inf
ROOT
ATOM      1  C   UNL     1    -102.068 -29.020 -13.944  1.00  0.00     0.004 C 
ENDROOT
BRANCH   1   2
ATOM      2  C   UNL     1    -101.246 -28.551 -12.734  1.00  0.00     0.000 C 
BRANCH   2   3
ATOM      3  C   UNL     1     -99.745 -28.413 -13.066  1.00  0.00     0.000 C 
BRANCH   3   4
ATOM      4  C   UNL     1     -98.870 -29.504 -12.429  1.00  0.00     0.000 C 
BRANCH   4   5
ATOM      5  C   UNL     1     -97.674 -29.901 -13.306  1.00  0.00     0.006 C 
BRANCH   5   6
ATOM      6  C   UNL     1     -97.722 -31.391 -13.659  1.00  0.00     0.053 C 
BRANCH   6   7
ATOM      7  C   UNL     1     -97.871 -31.573 -15.136  1.00  0.00     0.041 C 
ATOM      8  O   UNL     1     -99.008 -31.503 -15.672  1.00  0.00    -0.550 OA
ATOM      9  O   UNL     1     -96.747 -31.771 -15.929  1.00  0.00    -0.550 OA
ENDBRANCH   6   7
ENDBRANCH   5   6
ENDBRANCH   4   5
ENDBRANCH   3   4
ENDBRANCH   2   3
ENDBRANCH   1   2
BRANCH   1  10
ATOM     10  C   UNL     1    -101.268 -28.872 -15.244  1.00  0.00     0.027 C 
BRANCH  10  11
ATOM     11  C   UNL     1    -101.928 -27.899 -16.182  1.00  0.00    -0.031 C 
ATOM     12  C   UNL     1    -102.795 -26.975 -15.741  1.00  0.00    -0.031 C 
BRANCH  12  13
ATOM     13  C   UNL     1    -103.456 -26.004 -16.680  1.00  0.00     0.027 C 
BRANCH  13  14
ATOM     14  C   UNL     1    -104.236 -24.930 -15.906  1.00  0.00     0.004 C 
BRANCH  14  15
ATOM     15  C   UNL     1    -104.283 -25.208 -14.396  1.00  0.00     0.000 C 
BRANCH  15  16
ATOM     16  C   UNL     1    -104.873 -24.036 -13.597  1.00  0.00    -0.000 C 
BRANCH  16  17
ATOM     17  C   UNL     1    -104.586 -24.195 -12.099  1.00  0.00    -0.003 C 
ATOM     18  C   UNL     1    -104.214 -25.634 -11.758  1.00  0.00     0.004 C 
ENDBRANCH  16  17
ENDBRANCH  15  16
ENDBRANCH  14  15
ENDBRANCH  13  14
ENDBRANCH  12  13
ENDBRANCH  10  11
ENDBRANCH   1  10
TORSDOF 13
ENDMDL
MODEL 9
REMARK VINA RESULT:    -3.041      2.892      5.756
REMARK INTER + INTRA:          -7.386
REMARK INTER:                  -5.695
REMARK INTRA:                  -1.691
REMARK UNBOUND:                -2.035
REMARK SMILES CCCCCCC=CCCCCCCCC(=O)[O-]
REMARK SMILES IDX 10 1 11 2 12 3 13 4 14 5 15 6 16 7 17 8 18 9 9 10 8 11 7 12
REMARK SMILES IDX 6 13 5 14 4 15 3 16 2 17 1 18
REMARK H PARENT
REMARK Flexibility Score: inf
ROOT
ATOM      1  C   UNL     1    -103.853 -25.738 -16.409  1.00  0.00     0.004 C 
ENDROOT
BRANCH   1   2
ATOM      2  C   UNL     1    -103.869 -25.411 -14.908  1.00  0.00     0.000 C 
BRANCH   2   3
ATOM      3  C   UNL     1    -104.883 -24.299 -14.563  1.00  0.00     0.000 C 
BRANCH   3   4
ATOM      4  C   UNL     1    -105.270 -24.256 -13.076  1.00  0.00     0.000 C 
BRANCH   4   5
ATOM      5  C   UNL     1    -104.923 -22.920 -12.405  1.00  0.00     0.006 C 
BRANCH   5   6
ATOM      6  C   UNL     1    -104.308 -23.144 -11.020  1.00  0.00     0.053 C 
BRANCH   6   7
ATOM      7  C   UNL     1    -104.043 -21.835 -10.348  1.00  0.00     0.041 C 
ATOM      8  O   UNL     1    -103.146 -21.068 -10.785  1.00  0.00    -0.550 OA
ATOM      9  O   UNL     1    -104.821 -21.439  -9.267  1.00  0.00    -0.550 OA
ENDBRANCH   6   7
ENDBRANCH   5   6
ENDBRANCH   4   5
ENDBRANCH   3   4
ENDBRANCH   2   3
ENDBRANCH   1   2
BRANCH   1  10
ATOM     10  C   UNL     1    -103.156 -27.078 -16.672  1.00  0.00     0.027 C 
BRANCH  10  11
ATOM     11  C   UNL     1    -102.234 -27.443 -15.541  1.00  0.00    -0.031 C 
ATOM     12  C   UNL     1    -101.625 -28.637 -15.487  1.00  0.00    -0.031 C 
BRANCH  12  13
ATOM     13  C   UNL     1    -100.705 -29.002 -14.355  1.00  0.00     0.027 C 
BRANCH  13  14
ATOM     14  C   UNL     1    -100.643 -27.878 -13.309  1.00  0.00     0.004 C 
BRANCH  14  15
ATOM     15  C   UNL     1    -101.414 -28.223 -12.025  1.00  0.00     0.000 C 
BRANCH  15  16
ATOM     16  C   UNL     1    -102.563 -27.245 -11.744  1.00  0.00    -0.000 C 
BRANCH  16  17
ATOM     17  C   UNL     1    -103.892 -27.791 -12.279  1.00  0.00    -0.003 C 
ATOM     18  C   UNL     1    -103.858 -29.312 -12.390  1.00  0.00     0.004 C 
ENDBRANCH  16  17
ENDBRANCH  15  16
ENDBRANCH  14  15
ENDBRANCH  13  14
ENDBRANCH  12  13
ENDBRANCH  10  11
ENDBRANCH   1  10
TORSDOF 13
ENDMDL
