MODEL 1
REMARK VINA RESULT:    -4.026      0.000      0.000
REMARK INTER + INTRA:          -6.346
REMARK INTER:                  -5.908
REMARK INTRA:                  -0.438
REMARK UNBOUND:                -0.438
REMARK SMILES O=C([O-])CCCCCCCC(=O)[O-]
REMARK SMILES IDX 7 1 6 2 5 3 4 4 2 5 1 6 3 7 8 8 9 9 10 10 11 11 12 12 13 13
REMARK H PARENT
REMARK Flexibility Score: inf
ROOT
ATOM      1  C   UNL     1      49.395   5.640  22.093  1.00  0.00     0.000 C 
ENDROOT
BRANCH   1   2
ATOM      2  C   UNL     1      49.164   4.266  21.442  1.00  0.00     0.000 C 
BRANCH   2   3
ATOM      3  C   UNL     1      50.450   3.431  21.348  1.00  0.00     0.006 C 
BRANCH   3   4
ATOM      4  C   UNL     1      50.518   2.680  20.015  1.00  0.00     0.053 C 
BRANCH   4   5
ATOM      5  C   UNL     1      51.731   3.092  19.242  1.00  0.00     0.041 C 
ATOM      6  O   UNL     1      52.632   2.251  18.983  1.00  0.00    -0.550 OA
ATOM      7  O   UNL     1      51.843   4.391  18.764  1.00  0.00    -0.550 OA
ENDBRANCH   4   5
ENDBRANCH   3   4
ENDBRANCH   2   3
ENDBRANCH   1   2
BRANCH   1   8
ATOM      8  C   UNL     1      48.697   6.781  21.329  1.00  0.00     0.000 C 
BRANCH   8   9
ATOM      9  C   UNL     1      49.647   7.948  21.016  1.00  0.00     0.006 C 
BRANCH   9  10
ATOM     10  C   UNL     1      50.793   7.545  20.080  1.00  0.00     0.053 C 
BRANCH  10  11
ATOM     11  C   UNL     1      50.752   8.358  18.826  1.00  0.00     0.041 C 
ATOM     12  O   UNL     1      50.767   7.790  17.701  1.00  0.00    -0.550 OA
ATOM     13  O   UNL     1      50.649   9.741  18.895  1.00  0.00    -0.550 OA
ENDBRANCH  10  11
ENDBRANCH   9  10
ENDBRANCH   8   9
ENDBRANCH   1   8
TORSDOF 8
ENDMDL
MODEL 2
REMARK VINA RESULT:    -3.951      8.994      9.785
REMARK INTER + INTRA:          -6.236
REMARK INTER:                  -5.818
REMARK INTRA:                  -0.419
REMARK UNBOUND:                -0.438
REMARK SMILES O=C([O-])CCCCCCCC(=O)[O-]
REMARK SMILES IDX 7 1 6 2 5 3 4 4 2 5 1 6 3 7 8 8 9 9 10 10 11 11 12 12 13 13
REMARK H PARENT
REMARK Flexibility Score: inf
ROOT
ATOM      1  C   UNL     1      58.334  -0.921  17.525  1.00  0.00     0.000 C 
ENDROOT
BRANCH   1   2
ATOM      2  C   UNL     1      57.379  -0.502  18.655  1.00  0.00     0.000 C 
BRANCH   2   3
ATOM      3  C   UNL     1      56.904  -1.693  19.502  1.00  0.00     0.006 C 
BRANCH   3   4
ATOM      4  C   UNL     1      56.299  -2.787  18.617  1.00  0.00     0.053 C 
BRANCH   4   5
ATOM      5  C   UNL     1      54.810  -2.815  18.761  1.00  0.00     0.041 C 
ATOM      6  O   UNL     1      54.144  -3.760  18.264  1.00  0.00    -0.550 OA
ATOM      7  O   UNL     1      54.163  -1.823  19.486  1.00  0.00    -0.550 OA
ENDBRANCH   4   5
ENDBRANCH   3   4
ENDBRANCH   2   3
ENDBRANCH   1   2
BRANCH   1   8
ATOM      8  C   UNL     1      58.452   0.149  16.424  1.00  0.00     0.000 C 
BRANCH   8   9
ATOM      9  C   UNL     1      59.613   1.125  16.672  1.00  0.00     0.006 C 
BRANCH   9  10
ATOM     10  C   UNL     1      59.169   2.593  16.642  1.00  0.00     0.053 C 
BRANCH  10  11
ATOM     11  C   UNL     1      59.175   3.168  18.022  1.00  0.00     0.041 C 
ATOM     12  O   UNL     1      60.116   3.921  18.392  1.00  0.00    -0.550 OA
ATOM     13  O   UNL     1      58.118   2.913  18.887  1.00  0.00    -0.550 OA
ENDBRANCH  10  11
ENDBRANCH   9  10
ENDBRANCH   8   9
ENDBRANCH   1   8
TORSDOF 8
ENDMDL
MODEL 3
REMARK VINA RESULT:    -3.875      0.581      4.867
REMARK INTER + INTRA:          -6.125
REMARK INTER:                  -5.735
REMARK INTRA:                  -0.390
REMARK UNBOUND:                -0.438
REMARK SMILES O=C([O-])CCCCCCCC(=O)[O-]
REMARK SMILES IDX 7 1 6 2 5 3 4 4 2 5 1 6 3 7 8 8 9 9 10 10 11 11 12 12 13 13
REMARK H PARENT
REMARK Flexibility Score: inf
ROOT
ATOM      1  C   UNL     1      49.525   5.614  21.711  1.00  0.00     0.000 C 
ENDROOT
BRANCH   1   2
ATOM      2  C   UNL     1      48.365   6.495  21.219  1.00  0.00     0.000 C 
BRANCH   2   3
ATOM      3  C   UNL     1      48.845   7.826  20.619  1.00  0.00     0.006 C 
BRANCH   3   4
ATOM      4  C   UNL     1      50.373   7.924  20.656  1.00  0.00     0.053 C 
BRANCH   4   5
ATOM      5  C   UNL     1      50.909   8.287  19.308  1.00  0.00     0.041 C 
ATOM      6  O   UNL     1      51.620   7.468  18.668  1.00  0.00    -0.550 OA
ATOM      7  O   UNL     1      50.582   9.509  18.735  1.00  0.00    -0.550 OA
ENDBRANCH   4   5
ENDBRANCH   3   4
ENDBRANCH   2   3
ENDBRANCH   1   2
BRANCH   1   8
ATOM      8  C   UNL     1      49.225   4.110  21.571  1.00  0.00     0.000 C 
BRANCH   8   9
ATOM      9  C   UNL     1      50.497   3.272  21.365  1.00  0.00     0.006 C 
BRANCH   9  10
ATOM     10  C   UNL     1      50.513   2.541  20.016  1.00  0.00     0.053 C 
BRANCH  10  11
ATOM     11  C   UNL     1      51.752   2.883  19.253  1.00  0.00     0.041 C 
ATOM     12  O   UNL     1      51.864   4.008  18.696  1.00  0.00    -0.550 OA
ATOM     13  O   UNL     1      52.806   1.980  19.195  1.00  0.00    -0.550 OA
ENDBRANCH  10  11
ENDBRANCH   9  10
ENDBRANCH   8   9
ENDBRANCH   1   8
TORSDOF 8
ENDMDL
MODEL 4
REMARK VINA RESULT:    -3.836      4.173      7.875
REMARK INTER + INTRA:          -6.068
REMARK INTER:                  -5.669
REMARK INTRA:                  -0.399
REMARK UNBOUND:                -0.438
REMARK SMILES O=C([O-])CCCCCCCC(=O)[O-]
REMARK SMILES IDX 7 1 6 2 5 3 4 4 2 5 1 6 3 7 8 8 9 9 10 10 11 11 12 12 13 13
REMARK H PARENT
REMARK Flexibility Score: inf
ROOT
ATOM      1  C   UNL     1      49.305  11.114  18.860  1.00  0.00     0.000 C 
ENDROOT
BRANCH   1   2
ATOM      2  C   UNL     1      48.586  12.441  19.149  1.00  0.00     0.000 C 
BRANCH   2   3
ATOM      3  C   UNL     1      49.264  13.642  18.472  1.00  0.00     0.006 C 
BRANCH   3   4
ATOM      4  C   UNL     1      50.028  13.205  17.218  1.00  0.00     0.053 C 
BRANCH   4   5
ATOM      5  C   UNL     1      49.487  13.895  16.006  1.00  0.00     0.041 C 
ATOM      6  O   UNL     1      49.049  13.221  15.037  1.00  0.00    -0.550 OA
ATOM      7  O   UNL     1      49.418  15.282  15.968  1.00  0.00    -0.550 OA
ENDBRANCH   4   5
ENDBRANCH   3   4
ENDBRANCH   2   3
ENDBRANCH   1   2
BRANCH   1   8
ATOM      8  C   UNL     1      48.655   9.920  19.583  1.00  0.00     0.000 C 
BRANCH   8   9
ATOM      9  C   UNL     1      48.967   8.577  18.903  1.00  0.00     0.006 C 
BRANCH   9  10
ATOM     10  C   UNL     1      50.316   8.582  18.172  1.00  0.00     0.053 C 
BRANCH  10  11
ATOM     11  C   UNL     1      50.175   7.974  16.813  1.00  0.00     0.041 C 
ATOM     12  O   UNL     1      49.384   8.478  15.972  1.00  0.00    -0.550 OA
ATOM     13  O   UNL     1      50.953   6.880  16.456  1.00  0.00    -0.550 OA
ENDBRANCH  10  11
ENDBRANCH   9  10
ENDBRANCH   8   9
ENDBRANCH   1   8
TORSDOF 8
ENDMDL
MODEL 5
REMARK VINA RESULT:    -3.828      2.366      3.554
REMARK INTER + INTRA:          -6.056
REMARK INTER:                  -5.701
REMARK INTRA:                  -0.355
REMARK UNBOUND:                -0.438
REMARK SMILES O=C([O-])CCCCCCCC(=O)[O-]
REMARK SMILES IDX 7 1 6 2 5 3 4 4 2 5 1 6 3 7 8 8 9 9 10 10 11 11 12 12 13 13
REMARK H PARENT
REMARK Flexibility Score: inf
ROOT
ATOM      1  C   UNL     1      53.031   3.496  19.396  1.00  0.00     0.000 C 
ENDROOT
BRANCH   1   2
ATOM      2  C   UNL     1      52.670   2.010  19.242  1.00  0.00     0.000 C 
BRANCH   2   3
ATOM      3  C   UNL     1      52.560   1.283  20.591  1.00  0.00     0.006 C 
BRANCH   3   4
ATOM      4  C   UNL     1      52.082   2.237  21.689  1.00  0.00     0.053 C 
BRANCH   4   5
ATOM      5  C   UNL     1      50.590   2.349  21.675  1.00  0.00     0.041 C 
ATOM      6  O   UNL     1      50.039   3.477  21.770  1.00  0.00    -0.550 OA
ATOM      7  O   UNL     1      49.809   1.213  21.506  1.00  0.00    -0.550 OA
ENDBRANCH   4   5
ENDBRANCH   3   4
ENDBRANCH   2   3
ENDBRANCH   1   2
BRANCH   1   8
ATOM      8  C   UNL     1      52.037   4.424  18.675  1.00  0.00     0.000 C 
BRANCH   8   9
ATOM      9  C   UNL     1      52.576   5.854  18.512  1.00  0.00     0.006 C 
BRANCH   9  10
ATOM     10  C   UNL     1      51.508   6.837  18.015  1.00  0.00     0.053 C 
BRANCH  10  11
ATOM     11  C   UNL     1      50.985   7.657  19.152  1.00  0.00     0.041 C 
ATOM     12  O   UNL     1      50.497   7.093  20.168  1.00  0.00    -0.550 OA
ATOM     13  O   UNL     1      51.080   9.042  19.113  1.00  0.00    -0.550 OA
ENDBRANCH  10  11
ENDBRANCH   9  10
ENDBRANCH   8   9
ENDBRANCH   1   8
TORSDOF 8
ENDMDL
MODEL 6
REMARK VINA RESULT:    -3.821      2.468      5.913
REMARK INTER + INTRA:          -6.045
REMARK INTER:                  -5.691
REMARK INTRA:                  -0.354
REMARK UNBOUND:                -0.438
REMARK SMILES O=C([O-])CCCCCCCC(=O)[O-]
REMARK SMILES IDX 7 1 6 2 5 3 4 4 2 5 1 6 3 7 8 8 9 9 10 10 11 11 12 12 13 13
REMARK H PARENT
REMARK Flexibility Score: inf
ROOT
ATOM      1  C   UNL     1      52.299   6.139  18.384  1.00  0.00     0.000 C 
ENDROOT
BRANCH   1   2
ATOM      2  C   UNL     1      51.202   7.206  18.238  1.00  0.00     0.000 C 
BRANCH   2   3
ATOM      3  C   UNL     1      51.202   8.218  19.394  1.00  0.00     0.006 C 
BRANCH   3   4
ATOM      4  C   UNL     1      49.851   8.931  19.497  1.00  0.00     0.053 C 
BRANCH   4   5
ATOM      5  C   UNL     1      48.813   8.012  20.060  1.00  0.00     0.041 C 
ATOM      6  O   UNL     1      49.077   7.298  21.062  1.00  0.00    -0.550 OA
ATOM      7  O   UNL     1      47.538   7.982  19.510  1.00  0.00    -0.550 OA
ENDBRANCH   4   5
ENDBRANCH   3   4
ENDBRANCH   2   3
ENDBRANCH   1   2
BRANCH   1   8
ATOM      8  C   UNL     1      51.748   4.788  18.876  1.00  0.00     0.000 C 
BRANCH   8   9
ATOM      9  C   UNL     1      52.859   3.763  19.153  1.00  0.00     0.006 C 
BRANCH   9  10
ATOM     10  C   UNL     1      52.327   2.330  19.274  1.00  0.00     0.053 C 
BRANCH  10  11
ATOM     11  C   UNL     1      51.567   2.162  20.551  1.00  0.00     0.041 C 
ATOM     12  O   UNL     1      52.172   2.179  21.656  1.00  0.00    -0.550 OA
ATOM     13  O   UNL     1      50.184   2.036  20.527  1.00  0.00    -0.550 OA
ENDBRANCH  10  11
ENDBRANCH   9  10
ENDBRANCH   8   9
ENDBRANCH   1   8
TORSDOF 8
ENDMDL
MODEL 7
REMARK VINA RESULT:    -3.789      4.335      5.895
REMARK INTER + INTRA:          -5.999
REMARK INTER:                  -5.453
REMARK INTRA:                  -0.546
REMARK UNBOUND:                -0.438
REMARK SMILES O=C([O-])CCCCCCCC(=O)[O-]
REMARK SMILES IDX 7 1 6 2 5 3 4 4 2 5 1 6 3 7 8 8 9 9 10 10 11 11 12 12 13 13
REMARK H PARENT
REMARK Flexibility Score: inf
ROOT
ATOM      1  C   UNL     1      49.964   2.143  22.268  1.00  0.00     0.000 C 
ENDROOT
BRANCH   1   2
ATOM      2  C   UNL     1      49.987   0.614  22.432  1.00  0.00     0.000 C 
BRANCH   2   3
ATOM      3  C   UNL     1      51.377   0.078  22.808  1.00  0.00     0.006 C 
BRANCH   3   4
ATOM      4  C   UNL     1      51.833  -1.000  21.821  1.00  0.00     0.053 C 
BRANCH   4   5
ATOM      5  C   UNL     1      51.613  -2.364  22.393  1.00  0.00     0.041 C 
ATOM      6  O   UNL     1      51.964  -3.386  21.747  1.00  0.00    -0.550 OA
ATOM      7  O   UNL     1      51.066  -2.506  23.662  1.00  0.00    -0.550 OA
ENDBRANCH   4   5
ENDBRANCH   3   4
ENDBRANCH   2   3
ENDBRANCH   1   2
BRANCH   1   8
ATOM      8  C   UNL     1      51.162   2.668  21.457  1.00  0.00     0.000 C 
BRANCH   8   9
ATOM      9  C   UNL     1      50.928   2.588  19.940  1.00  0.00     0.006 C 
BRANCH   9  10
ATOM     10  C   UNL     1      52.156   3.018  19.127  1.00  0.00     0.053 C 
BRANCH  10  11
ATOM     11  C   UNL     1      53.372   2.281  19.591  1.00  0.00     0.041 C 
ATOM     12  O   UNL     1      53.467   1.038  19.412  1.00  0.00    -0.550 OA
ATOM     13  O   UNL     1      54.424   2.973  20.178  1.00  0.00    -0.550 OA
ENDBRANCH  10  11
ENDBRANCH   9  10
ENDBRANCH   8   9
ENDBRANCH   1   8
TORSDOF 8
ENDMDL
MODEL 8
REMARK VINA RESULT:    -3.773      4.649      5.885
REMARK INTER + INTRA:          -5.975
REMARK INTER:                  -5.710
REMARK INTRA:                  -0.265
REMARK UNBOUND:                -0.438
REMARK SMILES O=C([O-])CCCCCCCC(=O)[O-]
REMARK SMILES IDX 7 1 6 2 5 3 4 4 2 5 1 6 3 7 8 8 9 9 10 10 11 11 12 12 13 13
REMARK H PARENT
REMARK Flexibility Score: inf
ROOT
ATOM      1  C   UNL     1      47.342   1.617  19.910  1.00  0.00     0.000 C 
ENDROOT
BRANCH   1   2
ATOM      2  C   UNL     1      48.675   1.465  20.660  1.00  0.00     0.000 C 
BRANCH   2   3
ATOM      3  C   UNL     1      49.514   2.752  20.645  1.00  0.00     0.006 C 
BRANCH   3   4
ATOM      4  C   UNL     1      51.005   2.435  20.791  1.00  0.00     0.053 C 
BRANCH   4   5
ATOM      5  C   UNL     1      51.724   2.681  19.503  1.00  0.00     0.041 C 
ATOM      6  O   UNL     1      51.473   3.713  18.825  1.00  0.00    -0.550 OA
ATOM      7  O   UNL     1      52.707   1.798  19.075  1.00  0.00    -0.550 OA
ENDBRANCH   4   5
ENDBRANCH   3   4
ENDBRANCH   2   3
ENDBRANCH   1   2
BRANCH   1   8
ATOM      8  C   UNL     1      46.213   2.151  20.811  1.00  0.00     0.000 C 
BRANCH   8   9
ATOM      9  C   UNL     1      45.416   3.285  20.148  1.00  0.00     0.006 C 
BRANCH   9  10
ATOM     10  C   UNL     1      43.903   3.151  20.365  1.00  0.00     0.053 C 
BRANCH  10  11
ATOM     11  C   UNL     1      43.510   3.746  21.680  1.00  0.00     0.041 C 
ATOM     12  O   UNL     1      43.169   3.000  22.636  1.00  0.00    -0.550 OA
ATOM     13  O   UNL     1      43.568   5.121  21.867  1.00  0.00    -0.550 OA
ENDBRANCH  10  11
ENDBRANCH   9  10
ENDBRANCH   8   9
ENDBRANCH   1   8
TORSDOF 8
ENDMDL
MODEL 9
REMARK VINA RESULT:    -3.752      3.994      5.148
REMARK INTER + INTRA:          -5.945
REMARK INTER:                  -5.559
REMARK INTRA:                  -0.386
REMARK UNBOUND:                -0.438
REMARK SMILES O=C([O-])CCCCCCCC(=O)[O-]
REMARK SMILES IDX 7 1 6 2 5 3 4 4 2 5 1 6 3 7 8 8 9 9 10 10 11 11 12 12 13 13
REMARK H PARENT
REMARK Flexibility Score: inf
ROOT
ATOM      1  C   UNL     1      49.032   7.238  22.832  1.00  0.00     0.000 C 
ENDROOT
BRANCH   1   2
ATOM      2  C   UNL     1      49.660   8.510  23.423  1.00  0.00     0.000 C 
BRANCH   2   3
ATOM      3  C   UNL     1      50.323   8.266  24.787  1.00  0.00     0.006 C 
BRANCH   3   4
ATOM      4  C   UNL     1      50.467   6.767  25.066  1.00  0.00     0.053 C 
BRANCH   4   5
ATOM      5  C   UNL     1      50.041   6.449  26.464  1.00  0.00     0.041 C 
ATOM      6  O   UNL     1      50.241   5.301  26.941  1.00  0.00    -0.550 OA
ATOM      7  O   UNL     1      49.469   7.435  27.258  1.00  0.00    -0.550 OA
ENDBRANCH   4   5
ENDBRANCH   3   4
ENDBRANCH   2   3
ENDBRANCH   1   2
BRANCH   1   8
ATOM      8  C   UNL     1      49.607   6.881  21.449  1.00  0.00     0.000 C 
BRANCH   8   9
ATOM      9  C   UNL     1      49.241   7.917  20.374  1.00  0.00     0.006 C 
BRANCH   9  10
ATOM     10  C   UNL     1      50.473   8.579  19.745  1.00  0.00     0.053 C 
BRANCH  10  11
ATOM     11  C   UNL     1      50.827   7.905  18.458  1.00  0.00     0.041 C 
ATOM     12  O   UNL     1      51.663   6.963  18.446  1.00  0.00    -0.550 OA
ATOM     13  O   UNL     1      50.200   8.284  17.278  1.00  0.00    -0.550 OA
ENDBRANCH  10  11
ENDBRANCH   9  10
ENDBRANCH   8   9
ENDBRANCH   1   8
TORSDOF 8
ENDMDL
