MODEL 1
REMARK VINA RESULT:    -3.566      0.000      0.000
REMARK INTER + INTRA:          -4.969
REMARK INTER:                  -4.608
REMARK INTRA:                  -0.361
REMARK UNBOUND:                -0.361
REMARK SMILES CCCCCCC(=O)[O-]
REMARK SMILES IDX 5 1 6 2 7 3 8 4 9 5 4 6 3 7 2 8 1 9
REMARK H PARENT
REMARK Flexibility Score: inf
ROOT
ATOM      1  C   UNL     1      54.720  -1.795  31.258  1.00  0.00     0.006 C 
ENDROOT
BRANCH   1   2
ATOM      2  C   UNL     1      53.930  -1.447  29.992  1.00  0.00     0.053 C 
BRANCH   2   3
ATOM      3  C   UNL     1      54.805  -1.554  28.783  1.00  0.00     0.041 C 
ATOM      4  O   UNL     1      55.317  -2.661  28.467  1.00  0.00    -0.550 OA
ATOM      5  O   UNL     1      55.098  -0.422  28.032  1.00  0.00    -0.550 OA
ENDBRANCH   2   3
ENDBRANCH   1   2
BRANCH   1   6
ATOM      6  C   UNL     1      54.289  -3.132  31.883  1.00  0.00     0.000 C 
BRANCH   6   7
ATOM      7  C   UNL     1      55.317  -4.266  31.690  1.00  0.00    -0.000 C 
BRANCH   7   8
ATOM      8  C   UNL     1      56.764  -3.760  31.796  1.00  0.00    -0.003 C 
ATOM      9  C   UNL     1      57.587  -4.185  30.584  1.00  0.00     0.004 C 
ENDBRANCH   7   8
ENDBRANCH   6   7
ENDBRANCH   1   6
TORSDOF 5
ENDMDL
MODEL 2
REMARK VINA RESULT:    -3.527      2.687      3.667
REMARK INTER + INTRA:          -4.919
REMARK INTER:                  -4.550
REMARK INTRA:                  -0.369
REMARK UNBOUND:                -0.361
REMARK SMILES CCCCCCC(=O)[O-]
REMARK SMILES IDX 5 1 6 2 7 3 8 4 9 5 4 6 3 7 2 8 1 9
REMARK H PARENT
REMARK Flexibility Score: inf
ROOT
ATOM      1  C   UNL     1      56.131  -1.243  31.240  1.00  0.00     0.006 C 
ENDROOT
BRANCH   1   2
ATOM      2  C   UNL     1      55.437  -2.233  30.298  1.00  0.00     0.053 C 
BRANCH   2   3
ATOM      3  C   UNL     1      54.512  -1.511  29.370  1.00  0.00     0.041 C 
ATOM      4  O   UNL     1      54.893  -1.199  28.211  1.00  0.00    -0.550 OA
ATOM      5  O   UNL     1      53.245  -1.138  29.802  1.00  0.00    -0.550 OA
ENDBRANCH   2   3
ENDBRANCH   1   2
BRANCH   1   6
ATOM      6  C   UNL     1      57.662  -1.254  31.098  1.00  0.00     0.000 C 
BRANCH   6   7
ATOM      7  C   UNL     1      58.236   0.040  30.484  1.00  0.00    -0.000 C 
BRANCH   7   8
ATOM      8  C   UNL     1      57.143   1.082  30.203  1.00  0.00    -0.003 C 
ATOM      9  C   UNL     1      57.119   1.472  28.728  1.00  0.00     0.004 C 
ENDBRANCH   7   8
ENDBRANCH   6   7
ENDBRANCH   1   6
TORSDOF 5
ENDMDL
MODEL 3
REMARK VINA RESULT:    -3.496      1.590      2.348
REMARK INTER + INTRA:          -4.879
REMARK INTER:                  -4.409
REMARK INTRA:                  -0.470
REMARK UNBOUND:                -0.361
REMARK SMILES CCCCCCC(=O)[O-]
REMARK SMILES IDX 5 1 6 2 7 3 8 4 9 5 4 6 3 7 2 8 1 9
REMARK H PARENT
REMARK Flexibility Score: inf
ROOT
ATOM      1  C   UNL     1      57.176  -1.469  30.977  1.00  0.00     0.006 C 
ENDROOT
BRANCH   1   2
ATOM      2  C   UNL     1      55.835  -0.749  31.160  1.00  0.00     0.053 C 
BRANCH   2   3
ATOM      3  C   UNL     1      54.816  -1.291  30.208  1.00  0.00     0.041 C 
ATOM      4  O   UNL     1      53.619  -1.433  30.574  1.00  0.00    -0.550 OA
ATOM      5  O   UNL     1      55.197  -1.689  28.932  1.00  0.00    -0.550 OA
ENDBRANCH   2   3
ENDBRANCH   1   2
BRANCH   1   6
ATOM      6  C   UNL     1      57.258  -2.789  31.762  1.00  0.00     0.000 C 
BRANCH   6   7
ATOM      7  C   UNL     1      57.401  -4.035  30.863  1.00  0.00    -0.000 C 
BRANCH   7   8
ATOM      8  C   UNL     1      56.054  -4.731  30.617  1.00  0.00    -0.003 C 
ATOM      9  C   UNL     1      55.171  -4.677  31.860  1.00  0.00     0.004 C 
ENDBRANCH   7   8
ENDBRANCH   6   7
ENDBRANCH   1   6
TORSDOF 5
ENDMDL
MODEL 4
REMARK VINA RESULT:    -3.427      2.319      2.818
REMARK INTER + INTRA:          -4.789
REMARK INTER:                  -4.617
REMARK INTRA:                  -0.172
REMARK UNBOUND:                -0.361
REMARK SMILES CCCCCCC(=O)[O-]
REMARK SMILES IDX 5 1 6 2 7 3 8 4 9 5 4 6 3 7 2 8 1 9
REMARK H PARENT
REMARK Flexibility Score: inf
ROOT
ATOM      1  C   UNL     1      55.805  -1.121  30.260  1.00  0.00     0.006 C 
ENDROOT
BRANCH   1   2
ATOM      2  C   UNL     1      56.602   0.098  30.738  1.00  0.00     0.053 C 
BRANCH   2   3
ATOM      3  C   UNL     1      57.497   0.599  29.648  1.00  0.00     0.041 C 
ATOM      4  O   UNL     1      58.664   0.143  29.526  1.00  0.00    -0.550 OA
ATOM      5  O   UNL     1      57.059   1.607  28.798  1.00  0.00    -0.550 OA
ENDBRANCH   2   3
ENDBRANCH   1   2
BRANCH   1   6
ATOM      6  C   UNL     1      54.450  -1.267  30.973  1.00  0.00     0.000 C 
BRANCH   6   7
ATOM      7  C   UNL     1      54.279  -2.613  31.706  1.00  0.00    -0.000 C 
BRANCH   7   8
ATOM      8  C   UNL     1      55.555  -3.469  31.653  1.00  0.00    -0.003 C 
ATOM      9  C   UNL     1      55.232  -4.950  31.823  1.00  0.00     0.004 C 
ENDBRANCH   7   8
ENDBRANCH   6   7
ENDBRANCH   1   6
TORSDOF 5
ENDMDL
MODEL 5
REMARK VINA RESULT:    -3.416      1.062      1.616
REMARK INTER + INTRA:          -4.775
REMARK INTER:                  -4.411
REMARK INTRA:                  -0.364
REMARK UNBOUND:                -0.361
REMARK SMILES CCCCCCC(=O)[O-]
REMARK SMILES IDX 5 1 6 2 7 3 8 4 9 5 4 6 3 7 2 8 1 9
REMARK H PARENT
REMARK Flexibility Score: inf
ROOT
ATOM      1  C   UNL     1      54.430  -3.139  31.774  1.00  0.00     0.006 C 
ENDROOT
BRANCH   1   2
ATOM      2  C   UNL     1      55.042  -1.878  31.153  1.00  0.00     0.053 C 
BRANCH   2   3
ATOM      3  C   UNL     1      54.525  -1.675  29.764  1.00  0.00     0.041 C 
ATOM      4  O   UNL     1      55.285  -1.844  28.773  1.00  0.00    -0.550 OA
ATOM      5  O   UNL     1      53.218  -1.249  29.563  1.00  0.00    -0.550 OA
ENDBRANCH   2   3
ENDBRANCH   1   2
BRANCH   1   6
ATOM      6  C   UNL     1      55.391  -4.338  31.763  1.00  0.00     0.000 C 
BRANCH   6   7
ATOM      7  C   UNL     1      56.881  -3.937  31.749  1.00  0.00    -0.000 C 
BRANCH   7   8
ATOM      8  C   UNL     1      57.588  -4.378  30.458  1.00  0.00    -0.003 C 
ATOM      9  C   UNL     1      58.359  -3.222  29.829  1.00  0.00     0.004 C 
ENDBRANCH   7   8
ENDBRANCH   6   7
ENDBRANCH   1   6
TORSDOF 5
ENDMDL
MODEL 6
REMARK VINA RESULT:    -3.290      2.646      3.941
REMARK INTER + INTRA:          -4.613
REMARK INTER:                  -4.288
REMARK INTRA:                  -0.324
REMARK UNBOUND:                -0.361
REMARK SMILES CCCCCCC(=O)[O-]
REMARK SMILES IDX 5 1 6 2 7 3 8 4 9 5 4 6 3 7 2 8 1 9
REMARK H PARENT
REMARK Flexibility Score: inf
ROOT
ATOM      1  C   UNL     1      55.774  -1.166  30.989  1.00  0.00     0.006 C 
ENDROOT
BRANCH   1   2
ATOM      2  C   UNL     1      55.413  -2.639  31.209  1.00  0.00     0.053 C 
BRANCH   2   3
ATOM      3  C   UNL     1      56.119  -3.505  30.214  1.00  0.00     0.041 C 
ATOM      4  O   UNL     1      55.958  -3.314  28.980  1.00  0.00    -0.550 OA
ATOM      5  O   UNL     1      56.916  -4.557  30.649  1.00  0.00    -0.550 OA
ENDBRANCH   2   3
ENDBRANCH   1   2
BRANCH   1   6
ATOM      6  C   UNL     1      57.160  -0.800  31.546  1.00  0.00     0.000 C 
BRANCH   6   7
ATOM      7  C   UNL     1      58.081  -0.119  30.512  1.00  0.00    -0.000 C 
BRANCH   7   8
ATOM      8  C   UNL     1      57.408   0.020  29.138  1.00  0.00    -0.003 C 
ATOM      9  C   UNL     1      57.087   1.479  28.827  1.00  0.00     0.004 C 
ENDBRANCH   7   8
ENDBRANCH   6   7
ENDBRANCH   1   6
TORSDOF 5
ENDMDL
MODEL 7
REMARK VINA RESULT:    -3.249      2.406      3.232
REMARK INTER + INTRA:          -4.559
REMARK INTER:                  -4.278
REMARK INTRA:                  -0.281
REMARK UNBOUND:                -0.361
REMARK SMILES CCCCCCC(=O)[O-]
REMARK SMILES IDX 5 1 6 2 7 3 8 4 9 5 4 6 3 7 2 8 1 9
REMARK H PARENT
REMARK Flexibility Score: inf
ROOT
ATOM      1  C   UNL     1      57.893  -2.059  31.697  1.00  0.00     0.006 C 
ENDROOT
BRANCH   1   2
ATOM      2  C   UNL     1      58.022  -0.978  30.619  1.00  0.00     0.053 C 
BRANCH   2   3
ATOM      3  C   UNL     1      56.910   0.015  30.738  1.00  0.00     0.041 C 
ATOM      4  O   UNL     1      55.865  -0.276  31.378  1.00  0.00    -0.550 OA
ATOM      5  O   UNL     1      57.005   1.246  30.099  1.00  0.00    -0.550 OA
ENDBRANCH   2   3
ENDBRANCH   1   2
BRANCH   1   6
ATOM      6  C   UNL     1      57.964  -3.485  31.126  1.00  0.00     0.000 C 
BRANCH   6   7
ATOM      7  C   UNL     1      56.625  -3.988  30.549  1.00  0.00    -0.000 C 
BRANCH   7   8
ATOM      8  C   UNL     1      55.714  -4.585  31.633  1.00  0.00    -0.003 C 
ATOM      9  C   UNL     1      54.576  -3.632  31.984  1.00  0.00     0.004 C 
ENDBRANCH   7   8
ENDBRANCH   6   7
ENDBRANCH   1   6
TORSDOF 5
ENDMDL
MODEL 8
REMARK VINA RESULT:    -3.244      3.107      3.777
REMARK INTER + INTRA:          -4.553
REMARK INTER:                  -4.335
REMARK INTRA:                  -0.218
REMARK UNBOUND:                -0.361
REMARK SMILES CCCCCCC(=O)[O-]
REMARK SMILES IDX 5 1 6 2 7 3 8 4 9 5 4 6 3 7 2 8 1 9
REMARK H PARENT
REMARK Flexibility Score: inf
ROOT
ATOM      1  C   UNL     1      56.240  -0.797  29.975  1.00  0.00     0.006 C 
ENDROOT
BRANCH   1   2
ATOM      2  C   UNL     1      55.368  -0.809  31.236  1.00  0.00     0.053 C 
BRANCH   2   3
ATOM      3  C   UNL     1      54.095  -1.553  30.985  1.00  0.00     0.041 C 
ATOM      4  O   UNL     1      53.731  -2.470  31.768  1.00  0.00    -0.550 OA
ATOM      5  O   UNL     1      53.334  -1.269  29.858  1.00  0.00    -0.550 OA
ENDBRANCH   2   3
ENDBRANCH   1   2
BRANCH   1   6
ATOM      6  C   UNL     1      57.239   0.371  29.950  1.00  0.00     0.000 C 
BRANCH   6   7
ATOM      7  C   UNL     1      58.687  -0.061  29.637  1.00  0.00    -0.000 C 
BRANCH   7   8
ATOM      8  C   UNL     1      59.291  -0.920  30.759  1.00  0.00    -0.003 C 
ATOM      9  C   UNL     1      59.082  -0.270  32.124  1.00  0.00     0.004 C 
ENDBRANCH   7   8
ENDBRANCH   6   7
ENDBRANCH   1   6
TORSDOF 5
ENDMDL
MODEL 9
REMARK VINA RESULT:    -3.189      2.662      3.597
REMARK INTER + INTRA:          -4.482
REMARK INTER:                  -4.189
REMARK INTRA:                  -0.293
REMARK UNBOUND:                -0.361
REMARK SMILES CCCCCCC(=O)[O-]
REMARK SMILES IDX 5 1 6 2 7 3 8 4 9 5 4 6 3 7 2 8 1 9
REMARK H PARENT
REMARK Flexibility Score: inf
ROOT
ATOM      1  C   UNL     1      59.162  -0.971  29.524  1.00  0.00     0.006 C 
ENDROOT
BRANCH   1   2
ATOM      2  C   UNL     1      58.200   0.017  30.193  1.00  0.00     0.053 C 
BRANCH   2   3
ATOM      3  C   UNL     1      57.103   0.401  29.249  1.00  0.00     0.041 C 
ATOM      4  O   UNL     1      56.267  -0.459  28.867  1.00  0.00    -0.550 OA
ATOM      5  O   UNL     1      57.035   1.696  28.752  1.00  0.00    -0.550 OA
ENDBRANCH   2   3
ENDBRANCH   1   2
BRANCH   1   6
ATOM      6  C   UNL     1      59.325  -2.277  30.318  1.00  0.00     0.000 C 
BRANCH   6   7
ATOM      7  C   UNL     1      58.595  -3.481  29.686  1.00  0.00    -0.000 C 
BRANCH   7   8
ATOM      8  C   UNL     1      57.576  -4.111  30.648  1.00  0.00    -0.003 C 
ATOM      9  C   UNL     1      57.748  -3.570  32.064  1.00  0.00     0.004 C 
ENDBRANCH   7   8
ENDBRANCH   6   7
ENDBRANCH   1   6
TORSDOF 5
ENDMDL
