MODEL 1
REMARK VINA RESULT:    -6.519      0.000      0.000
REMARK INTER + INTRA:          -9.212
REMARK INTER:                  -8.234
REMARK INTRA:                  -0.978
REMARK UNBOUND:                -0.978
REMARK SMILES CC(C)[C@H](C)C=C[C@@H](C)[C@@H]1CC[C@H]2C3=CC=C4C[C@H](O)CC[C@]4(C)[C@H]3CC[C@]21C
REMARK SMILES IDX 8 1 9 2 7 3 6 4 4 5 5 6 2 7 1 8 3 9 10 10 11 11 28 12 12 13
REMARK SMILES IDX 13 14 27 15 29 16 14 17 26 18 25 19 15 20 23 21 16 22 17 23
REMARK SMILES IDX 22 24 24 25 18 26 21 27 19 28 20 29
REMARK H PARENT 20 30
REMARK Flexibility Score: inf
ROOT
ATOM      1  C   UNL     1     136.043 132.552 141.477  1.00  0.00     0.012 C 
ATOM      2  C   UNL     1     135.398 131.936 142.735  1.00  0.00     0.012 C 
ENDROOT
BRANCH   1   3
ATOM      3  C   UNL     1     135.658 134.018 141.405  1.00  0.00    -0.028 C 
ATOM      4  C   UNL     1     136.559 134.990 141.621  1.00  0.00    -0.028 C 
BRANCH   4   5
ATOM      5  C   UNL     1     136.179 136.453 141.525  1.00  0.00     0.011 C 
ATOM      6  C   UNL     1     134.679 136.551 141.199  1.00  0.00     0.012 C 
BRANCH   5   7
ATOM      7  C   UNL     1     136.549 137.213 142.835  1.00  0.00    -0.011 C 
ATOM      8  C   UNL     1     138.052 137.523 142.924  1.00  0.00     0.008 C 
ATOM      9  C   UNL     1     136.131 136.405 144.079  1.00  0.00     0.008 C 
ENDBRANCH   5   7
ENDBRANCH   4   5
ENDBRANCH   1   3
BRANCH   1  10
ATOM     10  C   UNL     1     135.691 131.821 140.135  1.00  0.00     0.002 C 
ATOM     11  C   UNL     1     135.298 130.354 140.266  1.00  0.00     0.005 C 
ATOM     12  C   UNL     1     136.713 131.883 138.938  1.00  0.00    -0.023 C 
ATOM     13  C   UNL     1     135.252 129.875 138.829  1.00  0.00     0.009 C 
ATOM     14  C   UNL     1     136.464 130.540 138.159  1.00  0.00     0.021 C 
ATOM     15  C   UNL     1     136.397 133.133 138.048  1.00  0.00     0.008 C 
ATOM     16  C   UNL     1     138.193 131.949 139.409  1.00  0.00     0.012 C 
ATOM     17  C   UNL     1     136.374 130.752 136.654  1.00  0.00    -0.063 C 
ATOM     18  C   UNL     1     137.052 133.130 136.639  1.00  0.00     0.009 C 
ATOM     19  C   UNL     1     137.381 131.720 136.081  1.00  0.00     0.025 C 
ATOM     20  C   UNL     1     135.390 130.258 135.886  1.00  0.00    -0.000 C 
ATOM     21  C   UNL     1     137.561 131.616 134.509  1.00  0.00    -0.005 C 
ATOM     22  C   UNL     1     135.285 130.593 134.462  1.00  0.00    -0.000 C 
ATOM     23  C   UNL     1     136.257 131.248 133.806  1.00  0.00    -0.061 C 
ATOM     24  C   UNL     1     138.557 130.462 134.179  1.00  0.00     0.014 C 
ATOM     25  C   UNL     1     138.133 132.951 133.949  1.00  0.00     0.017 C 
ATOM     26  C   UNL     1     136.319 131.089 132.308  1.00  0.00     0.063 C 
ATOM     27  C   UNL     1     138.668 130.145 132.665  1.00  0.00     0.033 C 
ATOM     28  C   UNL     1     137.299 129.946 131.976  1.00  0.00     0.118 C 
BRANCH  28  29
ATOM     29  O   UNL     1     136.757 128.714 132.379  1.00  0.00    -0.393 OA
ATOM     30  H   UNL     1     136.552 128.203 131.551  1.00  0.00     0.210 HD
ENDBRANCH  28  29
ENDBRANCH   1  10
TORSDOF 5
ENDMDL
MODEL 2
REMARK VINA RESULT:    -6.510      4.345      8.790
REMARK INTER + INTRA:          -9.201
REMARK INTER:                  -7.984
REMARK INTRA:                  -1.217
REMARK UNBOUND:                -0.978
REMARK SMILES CC(C)[C@H](C)C=C[C@@H](C)[C@@H]1CC[C@H]2C3=CC=C4C[C@H](O)CC[C@]4(C)[C@H]3CC[C@]21C
REMARK SMILES IDX 8 1 9 2 7 3 6 4 4 5 5 6 2 7 1 8 3 9 10 10 11 11 28 12 12 13
REMARK SMILES IDX 13 14 27 15 29 16 14 17 26 18 25 19 15 20 23 21 16 22 17 23
REMARK SMILES IDX 22 24 24 25 18 26 21 27 19 28 20 29
REMARK H PARENT 20 30
REMARK Flexibility Score: inf
ROOT
ATOM      1  C   UNL     1     133.094 129.544 143.199  1.00  0.00     0.012 C 
ATOM      2  C   UNL     1     132.869 128.485 144.297  1.00  0.00     0.012 C 
ENDROOT
BRANCH   1   3
ATOM      3  C   UNL     1     132.972 128.871 141.846  1.00  0.00    -0.028 C 
ATOM      4  C   UNL     1     133.865 129.095 140.868  1.00  0.00    -0.028 C 
BRANCH   4   5
ATOM      5  C   UNL     1     133.756 128.404 139.525  1.00  0.00     0.011 C 
ATOM      6  C   UNL     1     132.412 127.656 139.465  1.00  0.00     0.012 C 
BRANCH   5   7
ATOM      7  C   UNL     1     133.916 129.424 138.357  1.00  0.00    -0.011 C 
ATOM      8  C   UNL     1     133.913 128.738 136.981  1.00  0.00     0.008 C 
ATOM      9  C   UNL     1     135.216 130.236 138.507  1.00  0.00     0.008 C 
ENDBRANCH   5   7
ENDBRANCH   4   5
ENDBRANCH   1   3
BRANCH   1  10
ATOM     10  C   UNL     1     134.452 130.323 143.308  1.00  0.00     0.002 C 
ATOM     11  C   UNL     1     135.402 129.842 144.401  1.00  0.00     0.005 C 
ATOM     12  C   UNL     1     134.427 131.893 143.426  1.00  0.00    -0.023 C 
ATOM     13  C   UNL     1     136.482 130.904 144.415  1.00  0.00     0.009 C 
ATOM     14  C   UNL     1     135.725 132.231 144.247  1.00  0.00     0.021 C 
ATOM     15  C   UNL     1     134.471 132.523 141.993  1.00  0.00     0.008 C 
ATOM     16  C   UNL     1     133.177 132.424 144.183  1.00  0.00     0.012 C 
ATOM     17  C   UNL     1     136.510 133.386 143.639  1.00  0.00    -0.063 C 
ATOM     18  C   UNL     1     134.834 134.032 141.940  1.00  0.00     0.009 C 
ATOM     19  C   UNL     1     135.673 134.539 143.144  1.00  0.00     0.025 C 
ATOM     20  C   UNL     1     137.830 133.350 143.400  1.00  0.00    -0.000 C 
ATOM     21  C   UNL     1     136.486 135.880 142.912  1.00  0.00    -0.005 C 
ATOM     22  C   UNL     1     138.515 134.443 142.703  1.00  0.00    -0.000 C 
ATOM     23  C   UNL     1     137.910 135.611 142.435  1.00  0.00    -0.061 C 
ATOM     24  C   UNL     1     136.634 136.636 144.269  1.00  0.00     0.014 C 
ATOM     25  C   UNL     1     135.730 136.796 141.906  1.00  0.00     0.017 C 
ATOM     26  C   UNL     1     138.788 136.818 142.214  1.00  0.00     0.063 C 
ATOM     27  C   UNL     1     137.571 137.870 144.201  1.00  0.00     0.033 C 
ATOM     28  C   UNL     1     138.941 137.565 143.554  1.00  0.00     0.118 C 
BRANCH  28  29
ATOM     29  O   UNL     1     139.712 136.802 144.446  1.00  0.00    -0.393 OA
ATOM     30  H   UNL     1     139.286 135.905 144.501  1.00  0.00     0.210 HD
ENDBRANCH  28  29
ENDBRANCH   1  10
TORSDOF 5
ENDMDL
MODEL 3
REMARK VINA RESULT:    -6.472      7.533     10.415
REMARK INTER + INTRA:          -9.153
REMARK INTER:                  -8.401
REMARK INTRA:                  -0.752
REMARK UNBOUND:                -0.978
REMARK SMILES CC(C)[C@H](C)C=C[C@@H](C)[C@@H]1CC[C@H]2C3=CC=C4C[C@H](O)CC[C@]4(C)[C@H]3CC[C@]21C
REMARK SMILES IDX 8 1 9 2 7 3 6 4 4 5 5 6 2 7 1 8 3 9 10 10 11 11 28 12 12 13
REMARK SMILES IDX 13 14 27 15 29 16 14 17 26 18 25 19 15 20 23 21 16 22 17 23
REMARK SMILES IDX 22 24 24 25 18 26 21 27 19 28 20 29
REMARK H PARENT 20 30
REMARK Flexibility Score: inf
ROOT
ATOM      1  C   UNL     1     129.534 125.714 144.328  1.00  0.00     0.012 C 
ATOM      2  C   UNL     1     128.772 126.677 145.259  1.00  0.00     0.012 C 
ENDROOT
BRANCH   1   3
ATOM      3  C   UNL     1     130.324 124.740 145.182  1.00  0.00    -0.028 C 
ATOM      4  C   UNL     1     129.852 124.298 146.359  1.00  0.00    -0.028 C 
BRANCH   4   5
ATOM      5  C   UNL     1     130.630 123.307 147.200  1.00  0.00     0.011 C 
ATOM      6  C   UNL     1     131.112 124.017 148.477  1.00  0.00     0.012 C 
BRANCH   5   7
ATOM      7  C   UNL     1     129.770 122.046 147.515  1.00  0.00    -0.011 C 
ATOM      8  C   UNL     1     130.598 120.923 148.160  1.00  0.00     0.008 C 
ATOM      9  C   UNL     1     129.099 121.502 146.239  1.00  0.00     0.008 C 
ENDBRANCH   5   7
ENDBRANCH   4   5
ENDBRANCH   1   3
BRANCH   1  10
ATOM     10  C   UNL     1     130.469 126.415 143.282  1.00  0.00     0.002 C 
ATOM     11  C   UNL     1     130.763 127.889 143.544  1.00  0.00     0.005 C 
ATOM     12  C   UNL     1     130.115 126.317 141.751  1.00  0.00    -0.023 C 
ATOM     13  C   UNL     1     131.468 128.333 142.279  1.00  0.00     0.009 C 
ATOM     14  C   UNL     1     130.700 127.643 141.141  1.00  0.00     0.021 C 
ATOM     15  C   UNL     1     130.801 125.050 141.138  1.00  0.00     0.008 C 
ATOM     16  C   UNL     1     128.584 126.251 141.487  1.00  0.00     0.012 C 
ATOM     17  C   UNL     1     131.474 127.396 139.853  1.00  0.00    -0.063 C 
ATOM     18  C   UNL     1     130.870 125.014 139.586  1.00  0.00     0.009 C 
ATOM     19  C   UNL     1     130.841 126.408 138.905  1.00  0.00     0.025 C 
ATOM     20  C   UNL     1     132.703 127.880 139.614  1.00  0.00    -0.000 C 
ATOM     21  C   UNL     1     131.407 126.473 137.425  1.00  0.00    -0.005 C 
ATOM     22  C   UNL     1     133.452 127.513 138.408  1.00  0.00    -0.000 C 
ATOM     23  C   UNL     1     132.890 126.835 137.395  1.00  0.00    -0.061 C 
ATOM     24  C   UNL     1     130.681 127.612 136.644  1.00  0.00     0.014 C 
ATOM     25  C   UNL     1     131.153 125.121 136.697  1.00  0.00     0.017 C 
ATOM     26  C   UNL     1     133.527 126.958 136.033  1.00  0.00     0.063 C 
ATOM     27  C   UNL     1     131.282 127.891 135.242  1.00  0.00     0.033 C 
ATOM     28  C   UNL     1     132.815 128.085 135.259  1.00  0.00     0.118 C 
BRANCH  28  29
ATOM     29  O   UNL     1     133.115 129.330 135.836  1.00  0.00    -0.393 OA
ATOM     30  H   UNL     1     132.703 130.025 135.256  1.00  0.00     0.210 HD
ENDBRANCH  28  29
ENDBRANCH   1  10
TORSDOF 5
ENDMDL
MODEL 4
REMARK VINA RESULT:    -6.336      7.793     12.106
REMARK INTER + INTRA:          -8.981
REMARK INTER:                  -7.724
REMARK INTRA:                  -1.257
REMARK UNBOUND:                -0.978
REMARK SMILES CC(C)[C@H](C)C=C[C@@H](C)[C@@H]1CC[C@H]2C3=CC=C4C[C@H](O)CC[C@]4(C)[C@H]3CC[C@]21C
REMARK SMILES IDX 8 1 9 2 7 3 6 4 4 5 5 6 2 7 1 8 3 9 10 10 11 11 28 12 12 13
REMARK SMILES IDX 13 14 27 15 29 16 14 17 26 18 25 19 15 20 23 21 16 22 17 23
REMARK SMILES IDX 22 24 24 25 18 26 21 27 19 28 20 29
REMARK H PARENT 20 30
REMARK Flexibility Score: inf
ROOT
ATOM      1  C   UNL     1     130.833 127.032 138.989  1.00  0.00     0.012 C 
ATOM      2  C   UNL     1     130.355 126.214 137.773  1.00  0.00     0.012 C 
ENDROOT
BRANCH   1   3
ATOM      3  C   UNL     1     132.187 127.636 138.663  1.00  0.00    -0.028 C 
ATOM      4  C   UNL     1     133.024 128.043 139.631  1.00  0.00    -0.028 C 
BRANCH   4   5
ATOM      5  C   UNL     1     134.385 128.622 139.306  1.00  0.00     0.011 C 
ATOM      6  C   UNL     1     134.246 129.549 138.086  1.00  0.00     0.012 C 
BRANCH   5   7
ATOM      7  C   UNL     1     134.987 129.360 140.541  1.00  0.00    -0.011 C 
ATOM      8  C   UNL     1     136.189 128.609 141.137  1.00  0.00     0.008 C 
ATOM      9  C   UNL     1     133.925 129.555 141.639  1.00  0.00     0.008 C 
ENDBRANCH   5   7
ENDBRANCH   4   5
ENDBRANCH   1   3
BRANCH   1  10
ATOM     10  C   UNL     1     130.896 126.231 140.336  1.00  0.00     0.002 C 
ATOM     11  C   UNL     1     130.680 124.726 140.219  1.00  0.00     0.005 C 
ATOM     12  C   UNL     1     130.001 126.696 141.545  1.00  0.00    -0.023 C 
ATOM     13  C   UNL     1     130.560 124.277 141.661  1.00  0.00     0.009 C 
ATOM     14  C   UNL     1     129.717 125.368 142.339  1.00  0.00     0.021 C 
ATOM     15  C   UNL     1     130.796 127.728 142.415  1.00  0.00     0.008 C 
ATOM     16  C   UNL     1     128.656 127.333 141.095  1.00  0.00     0.012 C 
ATOM     17  C   UNL     1     129.910 125.538 143.840  1.00  0.00    -0.063 C 
ATOM     18  C   UNL     1     130.218 127.991 143.832  1.00  0.00     0.009 C 
ATOM     19  C   UNL     1     129.373 126.826 144.413  1.00  0.00     0.025 C 
ATOM     20  C   UNL     1     130.635 124.703 144.600  1.00  0.00    -0.000 C 
ATOM     21  C   UNL     1     129.194 126.811 145.988  1.00  0.00    -0.005 C 
ATOM     22  C   UNL     1     130.888 124.979 146.018  1.00  0.00    -0.000 C 
ATOM     23  C   UNL     1     130.262 125.967 146.678  1.00  0.00    -0.061 C 
ATOM     24  C   UNL     1     127.832 126.141 146.348  1.00  0.00     0.014 C 
ATOM     25  C   UNL     1     129.201 128.267 146.540  1.00  0.00     0.017 C 
ATOM     26  C   UNL     1     130.169 125.855 148.179  1.00  0.00     0.063 C 
ATOM     27  C   UNL     1     127.632 125.904 147.867  1.00  0.00     0.033 C 
ATOM     28  C   UNL     1     128.826 125.189 148.539  1.00  0.00     0.118 C 
BRANCH  28  29
ATOM     29  O   UNL     1     128.836 123.841 148.145  1.00  0.00    -0.393 OA
ATOM     30  H   UNL     1     129.648 123.428 148.544  1.00  0.00     0.210 HD
ENDBRANCH  28  29
ENDBRANCH   1  10
TORSDOF 5
ENDMDL
MODEL 5
REMARK VINA RESULT:    -6.176      6.929     10.469
REMARK INTER + INTRA:          -8.779
REMARK INTER:                  -7.517
REMARK INTRA:                  -1.262
REMARK UNBOUND:                -0.978
REMARK SMILES CC(C)[C@H](C)C=C[C@@H](C)[C@@H]1CC[C@H]2C3=CC=C4C[C@H](O)CC[C@]4(C)[C@H]3CC[C@]21C
REMARK SMILES IDX 8 1 9 2 7 3 6 4 4 5 5 6 2 7 1 8 3 9 10 10 11 11 28 12 12 13
REMARK SMILES IDX 13 14 27 15 29 16 14 17 26 18 25 19 15 20 23 21 16 22 17 23
REMARK SMILES IDX 22 24 24 25 18 26 21 27 19 28 20 29
REMARK H PARENT 20 30
REMARK Flexibility Score: inf
ROOT
ATOM      1  C   UNL     1     130.314 124.596 140.675  1.00  0.00     0.012 C 
ATOM      2  C   UNL     1     130.337 124.981 142.167  1.00  0.00     0.012 C 
ENDROOT
BRANCH   1   3
ATOM      3  C   UNL     1     130.884 123.198 140.527  1.00  0.00    -0.028 C 
ATOM      4  C   UNL     1     130.231 122.242 139.846  1.00  0.00    -0.028 C 
BRANCH   4   5
ATOM      5  C   UNL     1     130.813 120.854 139.678  1.00  0.00     0.011 C 
ATOM      6  C   UNL     1     130.012 119.877 140.556  1.00  0.00     0.012 C 
BRANCH   5   7
ATOM      7  C   UNL     1     130.821 120.429 138.179  1.00  0.00    -0.011 C 
ATOM      8  C   UNL     1     132.242 120.391 137.593  1.00  0.00     0.008 C 
ATOM      9  C   UNL     1     129.956 121.381 137.330  1.00  0.00     0.008 C 
ENDBRANCH   5   7
ENDBRANCH   4   5
ENDBRANCH   1   3
BRANCH   1  10
ATOM     10  C   UNL     1     131.058 125.599 139.726  1.00  0.00     0.002 C 
ATOM     11  C   UNL     1     131.497 126.911 140.368  1.00  0.00     0.005 C 
ATOM     12  C   UNL     1     130.390 125.997 138.357  1.00  0.00    -0.023 C 
ATOM     13  C   UNL     1     131.955 127.741 139.186  1.00  0.00     0.009 C 
ATOM     14  C   UNL     1     130.925 127.451 138.084  1.00  0.00     0.021 C 
ATOM     15  C   UNL     1     130.850 124.997 137.243  1.00  0.00     0.008 C 
ATOM     16  C   UNL     1     128.837 126.015 138.423  1.00  0.00     0.012 C 
ATOM     17  C   UNL     1     131.399 127.634 136.649  1.00  0.00    -0.063 C 
ATOM     18  C   UNL     1     130.595 125.462 135.783  1.00  0.00     0.009 C 
ATOM     19  C   UNL     1     130.520 127.001 135.598  1.00  0.00     0.025 C 
ATOM     20  C   UNL     1     132.582 128.172 136.314  1.00  0.00    -0.000 C 
ATOM     21  C   UNL     1     130.772 127.540 134.129  1.00  0.00    -0.005 C 
ATOM     22  C   UNL     1     133.041 128.215 134.922  1.00  0.00    -0.000 C 
ATOM     23  C   UNL     1     132.238 127.897 133.893  1.00  0.00    -0.061 C 
ATOM     24  C   UNL     1     129.979 128.867 133.922  1.00  0.00     0.014 C 
ATOM     25  C   UNL     1     130.285 126.493 133.085  1.00  0.00     0.017 C 
ATOM     26  C   UNL     1     132.587 128.454 132.536  1.00  0.00     0.063 C 
ATOM     27  C   UNL     1     130.295 129.585 132.584  1.00  0.00     0.033 C 
ATOM     28  C   UNL     1     131.809 129.768 132.329  1.00  0.00     0.118 C 
BRANCH  28  29
ATOM     29  O   UNL     1     132.303 130.762 133.189  1.00  0.00    -0.393 OA
ATOM     30  H   UNL     1     133.254 130.913 132.941  1.00  0.00     0.210 HD
ENDBRANCH  28  29
ENDBRANCH   1  10
TORSDOF 5
ENDMDL
MODEL 6
REMARK VINA RESULT:    -6.133      3.082      8.407
REMARK INTER + INTRA:          -8.725
REMARK INTER:                  -7.685
REMARK INTRA:                  -1.040
REMARK UNBOUND:                -0.978
REMARK SMILES CC(C)[C@H](C)C=C[C@@H](C)[C@@H]1CC[C@H]2C3=CC=C4C[C@H](O)CC[C@]4(C)[C@H]3CC[C@]21C
REMARK SMILES IDX 8 1 9 2 7 3 6 4 4 5 5 6 2 7 1 8 3 9 10 10 11 11 28 12 12 13
REMARK SMILES IDX 13 14 27 15 29 16 14 17 26 18 25 19 15 20 23 21 16 22 17 23
REMARK SMILES IDX 22 24 24 25 18 26 21 27 19 28 20 29
REMARK H PARENT 20 30
REMARK Flexibility Score: inf
ROOT
ATOM      1  C   UNL     1     134.916 129.936 139.463  1.00  0.00     0.012 C 
ATOM      2  C   UNL     1     134.778 128.612 140.240  1.00  0.00     0.012 C 
ENDROOT
BRANCH   1   3
ATOM      3  C   UNL     1     134.928 129.626 137.978  1.00  0.00    -0.028 C 
ATOM      4  C   UNL     1     135.591 130.402 137.105  1.00  0.00    -0.028 C 
BRANCH   4   5
ATOM      5  C   UNL     1     135.623 130.078 135.626  1.00  0.00     0.011 C 
ATOM      6  C   UNL     1     134.431 129.162 135.298  1.00  0.00     0.012 C 
BRANCH   5   7
ATOM      7  C   UNL     1     135.620 131.380 134.768  1.00  0.00    -0.011 C 
ATOM      8  C   UNL     1     136.099 131.130 133.330  1.00  0.00     0.008 C 
ATOM      9  C   UNL     1     136.506 132.465 135.409  1.00  0.00     0.008 C 
ENDBRANCH   5   7
ENDBRANCH   4   5
ENDBRANCH   1   3
BRANCH   1  10
ATOM     10  C   UNL     1     136.164 130.801 139.856  1.00  0.00     0.002 C 
ATOM     11  C   UNL     1     137.368 130.023 140.377  1.00  0.00     0.005 C 
ATOM     12  C   UNL     1     135.976 132.009 140.849  1.00  0.00    -0.023 C 
ATOM     13  C   UNL     1     138.293 131.110 140.884  1.00  0.00     0.009 C 
ATOM     14  C   UNL     1     137.364 132.119 141.579  1.00  0.00     0.021 C 
ATOM     15  C   UNL     1     135.650 133.307 140.034  1.00  0.00     0.008 C 
ATOM     16  C   UNL     1     134.853 131.764 141.896  1.00  0.00     0.012 C 
ATOM     17  C   UNL     1     137.864 133.555 141.660  1.00  0.00    -0.063 C 
ATOM     18  C   UNL     1     135.811 134.641 140.813  1.00  0.00     0.009 C 
ATOM     19  C   UNL     1     136.812 134.582 141.998  1.00  0.00     0.025 C 
ATOM     20  C   UNL     1     139.102 133.938 141.311  1.00  0.00    -0.000 C 
ATOM     21  C   UNL     1     137.394 135.972 142.490  1.00  0.00    -0.005 C 
ATOM     22  C   UNL     1     139.494 135.350 141.294  1.00  0.00    -0.000 C 
ATOM     23  C   UNL     1     138.712 136.316 141.802  1.00  0.00    -0.061 C 
ATOM     24  C   UNL     1     137.725 135.884 144.012  1.00  0.00     0.014 C 
ATOM     25  C   UNL     1     136.343 137.099 142.267  1.00  0.00     0.017 C 
ATOM     26  C   UNL     1     139.375 137.605 142.219  1.00  0.00     0.063 C 
ATOM     27  C   UNL     1     138.473 137.125 144.563  1.00  0.00     0.033 C 
ATOM     28  C   UNL     1     139.708 137.521 143.722  1.00  0.00     0.118 C 
BRANCH  28  29
ATOM     29  O   UNL     1     140.731 136.583 143.937  1.00  0.00    -0.393 OA
ATOM     30  H   UNL     1     140.734 136.376 144.909  1.00  0.00     0.210 HD
ENDBRANCH  28  29
ENDBRANCH   1  10
TORSDOF 5
ENDMDL
MODEL 7
REMARK VINA RESULT:    -6.129      4.541      8.516
REMARK INTER + INTRA:          -8.719
REMARK INTER:                  -7.256
REMARK INTRA:                  -1.464
REMARK UNBOUND:                -0.978
REMARK SMILES CC(C)[C@H](C)C=C[C@@H](C)[C@@H]1CC[C@H]2C3=CC=C4C[C@H](O)CC[C@]4(C)[C@H]3CC[C@]21C
REMARK SMILES IDX 8 1 9 2 7 3 6 4 4 5 5 6 2 7 1 8 3 9 10 10 11 11 28 12 12 13
REMARK SMILES IDX 13 14 27 15 29 16 14 17 26 18 25 19 15 20 23 21 16 22 17 23
REMARK SMILES IDX 22 24 24 25 18 26 21 27 19 28 20 29
REMARK H PARENT 20 30
REMARK Flexibility Score: inf
ROOT
ATOM      1  C   UNL     1     134.332 129.171 140.953  1.00  0.00     0.012 C 
ATOM      2  C   UNL     1     134.143 128.347 139.663  1.00  0.00     0.012 C 
ENDROOT
BRANCH   1   3
ATOM      3  C   UNL     1     132.996 129.267 141.665  1.00  0.00    -0.028 C 
ATOM      4  C   UNL     1     132.860 128.903 142.951  1.00  0.00    -0.028 C 
BRANCH   4   5
ATOM      5  C   UNL     1     131.532 129.022 143.669  1.00  0.00     0.011 C 
ATOM      6  C   UNL     1     131.109 127.624 144.155  1.00  0.00     0.012 C 
BRANCH   5   7
ATOM      7  C   UNL     1     131.618 130.051 144.837  1.00  0.00    -0.011 C 
ATOM      8  C   UNL     1     131.162 131.455 144.409  1.00  0.00     0.008 C 
ATOM      9  C   UNL     1     133.052 130.138 145.391  1.00  0.00     0.008 C 
ENDBRANCH   5   7
ENDBRANCH   4   5
ENDBRANCH   1   3
BRANCH   1  10
ATOM     10  C   UNL     1     134.944 130.599 140.735  1.00  0.00     0.002 C 
ATOM     11  C   UNL     1     135.992 130.706 139.631  1.00  0.00     0.005 C 
ATOM     12  C   UNL     1     135.547 131.370 141.969  1.00  0.00    -0.023 C 
ATOM     13  C   UNL     1     136.553 132.100 139.817  1.00  0.00     0.009 C 
ATOM     14  C   UNL     1     136.669 132.273 141.339  1.00  0.00     0.021 C 
ATOM     15  C   UNL     1     134.425 132.231 142.643  1.00  0.00     0.008 C 
ATOM     16  C   UNL     1     136.173 130.421 143.030  1.00  0.00     0.012 C 
ATOM     17  C   UNL     1     136.624 133.703 141.864  1.00  0.00    -0.063 C 
ATOM     18  C   UNL     1     134.924 133.329 143.621  1.00  0.00     0.009 C 
ATOM     19  C   UNL     1     136.366 133.834 143.345  1.00  0.00     0.025 C 
ATOM     20  C   UNL     1     136.649 134.790 141.077  1.00  0.00    -0.000 C 
ATOM     21  C   UNL     1     136.735 135.254 143.945  1.00  0.00    -0.005 C 
ATOM     22  C   UNL     1     136.482 136.139 141.626  1.00  0.00    -0.000 C 
ATOM     23  C   UNL     1     136.485 136.381 142.947  1.00  0.00    -0.061 C 
ATOM     24  C   UNL     1     138.263 135.302 144.258  1.00  0.00     0.014 C 
ATOM     25  C   UNL     1     135.943 135.498 145.263  1.00  0.00     0.017 C 
ATOM     26  C   UNL     1     136.833 137.776 143.401  1.00  0.00     0.063 C 
ATOM     27  C   UNL     1     138.773 136.705 144.676  1.00  0.00     0.033 C 
ATOM     28  C   UNL     1     138.344 137.829 143.707  1.00  0.00     0.118 C 
BRANCH  28  29
ATOM     29  O   UNL     1     139.080 137.716 142.516  1.00  0.00    -0.393 OA
ATOM     30  H   UNL     1     139.915 138.242 142.642  1.00  0.00     0.210 HD
ENDBRANCH  28  29
ENDBRANCH   1  10
TORSDOF 5
ENDMDL
MODEL 8
REMARK VINA RESULT:    -6.125      1.391      2.418
REMARK INTER + INTRA:          -8.715
REMARK INTER:                  -7.278
REMARK INTRA:                  -1.437
REMARK UNBOUND:                -0.978
REMARK SMILES CC(C)[C@H](C)C=C[C@@H](C)[C@@H]1CC[C@H]2C3=CC=C4C[C@H](O)CC[C@]4(C)[C@H]3CC[C@]21C
REMARK SMILES IDX 8 1 9 2 7 3 6 4 4 5 5 6 2 7 1 8 3 9 10 10 11 11 28 12 12 13
REMARK SMILES IDX 13 14 27 15 29 16 14 17 26 18 25 19 15 20 23 21 16 22 17 23
REMARK SMILES IDX 22 24 24 25 18 26 21 27 19 28 20 29
REMARK H PARENT 20 30
REMARK Flexibility Score: inf
ROOT
ATOM      1  C   UNL     1     136.030 132.402 143.680  1.00  0.00     0.012 C 
ATOM      2  C   UNL     1     135.491 131.846 145.013  1.00  0.00     0.012 C 
ENDROOT
BRANCH   1   3
ATOM      3  C   UNL     1     135.525 133.823 143.510  1.00  0.00    -0.028 C 
ATOM      4  C   UNL     1     136.372 134.862 143.419  1.00  0.00    -0.028 C 
BRANCH   4   5
ATOM      5  C   UNL     1     135.869 136.277 143.225  1.00  0.00     0.011 C 
ATOM      6  C   UNL     1     136.646 137.209 144.170  1.00  0.00     0.012 C 
BRANCH   5   7
ATOM      7  C   UNL     1     135.993 136.713 141.733  1.00  0.00    -0.011 C 
ATOM      8  C   UNL     1     134.720 136.402 140.929  1.00  0.00     0.008 C 
ATOM      9  C   UNL     1     137.193 136.026 141.055  1.00  0.00     0.008 C 
ENDBRANCH   5   7
ENDBRANCH   4   5
ENDBRANCH   1   3
BRANCH   1  10
ATOM     10  C   UNL     1     135.680 131.537 142.419  1.00  0.00     0.002 C 
ATOM     11  C   UNL     1     135.569 130.035 142.660  1.00  0.00     0.005 C 
ATOM     12  C   UNL     1     136.551 131.696 141.117  1.00  0.00    -0.023 C 
ATOM     13  C   UNL     1     135.466 129.464 141.261  1.00  0.00     0.009 C 
ATOM     14  C   UNL     1     136.468 130.282 140.432  1.00  0.00     0.021 C 
ATOM     15  C   UNL     1     135.932 132.812 140.209  1.00  0.00     0.008 C 
ATOM     16  C   UNL     1     138.036 132.044 141.419  1.00  0.00     0.012 C 
ATOM     17  C   UNL     1     136.193 130.378 138.938  1.00  0.00    -0.063 C 
ATOM     18  C   UNL     1     136.434 132.831 138.739  1.00  0.00     0.009 C 
ATOM     19  C   UNL     1     136.950 131.464 138.215  1.00  0.00     0.025 C 
ATOM     20  C   UNL     1     135.241 129.675 138.305  1.00  0.00    -0.000 C 
ATOM     21  C   UNL     1     136.989 131.292 136.639  1.00  0.00    -0.005 C 
ATOM     22  C   UNL     1     134.937 129.893 136.888  1.00  0.00    -0.000 C 
ATOM     23  C   UNL     1     135.708 130.661 136.101  1.00  0.00    -0.061 C 
ATOM     24  C   UNL     1     138.136 130.306 136.255  1.00  0.00     0.014 C 
ATOM     25  C   UNL     1     137.257 132.666 135.958  1.00  0.00     0.017 C 
ATOM     26  C   UNL     1     135.648 130.418 134.613  1.00  0.00     0.063 C 
ATOM     27  C   UNL     1     138.150 129.916 134.754  1.00  0.00     0.033 C 
ATOM     28  C   UNL     1     136.776 129.441 134.230  1.00  0.00     0.118 C 
BRANCH  28  29
ATOM     29  O   UNL     1     136.503 128.163 134.746  1.00  0.00    -0.393 OA
ATOM     30  H   UNL     1     136.794 128.167 135.697  1.00  0.00     0.210 HD
ENDBRANCH  28  29
ENDBRANCH   1  10
TORSDOF 5
ENDMDL
MODEL 9
REMARK VINA RESULT:    -6.090      4.135      7.103
REMARK INTER + INTRA:          -8.671
REMARK INTER:                  -7.523
REMARK INTRA:                  -1.147
REMARK UNBOUND:                -0.978
REMARK SMILES CC(C)[C@H](C)C=C[C@@H](C)[C@@H]1CC[C@H]2C3=CC=C4C[C@H](O)CC[C@]4(C)[C@H]3CC[C@]21C
REMARK SMILES IDX 8 1 9 2 7 3 6 4 4 5 5 6 2 7 1 8 3 9 10 10 11 11 28 12 12 13
REMARK SMILES IDX 13 14 27 15 29 16 14 17 26 18 25 19 15 20 23 21 16 22 17 23
REMARK SMILES IDX 22 24 24 25 18 26 21 27 19 28 20 29
REMARK H PARENT 20 30
REMARK Flexibility Score: inf
ROOT
ATOM      1  C   UNL     1     130.831 127.135 135.939  1.00  0.00     0.012 C 
ATOM      2  C   UNL     1     129.667 126.740 135.007  1.00  0.00     0.012 C 
ENDROOT
BRANCH   1   3
ATOM      3  C   UNL     1     130.254 127.595 137.265  1.00  0.00    -0.028 C 
ATOM      4  C   UNL     1     130.473 126.912 138.400  1.00  0.00    -0.028 C 
BRANCH   4   5
ATOM      5  C   UNL     1     129.917 127.385 139.727  1.00  0.00     0.011 C 
ATOM      6  C   UNL     1     128.715 126.500 140.099  1.00  0.00     0.012 C 
BRANCH   5   7
ATOM      7  C   UNL     1     131.020 127.377 140.829  1.00  0.00    -0.011 C 
ATOM      8  C   UNL     1     130.652 128.270 142.025  1.00  0.00     0.008 C 
ATOM      9  C   UNL     1     132.374 127.839 140.258  1.00  0.00     0.008 C 
ENDBRANCH   5   7
ENDBRANCH   4   5
ENDBRANCH   1   3
BRANCH   1  10
ATOM     10  C   UNL     1     131.802 128.218 135.354  1.00  0.00     0.002 C 
ATOM     11  C   UNL     1     131.909 128.255 133.832  1.00  0.00     0.005 C 
ATOM     12  C   UNL     1     133.282 128.287 135.886  1.00  0.00    -0.023 C 
ATOM     13  C   UNL     1     133.062 129.206 133.587  1.00  0.00     0.009 C 
ATOM     14  C   UNL     1     134.098 128.847 134.664  1.00  0.00     0.021 C 
ATOM     15  C   UNL     1     133.349 129.256 137.115  1.00  0.00     0.008 C 
ATOM     16  C   UNL     1     133.844 126.897 136.297  1.00  0.00     0.012 C 
ATOM     17  C   UNL     1     135.063 129.953 135.070  1.00  0.00    -0.063 C 
ATOM     18  C   UNL     1     134.773 129.729 137.515  1.00  0.00     0.009 C 
ATOM     19  C   UNL     1     135.809 129.711 136.359  1.00  0.00     0.025 C 
ATOM     20  C   UNL     1     135.156 131.135 134.440  1.00  0.00    -0.000 C 
ATOM     21  C   UNL     1     137.086 130.630 136.553  1.00  0.00    -0.005 C 
ATOM     22  C   UNL     1     136.016 132.210 134.945  1.00  0.00    -0.000 C 
ATOM     23  C   UNL     1     136.894 132.015 135.942  1.00  0.00    -0.061 C 
ATOM     24  C   UNL     1     138.296 130.000 135.795  1.00  0.00     0.014 C 
ATOM     25  C   UNL     1     137.441 130.738 138.065  1.00  0.00     0.017 C 
ATOM     26  C   UNL     1     138.063 132.964 136.039  1.00  0.00     0.063 C 
ATOM     27  C   UNL     1     139.554 130.906 135.759  1.00  0.00     0.033 C 
ATOM     28  C   UNL     1     139.259 132.348 135.286  1.00  0.00     0.118 C 
BRANCH  28  29
ATOM     29  O   UNL     1     139.005 132.336 133.905  1.00  0.00    -0.393 OA
ATOM     30  H   UNL     1     139.887 132.383 133.448  1.00  0.00     0.210 HD
ENDBRANCH  28  29
ENDBRANCH   1  10
TORSDOF 5
ENDMDL
