MODEL 1
REMARK VINA RESULT:    -3.879      0.000      0.000
REMARK INTER + INTRA:          -4.832
REMARK INTER:                  -4.559
REMARK INTRA:                  -0.273
REMARK UNBOUND:                -0.273
REMARK SMILES O=c1cc(-c2ccc(O)c(O)c2)oc2cc(O)cc(O)c12
REMARK SMILES IDX 4 1 3 2 2 3 1 4 21 5 19 6 18 7 16 8 15 9 14 10 13 11 5 12
REMARK SMILES IDX 6 13 7 14 8 15 12 16 10 17 9 18 11 20 20 22 17 24
REMARK H PARENT 9 19 11 21 20 23 17 25
REMARK Flexibility Score: inf
ROOT
ATOM      1  C   UNL     1      -2.161   8.738  -3.040  1.00  0.00     0.138 A 
ATOM      2  C   UNL     1      -1.884   9.737  -3.982  1.00  0.00     0.100 A 
ATOM      3  C   UNL     1      -1.489   9.380  -5.272  1.00  0.00     0.197 A 
ATOM      4  O   UNL     1      -1.188  10.300  -6.076  1.00  0.00    -0.289 OA
ATOM      5  C   UNL     1      -1.399   8.014  -5.627  1.00  0.00     0.107 A 
ATOM      6  C   UNL     1      -1.045   7.532  -6.923  1.00  0.00     0.134 A 
ATOM      7  C   UNL     1      -0.876   6.157  -7.125  1.00  0.00     0.093 A 
ATOM      8  C   UNL     1      -1.105   5.243  -6.097  1.00  0.00     0.123 A 
ATOM      9  C   UNL     1      -1.504   5.699  -4.840  1.00  0.00     0.094 A 
ATOM     10  C   UNL     1      -1.648   7.067  -4.597  1.00  0.00     0.146 A 
ATOM     11  O   UNL     1      -2.015   7.462  -3.382  1.00  0.00    -0.456 OA
ENDROOT
BRANCH   1  12
ATOM     12  C   UNL     1      -2.586   9.061  -1.654  1.00  0.00     0.021 A 
ATOM     13  C   UNL     1      -3.852   9.624  -1.433  1.00  0.00     0.016 A 
ATOM     14  C   UNL     1      -4.272   9.942  -0.141  1.00  0.00     0.051 A 
ATOM     15  C   UNL     1      -3.436   9.717   0.958  1.00  0.00     0.157 A 
ATOM     16  C   UNL     1      -1.737   8.849  -0.552  1.00  0.00     0.062 A 
ATOM     17  C   UNL     1      -2.149   9.169   0.749  1.00  0.00     0.158 A 
BRANCH  15  18
ATOM     18  O   UNL     1      -3.918  10.053   2.224  1.00  0.00    -0.504 OA
ATOM     19  H   UNL     1      -4.814  10.487   2.390  1.00  0.00     0.293 HD
ENDBRANCH  15  18
BRANCH  17  20
ATOM     20  O   UNL     1      -1.253   8.931   1.793  1.00  0.00    -0.504 OA
ATOM     21  H   UNL     1      -0.728   8.076   1.902  1.00  0.00     0.293 HD
ENDBRANCH  17  20
ENDBRANCH   1  12
BRANCH   6  22
ATOM     22  O   UNL     1      -0.875   8.353  -8.042  1.00  0.00    -0.507 OA
ATOM     23  H   UNL     1      -1.487   8.369  -8.843  1.00  0.00     0.293 HD
ENDBRANCH   6  22
BRANCH   8  24
ATOM     24  O   UNL     1      -0.941   3.881  -6.339  1.00  0.00    -0.508 OA
ATOM     25  H   UNL     1      -1.344   3.181  -5.727  1.00  0.00     0.293 HD
ENDBRANCH   8  24
TORSDOF 5
ENDMDL
MODEL 2
REMARK VINA RESULT:    -3.752      2.277      3.472
REMARK INTER + INTRA:          -4.683
REMARK INTER:                  -4.389
REMARK INTRA:                  -0.294
REMARK UNBOUND:                -0.273
REMARK SMILES O=c1cc(-c2ccc(O)c(O)c2)oc2cc(O)cc(O)c12
REMARK SMILES IDX 4 1 3 2 2 3 1 4 21 5 19 6 18 7 16 8 15 9 14 10 13 11 5 12
REMARK SMILES IDX 6 13 7 14 8 15 12 16 10 17 9 18 11 20 20 22 17 24
REMARK H PARENT 9 19 11 21 20 23 17 25
REMARK Flexibility Score: inf
ROOT
ATOM      1  C   UNL     1      -3.181   9.171  -0.706  1.00  0.00     0.138 A 
ATOM      2  C   UNL     1      -4.431   9.477  -1.259  1.00  0.00     0.100 A 
ATOM      3  C   UNL     1      -4.779   8.959  -2.507  1.00  0.00     0.197 A 
ATOM      4  O   UNL     1      -5.883   9.301  -3.005  1.00  0.00    -0.289 OA
ATOM      5  C   UNL     1      -3.880   8.107  -3.191  1.00  0.00     0.107 A 
ATOM      6  C   UNL     1      -4.144   7.489  -4.450  1.00  0.00     0.134 A 
ATOM      7  C   UNL     1      -3.132   6.758  -5.085  1.00  0.00     0.093 A 
ATOM      8  C   UNL     1      -1.889   6.572  -4.481  1.00  0.00     0.123 A 
ATOM      9  C   UNL     1      -1.639   7.126  -3.225  1.00  0.00     0.094 A 
ATOM     10  C   UNL     1      -2.616   7.890  -2.581  1.00  0.00     0.146 A 
ATOM     11  O   UNL     1      -2.332   8.413  -1.393  1.00  0.00    -0.456 OA
ENDROOT
BRANCH   1  12
ATOM     12  C   UNL     1      -2.760   9.694   0.619  1.00  0.00     0.021 A 
ATOM     13  C   UNL     1      -1.401   9.678   0.969  1.00  0.00     0.016 A 
ATOM     14  C   UNL     1      -0.983  10.157   2.211  1.00  0.00     0.051 A 
ATOM     15  C   UNL     1      -1.907  10.654   3.135  1.00  0.00     0.157 A 
ATOM     16  C   UNL     1      -3.695  10.179   1.553  1.00  0.00     0.062 A 
ATOM     17  C   UNL     1      -3.283  10.659   2.804  1.00  0.00     0.158 A 
BRANCH  15  18
ATOM     18  O   UNL     1      -1.423  11.123   4.356  1.00  0.00    -0.504 OA
ATOM     19  H   UNL     1      -1.979  11.190   5.196  1.00  0.00     0.293 HD
ENDBRANCH  15  18
BRANCH  17  20
ATOM     20  O   UNL     1      -4.266  11.123   3.679  1.00  0.00    -0.504 OA
ATOM     21  H   UNL     1      -5.242  10.870   3.618  1.00  0.00     0.293 HD
ENDBRANCH  17  20
ENDBRANCH   1  12
BRANCH   6  22
ATOM     22  O   UNL     1      -5.380   7.540  -5.102  1.00  0.00    -0.507 OA
ATOM     23  H   UNL     1      -5.579   7.116  -5.995  1.00  0.00     0.293 HD
ENDBRANCH   6  22
BRANCH   8  24
ATOM     24  O   UNL     1      -0.912   5.826  -5.135  1.00  0.00    -0.508 OA
ATOM     25  H   UNL     1      -0.609   6.056  -6.074  1.00  0.00     0.293 HD
ENDBRANCH   8  24
TORSDOF 5
ENDMDL
MODEL 3
REMARK VINA RESULT:    -3.123      1.272      2.776
REMARK INTER + INTRA:          -3.943
REMARK INTER:                  -3.678
REMARK INTRA:                  -0.265
REMARK UNBOUND:                -0.273
REMARK SMILES O=c1cc(-c2ccc(O)c(O)c2)oc2cc(O)cc(O)c12
REMARK SMILES IDX 4 1 3 2 2 3 1 4 21 5 19 6 18 7 16 8 15 9 14 10 13 11 5 12
REMARK SMILES IDX 6 13 7 14 8 15 12 16 10 17 9 18 11 20 20 22 17 24
REMARK H PARENT 9 19 11 21 20 23 17 25
REMARK Flexibility Score: inf
ROOT
ATOM      1  C   UNL     1      -2.256   8.691  -2.831  1.00  0.00     0.138 A 
ATOM      2  C   UNL     1      -2.210   7.334  -3.176  1.00  0.00     0.100 A 
ATOM      3  C   UNL     1      -1.865   6.963  -4.477  1.00  0.00     0.197 A 
ATOM      4  O   UNL     1      -1.892   5.741  -4.773  1.00  0.00    -0.289 OA
ATOM      5  C   UNL     1      -1.536   7.958  -5.428  1.00  0.00     0.107 A 
ATOM      6  C   UNL     1      -1.131   7.696  -6.771  1.00  0.00     0.134 A 
ATOM      7  C   UNL     1      -0.942   8.765  -7.656  1.00  0.00     0.093 A 
ATOM      8  C   UNL     1      -1.085  10.086  -7.232  1.00  0.00     0.123 A 
ATOM      9  C   UNL     1      -1.428  10.355  -5.906  1.00  0.00     0.094 A 
ATOM     10  C   UNL     1      -1.656   9.310  -5.008  1.00  0.00     0.146 A 
ATOM     11  O   UNL     1      -1.996   9.608  -3.758  1.00  0.00    -0.456 OA
ENDROOT
BRANCH   1  12
ATOM     12  C   UNL     1      -2.615   9.141  -1.463  1.00  0.00     0.021 A 
ATOM     13  C   UNL     1      -3.854   9.762  -1.242  1.00  0.00     0.016 A 
ATOM     14  C   UNL     1      -4.211  10.199   0.034  1.00  0.00     0.051 A 
ATOM     15  C   UNL     1      -3.339  10.038   1.115  1.00  0.00     0.157 A 
ATOM     16  C   UNL     1      -1.729   8.991  -0.379  1.00  0.00     0.062 A 
ATOM     17  C   UNL     1      -2.079   9.431   0.905  1.00  0.00     0.158 A 
BRANCH  15  18
ATOM     18  O   UNL     1      -3.759  10.492   2.366  1.00  0.00    -0.504 OA
ATOM     19  H   UNL     1      -3.131  10.726   3.122  1.00  0.00     0.293 HD
ENDBRANCH  15  18
BRANCH  17  20
ATOM     20  O   UNL     1      -1.149   9.249   1.931  1.00  0.00    -0.504 OA
ATOM     21  H   UNL     1      -0.250   8.806   1.806  1.00  0.00     0.293 HD
ENDBRANCH  17  20
ENDBRANCH   1  12
BRANCH   6  22
ATOM     22  O   UNL     1      -0.877   6.417  -7.275  1.00  0.00    -0.507 OA
ATOM     23  H   UNL     1      -1.563   5.683  -7.356  1.00  0.00     0.293 HD
ENDBRANCH   6  22
BRANCH   8  24
ATOM     24  O   UNL     1      -0.875  11.125  -8.136  1.00  0.00    -0.508 OA
ATOM     25  H   UNL     1      -0.339  11.946  -7.884  1.00  0.00     0.293 HD
ENDBRANCH   8  24
TORSDOF 5
ENDMDL
MODEL 4
REMARK VINA RESULT:    -2.335      1.929      6.803
REMARK INTER + INTRA:          -3.017
REMARK INTER:                  -2.700
REMARK INTRA:                  -0.318
REMARK UNBOUND:                -0.273
REMARK SMILES O=c1cc(-c2ccc(O)c(O)c2)oc2cc(O)cc(O)c12
REMARK SMILES IDX 4 1 3 2 2 3 1 4 21 5 19 6 18 7 16 8 15 9 14 10 13 11 5 12
REMARK SMILES IDX 6 13 7 14 8 15 12 16 10 17 9 18 11 20 20 22 17 24
REMARK H PARENT 9 19 11 21 20 23 17 25
REMARK Flexibility Score: inf
ROOT
ATOM      1  C   UNL     1      -1.360   6.205  -4.354  1.00  0.00     0.138 A 
ATOM      2  C   UNL     1      -1.676   7.369  -5.065  1.00  0.00     0.100 A 
ATOM      3  C   UNL     1      -1.752   8.590  -4.393  1.00  0.00     0.197 A 
ATOM      4  O   UNL     1      -2.099   9.607  -5.048  1.00  0.00    -0.289 OA
ATOM      5  C   UNL     1      -1.481   8.648  -3.006  1.00  0.00     0.107 A 
ATOM      6  C   UNL     1      -1.488   9.842  -2.224  1.00  0.00     0.134 A 
ATOM      7  C   UNL     1      -1.318   9.760  -0.837  1.00  0.00     0.093 A 
ATOM      8  C   UNL     1      -1.080   8.537  -0.211  1.00  0.00     0.123 A 
ATOM      9  C   UNL     1      -1.017   7.369  -0.972  1.00  0.00     0.094 A 
ATOM     10  C   UNL     1      -1.217   7.413  -2.354  1.00  0.00     0.146 A 
ATOM     11  O   UNL     1      -1.163   6.277  -3.041  1.00  0.00    -0.456 OA
ENDROOT
BRANCH   1  12
ATOM     12  C   UNL     1      -1.265   4.880  -5.018  1.00  0.00     0.021 A 
ATOM     13  C   UNL     1      -1.365   4.798  -6.415  1.00  0.00     0.016 A 
ATOM     14  C   UNL     1      -1.285   3.565  -7.062  1.00  0.00     0.051 A 
ATOM     15  C   UNL     1      -1.114   2.385  -6.331  1.00  0.00     0.157 A 
ATOM     16  C   UNL     1      -1.107   3.692  -4.280  1.00  0.00     0.062 A 
ATOM     17  C   UNL     1      -1.030   2.449  -4.921  1.00  0.00     0.158 A 
BRANCH  15  18
ATOM     18  O   UNL     1      -1.036   1.184  -7.039  1.00  0.00    -0.504 OA
ATOM     19  H   UNL     1      -0.353   0.995  -7.758  1.00  0.00     0.293 HD
ENDBRANCH  15  18
BRANCH  17  20
ATOM     20  O   UNL     1      -0.875   1.313  -4.123  1.00  0.00    -0.504 OA
ATOM     21  H   UNL     1      -1.628   0.875  -3.612  1.00  0.00     0.293 HD
ENDBRANCH  17  20
ENDBRANCH   1  12
BRANCH   6  22
ATOM     22  O   UNL     1      -1.632  11.125  -2.761  1.00  0.00    -0.507 OA
ATOM     23  H   UNL     1      -2.506  11.528  -3.063  1.00  0.00     0.293 HD
ENDBRANCH   6  22
BRANCH   8  24
ATOM     24  O   UNL     1      -0.901   8.495   1.170  1.00  0.00    -0.508 OA
ATOM     25  H   UNL     1      -1.680   8.592   1.809  1.00  0.00     0.293 HD
ENDBRANCH   8  24
TORSDOF 5
ENDMDL
MODEL 5
REMARK VINA RESULT:    -2.327      1.769      6.963
REMARK INTER + INTRA:          -3.008
REMARK INTER:                  -2.741
REMARK INTRA:                  -0.267
REMARK UNBOUND:                -0.273
REMARK SMILES O=c1cc(-c2ccc(O)c(O)c2)oc2cc(O)cc(O)c12
REMARK SMILES IDX 4 1 3 2 2 3 1 4 21 5 19 6 18 7 16 8 15 9 14 10 13 11 5 12
REMARK SMILES IDX 6 13 7 14 8 15 12 16 10 17 9 18 11 20 20 22 17 24
REMARK H PARENT 9 19 11 21 20 23 17 25
REMARK Flexibility Score: inf
ROOT
ATOM      1  C   UNL     1      -2.559   7.671  -3.440  1.00  0.00     0.138 A 
ATOM      2  C   UNL     1      -3.687   8.495  -3.538  1.00  0.00     0.100 A 
ATOM      3  C   UNL     1      -4.046   9.307  -2.461  1.00  0.00     0.197 A 
ATOM      4  O   UNL     1      -5.099   9.989  -2.556  1.00  0.00    -0.289 OA
ATOM      5  C   UNL     1      -3.251   9.313  -1.290  1.00  0.00     0.107 A 
ATOM      6  C   UNL     1      -3.497  10.130  -0.145  1.00  0.00     0.134 A 
ATOM      7  C   UNL     1      -2.709   9.966   1.001  1.00  0.00     0.093 A 
ATOM      8  C   UNL     1      -1.649   9.061   1.023  1.00  0.00     0.123 A 
ATOM      9  C   UNL     1      -1.365   8.296  -0.109  1.00  0.00     0.094 A 
ATOM     10  C   UNL     1      -2.154   8.412  -1.256  1.00  0.00     0.146 A 
ATOM     11  O   UNL     1      -1.861   7.655  -2.308  1.00  0.00    -0.456 OA
ENDROOT
BRANCH   1  12
ATOM     12  C   UNL     1      -2.131   6.789  -4.555  1.00  0.00     0.021 A 
ATOM     13  C   UNL     1      -1.424   7.335  -5.637  1.00  0.00     0.016 A 
ATOM     14  C   UNL     1      -1.018   6.527  -6.699  1.00  0.00     0.051 A 
ATOM     15  C   UNL     1      -1.315   5.161  -6.714  1.00  0.00     0.157 A 
ATOM     16  C   UNL     1      -2.445   5.417  -4.574  1.00  0.00     0.062 A 
ATOM     17  C   UNL     1      -2.043   4.599  -5.639  1.00  0.00     0.158 A 
BRANCH  15  18
ATOM     18  O   UNL     1      -0.875   4.408  -7.803  1.00  0.00    -0.504 OA
ATOM     19  H   UNL     1       0.051   4.015  -7.881  1.00  0.00     0.293 HD
ENDBRANCH  15  18
BRANCH  17  20
ATOM     20  O   UNL     1      -2.392   3.248  -5.590  1.00  0.00    -0.504 OA
ATOM     21  H   UNL     1      -2.751   2.787  -4.766  1.00  0.00     0.293 HD
ENDBRANCH  17  20
ENDBRANCH   1  12
BRANCH   6  22
ATOM     22  O   UNL     1      -4.477  11.125  -0.092  1.00  0.00    -0.507 OA
ATOM     23  H   UNL     1      -4.298  12.103   0.076  1.00  0.00     0.293 HD
ENDBRANCH   6  22
BRANCH   8  24
ATOM     24  O   UNL     1      -0.877   8.935   2.176  1.00  0.00    -0.508 OA
ATOM     25  H   UNL     1      -0.495   8.042   2.464  1.00  0.00     0.293 HD
ENDBRANCH   8  24
TORSDOF 5
ENDMDL
MODEL 6
REMARK VINA RESULT:    -1.809      2.624      6.733
REMARK INTER + INTRA:          -2.398
REMARK INTER:                  -2.114
REMARK INTRA:                  -0.285
REMARK UNBOUND:                -0.273
REMARK SMILES O=c1cc(-c2ccc(O)c(O)c2)oc2cc(O)cc(O)c12
REMARK SMILES IDX 4 1 3 2 2 3 1 4 21 5 19 6 18 7 16 8 15 9 14 10 13 11 5 12
REMARK SMILES IDX 6 13 7 14 8 15 12 16 10 17 9 18 11 20 20 22 17 24
REMARK H PARENT 9 19 11 21 20 23 17 25
REMARK Flexibility Score: inf
ROOT
ATOM      1  C   UNL     1      -1.929   6.015  -5.200  1.00  0.00     0.138 A 
ATOM      2  C   UNL     1      -1.234   7.067  -5.811  1.00  0.00     0.100 A 
ATOM      3  C   UNL     1      -1.540   8.386  -5.472  1.00  0.00     0.197 A 
ATOM      4  O   UNL     1      -0.943   9.310  -6.082  1.00  0.00    -0.289 OA
ATOM      5  C   UNL     1      -2.528   8.650  -4.493  1.00  0.00     0.107 A 
ATOM      6  C   UNL     1      -2.895   9.952  -4.038  1.00  0.00     0.134 A 
ATOM      7  C   UNL     1      -3.967  10.095  -3.150  1.00  0.00     0.093 A 
ATOM      8  C   UNL     1      -4.646   8.983  -2.653  1.00  0.00     0.123 A 
ATOM      9  C   UNL     1      -4.261   7.702  -3.049  1.00  0.00     0.094 A 
ATOM     10  C   UNL     1      -3.217   7.527  -3.961  1.00  0.00     0.146 A 
ATOM     11  O   UNL     1      -2.891   6.291  -4.325  1.00  0.00    -0.456 OA
ENDROOT
BRANCH   1  12
ATOM     12  C   UNL     1      -1.644   4.594  -5.523  1.00  0.00     0.021 A 
ATOM     13  C   UNL     1      -1.664   4.170  -6.860  1.00  0.00     0.016 A 
ATOM     14  C   UNL     1      -1.406   2.839  -7.187  1.00  0.00     0.051 A 
ATOM     15  C   UNL     1      -1.131   1.898  -6.190  1.00  0.00     0.157 A 
ATOM     16  C   UNL     1      -1.383   3.646  -4.516  1.00  0.00     0.062 A 
ATOM     17  C   UNL     1      -1.126   2.306  -4.835  1.00  0.00     0.158 A 
BRANCH  15  18
ATOM     18  O   UNL     1      -0.876   0.584  -6.584  1.00  0.00    -0.504 OA
ATOM     19  H   UNL     1      -0.069   0.302  -7.121  1.00  0.00     0.293 HD
ENDBRANCH  15  18
BRANCH  17  20
ATOM     20  O   UNL     1      -0.876   1.422  -3.784  1.00  0.00    -0.504 OA
ATOM     21  H   UNL     1       0.043   1.235  -3.409  1.00  0.00     0.293 HD
ENDBRANCH  17  20
ENDBRANCH   1  12
BRANCH   6  22
ATOM     22  O   UNL     1      -2.227  11.124  -4.406  1.00  0.00    -0.507 OA
ATOM     23  H   UNL     1      -1.555  11.609  -3.832  1.00  0.00     0.293 HD
ENDBRANCH   6  22
BRANCH   8  24
ATOM     24  O   UNL     1      -5.699   9.164  -1.759  1.00  0.00    -0.508 OA
ATOM     25  H   UNL     1      -5.541   9.231  -0.761  1.00  0.00     0.293 HD
ENDBRANCH   8  24
TORSDOF 5
ENDMDL
MODEL 7
REMARK VINA RESULT:    -1.712      2.538      3.603
REMARK INTER + INTRA:          -2.285
REMARK INTER:                  -1.986
REMARK INTRA:                  -0.299
REMARK UNBOUND:                -0.273
REMARK SMILES O=c1cc(-c2ccc(O)c(O)c2)oc2cc(O)cc(O)c12
REMARK SMILES IDX 4 1 3 2 2 3 1 4 21 5 19 6 18 7 16 8 15 9 14 10 13 11 5 12
REMARK SMILES IDX 6 13 7 14 8 15 12 16 10 17 9 18 11 20 20 22 17 24
REMARK H PARENT 9 19 11 21 20 23 17 25
REMARK Flexibility Score: inf
ROOT
ATOM      1  C   UNL     1      -2.858  10.046  -0.427  1.00  0.00     0.138 A 
ATOM      2  C   UNL     1      -1.979  10.776  -1.238  1.00  0.00     0.100 A 
ATOM      3  C   UNL     1      -1.880  10.473  -2.597  1.00  0.00     0.197 A 
ATOM      4  O   UNL     1      -1.036  11.104  -3.285  1.00  0.00    -0.289 OA
ATOM      5  C   UNL     1      -2.688   9.453  -3.151  1.00  0.00     0.107 A 
ATOM      6  C   UNL     1      -2.702   9.085  -4.530  1.00  0.00     0.134 A 
ATOM      7  C   UNL     1      -3.459   7.982  -4.942  1.00  0.00     0.093 A 
ATOM      8  C   UNL     1      -4.250   7.272  -4.039  1.00  0.00     0.123 A 
ATOM      9  C   UNL     1      -4.287   7.657  -2.698  1.00  0.00     0.094 A 
ATOM     10  C   UNL     1      -3.516   8.731  -2.249  1.00  0.00     0.146 A 
ATOM     11  O   UNL     1      -3.567   9.057  -0.961  1.00  0.00    -0.456 OA
ENDROOT
BRANCH   1  12
ATOM     12  C   UNL     1      -3.005  10.327   1.023  1.00  0.00     0.021 A 
ATOM     13  C   UNL     1      -1.872  10.661   1.781  1.00  0.00     0.016 A 
ATOM     14  C   UNL     1      -1.984  10.922   3.147  1.00  0.00     0.051 A 
ATOM     15  C   UNL     1      -3.222  10.847   3.791  1.00  0.00     0.157 A 
ATOM     16  C   UNL     1      -4.251  10.235   1.672  1.00  0.00     0.062 A 
ATOM     17  C   UNL     1      -4.371  10.493   3.044  1.00  0.00     0.158 A 
BRANCH  15  18
ATOM     18  O   UNL     1      -3.266  11.125   5.158  1.00  0.00    -0.504 OA
ATOM     19  H   UNL     1      -3.605  11.992   5.547  1.00  0.00     0.293 HD
ENDBRANCH  15  18
BRANCH  17  20
ATOM     20  O   UNL     1      -5.638  10.381   3.619  1.00  0.00    -0.504 OA
ATOM     21  H   UNL     1      -6.043   9.510   3.929  1.00  0.00     0.293 HD
ENDBRANCH  17  20
ENDBRANCH   1  12
BRANCH   6  22
ATOM     22  O   UNL     1      -2.015   9.780  -5.530  1.00  0.00    -0.507 OA
ATOM     23  H   UNL     1      -1.884  10.779  -5.552  1.00  0.00     0.293 HD
ENDBRANCH   6  22
BRANCH   8  24
ATOM     24  O   UNL     1      -5.002   6.189  -4.488  1.00  0.00    -0.508 OA
ATOM     25  H   UNL     1      -5.551   6.240  -5.338  1.00  0.00     0.293 HD
ENDBRANCH   8  24
TORSDOF 5
ENDMDL
MODEL 8
REMARK VINA RESULT:    -1.305      1.541      7.306
REMARK INTER + INTRA:          -1.807
REMARK INTER:                  -1.535
REMARK INTRA:                  -0.271
REMARK UNBOUND:                -0.273
REMARK SMILES O=c1cc(-c2ccc(O)c(O)c2)oc2cc(O)cc(O)c12
REMARK SMILES IDX 4 1 3 2 2 3 1 4 21 5 19 6 18 7 16 8 15 9 14 10 13 11 5 12
REMARK SMILES IDX 6 13 7 14 8 15 12 16 10 17 9 18 11 20 20 22 17 24
REMARK H PARENT 9 19 11 21 20 23 17 25
REMARK Flexibility Score: inf
ROOT
ATOM      1  C   UNL     1      -2.922   8.423  -2.653  1.00  0.00     0.138 A 
ATOM      2  C   UNL     1      -4.271   8.267  -2.307  1.00  0.00     0.100 A 
ATOM      3  C   UNL     1      -4.721   8.712  -1.064  1.00  0.00     0.197 A 
ATOM      4  O   UNL     1      -5.923   8.501  -0.757  1.00  0.00    -0.289 OA
ATOM      5  C   UNL     1      -3.820   9.344  -0.174  1.00  0.00     0.107 A 
ATOM      6  C   UNL     1      -4.175   9.874   1.103  1.00  0.00     0.134 A 
ATOM      7  C   UNL     1      -3.174  10.373   1.945  1.00  0.00     0.093 A 
ATOM      8  C   UNL     1      -1.842  10.418   1.534  1.00  0.00     0.123 A 
ATOM      9  C   UNL     1      -1.491   9.953   0.266  1.00  0.00     0.094 A 
ATOM     10  C   UNL     1      -2.461   9.417  -0.584  1.00  0.00     0.146 A 
ATOM     11  O   UNL     1      -2.084   8.970  -1.778  1.00  0.00    -0.456 OA
ENDROOT
BRANCH   1  12
ATOM     12  C   UNL     1      -2.390   7.969  -3.963  1.00  0.00     0.021 A 
ATOM     13  C   UNL     1      -2.350   6.597  -4.255  1.00  0.00     0.016 A 
ATOM     14  C   UNL     1      -1.848   6.146  -5.476  1.00  0.00     0.051 A 
ATOM     15  C   UNL     1      -1.366   7.049  -6.429  1.00  0.00     0.157 A 
ATOM     16  C   UNL     1      -1.891   8.879  -4.913  1.00  0.00     0.062 A 
ATOM     17  C   UNL     1      -1.381   8.434  -6.141  1.00  0.00     0.158 A 
BRANCH  15  18
ATOM     18  O   UNL     1      -0.882   6.533  -7.632  1.00  0.00    -0.504 OA
ATOM     19  H   UNL     1      -1.125   6.898  -8.541  1.00  0.00     0.293 HD
ENDBRANCH  15  18
BRANCH  17  20
ATOM     20  O   UNL     1      -0.903   9.395  -7.034  1.00  0.00    -0.504 OA
ATOM     21  H   UNL     1      -0.934   9.297  -8.039  1.00  0.00     0.293 HD
ENDBRANCH  17  20
ENDBRANCH   1  12
BRANCH   6  22
ATOM     22  O   UNL     1      -5.487   9.955   1.577  1.00  0.00    -0.507 OA
ATOM     23  H   UNL     1      -6.185   9.235   1.470  1.00  0.00     0.293 HD
ENDBRANCH   6  22
BRANCH   8  24
ATOM     24  O   UNL     1      -0.875  10.936   2.392  1.00  0.00    -0.508 OA
ATOM     25  H   UNL     1      -0.102  10.371   2.723  1.00  0.00     0.293 HD
ENDBRANCH   8  24
TORSDOF 5
ENDMDL
