MODEL 1
REMARK VINA RESULT:    13.176      0.000      0.000
REMARK INTER + INTRA:          33.221
REMARK INTER:                  33.203
REMARK INTRA:                   0.018
REMARK UNBOUND:                 0.018
REMARK SMILES CCCCCCCCCCCCCCCCCCCCCCCCCCCC(=O)[O-]
REMARK SMILES IDX 15 1 16 2 17 3 18 4 19 5 20 6 21 7 22 8 23 9 24 10 25 11
REMARK SMILES IDX 26 12 27 13 28 14 29 15 30 16 14 17 13 18 12 19 11 20 10 21
REMARK SMILES IDX 9 22 8 23 7 24 6 25 5 26 4 27 3 28 2 29 1 30
REMARK H PARENT
REMARK Flexibility Score: inf
ROOT
ATOM      1  C   UNL     1      -3.595  -6.564 -15.874  1.00  0.00     0.000 C 
ENDROOT
BRANCH   1   2
ATOM      2  C   UNL     1      -4.413  -6.627 -14.572  1.00  0.00     0.000 C 
BRANCH   2   3
ATOM      3  C   UNL     1      -4.643  -5.240 -13.949  1.00  0.00     0.000 C 
BRANCH   3   4
ATOM      4  C   UNL     1      -5.064  -5.325 -12.472  1.00  0.00     0.000 C 
BRANCH   4   5
ATOM      5  C   UNL     1      -5.368  -6.764 -12.015  1.00  0.00     0.000 C 
BRANCH   5   6
ATOM      6  C   UNL     1      -5.776  -6.908 -10.537  1.00  0.00     0.000 C 
BRANCH   6   7
ATOM      7  C   UNL     1      -5.467  -8.303  -9.961  1.00  0.00     0.000 C 
BRANCH   7   8
ATOM      8  C   UNL     1      -4.291  -8.281  -8.972  1.00  0.00     0.000 C 
BRANCH   8   9
ATOM      9  C   UNL     1      -4.581  -9.090  -7.696  1.00  0.00     0.000 C 
BRANCH   9  10
ATOM     10  C   UNL     1      -3.452  -8.990  -6.654  1.00  0.00     0.000 C 
BRANCH  10  11
ATOM     11  C   UNL     1      -3.803  -9.546  -5.262  1.00  0.00     0.000 C 
BRANCH  11  12
ATOM     12  C   UNL     1      -4.128 -11.049  -5.282  1.00  0.00     0.006 C 
BRANCH  12  13
ATOM     13  C   UNL     1      -4.868 -11.463  -6.561  1.00  0.00     0.053 C 
BRANCH  13  14
ATOM     14  C   UNL     1      -6.203 -12.072  -6.253  1.00  0.00     0.041 C 
ATOM     15  O   UNL     1      -6.958 -11.544  -5.396  1.00  0.00    -0.550 OA
ATOM     16  O   UNL     1      -6.622 -13.207  -6.936  1.00  0.00    -0.550 OA
ENDBRANCH  13  14
ENDBRANCH  12  13
ENDBRANCH  11  12
ENDBRANCH  10  11
ENDBRANCH   9  10
ENDBRANCH   8   9
ENDBRANCH   7   8
ENDBRANCH   6   7
ENDBRANCH   5   6
ENDBRANCH   4   5
ENDBRANCH   3   4
ENDBRANCH   2   3
ENDBRANCH   1   2
BRANCH   1  17
ATOM     17  C   UNL     1      -2.078  -6.521 -15.620  1.00  0.00     0.000 C 
BRANCH  17  18
ATOM     18  C   UNL     1      -1.215  -7.260 -16.661  1.00  0.00     0.000 C 
BRANCH  18  19
ATOM     19  C   UNL     1       0.282  -7.336 -16.298  1.00  0.00     0.000 C 
BRANCH  19  20
ATOM     20  C   UNL     1       1.143  -6.337 -17.091  1.00  0.00     0.000 C 
BRANCH  20  21
ATOM     21  C   UNL     1       2.484  -6.021 -16.405  1.00  0.00     0.000 C 
BRANCH  21  22
ATOM     22  C   UNL     1       3.601  -5.610 -17.390  1.00  0.00    -0.000 C 
BRANCH  22  23
ATOM     23  C   UNL     1       4.910  -6.378 -17.131  1.00  0.00    -0.000 C 
BRANCH  23  24
ATOM     24  C   UNL     1       4.964  -7.727 -17.865  1.00  0.00    -0.000 C 
BRANCH  24  25
ATOM     25  C   UNL     1       6.013  -7.752 -18.986  1.00  0.00    -0.000 C 
BRANCH  25  26
ATOM     26  C   UNL     1       7.048  -8.864 -18.748  1.00  0.00    -0.000 C 
BRANCH  26  27
ATOM     27  C   UNL     1       7.648  -9.395 -20.067  1.00  0.00    -0.000 C 
BRANCH  27  28
ATOM     28  C   UNL     1       7.131  -8.662 -21.318  1.00  0.00    -0.000 C 
BRANCH  28  29
ATOM     29  C   UNL     1       7.995  -7.453 -21.705  1.00  0.00    -0.003 C 
ATOM     30  C   UNL     1       7.179  -6.418 -22.474  1.00  0.00     0.004 C 
ENDBRANCH  28  29
ENDBRANCH  27  28
ENDBRANCH  26  27
ENDBRANCH  25  26
ENDBRANCH  24  25
ENDBRANCH  23  24
ENDBRANCH  22  23
ENDBRANCH  21  22
ENDBRANCH  20  21
ENDBRANCH  19  20
ENDBRANCH  18  19
ENDBRANCH  17  18
ENDBRANCH   1  17
TORSDOF 26
ENDMDL
MODEL 2
REMARK VINA RESULT:    14.077      1.752      2.225
REMARK INTER + INTRA:          35.490
REMARK INTER:                  36.658
REMARK INTRA:                  -1.168
REMARK UNBOUND:                 0.018
REMARK SMILES CCCCCCCCCCCCCCCCCCCCCCCCCCCC(=O)[O-]
REMARK SMILES IDX 15 1 16 2 17 3 18 4 19 5 20 6 21 7 22 8 23 9 24 10 25 11
REMARK SMILES IDX 26 12 27 13 28 14 29 15 30 16 14 17 13 18 12 19 11 20 10 21
REMARK SMILES IDX 9 22 8 23 7 24 6 25 5 26 4 27 3 28 2 29 1 30
REMARK H PARENT
REMARK Flexibility Score: inf
ROOT
ATOM      1  C   UNL     1      -3.743  -6.598 -16.079  1.00  0.00     0.000 C 
ENDROOT
BRANCH   1   2
ATOM      2  C   UNL     1      -4.418  -6.639 -14.696  1.00  0.00     0.000 C 
BRANCH   2   3
ATOM      3  C   UNL     1      -4.432  -5.265 -14.003  1.00  0.00     0.000 C 
BRANCH   3   4
ATOM      4  C   UNL     1      -4.375  -5.384 -12.470  1.00  0.00     0.000 C 
BRANCH   4   5
ATOM      5  C   UNL     1      -5.213  -6.555 -11.925  1.00  0.00     0.000 C 
BRANCH   5   6
ATOM      6  C   UNL     1      -5.185  -6.722 -10.395  1.00  0.00     0.000 C 
BRANCH   6   7
ATOM      7  C   UNL     1      -5.556  -8.146  -9.938  1.00  0.00     0.000 C 
BRANCH   7   8
ATOM      8  C   UNL     1      -4.512  -8.747  -8.985  1.00  0.00     0.000 C 
BRANCH   8   9
ATOM      9  C   UNL     1      -4.952 -10.108  -8.415  1.00  0.00     0.000 C 
BRANCH   9  10
ATOM     10  C   UNL     1      -3.976 -10.657  -7.358  1.00  0.00     0.000 C 
BRANCH  10  11
ATOM     11  C   UNL     1      -4.630 -11.084  -6.032  1.00  0.00     0.000 C 
BRANCH  11  12
ATOM     12  C   UNL     1      -4.386 -10.078  -4.894  1.00  0.00     0.006 C 
BRANCH  12  13
ATOM     13  C   UNL     1      -2.940  -9.566  -4.877  1.00  0.00     0.053 C 
BRANCH  13  14
ATOM     14  C   UNL     1      -2.864  -8.115  -5.245  1.00  0.00     0.041 C 
ATOM     15  O   UNL     1      -3.912  -7.478  -5.530  1.00  0.00    -0.550 OA
ATOM     16  O   UNL     1      -1.638  -7.462  -5.246  1.00  0.00    -0.550 OA
ENDBRANCH  13  14
ENDBRANCH  12  13
ENDBRANCH  11  12
ENDBRANCH  10  11
ENDBRANCH   9  10
ENDBRANCH   8   9
ENDBRANCH   7   8
ENDBRANCH   6   7
ENDBRANCH   5   6
ENDBRANCH   4   5
ENDBRANCH   3   4
ENDBRANCH   2   3
ENDBRANCH   1   2
BRANCH   1  17
ATOM     17  C   UNL     1      -2.211  -6.492 -15.988  1.00  0.00     0.000 C 
BRANCH  17  18
ATOM     18  C   UNL     1      -1.432  -7.303 -17.042  1.00  0.00     0.000 C 
BRANCH  18  19
ATOM     19  C   UNL     1       0.003  -7.673 -16.616  1.00  0.00     0.000 C 
BRANCH  19  20
ATOM     20  C   UNL     1       0.979  -6.487 -16.702  1.00  0.00     0.000 C 
BRANCH  20  21
ATOM     21  C   UNL     1       2.435  -6.921 -16.945  1.00  0.00     0.000 C 
BRANCH  21  22
ATOM     22  C   UNL     1       3.479  -5.913 -16.416  1.00  0.00    -0.000 C 
BRANCH  22  23
ATOM     23  C   UNL     1       4.822  -6.028 -17.159  1.00  0.00    -0.000 C 
BRANCH  23  24
ATOM     24  C   UNL     1       4.864  -7.215 -18.134  1.00  0.00    -0.000 C 
BRANCH  24  25
ATOM     25  C   UNL     1       6.227  -7.921 -18.153  1.00  0.00    -0.000 C 
BRANCH  25  26
ATOM     26  C   UNL     1       6.652  -8.262 -19.590  1.00  0.00    -0.000 C 
BRANCH  26  27
ATOM     27  C   UNL     1       8.102  -8.784 -19.663  1.00  0.00    -0.000 C 
BRANCH  27  28
ATOM     28  C   UNL     1       8.804  -8.469 -20.997  1.00  0.00    -0.000 C 
BRANCH  28  29
ATOM     29  C   UNL     1       7.867  -7.827 -22.031  1.00  0.00    -0.003 C 
ATOM     30  C   UNL     1       8.661  -7.161 -23.151  1.00  0.00     0.004 C 
ENDBRANCH  28  29
ENDBRANCH  27  28
ENDBRANCH  26  27
ENDBRANCH  25  26
ENDBRANCH  24  25
ENDBRANCH  23  24
ENDBRANCH  22  23
ENDBRANCH  21  22
ENDBRANCH  20  21
ENDBRANCH  19  20
ENDBRANCH  18  19
ENDBRANCH  17  18
ENDBRANCH   1  17
TORSDOF 26
ENDMDL
MODEL 3
REMARK VINA RESULT:    14.520      4.964     11.927
REMARK INTER + INTRA:          36.608
REMARK INTER:                  34.631
REMARK INTRA:                   1.976
REMARK UNBOUND:                 0.018
REMARK SMILES CCCCCCCCCCCCCCCCCCCCCCCCCCCC(=O)[O-]
REMARK SMILES IDX 15 1 16 2 17 3 18 4 19 5 20 6 21 7 22 8 23 9 24 10 25 11
REMARK SMILES IDX 26 12 27 13 28 14 29 15 30 16 14 17 13 18 12 19 11 20 10 21
REMARK SMILES IDX 9 22 8 23 7 24 6 25 5 26 4 27 3 28 2 29 1 30
REMARK H PARENT
REMARK Flexibility Score: inf
ROOT
ATOM      1  C   UNL     1      -6.127  -7.761 -10.515  1.00  0.00     0.000 C 
ENDROOT
BRANCH   1   2
ATOM      2  C   UNL     1      -5.979  -6.338 -11.082  1.00  0.00     0.000 C 
BRANCH   2   3
ATOM      3  C   UNL     1      -4.605  -6.100 -11.732  1.00  0.00     0.000 C 
BRANCH   3   4
ATOM      4  C   UNL     1      -4.712  -5.327 -13.058  1.00  0.00     0.000 C 
BRANCH   4   5
ATOM      5  C   UNL     1      -4.544  -6.229 -14.295  1.00  0.00     0.000 C 
BRANCH   5   6
ATOM      6  C   UNL     1      -5.420  -5.851 -15.504  1.00  0.00     0.000 C 
BRANCH   6   7
ATOM      7  C   UNL     1      -5.011  -6.582 -16.796  1.00  0.00     0.000 C 
BRANCH   7   8
ATOM      8  C   UNL     1      -3.519  -6.414 -17.118  1.00  0.00     0.000 C 
BRANCH   8   9
ATOM      9  C   UNL     1      -2.610  -7.018 -16.032  1.00  0.00     0.000 C 
BRANCH   9  10
ATOM     10  C   UNL     1      -1.140  -6.582 -16.170  1.00  0.00     0.000 C 
BRANCH  10  11
ATOM     11  C   UNL     1      -0.228  -7.597 -16.882  1.00  0.00     0.000 C 
BRANCH  11  12
ATOM     12  C   UNL     1      -0.175  -8.958 -16.168  1.00  0.00     0.006 C 
BRANCH  12  13
ATOM     13  C   UNL     1       1.248  -9.323 -15.725  1.00  0.00     0.053 C 
BRANCH  13  14
ATOM     14  C   UNL     1       1.383 -10.792 -15.461  1.00  0.00     0.041 C 
ATOM     15  O   UNL     1       0.361 -11.497 -15.259  1.00  0.00    -0.550 OA
ATOM     16  O   UNL     1       2.640 -11.385 -15.465  1.00  0.00    -0.550 OA
ENDBRANCH  13  14
ENDBRANCH  12  13
ENDBRANCH  11  12
ENDBRANCH  10  11
ENDBRANCH   9  10
ENDBRANCH   8   9
ENDBRANCH   7   8
ENDBRANCH   6   7
ENDBRANCH   5   6
ENDBRANCH   4   5
ENDBRANCH   3   4
ENDBRANCH   2   3
ENDBRANCH   1   2
BRANCH   1  17
ATOM     17  C   UNL     1      -5.405  -7.941  -9.169  1.00  0.00     0.000 C 
BRANCH  17  18
ATOM     18  C   UNL     1      -4.440  -9.140  -9.096  1.00  0.00     0.000 C 
BRANCH  18  19
ATOM     19  C   UNL     1      -4.320  -9.767  -7.692  1.00  0.00     0.000 C 
BRANCH  19  20
ATOM     20  C   UNL     1      -4.785 -11.233  -7.648  1.00  0.00     0.000 C 
BRANCH  20  21
ATOM     21  C   UNL     1      -5.201 -11.691  -6.239  1.00  0.00     0.000 C 
BRANCH  21  22
ATOM     22  C   UNL     1      -4.543 -10.875  -5.104  1.00  0.00    -0.000 C 
BRANCH  22  23
ATOM     23  C   UNL     1      -4.755  -9.361  -5.283  1.00  0.00    -0.000 C 
BRANCH  23  24
ATOM     24  C   UNL     1      -3.477  -8.547  -5.030  1.00  0.00    -0.000 C 
BRANCH  24  25
ATOM     25  C   UNL     1      -2.434  -8.716  -6.144  1.00  0.00    -0.000 C 
BRANCH  25  26
ATOM     26  C   UNL     1      -1.606  -7.433  -6.325  1.00  0.00    -0.000 C 
BRANCH  26  27
ATOM     27  C   UNL     1      -0.659  -7.177  -5.134  1.00  0.00    -0.000 C 
BRANCH  27  28
ATOM     28  C   UNL     1       0.503  -6.222  -5.466  1.00  0.00    -0.000 C 
BRANCH  28  29
ATOM     29  C   UNL     1       1.844  -6.680  -4.876  1.00  0.00    -0.003 C 
ATOM     30  C   UNL     1       2.167  -8.112  -5.294  1.00  0.00     0.004 C 
ENDBRANCH  28  29
ENDBRANCH  27  28
ENDBRANCH  26  27
ENDBRANCH  25  26
ENDBRANCH  24  25
ENDBRANCH  23  24
ENDBRANCH  22  23
ENDBRANCH  21  22
ENDBRANCH  20  21
ENDBRANCH  19  20
ENDBRANCH  18  19
ENDBRANCH  17  18
ENDBRANCH   1  17
TORSDOF 26
ENDMDL
MODEL 4
REMARK VINA RESULT:    15.262      5.066     13.394
REMARK INTER + INTRA:          38.478
REMARK INTER:                  38.976
REMARK INTRA:                  -0.497
REMARK UNBOUND:                 0.018
REMARK SMILES CCCCCCCCCCCCCCCCCCCCCCCCCCCC(=O)[O-]
REMARK SMILES IDX 15 1 16 2 17 3 18 4 19 5 20 6 21 7 22 8 23 9 24 10 25 11
REMARK SMILES IDX 26 12 27 13 28 14 29 15 30 16 14 17 13 18 12 19 11 20 10 21
REMARK SMILES IDX 9 22 8 23 7 24 6 25 5 26 4 27 3 28 2 29 1 30
REMARK H PARENT
REMARK Flexibility Score: inf
ROOT
ATOM      1  C   UNL     1      -5.277  -8.562  -9.903  1.00  0.00     0.000 C 
ENDROOT
BRANCH   1   2
ATOM      2  C   UNL     1      -5.659  -7.143 -10.360  1.00  0.00     0.000 C 
BRANCH   2   3
ATOM      3  C   UNL     1      -5.272  -6.868 -11.823  1.00  0.00     0.000 C 
BRANCH   3   4
ATOM      4  C   UNL     1      -5.313  -5.368 -12.166  1.00  0.00     0.000 C 
BRANCH   4   5
ATOM      5  C   UNL     1      -4.973  -5.079 -13.640  1.00  0.00     0.000 C 
BRANCH   5   6
ATOM      6  C   UNL     1      -4.050  -6.111 -14.313  1.00  0.00     0.000 C 
BRANCH   6   7
ATOM      7  C   UNL     1      -4.790  -7.020 -15.312  1.00  0.00     0.000 C 
BRANCH   7   8
ATOM      8  C   UNL     1      -4.603  -6.565 -16.768  1.00  0.00     0.000 C 
BRANCH   8   9
ATOM      9  C   UNL     1      -3.136  -6.240 -17.098  1.00  0.00     0.000 C 
BRANCH   9  10
ATOM     10  C   UNL     1      -2.145  -6.859 -16.096  1.00  0.00     0.000 C 
BRANCH  10  11
ATOM     11  C   UNL     1      -0.766  -7.215 -16.682  1.00  0.00     0.000 C 
BRANCH  11  12
ATOM     12  C   UNL     1       0.355  -6.292 -16.176  1.00  0.00     0.006 C 
BRANCH  12  13
ATOM     13  C   UNL     1       1.736  -6.734 -16.677  1.00  0.00     0.053 C 
BRANCH  13  14
ATOM     14  C   UNL     1       2.750  -5.639 -16.538  1.00  0.00     0.041 C 
ATOM     15  O   UNL     1       2.732  -4.883 -15.532  1.00  0.00    -0.550 OA
ATOM     16  O   UNL     1       3.731  -5.474 -17.508  1.00  0.00    -0.550 OA
ENDBRANCH  13  14
ENDBRANCH  12  13
ENDBRANCH  11  12
ENDBRANCH  10  11
ENDBRANCH   9  10
ENDBRANCH   8   9
ENDBRANCH   7   8
ENDBRANCH   6   7
ENDBRANCH   5   6
ENDBRANCH   4   5
ENDBRANCH   3   4
ENDBRANCH   2   3
ENDBRANCH   1   2
BRANCH   1  17
ATOM     17  C   UNL     1      -4.298  -8.559  -8.716  1.00  0.00     0.000 C 
BRANCH  17  18
ATOM     18  C   UNL     1      -4.541  -9.656  -7.661  1.00  0.00     0.000 C 
BRANCH  18  19
ATOM     19  C   UNL     1      -3.876  -9.376  -6.298  1.00  0.00     0.000 C 
BRANCH  19  20
ATOM     20  C   UNL     1      -4.269 -10.399  -5.217  1.00  0.00     0.000 C 
BRANCH  20  21
ATOM     21  C   UNL     1      -5.668 -11.001  -5.440  1.00  0.00     0.000 C 
BRANCH  21  22
ATOM     22  C   UNL     1      -5.654 -12.527  -5.679  1.00  0.00    -0.000 C 
BRANCH  22  23
ATOM     23  C   UNL     1      -4.498 -12.957  -6.601  1.00  0.00    -0.000 C 
BRANCH  23  24
ATOM     24  C   UNL     1      -4.984 -13.485  -7.959  1.00  0.00    -0.000 C 
BRANCH  24  25
ATOM     25  C   UNL     1      -6.514 -13.581  -8.045  1.00  0.00    -0.000 C 
BRANCH  25  26
ATOM     26  C   UNL     1      -6.945 -14.447  -9.241  1.00  0.00    -0.000 C 
BRANCH  26  27
ATOM     27  C   UNL     1      -8.399 -14.163  -9.673  1.00  0.00    -0.000 C 
BRANCH  27  28
ATOM     28  C   UNL     1      -8.867 -15.023 -10.861  1.00  0.00    -0.000 C 
BRANCH  28  29
ATOM     29  C   UNL     1      -8.662 -16.527 -10.631  1.00  0.00    -0.003 C 
ATOM     30  C   UNL     1      -7.876 -17.156 -11.778  1.00  0.00     0.004 C 
ENDBRANCH  28  29
ENDBRANCH  27  28
ENDBRANCH  26  27
ENDBRANCH  25  26
ENDBRANCH  24  25
ENDBRANCH  23  24
ENDBRANCH  22  23
ENDBRANCH  21  22
ENDBRANCH  20  21
ENDBRANCH  19  20
ENDBRANCH  18  19
ENDBRANCH  17  18
ENDBRANCH   1  17
TORSDOF 26
ENDMDL
MODEL 5
REMARK VINA RESULT:    15.576      3.895      6.928
REMARK INTER + INTRA:          39.268
REMARK INTER:                  39.520
REMARK INTRA:                  -0.252
REMARK UNBOUND:                 0.018
REMARK SMILES CCCCCCCCCCCCCCCCCCCCCCCCCCCC(=O)[O-]
REMARK SMILES IDX 15 1 16 2 17 3 18 4 19 5 20 6 21 7 22 8 23 9 24 10 25 11
REMARK SMILES IDX 26 12 27 13 28 14 29 15 30 16 14 17 13 18 12 19 11 20 10 21
REMARK SMILES IDX 9 22 8 23 7 24 6 25 5 26 4 27 3 28 2 29 1 30
REMARK H PARENT
REMARK Flexibility Score: inf
ROOT
ATOM      1  C   UNL     1      -2.196 -13.317 -13.491  1.00  0.00     0.000 C 
ENDROOT
BRANCH   1   2
ATOM      2  C   UNL     1      -2.230 -12.222 -12.411  1.00  0.00     0.000 C 
BRANCH   2   3
ATOM      3  C   UNL     1      -3.570 -12.174 -11.658  1.00  0.00     0.000 C 
BRANCH   3   4
ATOM      4  C   UNL     1      -3.400 -11.750 -10.188  1.00  0.00     0.000 C 
BRANCH   4   5
ATOM      5  C   UNL     1      -4.337 -10.598  -9.782  1.00  0.00     0.000 C 
BRANCH   5   6
ATOM      6  C   UNL     1      -3.689  -9.502  -8.916  1.00  0.00     0.000 C 
BRANCH   6   7
ATOM      7  C   UNL     1      -4.341  -9.368  -7.527  1.00  0.00     0.000 C 
BRANCH   7   8
ATOM      8  C   UNL     1      -3.621  -8.342  -6.638  1.00  0.00     0.000 C 
BRANCH   8   9
ATOM      9  C   UNL     1      -3.241  -8.920  -5.263  1.00  0.00     0.000 C 
BRANCH   9  10
ATOM     10  C   UNL     1      -4.086 -10.148  -4.875  1.00  0.00     0.000 C 
BRANCH  10  11
ATOM     11  C   UNL     1      -3.426 -11.507  -5.169  1.00  0.00     0.000 C 
BRANCH  11  12
ATOM     12  C   UNL     1      -4.412 -12.540  -5.740  1.00  0.00     0.006 C 
BRANCH  12  13
ATOM     13  C   UNL     1      -5.673 -12.673  -4.877  1.00  0.00     0.053 C 
BRANCH  13  14
ATOM     14  C   UNL     1      -6.801 -11.848  -5.417  1.00  0.00     0.041 C 
ATOM     15  O   UNL     1      -7.680 -12.377  -6.147  1.00  0.00    -0.550 OA
ATOM     16  O   UNL     1      -6.895 -10.501  -5.089  1.00  0.00    -0.550 OA
ENDBRANCH  13  14
ENDBRANCH  12  13
ENDBRANCH  11  12
ENDBRANCH  10  11
ENDBRANCH   9  10
ENDBRANCH   8   9
ENDBRANCH   7   8
ENDBRANCH   6   7
ENDBRANCH   5   6
ENDBRANCH   4   5
ENDBRANCH   3   4
ENDBRANCH   2   3
ENDBRANCH   1   2
BRANCH   1  17
ATOM     17  C   UNL     1      -0.764 -13.722 -13.880  1.00  0.00     0.000 C 
BRANCH  17  18
ATOM     18  C   UNL     1      -0.224 -13.072 -15.169  1.00  0.00     0.000 C 
BRANCH  18  19
ATOM     19  C   UNL     1       1.233 -13.453 -15.503  1.00  0.00     0.000 C 
BRANCH  19  20
ATOM     20  C   UNL     1       2.173 -12.236 -15.560  1.00  0.00     0.000 C 
BRANCH  20  21
ATOM     21  C   UNL     1       1.503 -10.935 -15.081  1.00  0.00     0.000 C 
BRANCH  21  22
ATOM     22  C   UNL     1       1.753  -9.730 -16.014  1.00  0.00    -0.000 C 
BRANCH  22  23
ATOM     23  C   UNL     1       0.778  -8.572 -15.736  1.00  0.00    -0.000 C 
BRANCH  23  24
ATOM     24  C   UNL     1      -0.427  -8.566 -16.689  1.00  0.00    -0.000 C 
BRANCH  24  25
ATOM     25  C   UNL     1      -1.014  -7.162 -16.895  1.00  0.00    -0.000 C 
BRANCH  25  26
ATOM     26  C   UNL     1      -2.251  -6.946 -16.007  1.00  0.00    -0.000 C 
BRANCH  26  27
ATOM     27  C   UNL     1      -3.271  -5.984 -16.650  1.00  0.00    -0.000 C 
BRANCH  27  28
ATOM     28  C   UNL     1      -4.736  -6.339 -16.335  1.00  0.00    -0.000 C 
BRANCH  28  29
ATOM     29  C   UNL     1      -4.999  -6.525 -14.834  1.00  0.00    -0.003 C 
ATOM     30  C   UNL     1      -4.057  -5.660 -14.000  1.00  0.00     0.004 C 
ENDBRANCH  28  29
ENDBRANCH  27  28
ENDBRANCH  26  27
ENDBRANCH  25  26
ENDBRANCH  24  25
ENDBRANCH  23  24
ENDBRANCH  22  23
ENDBRANCH  21  22
ENDBRANCH  20  21
ENDBRANCH  19  20
ENDBRANCH  18  19
ENDBRANCH  17  18
ENDBRANCH   1  17
TORSDOF 26
ENDMDL
MODEL 6
REMARK VINA RESULT:    15.838      0.979      2.384
REMARK INTER + INTRA:          39.929
REMARK INTER:                  39.536
REMARK INTRA:                   0.393
REMARK UNBOUND:                 0.018
REMARK SMILES CCCCCCCCCCCCCCCCCCCCCCCCCCCC(=O)[O-]
REMARK SMILES IDX 15 1 16 2 17 3 18 4 19 5 20 6 21 7 22 8 23 9 24 10 25 11
REMARK SMILES IDX 26 12 27 13 28 14 29 15 30 16 14 17 13 18 12 19 11 20 10 21
REMARK SMILES IDX 9 22 8 23 7 24 6 25 5 26 4 27 3 28 2 29 1 30
REMARK H PARENT
REMARK Flexibility Score: inf
ROOT
ATOM      1  C   UNL     1      -1.451  -7.063 -16.169  1.00  0.00     0.000 C 
ENDROOT
BRANCH   1   2
ATOM      2  C   UNL     1      -2.804  -7.268 -16.873  1.00  0.00     0.000 C 
BRANCH   2   3
ATOM      3  C   UNL     1      -3.896  -6.325 -16.342  1.00  0.00     0.000 C 
BRANCH   3   4
ATOM      4  C   UNL     1      -3.744  -6.042 -14.837  1.00  0.00     0.000 C 
BRANCH   4   5
ATOM      5  C   UNL     1      -4.987  -6.441 -14.021  1.00  0.00     0.000 C 
BRANCH   5   6
ATOM      6  C   UNL     1      -5.141  -5.720 -12.669  1.00  0.00     0.000 C 
BRANCH   6   7
ATOM      7  C   UNL     1      -5.726  -6.624 -11.568  1.00  0.00     0.000 C 
BRANCH   7   8
ATOM      8  C   UNL     1      -4.662  -7.085 -10.560  1.00  0.00     0.000 C 
BRANCH   8   9
ATOM      9  C   UNL     1      -5.138  -8.272  -9.704  1.00  0.00     0.000 C 
BRANCH   9  10
ATOM     10  C   UNL     1      -4.194  -8.578  -8.527  1.00  0.00     0.000 C 
BRANCH  10  11
ATOM     11  C   UNL     1      -4.838  -9.358  -7.366  1.00  0.00     0.000 C 
BRANCH  11  12
ATOM     12  C   UNL     1      -4.137 -10.698  -7.084  1.00  0.00     0.006 C 
BRANCH  12  13
ATOM     13  C   UNL     1      -4.121 -11.038  -5.589  1.00  0.00     0.053 C 
BRANCH  13  14
ATOM     14  C   UNL     1      -5.423 -11.631  -5.144  1.00  0.00     0.041 C 
ATOM     15  O   UNL     1      -5.503 -12.859  -4.880  1.00  0.00    -0.550 OA
ATOM     16  O   UNL     1      -6.541 -10.820  -4.994  1.00  0.00    -0.550 OA
ENDBRANCH  13  14
ENDBRANCH  12  13
ENDBRANCH  11  12
ENDBRANCH  10  11
ENDBRANCH   9  10
ENDBRANCH   8   9
ENDBRANCH   7   8
ENDBRANCH   6   7
ENDBRANCH   5   6
ENDBRANCH   4   5
ENDBRANCH   3   4
ENDBRANCH   2   3
ENDBRANCH   1   2
BRANCH   1  17
ATOM     17  C   UNL     1      -0.283  -6.920 -17.159  1.00  0.00     0.000 C 
BRANCH  17  18
ATOM     18  C   UNL     1       1.113  -6.790 -16.517  1.00  0.00     0.000 C 
BRANCH  18  19
ATOM     19  C   UNL     1       2.240  -6.477 -17.521  1.00  0.00     0.000 C 
BRANCH  19  20
ATOM     20  C   UNL     1       3.618  -6.331 -16.849  1.00  0.00     0.000 C 
BRANCH  20  21
ATOM     21  C   UNL     1       4.788  -6.475 -17.839  1.00  0.00     0.000 C 
BRANCH  21  22
ATOM     22  C   UNL     1       5.199  -7.941 -18.101  1.00  0.00    -0.000 C 
BRANCH  22  23
ATOM     23  C   UNL     1       6.356  -8.044 -19.112  1.00  0.00    -0.000 C 
BRANCH  23  24
ATOM     24  C   UNL     1       7.413  -9.082 -18.704  1.00  0.00    -0.000 C 
BRANCH  24  25
ATOM     25  C   UNL     1       7.849  -9.977 -19.872  1.00  0.00    -0.000 C 
BRANCH  25  26
ATOM     26  C   UNL     1       8.596  -9.163 -20.941  1.00  0.00    -0.000 C 
BRANCH  26  27
ATOM     27  C   UNL     1       7.641  -8.572 -21.999  1.00  0.00    -0.000 C 
BRANCH  27  28
ATOM     28  C   UNL     1       7.064  -7.199 -21.609  1.00  0.00    -0.000 C 
BRANCH  28  29
ATOM     29  C   UNL     1       7.676  -6.041 -22.411  1.00  0.00    -0.003 C 
ATOM     30  C   UNL     1       9.029  -6.434 -22.997  1.00  0.00     0.004 C 
ENDBRANCH  28  29
ENDBRANCH  27  28
ENDBRANCH  26  27
ENDBRANCH  25  26
ENDBRANCH  24  25
ENDBRANCH  23  24
ENDBRANCH  22  23
ENDBRANCH  21  22
ENDBRANCH  20  21
ENDBRANCH  19  20
ENDBRANCH  18  19
ENDBRANCH  17  18
ENDBRANCH   1  17
TORSDOF 26
ENDMDL
MODEL 7
REMARK VINA RESULT:    15.851      5.472     11.687
REMARK INTER + INTRA:          39.963
REMARK INTER:                  41.198
REMARK INTRA:                  -1.235
REMARK UNBOUND:                 0.018
REMARK SMILES CCCCCCCCCCCCCCCCCCCCCCCCCCCC(=O)[O-]
REMARK SMILES IDX 15 1 16 2 17 3 18 4 19 5 20 6 21 7 22 8 23 9 24 10 25 11
REMARK SMILES IDX 26 12 27 13 28 14 29 15 30 16 14 17 13 18 12 19 11 20 10 21
REMARK SMILES IDX 9 22 8 23 7 24 6 25 5 26 4 27 3 28 2 29 1 30
REMARK H PARENT
REMARK Flexibility Score: inf
ROOT
ATOM      1  C   UNL     1      -3.504 -10.896  -9.752  1.00  0.00     0.000 C 
ENDROOT
BRANCH   1   2
ATOM      2  C   UNL     1      -3.468 -11.961 -10.863  1.00  0.00     0.000 C 
BRANCH   2   3
ATOM      3  C   UNL     1      -2.520 -11.584 -12.014  1.00  0.00     0.000 C 
BRANCH   3   4
ATOM      4  C   UNL     1      -2.138 -12.799 -12.877  1.00  0.00     0.000 C 
BRANCH   4   5
ATOM      5  C   UNL     1      -0.770 -12.641 -13.566  1.00  0.00     0.000 C 
BRANCH   5   6
ATOM      6  C   UNL     1      -0.730 -11.616 -14.715  1.00  0.00     0.000 C 
BRANCH   6   7
ATOM      7  C   UNL     1       0.526 -10.726 -14.683  1.00  0.00     0.000 C 
BRANCH   7   8
ATOM      8  C   UNL     1       0.919 -10.216 -16.079  1.00  0.00     0.000 C 
BRANCH   8   9
ATOM      9  C   UNL     1       0.799  -8.687 -16.201  1.00  0.00     0.000 C 
BRANCH   9  10
ATOM     10  C   UNL     1      -0.606  -8.166 -15.847  1.00  0.00     0.000 C 
BRANCH  10  11
ATOM     11  C   UNL     1      -1.374  -7.525 -17.017  1.00  0.00     0.000 C 
BRANCH  11  12
ATOM     12  C   UNL     1      -2.329  -6.407 -16.565  1.00  0.00     0.006 C 
BRANCH  12  13
ATOM     13  C   UNL     1      -3.077  -6.772 -15.276  1.00  0.00     0.053 C 
BRANCH  13  14
ATOM     14  C   UNL     1      -4.403  -6.080 -15.192  1.00  0.00     0.041 C 
ATOM     15  O   UNL     1      -4.949  -5.889 -14.075  1.00  0.00    -0.550 OA
ATOM     16  O   UNL     1      -5.021  -5.622 -16.349  1.00  0.00    -0.550 OA
ENDBRANCH  13  14
ENDBRANCH  12  13
ENDBRANCH  11  12
ENDBRANCH  10  11
ENDBRANCH   9  10
ENDBRANCH   8   9
ENDBRANCH   7   8
ENDBRANCH   6   7
ENDBRANCH   5   6
ENDBRANCH   4   5
ENDBRANCH   3   4
ENDBRANCH   2   3
ENDBRANCH   1   2
BRANCH   1  17
ATOM     17  C   UNL     1      -4.530 -11.221  -8.652  1.00  0.00     0.000 C 
BRANCH  17  18
ATOM     18  C   UNL     1      -4.796 -10.085  -7.645  1.00  0.00     0.000 C 
BRANCH  18  19
ATOM     19  C   UNL     1      -3.528  -9.325  -7.206  1.00  0.00     0.000 C 
BRANCH  19  20
ATOM     20  C   UNL     1      -3.530  -8.971  -5.708  1.00  0.00     0.000 C 
BRANCH  20  21
ATOM     21  C   UNL     1      -3.261  -7.479  -5.442  1.00  0.00     0.000 C 
BRANCH  21  22
ATOM     22  C   UNL     1      -1.852  -7.196  -4.875  1.00  0.00    -0.000 C 
BRANCH  22  23
ATOM     23  C   UNL     1      -1.081  -6.171  -5.727  1.00  0.00    -0.000 C 
BRANCH  23  24
ATOM     24  C   UNL     1       0.345  -5.924  -5.215  1.00  0.00    -0.000 C 
BRANCH  24  25
ATOM     25  C   UNL     1       1.176  -7.213  -5.125  1.00  0.00    -0.000 C 
BRANCH  25  26
ATOM     26  C   UNL     1       2.681  -6.899  -5.118  1.00  0.00    -0.000 C 
BRANCH  26  27
ATOM     27  C   UNL     1       2.965  -5.401  -4.881  1.00  0.00    -0.000 C 
BRANCH  27  28
ATOM     28  C   UNL     1       4.453  -5.027  -5.015  1.00  0.00    -0.000 C 
BRANCH  28  29
ATOM     29  C   UNL     1       5.160  -5.777  -6.153  1.00  0.00    -0.003 C 
ATOM     30  C   UNL     1       6.647  -5.948  -5.857  1.00  0.00     0.004 C 
ENDBRANCH  28  29
ENDBRANCH  27  28
ENDBRANCH  26  27
ENDBRANCH  25  26
ENDBRANCH  24  25
ENDBRANCH  23  24
ENDBRANCH  22  23
ENDBRANCH  21  22
ENDBRANCH  20  21
ENDBRANCH  19  20
ENDBRANCH  18  19
ENDBRANCH  17  18
ENDBRANCH   1  17
TORSDOF 26
ENDMDL
MODEL 8
REMARK VINA RESULT:    15.910      5.656     14.504
REMARK INTER + INTRA:          40.109
REMARK INTER:                  40.245
REMARK INTRA:                  -0.136
REMARK UNBOUND:                 0.018
REMARK SMILES CCCCCCCCCCCCCCCCCCCCCCCCCCCC(=O)[O-]
REMARK SMILES IDX 15 1 16 2 17 3 18 4 19 5 20 6 21 7 22 8 23 9 24 10 25 11
REMARK SMILES IDX 26 12 27 13 28 14 29 15 30 16 14 17 13 18 12 19 11 20 10 21
REMARK SMILES IDX 9 22 8 23 7 24 6 25 5 26 4 27 3 28 2 29 1 30
REMARK H PARENT
REMARK Flexibility Score: inf
ROOT
ATOM      1  C   UNL     1      -3.810  -6.762 -15.218  1.00  0.00     0.000 C 
ENDROOT
BRANCH   1   2
ATOM      2  C   UNL     1      -3.214  -6.307 -16.562  1.00  0.00     0.000 C 
BRANCH   2   3
ATOM      3  C   UNL     1      -1.676  -6.300 -16.555  1.00  0.00     0.000 C 
BRANCH   3   4
ATOM      4  C   UNL     1      -1.084  -7.688 -16.853  1.00  0.00     0.000 C 
BRANCH   4   5
ATOM      5  C   UNL     1       0.427  -7.771 -16.569  1.00  0.00     0.000 C 
BRANCH   5   6
ATOM      6  C   UNL     1       1.184  -6.432 -16.661  1.00  0.00     0.000 C 
BRANCH   6   7
ATOM      7  C   UNL     1       2.572  -6.570 -17.314  1.00  0.00     0.000 C 
BRANCH   7   8
ATOM      8  C   UNL     1       3.629  -5.681 -16.640  1.00  0.00     0.000 C 
BRANCH   8   9
ATOM      9  C   UNL     1       5.036  -5.892 -17.227  1.00  0.00     0.000 C 
BRANCH   9  10
ATOM     10  C   UNL     1       5.070  -6.966 -18.329  1.00  0.00     0.000 C 
BRANCH  10  11
ATOM     11  C   UNL     1       6.277  -7.919 -18.269  1.00  0.00     0.000 C 
BRANCH  11  12
ATOM     12  C   UNL     1       6.487  -8.702 -19.576  1.00  0.00     0.006 C 
BRANCH  12  13
ATOM     13  C   UNL     1       7.863  -8.430 -20.197  1.00  0.00     0.053 C 
BRANCH  13  14
ATOM     14  C   UNL     1       7.751  -7.622 -21.455  1.00  0.00     0.041 C 
ATOM     15  O   UNL     1       6.689  -7.642 -22.129  1.00  0.00    -0.550 OA
ATOM     16  O   UNL     1       8.813  -6.824 -21.864  1.00  0.00    -0.550 OA
ENDBRANCH  13  14
ENDBRANCH  12  13
ENDBRANCH  11  12
ENDBRANCH  10  11
ENDBRANCH   9  10
ENDBRANCH   8   9
ENDBRANCH   7   8
ENDBRANCH   6   7
ENDBRANCH   5   6
ENDBRANCH   4   5
ENDBRANCH   3   4
ENDBRANCH   2   3
ENDBRANCH   1   2
BRANCH   1  17
ATOM     17  C   UNL     1      -3.679  -5.693 -14.119  1.00  0.00     0.000 C 
BRANCH  17  18
ATOM     18  C   UNL     1      -4.960  -5.429 -13.303  1.00  0.00     0.000 C 
BRANCH  18  19
ATOM     19  C   UNL     1      -4.941  -6.042 -11.888  1.00  0.00     0.000 C 
BRANCH  19  20
ATOM     20  C   UNL     1      -6.305  -6.617 -11.466  1.00  0.00     0.000 C 
BRANCH  20  21
ATOM     21  C   UNL     1      -6.313  -7.147 -10.021  1.00  0.00     0.000 C 
BRANCH  21  22
ATOM     22  C   UNL     1      -5.160  -8.128  -9.715  1.00  0.00    -0.000 C 
BRANCH  22  23
ATOM     23  C   UNL     1      -4.894  -8.254  -8.203  1.00  0.00    -0.000 C 
BRANCH  23  24
ATOM     24  C   UNL     1      -4.072  -9.502  -7.846  1.00  0.00    -0.000 C 
BRANCH  24  25
ATOM     25  C   UNL     1      -3.007  -9.225  -6.775  1.00  0.00    -0.000 C 
BRANCH  25  26
ATOM     26  C   UNL     1      -3.619  -9.268  -5.365  1.00  0.00    -0.000 C 
BRANCH  26  27
ATOM     27  C   UNL     1      -4.937 -10.069  -5.324  1.00  0.00    -0.000 C 
BRANCH  27  28
ATOM     28  C   UNL     1      -4.903 -11.355  -6.170  1.00  0.00    -0.000 C 
BRANCH  28  29
ATOM     29  C   UNL     1      -6.277 -12.029  -6.294  1.00  0.00    -0.003 C 
ATOM     30  C   UNL     1      -7.303 -11.353  -5.388  1.00  0.00     0.004 C 
ENDBRANCH  28  29
ENDBRANCH  27  28
ENDBRANCH  26  27
ENDBRANCH  25  26
ENDBRANCH  24  25
ENDBRANCH  23  24
ENDBRANCH  22  23
ENDBRANCH  21  22
ENDBRANCH  20  21
ENDBRANCH  19  20
ENDBRANCH  18  19
ENDBRANCH  17  18
ENDBRANCH   1  17
TORSDOF 26
ENDMDL
MODEL 9
REMARK VINA RESULT:    15.941      4.436      7.517
REMARK INTER + INTRA:          40.188
REMARK INTER:                  41.464
REMARK INTRA:                  -1.276
REMARK UNBOUND:                 0.018
REMARK SMILES CCCCCCCCCCCCCCCCCCCCCCCCCCCC(=O)[O-]
REMARK SMILES IDX 15 1 16 2 17 3 18 4 19 5 20 6 21 7 22 8 23 9 24 10 25 11
REMARK SMILES IDX 26 12 27 13 28 14 29 15 30 16 14 17 13 18 12 19 11 20 10 21
REMARK SMILES IDX 9 22 8 23 7 24 6 25 5 26 4 27 3 28 2 29 1 30
REMARK H PARENT
REMARK Flexibility Score: inf
ROOT
ATOM      1  C   UNL     1      -1.978 -13.114 -13.835  1.00  0.00     0.000 C 
ENDROOT
BRANCH   1   2
ATOM      2  C   UNL     1      -2.104 -12.264 -12.558  1.00  0.00     0.000 C 
BRANCH   2   3
ATOM      3  C   UNL     1      -3.361 -12.607 -11.741  1.00  0.00     0.000 C 
BRANCH   3   4
ATOM      4  C   UNL     1      -3.605 -11.607 -10.597  1.00  0.00     0.000 C 
BRANCH   4   5
ATOM      5  C   UNL     1      -4.731 -12.047  -9.643  1.00  0.00     0.000 C 
BRANCH   5   6
ATOM      6  C   UNL     1      -4.802 -11.272  -8.314  1.00  0.00     0.000 C 
BRANCH   6   7
ATOM      7  C   UNL     1      -4.155 -12.030  -7.139  1.00  0.00     0.000 C 
BRANCH   7   8
ATOM      8  C   UNL     1      -4.520 -11.421  -5.776  1.00  0.00     0.000 C 
BRANCH   8   9
ATOM      9  C   UNL     1      -4.906  -9.935  -5.881  1.00  0.00     0.000 C 
BRANCH   9  10
ATOM     10  C   UNL     1      -4.070  -9.033  -4.954  1.00  0.00     0.000 C 
BRANCH  10  11
ATOM     11  C   UNL     1      -2.595  -8.870  -5.365  1.00  0.00     0.000 C 
BRANCH  11  12
ATOM     12  C   UNL     1      -2.183  -7.399  -5.544  1.00  0.00     0.006 C 
BRANCH  12  13
ATOM     13  C   UNL     1      -0.837  -7.091  -4.876  1.00  0.00     0.053 C 
BRANCH  13  14
ATOM     14  C   UNL     1       0.300  -7.213  -5.844  1.00  0.00     0.041 C 
ATOM     15  O   UNL     1       0.175  -7.910  -6.884  1.00  0.00    -0.550 OA
ATOM     16  O   UNL     1       1.489  -6.533  -5.609  1.00  0.00    -0.550 OA
ENDBRANCH  13  14
ENDBRANCH  12  13
ENDBRANCH  11  12
ENDBRANCH  10  11
ENDBRANCH   9  10
ENDBRANCH   8   9
ENDBRANCH   7   8
ENDBRANCH   6   7
ENDBRANCH   5   6
ENDBRANCH   4   5
ENDBRANCH   3   4
ENDBRANCH   2   3
ENDBRANCH   1   2
BRANCH   1  17
ATOM     17  C   UNL     1      -0.549 -13.635 -14.061  1.00  0.00     0.000 C 
BRANCH  17  18
ATOM     18  C   UNL     1       0.021 -13.402 -15.474  1.00  0.00     0.000 C 
BRANCH  18  19
ATOM     19  C   UNL     1       1.544 -13.616 -15.582  1.00  0.00     0.000 C 
BRANCH  19  20
ATOM     20  C   UNL     1       2.296 -12.354 -16.042  1.00  0.00     0.000 C 
BRANCH  20  21
ATOM     21  C   UNL     1       1.948 -11.108 -15.208  1.00  0.00     0.000 C 
BRANCH  21  22
ATOM     22  C   UNL     1       2.131  -9.780 -15.974  1.00  0.00    -0.000 C 
BRANCH  22  23
ATOM     23  C   UNL     1       0.860  -8.910 -15.935  1.00  0.00    -0.000 C 
BRANCH  23  24
ATOM     24  C   UNL     1       0.815  -7.872 -17.066  1.00  0.00    -0.000 C 
BRANCH  24  25
ATOM     25  C   UNL     1      -0.514  -7.105 -17.115  1.00  0.00    -0.000 C 
BRANCH  25  26
ATOM     26  C   UNL     1      -1.297  -7.274 -15.803  1.00  0.00    -0.000 C 
BRANCH  26  27
ATOM     27  C   UNL     1      -2.821  -7.163 -16.014  1.00  0.00    -0.000 C 
BRANCH  27  28
ATOM     28  C   UNL     1      -3.497  -6.130 -15.093  1.00  0.00    -0.000 C 
BRANCH  28  29
ATOM     29  C   UNL     1      -5.013  -6.029 -15.315  1.00  0.00    -0.003 C 
ATOM     30  C   UNL     1      -5.381  -6.376 -16.755  1.00  0.00     0.004 C 
ENDBRANCH  28  29
ENDBRANCH  27  28
ENDBRANCH  26  27
ENDBRANCH  25  26
ENDBRANCH  24  25
ENDBRANCH  23  24
ENDBRANCH  22  23
ENDBRANCH  21  22
ENDBRANCH  20  21
ENDBRANCH  19  20
ENDBRANCH  18  19
ENDBRANCH  17  18
ENDBRANCH   1  17
TORSDOF 26
ENDMDL
