MODEL 1
REMARK VINA RESULT:    -5.415      0.000      0.000
REMARK INTER + INTRA:          -7.380
REMARK INTER:                  -6.840
REMARK INTRA:                  -0.540
REMARK UNBOUND:                -0.540
REMARK SMILES Oc1cc(O)cc(CCc2ccccc2O)c1
REMARK SMILES IDX 9 1 10 2 12 3 13 4 11 5 14 6 15 7 16 8 8 10 7 11 6 12 17 13
REMARK SMILES IDX 4 14 2 15 3 16 5 17 1 19
REMARK H PARENT 16 9 5 18 1 20
REMARK Flexibility Score: inf
ROOT
ATOM      1  C   UNL     1     170.464 174.205 151.706  1.00  0.00     0.044 C 
ENDROOT
BRANCH   1   2
ATOM      2  C   UNL     1     171.938 174.024 151.443  1.00  0.00    -0.006 A 
ATOM      3  C   UNL     1     173.746 173.594 149.874  1.00  0.00     0.001 A 
ATOM      4  C   UNL     1     174.680 173.749 150.900  1.00  0.00     0.004 A 
ATOM      5  C   UNL     1     172.382 173.736 150.141  1.00  0.00     0.007 A 
ATOM      6  C   UNL     1     174.252 174.050 152.196  1.00  0.00     0.046 A 
ATOM      7  C   UNL     1     172.884 174.194 152.473  1.00  0.00     0.118 A 
BRANCH   7   8
ATOM      8  O   UNL     1     172.465 174.510 153.766  1.00  0.00    -0.508 OA
ATOM      9  H   UNL     1     171.618 174.117 154.161  1.00  0.00     0.293 HD
ENDBRANCH   7   8
ENDBRANCH   1   2
BRANCH   1  10
ATOM     10  C   UNL     1     169.723 172.872 151.559  1.00  0.00     0.040 C 
BRANCH  10  11
ATOM     11  C   UNL     1     168.550 173.020 150.628  1.00  0.00    -0.040 A 
ATOM     12  C   UNL     1     168.284 174.254 150.014  1.00  0.00     0.050 A 
ATOM     13  C   UNL     1     167.746 171.909 150.321  1.00  0.00     0.050 A 
ATOM     14  C   UNL     1     167.211 174.383 149.121  1.00  0.00     0.119 A 
ATOM     15  C   UNL     1     166.672 172.038 149.429  1.00  0.00     0.119 A 
ATOM     16  C   UNL     1     166.407 173.275 148.834  1.00  0.00     0.092 A 
BRANCH  14  17
ATOM     17  O   UNL     1     166.936 175.607 148.515  1.00  0.00    -0.508 OA
ATOM     18  H   UNL     1     166.118 176.151 148.765  1.00  0.00     0.293 HD
ENDBRANCH  14  17
BRANCH  15  19
ATOM     19  O   UNL     1     165.867 170.943 149.126  1.00  0.00    -0.508 OA
ATOM     20  H   UNL     1     165.762 170.167 149.769  1.00  0.00     0.293 HD
ENDBRANCH  15  19
ENDBRANCH  10  11
ENDBRANCH   1  10
TORSDOF 6
ENDMDL
MODEL 2
REMARK VINA RESULT:    -5.402      4.757      6.951
REMARK INTER + INTRA:          -7.364
REMARK INTER:                  -6.725
REMARK INTRA:                  -0.639
REMARK UNBOUND:                -0.540
REMARK SMILES Oc1cc(O)cc(CCc2ccccc2O)c1
REMARK SMILES IDX 9 1 10 2 12 3 13 4 11 5 14 6 15 7 16 8 8 10 7 11 6 12 17 13
REMARK SMILES IDX 4 14 2 15 3 16 5 17 1 19
REMARK H PARENT 16 9 5 18 1 20
REMARK Flexibility Score: inf
ROOT
ATOM      1  C   UNL     1     172.486 170.578 151.056  1.00  0.00     0.044 C 
ENDROOT
BRANCH   1   2
ATOM      2  C   UNL     1     173.120 169.472 150.250  1.00  0.00    -0.006 A 
ATOM      3  C   UNL     1     172.907 167.710 148.587  1.00  0.00     0.001 A 
ATOM      4  C   UNL     1     174.276 167.451 148.680  1.00  0.00     0.004 A 
ATOM      5  C   UNL     1     172.331 168.719 149.363  1.00  0.00     0.007 A 
ATOM      6  C   UNL     1     175.073 168.203 149.545  1.00  0.00     0.046 A 
ATOM      7  C   UNL     1     174.504 169.218 150.329  1.00  0.00     0.118 A 
BRANCH   7   8
ATOM      8  O   UNL     1     175.309 169.975 151.181  1.00  0.00    -0.508 OA
ATOM      9  H   UNL     1     176.186 170.373 150.868  1.00  0.00     0.293 HD
ENDBRANCH   7   8
ENDBRANCH   1   2
BRANCH   1  10
ATOM     10  C   UNL     1     172.396 171.864 150.228  1.00  0.00     0.040 C 
BRANCH  10  11
ATOM     11  C   UNL     1     173.447 172.848 150.666  1.00  0.00    -0.040 A 
ATOM     12  C   UNL     1     173.632 173.128 152.029  1.00  0.00     0.050 A 
ATOM     13  C   UNL     1     174.290 173.451 149.717  1.00  0.00     0.050 A 
ATOM     14  C   UNL     1     174.632 174.021 152.438  1.00  0.00     0.119 A 
ATOM     15  C   UNL     1     175.291 174.343 150.126  1.00  0.00     0.119 A 
ATOM     16  C   UNL     1     175.457 174.627 151.485  1.00  0.00     0.092 A 
BRANCH  14  17
ATOM     17  O   UNL     1     174.816 174.310 153.789  1.00  0.00    -0.508 OA
ATOM     18  H   UNL     1     174.566 175.212 154.177  1.00  0.00     0.293 HD
ENDBRANCH  14  17
BRANCH  15  19
ATOM     19  O   UNL     1     176.125 174.950 149.190  1.00  0.00    -0.508 OA
ATOM     20  H   UNL     1     177.038 174.571 148.967  1.00  0.00     0.293 HD
ENDBRANCH  15  19
ENDBRANCH  10  11
ENDBRANCH   1  10
TORSDOF 6
ENDMDL
MODEL 3
REMARK VINA RESULT:    -5.391      4.031      5.598
REMARK INTER + INTRA:          -7.349
REMARK INTER:                  -6.942
REMARK INTRA:                  -0.407
REMARK UNBOUND:                -0.540
REMARK SMILES Oc1cc(O)cc(CCc2ccccc2O)c1
REMARK SMILES IDX 9 1 10 2 12 3 13 4 11 5 14 6 15 7 16 8 8 10 7 11 6 12 17 13
REMARK SMILES IDX 4 14 2 15 3 16 5 17 1 19
REMARK H PARENT 16 9 5 18 1 20
REMARK Flexibility Score: inf
ROOT
ATOM      1  C   UNL     1     172.775 174.233 150.830  1.00  0.00     0.044 C 
ENDROOT
BRANCH   1   2
ATOM      2  C   UNL     1     173.385 174.076 152.201  1.00  0.00    -0.006 A 
ATOM      3  C   UNL     1     175.351 174.108 153.631  1.00  0.00     0.001 A 
ATOM      4  C   UNL     1     174.549 173.859 154.747  1.00  0.00     0.004 A 
ATOM      5  C   UNL     1     174.773 174.221 152.365  1.00  0.00     0.007 A 
ATOM      6  C   UNL     1     173.165 173.729 154.599  1.00  0.00     0.046 A 
ATOM      7  C   UNL     1     172.576 173.841 153.331  1.00  0.00     0.118 A 
BRANCH   7   8
ATOM      8  O   UNL     1     171.193 173.723 153.193  1.00  0.00    -0.508 OA
ATOM      9  H   UNL     1     170.657 174.381 152.638  1.00  0.00     0.293 HD
ENDBRANCH   7   8
ENDBRANCH   1   2
BRANCH   1  10
ATOM     10  C   UNL     1     173.647 173.551 149.771  1.00  0.00     0.040 C 
BRANCH  10  11
ATOM     11  C   UNL     1     173.662 172.061 149.980  1.00  0.00    -0.040 A 
ATOM     12  C   UNL     1     174.823 171.422 150.443  1.00  0.00     0.050 A 
ATOM     13  C   UNL     1     172.497 171.305 149.768  1.00  0.00     0.050 A 
ATOM     14  C   UNL     1     174.828 170.038 150.669  1.00  0.00     0.119 A 
ATOM     15  C   UNL     1     172.501 169.921 149.994  1.00  0.00     0.119 A 
ATOM     16  C   UNL     1     173.667 169.292 150.441  1.00  0.00     0.092 A 
BRANCH  14  17
ATOM     17  O   UNL     1     175.979 169.397 151.120  1.00  0.00    -0.508 OA
ATOM     18  H   UNL     1     176.897 169.644 150.768  1.00  0.00     0.293 HD
ENDBRANCH  14  17
BRANCH  15  19
ATOM     19  O   UNL     1     171.351 169.165 149.779  1.00  0.00    -0.508 OA
ATOM     20  H   UNL     1     171.384 168.271 149.303  1.00  0.00     0.293 HD
ENDBRANCH  15  19
ENDBRANCH  10  11
ENDBRANCH   1  10
TORSDOF 6
ENDMDL
MODEL 4
REMARK VINA RESULT:    -5.381      4.014      5.666
REMARK INTER + INTRA:          -7.337
REMARK INTER:                  -6.952
REMARK INTRA:                  -0.385
REMARK UNBOUND:                -0.540
REMARK SMILES Oc1cc(O)cc(CCc2ccccc2O)c1
REMARK SMILES IDX 9 1 10 2 12 3 13 4 11 5 14 6 15 7 16 8 8 10 7 11 6 12 17 13
REMARK SMILES IDX 4 14 2 15 3 16 5 17 1 19
REMARK H PARENT 16 9 5 18 1 20
REMARK Flexibility Score: inf
ROOT
ATOM      1  C   UNL     1     172.729 174.234 150.830  1.00  0.00     0.044 C 
ENDROOT
BRANCH   1   2
ATOM      2  C   UNL     1     173.365 174.088 152.190  1.00  0.00    -0.006 A 
ATOM      3  C   UNL     1     175.356 174.140 153.585  1.00  0.00     0.001 A 
ATOM      4  C   UNL     1     174.576 173.892 154.716  1.00  0.00     0.004 A 
ATOM      5  C   UNL     1     174.755 174.243 152.329  1.00  0.00     0.007 A 
ATOM      6  C   UNL     1     173.191 173.752 154.594  1.00  0.00     0.046 A 
ATOM      7  C   UNL     1     172.578 173.854 153.337  1.00  0.00     0.118 A 
BRANCH   7   8
ATOM      8  O   UNL     1     171.193 173.727 153.224  1.00  0.00    -0.508 OA
ATOM      9  H   UNL     1     170.646 173.241 153.925  1.00  0.00     0.293 HD
ENDBRANCH   7   8
ENDBRANCH   1   2
BRANCH   1  10
ATOM     10  C   UNL     1     173.566 173.517 149.765  1.00  0.00     0.040 C 
BRANCH  10  11
ATOM     11  C   UNL     1     173.589 172.034 150.022  1.00  0.00    -0.040 A 
ATOM     12  C   UNL     1     172.454 171.252 149.757  1.00  0.00     0.050 A 
ATOM     13  C   UNL     1     174.765 171.413 150.475  1.00  0.00     0.050 A 
ATOM     14  C   UNL     1     172.487 169.866 149.965  1.00  0.00     0.119 A 
ATOM     15  C   UNL     1     174.798 170.027 150.683  1.00  0.00     0.119 A 
ATOM     16  C   UNL     1     173.658 169.259 150.430  1.00  0.00     0.092 A 
BRANCH  14  17
ATOM     17  O   UNL     1     171.362 169.084 149.712  1.00  0.00    -0.508 OA
ATOM     18  H   UNL     1     170.433 169.488 149.670  1.00  0.00     0.293 HD
ENDBRANCH  14  17
BRANCH  15  19
ATOM     19  O   UNL     1     175.959 169.406 151.138  1.00  0.00    -0.508 OA
ATOM     20  H   UNL     1     176.877 169.770 150.916  1.00  0.00     0.293 HD
ENDBRANCH  15  19
ENDBRANCH  10  11
ENDBRANCH   1  10
TORSDOF 6
ENDMDL
MODEL 5
REMARK VINA RESULT:    -5.346      4.183      6.974
REMARK INTER + INTRA:          -7.293
REMARK INTER:                  -6.678
REMARK INTRA:                  -0.615
REMARK UNBOUND:                -0.540
REMARK SMILES Oc1cc(O)cc(CCc2ccccc2O)c1
REMARK SMILES IDX 9 1 10 2 12 3 13 4 11 5 14 6 15 7 16 8 8 10 7 11 6 12 17 13
REMARK SMILES IDX 4 14 2 15 3 16 5 17 1 19
REMARK H PARENT 16 9 5 18 1 20
REMARK Flexibility Score: inf
ROOT
ATOM      1  C   UNL     1     172.392 170.571 150.937  1.00  0.00     0.044 C 
ENDROOT
BRANCH   1   2
ATOM      2  C   UNL     1     173.092 169.505 150.131  1.00  0.00    -0.006 A 
ATOM      3  C   UNL     1     175.156 168.416 149.449  1.00  0.00     0.001 A 
ATOM      4  C   UNL     1     174.426 167.491 148.699  1.00  0.00     0.004 A 
ATOM      5  C   UNL     1     174.493 169.415 150.166  1.00  0.00     0.007 A 
ATOM      6  C   UNL     1     173.031 167.560 148.669  1.00  0.00     0.046 A 
ATOM      7  C   UNL     1     172.357 168.560 149.386  1.00  0.00     0.118 A 
BRANCH   7   8
ATOM      8  O   UNL     1     170.963 168.615 149.363  1.00  0.00    -0.508 OA
ATOM      9  H   UNL     1     170.396 167.789 149.516  1.00  0.00     0.293 HD
ENDBRANCH   7   8
ENDBRANCH   1   2
BRANCH   1  10
ATOM     10  C   UNL     1     172.354 171.893 150.164  1.00  0.00     0.040 C 
BRANCH  10  11
ATOM     11  C   UNL     1     173.432 172.822 150.653  1.00  0.00    -0.040 A 
ATOM     12  C   UNL     1     174.285 173.461 149.740  1.00  0.00     0.050 A 
ATOM     13  C   UNL     1     173.555 173.102 152.025  1.00  0.00     0.050 A 
ATOM     14  C   UNL     1     175.268 174.352 150.193  1.00  0.00     0.119 A 
ATOM     15  C   UNL     1     174.538 173.993 152.479  1.00  0.00     0.119 A 
ATOM     16  C   UNL     1     175.393 174.613 151.562  1.00  0.00     0.092 A 
BRANCH  14  17
ATOM     17  O   UNL     1     176.123 174.983 149.293  1.00  0.00    -0.508 OA
ATOM     18  H   UNL     1     177.021 175.353 149.585  1.00  0.00     0.293 HD
ENDBRANCH  14  17
BRANCH  15  19
ATOM     19  O   UNL     1     174.671 174.269 153.837  1.00  0.00    -0.508 OA
ATOM     20  H   UNL     1     175.522 174.053 154.343  1.00  0.00     0.293 HD
ENDBRANCH  15  19
ENDBRANCH  10  11
ENDBRANCH   1  10
TORSDOF 6
ENDMDL
MODEL 6
REMARK VINA RESULT:    -5.315     10.109     10.975
REMARK INTER + INTRA:          -7.254
REMARK INTER:                  -6.727
REMARK INTRA:                  -0.526
REMARK UNBOUND:                -0.540
REMARK SMILES Oc1cc(O)cc(CCc2ccccc2O)c1
REMARK SMILES IDX 9 1 10 2 12 3 13 4 11 5 14 6 15 7 16 8 8 10 7 11 6 12 17 13
REMARK SMILES IDX 4 14 2 15 3 16 5 17 1 19
REMARK H PARENT 16 9 5 18 1 20
REMARK Flexibility Score: inf
ROOT
ATOM      1  C   UNL     1     175.259 163.983 151.660  1.00  0.00     0.044 C 
ENDROOT
BRANCH   1   2
ATOM      2  C   UNL     1     175.477 162.501 151.482  1.00  0.00    -0.006 A 
ATOM      3  C   UNL     1     175.538 160.557 150.023  1.00  0.00     0.001 A 
ATOM      4  C   UNL     1     175.942 159.759 151.096  1.00  0.00     0.004 A 
ATOM      5  C   UNL     1     175.312 161.922 150.212  1.00  0.00     0.007 A 
ATOM      6  C   UNL     1     176.125 160.326 152.360  1.00  0.00     0.046 A 
ATOM      7  C   UNL     1     175.900 161.697 152.559  1.00  0.00     0.118 A 
BRANCH   7   8
ATOM      8  O   UNL     1     176.098 162.259 153.821  1.00  0.00    -0.508 OA
ATOM      9  H   UNL     1     177.020 162.532 154.141  1.00  0.00     0.293 HD
ENDBRANCH   7   8
ENDBRANCH   1   2
BRANCH   1  10
ATOM     10  C   UNL     1     173.765 164.319 151.595  1.00  0.00     0.040 C 
BRANCH  10  11
ATOM     11  C   UNL     1     173.527 165.487 150.675  1.00  0.00    -0.040 A 
ATOM     12  C   UNL     1     174.606 166.116 150.034  1.00  0.00     0.050 A 
ATOM     13  C   UNL     1     172.217 165.919 150.405  1.00  0.00     0.050 A 
ATOM     14  C   UNL     1     174.381 167.182 149.153  1.00  0.00     0.119 A 
ATOM     15  C   UNL     1     171.993 166.986 149.524  1.00  0.00     0.119 A 
ATOM     16  C   UNL     1     173.075 167.615 148.902  1.00  0.00     0.092 A 
BRANCH  14  17
ATOM     17  O   UNL     1     175.448 167.817 148.520  1.00  0.00    -0.508 OA
ATOM     18  H   UNL     1     176.304 168.037 149.016  1.00  0.00     0.293 HD
ENDBRANCH  14  17
BRANCH  15  19
ATOM     19  O   UNL     1     170.697 167.424 149.258  1.00  0.00    -0.508 OA
ATOM     20  H   UNL     1     170.174 167.972 149.930  1.00  0.00     0.293 HD
ENDBRANCH  15  19
ENDBRANCH  10  11
ENDBRANCH   1  10
TORSDOF 6
ENDMDL
MODEL 7
REMARK VINA RESULT:    -5.308     14.454     15.734
REMARK INTER + INTRA:          -7.244
REMARK INTER:                  -6.751
REMARK INTRA:                  -0.493
REMARK UNBOUND:                -0.540
REMARK SMILES Oc1cc(O)cc(CCc2ccccc2O)c1
REMARK SMILES IDX 9 1 10 2 12 3 13 4 11 5 14 6 15 7 16 8 8 10 7 11 6 12 17 13
REMARK SMILES IDX 4 14 2 15 3 16 5 17 1 19
REMARK H PARENT 16 9 5 18 1 20
REMARK Flexibility Score: inf
ROOT
ATOM      1  C   UNL     1     174.250 159.191 154.333  1.00  0.00     0.044 C 
ENDROOT
BRANCH   1   2
ATOM      2  C   UNL     1     174.261 158.997 155.829  1.00  0.00    -0.006 A 
ATOM      3  C   UNL     1     174.630 159.907 158.054  1.00  0.00     0.001 A 
ATOM      4  C   UNL     1     174.228 158.696 158.621  1.00  0.00     0.004 A 
ATOM      5  C   UNL     1     174.642 160.060 156.665  1.00  0.00     0.007 A 
ATOM      6  C   UNL     1     173.832 157.637 157.800  1.00  0.00     0.046 A 
ATOM      7  C   UNL     1     173.841 157.782 156.405  1.00  0.00     0.118 A 
BRANCH   7   8
ATOM      8  O   UNL     1     173.431 156.724 155.592  1.00  0.00    -0.508 OA
ATOM      9  H   UNL     1     172.799 156.008 155.932  1.00  0.00     0.293 HD
ENDBRANCH   7   8
ENDBRANCH   1   2
BRANCH   1  10
ATOM     10  C   UNL     1     175.680 159.222 153.783  1.00  0.00     0.040 C 
BRANCH  10  11
ATOM     11  C   UNL     1     175.799 160.237 152.679  1.00  0.00    -0.040 A 
ATOM     12  C   UNL     1     175.793 159.827 151.336  1.00  0.00     0.050 A 
ATOM     13  C   UNL     1     175.858 161.608 152.981  1.00  0.00     0.050 A 
ATOM     14  C   UNL     1     175.871 160.775 150.306  1.00  0.00     0.119 A 
ATOM     15  C   UNL     1     175.937 162.556 151.951  1.00  0.00     0.119 A 
ATOM     16  C   UNL     1     175.945 162.137 150.618  1.00  0.00     0.092 A 
BRANCH  14  17
ATOM     17  O   UNL     1     175.874 160.375 148.972  1.00  0.00    -0.508 OA
ATOM     18  H   UNL     1     176.045 159.411 148.707  1.00  0.00     0.293 HD
ENDBRANCH  14  17
BRANCH  15  19
ATOM     19  O   UNL     1     176.003 163.916 152.245  1.00  0.00    -0.508 OA
ATOM     20  H   UNL     1     175.168 164.481 152.338  1.00  0.00     0.293 HD
ENDBRANCH  15  19
ENDBRANCH  10  11
ENDBRANCH   1  10
TORSDOF 6
ENDMDL
MODEL 8
REMARK VINA RESULT:    -5.296      4.395      6.524
REMARK INTER + INTRA:          -7.230
REMARK INTER:                  -6.478
REMARK INTRA:                  -0.751
REMARK UNBOUND:                -0.540
REMARK SMILES Oc1cc(O)cc(CCc2ccccc2O)c1
REMARK SMILES IDX 9 1 10 2 12 3 13 4 11 5 14 6 15 7 16 8 8 10 7 11 6 12 17 13
REMARK SMILES IDX 4 14 2 15 3 16 5 17 1 19
REMARK H PARENT 16 9 5 18 1 20
REMARK Flexibility Score: inf
ROOT
ATOM      1  C   UNL     1     174.158 173.366 150.104  1.00  0.00     0.044 C 
ENDROOT
BRANCH   1   2
ATOM      2  C   UNL     1     174.175 171.858 150.152  1.00  0.00    -0.006 A 
ATOM      3  C   UNL     1     175.439 169.781 150.208  1.00  0.00     0.001 A 
ATOM      4  C   UNL     1     174.250 169.055 150.310  1.00  0.00     0.004 A 
ATOM      5  C   UNL     1     175.403 171.176 150.134  1.00  0.00     0.007 A 
ATOM      6  C   UNL     1     173.023 169.723 150.345  1.00  0.00     0.046 A 
ATOM      7  C   UNL     1     172.978 171.123 150.272  1.00  0.00     0.118 A 
BRANCH   7   8
ATOM      8  O   UNL     1     171.750 171.784 150.321  1.00  0.00    -0.508 OA
ATOM      9  H   UNL     1     170.903 171.310 150.612  1.00  0.00     0.293 HD
ENDBRANCH   7   8
ENDBRANCH   1   2
BRANCH   1  10
ATOM     10  C   UNL     1     174.985 173.950 151.253  1.00  0.00     0.040 C 
BRANCH  10  11
ATOM     11  C   UNL     1     174.381 173.576 152.581  1.00  0.00    -0.040 A 
ATOM     12  C   UNL     1     173.035 173.866 152.854  1.00  0.00     0.050 A 
ATOM     13  C   UNL     1     175.145 172.882 153.534  1.00  0.00     0.050 A 
ATOM     14  C   UNL     1     172.464 173.488 154.077  1.00  0.00     0.119 A 
ATOM     15  C   UNL     1     174.574 172.504 154.758  1.00  0.00     0.119 A 
ATOM     16  C   UNL     1     173.237 172.811 155.026  1.00  0.00     0.092 A 
BRANCH  14  17
ATOM     17  O   UNL     1     171.131 173.780 154.358  1.00  0.00    -0.508 OA
ATOM     18  H   UNL     1     170.544 173.134 154.872  1.00  0.00     0.293 HD
ENDBRANCH  14  17
BRANCH  15  19
ATOM     19  O   UNL     1     175.328 171.823 155.711  1.00  0.00    -0.508 OA
ATOM     20  H   UNL     1     175.675 172.284 156.543  1.00  0.00     0.293 HD
ENDBRANCH  15  19
ENDBRANCH  10  11
ENDBRANCH   1  10
TORSDOF 6
ENDMDL
MODEL 9
REMARK VINA RESULT:    -5.257      4.400      6.577
REMARK INTER + INTRA:          -7.180
REMARK INTER:                  -6.442
REMARK INTRA:                  -0.738
REMARK UNBOUND:                -0.540
REMARK SMILES Oc1cc(O)cc(CCc2ccccc2O)c1
REMARK SMILES IDX 9 1 10 2 12 3 13 4 11 5 14 6 15 7 16 8 8 10 7 11 6 12 17 13
REMARK SMILES IDX 4 14 2 15 3 16 5 17 1 19
REMARK H PARENT 16 9 5 18 1 20
REMARK Flexibility Score: inf
ROOT
ATOM      1  C   UNL     1     174.219 173.369 150.046  1.00  0.00     0.044 C 
ENDROOT
BRANCH   1   2
ATOM      2  C   UNL     1     174.223 171.862 150.099  1.00  0.00    -0.006 A 
ATOM      3  C   UNL     1     175.469 169.775 150.188  1.00  0.00     0.001 A 
ATOM      4  C   UNL     1     174.273 169.059 150.267  1.00  0.00     0.004 A 
ATOM      5  C   UNL     1     175.446 171.169 150.110  1.00  0.00     0.007 A 
ATOM      6  C   UNL     1     173.051 169.736 150.274  1.00  0.00     0.046 A 
ATOM      7  C   UNL     1     173.018 171.137 150.195  1.00  0.00     0.118 A 
BRANCH   7   8
ATOM      8  O   UNL     1     171.795 171.807 150.216  1.00  0.00    -0.508 OA
ATOM      9  H   UNL     1     171.461 172.328 149.413  1.00  0.00     0.293 HD
ENDBRANCH   7   8
ENDBRANCH   1   2
BRANCH   1  10
ATOM     10  C   UNL     1     174.989 173.951 151.236  1.00  0.00     0.040 C 
BRANCH  10  11
ATOM     11  C   UNL     1     174.352 173.532 152.533  1.00  0.00    -0.040 A 
ATOM     12  C   UNL     1     175.107 172.862 153.509  1.00  0.00     0.050 A 
ATOM     13  C   UNL     1     173.012 173.859 152.802  1.00  0.00     0.050 A 
ATOM     14  C   UNL     1     174.522 172.500 154.731  1.00  0.00     0.119 A 
ATOM     15  C   UNL     1     172.427 173.497 154.023  1.00  0.00     0.119 A 
ATOM     16  C   UNL     1     173.183 172.817 154.983  1.00  0.00     0.092 A 
BRANCH  14  17
ATOM     17  O   UNL     1     175.262 171.827 155.700  1.00  0.00    -0.508 OA
ATOM     18  H   UNL     1     175.024 170.886 155.992  1.00  0.00     0.293 HD
ENDBRANCH  14  17
BRANCH  15  19
ATOM     19  O   UNL     1     171.097 173.812 154.293  1.00  0.00    -0.508 OA
ATOM     20  H   UNL     1     170.807 174.164 155.197  1.00  0.00     0.293 HD
ENDBRANCH  15  19
ENDBRANCH  10  11
ENDBRANCH   1  10
TORSDOF 6
ENDMDL
