MODEL 1
REMARK VINA RESULT:    -3.757      0.000      0.000
REMARK INTER + INTRA:          -7.490
REMARK INTER:                  -6.832
REMARK INTRA:                  -0.657
REMARK UNBOUND:                -0.657
REMARK SMILES CCCCCCCCCCCCCCCC(=O)[O-]
REMARK SMILES IDX 9 1 10 2 11 3 12 4 13 5 14 6 15 7 16 8 17 9 18 10 8 11 7 12
REMARK SMILES IDX 6 13 5 14 4 15 3 16 2 17 1 18
REMARK H PARENT
REMARK Flexibility Score: inf
ROOT
ATOM      1  C   UNL     1     120.025  68.825  -1.291  1.00  0.00     0.000 C 
ENDROOT
BRANCH   1   2
ATOM      2  C   UNL     1     120.561  70.229  -0.956  1.00  0.00     0.000 C 
BRANCH   2   3
ATOM      3  C   UNL     1     119.938  70.816   0.323  1.00  0.00     0.000 C 
BRANCH   3   4
ATOM      4  C   UNL     1     120.998  71.357   1.297  1.00  0.00     0.000 C 
BRANCH   4   5
ATOM      5  C   UNL     1     120.636  72.747   1.845  1.00  0.00     0.000 C 
BRANCH   5   6
ATOM      6  C   UNL     1     120.690  72.820   3.382  1.00  0.00     0.006 C 
BRANCH   6   7
ATOM      7  C   UNL     1     119.987  71.647   4.090  1.00  0.00     0.053 C 
BRANCH   7   8
ATOM      8  C   UNL     1     120.832  71.027   5.161  1.00  0.00     0.041 C 
ATOM      9  O   UNL     1     121.999  70.628   4.902  1.00  0.00    -0.550 OA
ATOM     10  O   UNL     1     120.317  70.856   6.441  1.00  0.00    -0.550 OA
ENDBRANCH   7   8
ENDBRANCH   6   7
ENDBRANCH   5   6
ENDBRANCH   4   5
ENDBRANCH   3   4
ENDBRANCH   2   3
ENDBRANCH   1   2
BRANCH   1  11
ATOM     11  C   UNL     1     119.883  68.517  -2.795  1.00  0.00     0.000 C 
BRANCH  11  12
ATOM     12  C   UNL     1     120.181  69.696  -3.740  1.00  0.00    -0.000 C 
BRANCH  12  13
ATOM     13  C   UNL     1     120.135  69.296  -5.224  1.00  0.00    -0.000 C 
BRANCH  13  14
ATOM     14  C   UNL     1     120.158  67.770  -5.433  1.00  0.00    -0.000 C 
BRANCH  14  15
ATOM     15  C   UNL     1     121.057  67.275  -6.585  1.00  0.00    -0.000 C 
BRANCH  15  16
ATOM     16  C   UNL     1     120.369  66.337  -7.592  1.00  0.00    -0.000 C 
BRANCH  16  17
ATOM     17  C   UNL     1     120.085  64.944  -7.011  1.00  0.00    -0.003 C 
ATOM     18  C   UNL     1     121.381  64.173  -6.777  1.00  0.00     0.004 C 
ENDBRANCH  16  17
ENDBRANCH  15  16
ENDBRANCH  14  15
ENDBRANCH  13  14
ENDBRANCH  12  13
ENDBRANCH  11  12
ENDBRANCH   1  11
TORSDOF 14
ENDMDL
MODEL 2
REMARK VINA RESULT:    -3.601      4.199     10.404
REMARK INTER + INTRA:          -7.206
REMARK INTER:                  -6.945
REMARK INTRA:                  -0.261
REMARK UNBOUND:                -0.657
REMARK SMILES CCCCCCCCCCCCCCCC(=O)[O-]
REMARK SMILES IDX 9 1 10 2 11 3 12 4 13 5 14 6 15 7 16 8 17 9 18 10 8 11 7 12
REMARK SMILES IDX 6 13 5 14 4 15 3 16 2 17 1 18
REMARK H PARENT
REMARK Flexibility Score: inf
ROOT
ATOM      1  C   UNL     1     120.905  70.265   0.465  1.00  0.00     0.000 C 
ENDROOT
BRANCH   1   2
ATOM      2  C   UNL     1     120.585  69.538  -0.853  1.00  0.00     0.000 C 
BRANCH   2   3
ATOM      3  C   UNL     1     120.035  68.117  -0.632  1.00  0.00     0.000 C 
BRANCH   3   4
ATOM      4  C   UNL     1     120.395  67.163  -1.783  1.00  0.00     0.000 C 
BRANCH   4   5
ATOM      5  C   UNL     1     120.005  67.729  -3.159  1.00  0.00     0.000 C 
BRANCH   5   6
ATOM      6  C   UNL     1     119.893  66.645  -4.246  1.00  0.00     0.006 C 
BRANCH   6   7
ATOM      7  C   UNL     1     120.945  66.768  -5.364  1.00  0.00     0.053 C 
BRANCH   7   8
ATOM      8  C   UNL     1     120.732  67.972  -6.230  1.00  0.00     0.041 C 
ATOM      9  O   UNL     1     120.442  67.838  -7.448  1.00  0.00    -0.550 OA
ATOM     10  O   UNL     1     120.887  69.247  -5.698  1.00  0.00    -0.550 OA
ENDBRANCH   7   8
ENDBRANCH   6   7
ENDBRANCH   5   6
ENDBRANCH   4   5
ENDBRANCH   3   4
ENDBRANCH   2   3
ENDBRANCH   1   2
BRANCH   1  11
ATOM     11  C   UNL     1     120.168  71.604   0.673  1.00  0.00     0.000 C 
BRANCH  11  12
ATOM     12  C   UNL     1     120.822  72.566   1.680  1.00  0.00    -0.000 C 
BRANCH  12  13
ATOM     13  C   UNL     1     120.209  72.462   3.087  1.00  0.00    -0.000 C 
BRANCH  13  14
ATOM     14  C   UNL     1     121.045  71.587   4.040  1.00  0.00    -0.000 C 
BRANCH  14  15
ATOM     15  C   UNL     1     120.266  70.958   5.213  1.00  0.00    -0.000 C 
BRANCH  15  16
ATOM     16  C   UNL     1     119.976  71.908   6.388  1.00  0.00    -0.000 C 
BRANCH  16  17
ATOM     17  C   UNL     1     120.496  71.371   7.730  1.00  0.00    -0.003 C 
ATOM     18  C   UNL     1     120.766  72.510   8.710  1.00  0.00     0.004 C 
ENDBRANCH  16  17
ENDBRANCH  15  16
ENDBRANCH  14  15
ENDBRANCH  13  14
ENDBRANCH  12  13
ENDBRANCH  11  12
ENDBRANCH   1  11
TORSDOF 14
ENDMDL
MODEL 3
REMARK VINA RESULT:    -3.335      5.167     10.417
REMARK INTER + INTRA:          -6.722
REMARK INTER:                  -6.060
REMARK INTRA:                  -0.662
REMARK UNBOUND:                -0.657
REMARK SMILES CCCCCCCCCCCCCCCC(=O)[O-]
REMARK SMILES IDX 9 1 10 2 11 3 12 4 13 5 14 6 15 7 16 8 17 9 18 10 8 11 7 12
REMARK SMILES IDX 6 13 5 14 4 15 3 16 2 17 1 18
REMARK H PARENT
REMARK Flexibility Score: inf
ROOT
ATOM      1  C   UNL     1     120.987  70.135  -1.577  1.00  0.00     0.000 C 
ENDROOT
BRANCH   1   2
ATOM      2  C   UNL     1     119.904  69.810  -2.622  1.00  0.00     0.000 C 
BRANCH   2   3
ATOM      3  C   UNL     1     120.351  70.125  -4.061  1.00  0.00     0.000 C 
BRANCH   3   4
ATOM      4  C   UNL     1     119.875  69.065  -5.068  1.00  0.00     0.000 C 
BRANCH   4   5
ATOM      5  C   UNL     1     120.362  67.651  -4.707  1.00  0.00     0.000 C 
BRANCH   5   6
ATOM      6  C   UNL     1     121.015  66.919  -5.893  1.00  0.00     0.006 C 
BRANCH   6   7
ATOM      7  C   UNL     1     121.009  67.723  -7.206  1.00  0.00     0.053 C 
BRANCH   7   8
ATOM      8  C   UNL     1     121.809  67.069  -8.290  1.00  0.00     0.041 C 
ATOM      9  O   UNL     1     122.668  67.728  -8.936  1.00  0.00    -0.550 OA
ATOM     10  O   UNL     1     121.584  65.736  -8.613  1.00  0.00    -0.550 OA
ENDBRANCH   7   8
ENDBRANCH   6   7
ENDBRANCH   5   6
ENDBRANCH   4   5
ENDBRANCH   3   4
ENDBRANCH   2   3
ENDBRANCH   1   2
BRANCH   1  11
ATOM     11  C   UNL     1     121.000  69.219  -0.337  1.00  0.00     0.000 C 
BRANCH  11  12
ATOM     12  C   UNL     1     119.915  69.516   0.713  1.00  0.00    -0.000 C 
BRANCH  12  13
ATOM     13  C   UNL     1     119.908  70.987   1.163  1.00  0.00    -0.000 C 
BRANCH  13  14
ATOM     14  C   UNL     1     120.592  71.198   2.527  1.00  0.00    -0.000 C 
BRANCH  14  15
ATOM     15  C   UNL     1     120.480  72.622   3.109  1.00  0.00    -0.000 C 
BRANCH  15  16
ATOM     16  C   UNL     1     120.049  72.690   4.585  1.00  0.00    -0.000 C 
BRANCH  16  17
ATOM     17  C   UNL     1     120.291  71.374   5.338  1.00  0.00    -0.003 C 
ATOM     18  C   UNL     1     120.453  71.620   6.835  1.00  0.00     0.004 C 
ENDBRANCH  16  17
ENDBRANCH  15  16
ENDBRANCH  14  15
ENDBRANCH  13  14
ENDBRANCH  12  13
ENDBRANCH  11  12
ENDBRANCH   1  11
TORSDOF 14
ENDMDL
MODEL 4
REMARK VINA RESULT:    -3.144      4.418     11.432
REMARK INTER + INTRA:          -6.375
REMARK INTER:                  -5.833
REMARK INTRA:                  -0.542
REMARK UNBOUND:                -0.657
REMARK SMILES CCCCCCCCCCCCCCCC(=O)[O-]
REMARK SMILES IDX 9 1 10 2 11 3 12 4 13 5 14 6 15 7 16 8 17 9 18 10 8 11 7 12
REMARK SMILES IDX 6 13 5 14 4 15 3 16 2 17 1 18
REMARK H PARENT
REMARK Flexibility Score: inf
ROOT
ATOM      1  C   UNL     1     120.922  71.777   3.166  1.00  0.00     0.000 C 
ENDROOT
BRANCH   1   2
ATOM      2  C   UNL     1     120.224  71.599   1.805  1.00  0.00     0.000 C 
BRANCH   2   3
ATOM      3  C   UNL     1     120.767  70.399   1.009  1.00  0.00     0.000 C 
BRANCH   3   4
ATOM      4  C   UNL     1     120.266  70.384  -0.445  1.00  0.00     0.000 C 
BRANCH   4   5
ATOM      5  C   UNL     1     120.560  69.052  -1.154  1.00  0.00     0.000 C 
BRANCH   5   6
ATOM      6  C   UNL     1     119.875  68.938  -2.528  1.00  0.00     0.006 C 
BRANCH   6   7
ATOM      7  C   UNL     1     120.675  69.573  -3.681  1.00  0.00     0.053 C 
BRANCH   7   8
ATOM      8  C   UNL     1     120.402  68.923  -5.003  1.00  0.00     0.041 C 
ATOM      9  O   UNL     1     119.901  67.768  -5.054  1.00  0.00    -0.550 OA
ATOM     10  O   UNL     1     120.733  69.580  -6.182  1.00  0.00    -0.550 OA
ENDBRANCH   7   8
ENDBRANCH   6   7
ENDBRANCH   5   6
ENDBRANCH   4   5
ENDBRANCH   3   4
ENDBRANCH   2   3
ENDBRANCH   1   2
BRANCH   1  11
ATOM     11  C   UNL     1     120.234  72.760   4.134  1.00  0.00     0.000 C 
BRANCH  11  12
ATOM     12  C   UNL     1     120.420  72.450   5.630  1.00  0.00    -0.000 C 
BRANCH  12  13
ATOM     13  C   UNL     1     120.425  70.942   5.931  1.00  0.00    -0.000 C 
BRANCH  13  14
ATOM     14  C   UNL     1     120.158  70.628   7.414  1.00  0.00    -0.000 C 
BRANCH  14  15
ATOM     15  C   UNL     1     120.920  71.510   8.424  1.00  0.00    -0.000 C 
BRANCH  15  16
ATOM     16  C   UNL     1     120.041  72.193   9.487  1.00  0.00    -0.000 C 
BRANCH  16  17
ATOM     17  C   UNL     1     120.016  73.722   9.346  1.00  0.00    -0.003 C 
ATOM     18  C   UNL     1     120.075  74.401  10.712  1.00  0.00     0.004 C 
ENDBRANCH  16  17
ENDBRANCH  15  16
ENDBRANCH  14  15
ENDBRANCH  13  14
ENDBRANCH  12  13
ENDBRANCH  11  12
ENDBRANCH   1  11
TORSDOF 14
ENDMDL
MODEL 5
REMARK VINA RESULT:    -2.917      4.223      6.241
REMARK INTER + INTRA:          -5.961
REMARK INTER:                  -6.595
REMARK INTRA:                   0.634
REMARK UNBOUND:                -0.657
REMARK SMILES CCCCCCCCCCCCCCCC(=O)[O-]
REMARK SMILES IDX 9 1 10 2 11 3 12 4 13 5 14 6 15 7 16 8 17 9 18 10 8 11 7 12
REMARK SMILES IDX 6 13 5 14 4 15 3 16 2 17 1 18
REMARK H PARENT
REMARK Flexibility Score: inf
ROOT
ATOM      1  C   UNL     1     121.664  72.034   3.299  1.00  0.00     0.000 C 
ENDROOT
BRANCH   1   2
ATOM      2  C   UNL     1     120.636  71.248   4.131  1.00  0.00     0.000 C 
BRANCH   2   3
ATOM      3  C   UNL     1     120.090  72.056   5.322  1.00  0.00     0.000 C 
BRANCH   3   4
ATOM      4  C   UNL     1     120.830  71.742   6.633  1.00  0.00     0.000 C 
BRANCH   4   5
ATOM      5  C   UNL     1     119.875  71.312   7.759  1.00  0.00     0.000 C 
BRANCH   5   6
ATOM      6  C   UNL     1     120.575  71.181   9.124  1.00  0.00     0.006 C 
BRANCH   6   7
ATOM      7  C   UNL     1     120.009  72.113  10.211  1.00  0.00     0.053 C 
BRANCH   7   8
ATOM      8  C   UNL     1     120.171  73.563   9.872  1.00  0.00     0.041 C 
ATOM      9  O   UNL     1     120.531  73.912   8.716  1.00  0.00    -0.550 OA
ATOM     10  O   UNL     1     119.959  74.533  10.846  1.00  0.00    -0.550 OA
ENDBRANCH   7   8
ENDBRANCH   6   7
ENDBRANCH   5   6
ENDBRANCH   4   5
ENDBRANCH   3   4
ENDBRANCH   2   3
ENDBRANCH   1   2
BRANCH   1  11
ATOM     11  C   UNL     1     121.065  73.035   2.290  1.00  0.00     0.000 C 
BRANCH  11  12
ATOM     12  C   UNL     1     119.894  72.501   1.447  1.00  0.00    -0.000 C 
BRANCH  12  13
ATOM     13  C   UNL     1     119.911  70.969   1.307  1.00  0.00    -0.000 C 
BRANCH  13  14
ATOM     14  C   UNL     1     120.120  70.505  -0.146  1.00  0.00    -0.000 C 
BRANCH  14  15
ATOM     15  C   UNL     1     121.376  69.643  -0.390  1.00  0.00    -0.000 C 
BRANCH  15  16
ATOM     16  C   UNL     1     121.117  68.129  -0.496  1.00  0.00    -0.000 C 
BRANCH  16  17
ATOM     17  C   UNL     1     119.876  67.681   0.290  1.00  0.00    -0.003 C 
ATOM     18  C   UNL     1     119.978  66.210   0.684  1.00  0.00     0.004 C 
ENDBRANCH  16  17
ENDBRANCH  15  16
ENDBRANCH  14  15
ENDBRANCH  13  14
ENDBRANCH  12  13
ENDBRANCH  11  12
ENDBRANCH   1  11
TORSDOF 14
ENDMDL
MODEL 6
REMARK VINA RESULT:    -2.754      5.224     10.189
REMARK INTER + INTRA:          -5.666
REMARK INTER:                  -4.830
REMARK INTRA:                  -0.835
REMARK UNBOUND:                -0.657
REMARK SMILES CCCCCCCCCCCCCCCC(=O)[O-]
REMARK SMILES IDX 9 1 10 2 11 3 12 4 13 5 14 6 15 7 16 8 17 9 18 10 8 11 7 12
REMARK SMILES IDX 6 13 5 14 4 15 3 16 2 17 1 18
REMARK H PARENT
REMARK Flexibility Score: inf
ROOT
ATOM      1  C   UNL     1     120.813  68.526  -2.902  1.00  0.00     0.000 C 
ENDROOT
BRANCH   1   2
ATOM      2  C   UNL     1     119.875  68.825  -4.085  1.00  0.00     0.000 C 
BRANCH   2   3
ATOM      3  C   UNL     1     120.625  69.354  -5.321  1.00  0.00     0.000 C 
BRANCH   3   4
ATOM      4  C   UNL     1     120.557  68.380  -6.510  1.00  0.00     0.000 C 
BRANCH   4   5
ATOM      5  C   UNL     1     119.919  67.033  -6.130  1.00  0.00     0.000 C 
BRANCH   5   6
ATOM      6  C   UNL     1     120.949  65.898  -5.986  1.00  0.00     0.006 C 
BRANCH   6   7
ATOM      7  C   UNL     1     120.755  64.745  -6.987  1.00  0.00     0.053 C 
BRANCH   7   8
ATOM      8  C   UNL     1     121.670  64.843  -8.169  1.00  0.00     0.041 C 
ATOM      9  O   UNL     1     122.436  63.887  -8.464  1.00  0.00    -0.550 OA
ATOM     10  O   UNL     1     121.702  66.007  -8.929  1.00  0.00    -0.550 OA
ENDBRANCH   7   8
ENDBRANCH   6   7
ENDBRANCH   5   6
ENDBRANCH   4   5
ENDBRANCH   3   4
ENDBRANCH   2   3
ENDBRANCH   1   2
BRANCH   1  11
ATOM     11  C   UNL     1     120.351  67.390  -1.967  1.00  0.00     0.000 C 
BRANCH  11  12
ATOM     12  C   UNL     1     119.877  67.837  -0.572  1.00  0.00    -0.000 C 
BRANCH  12  13
ATOM     13  C   UNL     1     119.875  69.365  -0.404  1.00  0.00    -0.000 C 
BRANCH  13  14
ATOM     14  C   UNL     1     120.315  69.813   1.002  1.00  0.00    -0.000 C 
BRANCH  14  15
ATOM     15  C   UNL     1     120.976  71.204   1.077  1.00  0.00    -0.000 C 
BRANCH  15  16
ATOM     16  C   UNL     1     120.416  72.135   2.167  1.00  0.00    -0.000 C 
BRANCH  16  17
ATOM     17  C   UNL     1     121.087  71.924   3.532  1.00  0.00    -0.003 C 
ATOM     18  C   UNL     1     120.066  72.003   4.664  1.00  0.00     0.004 C 
ENDBRANCH  16  17
ENDBRANCH  15  16
ENDBRANCH  14  15
ENDBRANCH  13  14
ENDBRANCH  12  13
ENDBRANCH  11  12
ENDBRANCH   1  11
TORSDOF 14
ENDMDL
MODEL 7
REMARK VINA RESULT:    -2.719      5.035      9.874
REMARK INTER + INTRA:          -5.602
REMARK INTER:                  -4.693
REMARK INTRA:                  -0.909
REMARK UNBOUND:                -0.657
REMARK SMILES CCCCCCCCCCCCCCCC(=O)[O-]
REMARK SMILES IDX 9 1 10 2 11 3 12 4 13 5 14 6 15 7 16 8 17 9 18 10 8 11 7 12
REMARK SMILES IDX 6 13 5 14 4 15 3 16 2 17 1 18
REMARK H PARENT
REMARK Flexibility Score: inf
ROOT
ATOM      1  C   UNL     1     120.344  66.889  -0.066  1.00  0.00     0.000 C 
ENDROOT
BRANCH   1   2
ATOM      2  C   UNL     1     120.868  66.412  -1.432  1.00  0.00     0.000 C 
BRANCH   2   3
ATOM      3  C   UNL     1     119.877  66.684  -2.578  1.00  0.00     0.000 C 
BRANCH   3   4
ATOM      4  C   UNL     1     120.311  67.867  -3.461  1.00  0.00     0.000 C 
BRANCH   4   5
ATOM      5  C   UNL     1     120.848  67.412  -4.829  1.00  0.00     0.000 C 
BRANCH   5   6
ATOM      6  C   UNL     1     120.160  66.139  -5.352  1.00  0.00     0.006 C 
BRANCH   6   7
ATOM      7  C   UNL     1     119.882  66.155  -6.867  1.00  0.00     0.053 C 
BRANCH   7   8
ATOM      8  C   UNL     1     120.681  65.130  -7.613  1.00  0.00     0.041 C 
ATOM      9  O   UNL     1     120.626  63.915  -7.285  1.00  0.00    -0.550 OA
ATOM     10  O   UNL     1     121.515  65.522  -8.654  1.00  0.00    -0.550 OA
ENDBRANCH   7   8
ENDBRANCH   6   7
ENDBRANCH   5   6
ENDBRANCH   4   5
ENDBRANCH   3   4
ENDBRANCH   2   3
ENDBRANCH   1   2
BRANCH   1  11
ATOM     11  C   UNL     1     120.207  68.417   0.089  1.00  0.00     0.000 C 
BRANCH  11  12
ATOM     12  C   UNL     1     121.440  69.235  -0.331  1.00  0.00    -0.000 C 
BRANCH  12  13
ATOM     13  C   UNL     1     121.269  70.743  -0.080  1.00  0.00    -0.000 C 
BRANCH  13  14
ATOM     14  C   UNL     1     119.879  71.102   0.477  1.00  0.00    -0.000 C 
BRANCH  14  15
ATOM     15  C   UNL     1     119.875  72.118   1.638  1.00  0.00    -0.000 C 
BRANCH  15  16
ATOM     16  C   UNL     1     121.259  72.437   2.230  1.00  0.00    -0.000 C 
BRANCH  16  17
ATOM     17  C   UNL     1     121.235  72.579   3.759  1.00  0.00    -0.003 C 
ATOM     18  C   UNL     1     120.545  71.383   4.410  1.00  0.00     0.004 C 
ENDBRANCH  16  17
ENDBRANCH  15  16
ENDBRANCH  14  15
ENDBRANCH  13  14
ENDBRANCH  12  13
ENDBRANCH  11  12
ENDBRANCH   1  11
TORSDOF 14
ENDMDL
