MODEL 1
REMARK VINA RESULT:    -2.283      0.000      0.000
REMARK INTER + INTRA:          -6.141
REMARK INTER:                  -4.953
REMARK INTRA:                  -1.188
REMARK UNBOUND:                -1.188
REMARK SMILES CCCCCCCCCCCCCCCCCCCCCC(=O)[O-]
REMARK SMILES IDX 12 1 11 2 10 3 9 4 8 5 7 6 6 7 5 8 4 9 3 10 2 11 1 12 13 13
REMARK SMILES IDX 14 14 15 15 16 16 17 17 18 18 19 19 20 20 21 21 22 22 23 23
REMARK SMILES IDX 24 24
REMARK H PARENT
REMARK Flexibility Score: inf
ROOT
ATOM      1  C   UNL     1      -3.408  10.449  -4.255  1.00  0.00     0.000 C 
ENDROOT
BRANCH   1   2
ATOM      2  C   UNL     1      -2.166  10.212  -5.136  1.00  0.00     0.000 C 
BRANCH   2   3
ATOM      3  C   UNL     1      -2.196  11.009  -6.457  1.00  0.00     0.000 C 
BRANCH   3   4
ATOM      4  C   UNL     1      -0.925  10.830  -7.312  1.00  0.00    -0.000 C 
BRANCH   4   5
ATOM      5  C   UNL     1      -1.166  10.816  -8.836  1.00  0.00    -0.000 C 
BRANCH   5   6
ATOM      6  C   UNL     1      -1.050   9.445  -9.528  1.00  0.00    -0.000 C 
BRANCH   6   7
ATOM      7  C   UNL     1      -0.885   9.553 -11.055  1.00  0.00    -0.000 C 
BRANCH   7   8
ATOM      8  C   UNL     1      -2.103  10.190 -11.744  1.00  0.00    -0.000 C 
BRANCH   8   9
ATOM      9  C   UNL     1      -2.559   9.406 -12.986  1.00  0.00    -0.000 C 
BRANCH   9  10
ATOM     10  C   UNL     1      -2.491   7.895 -12.734  1.00  0.00    -0.000 C 
BRANCH  10  11
ATOM     11  C   UNL     1      -3.883   7.258 -12.827  1.00  0.00    -0.003 C 
ATOM     12  C   UNL     1      -3.832   5.770 -12.491  1.00  0.00     0.004 C 
ENDBRANCH  10  11
ENDBRANCH   9  10
ENDBRANCH   8   9
ENDBRANCH   7   8
ENDBRANCH   6   7
ENDBRANCH   5   6
ENDBRANCH   4   5
ENDBRANCH   3   4
ENDBRANCH   2   3
ENDBRANCH   1   2
BRANCH   1  13
ATOM     13  C   UNL     1      -3.105  10.655  -2.756  1.00  0.00     0.000 C 
BRANCH  13  14
ATOM     14  C   UNL     1      -4.268  10.372  -1.789  1.00  0.00     0.000 C 
BRANCH  14  15
ATOM     15  C   UNL     1      -4.311   8.909  -1.311  1.00  0.00     0.000 C 
BRANCH  15  16
ATOM     16  C   UNL     1      -3.482   8.669  -0.040  1.00  0.00     0.000 C 
BRANCH  16  17
ATOM     17  C   UNL     1      -2.212   9.538   0.016  1.00  0.00     0.000 C 
BRANCH  17  18
ATOM     18  C   UNL     1      -1.023   8.892  -0.712  1.00  0.00     0.000 C 
BRANCH  18  19
ATOM     19  C   UNL     1      -1.211   7.381  -0.928  1.00  0.00     0.000 C 
BRANCH  19  20
ATOM     20  C   UNL     1      -0.875   6.934  -2.363  1.00  0.00     0.006 C 
BRANCH  20  21
ATOM     21  C   UNL     1      -2.017   7.158  -3.371  1.00  0.00     0.053 C 
BRANCH  21  22
ATOM     22  C   UNL     1      -1.774   6.478  -4.682  1.00  0.00     0.041 C 
ATOM     23  O   UNL     1      -1.012   5.478  -4.749  1.00  0.00    -0.550 OA
ATOM     24  O   UNL     1      -2.411   6.934  -5.831  1.00  0.00    -0.550 OA
ENDBRANCH  21  22
ENDBRANCH  20  21
ENDBRANCH  19  20
ENDBRANCH  18  19
ENDBRANCH  17  18
ENDBRANCH  16  17
ENDBRANCH  15  16
ENDBRANCH  14  15
ENDBRANCH  13  14
ENDBRANCH   1  13
TORSDOF 20
ENDMDL
MODEL 2
REMARK VINA RESULT:    -2.180      3.060     10.109
REMARK INTER + INTRA:          -5.916
REMARK INTER:                  -5.620
REMARK INTRA:                  -0.297
REMARK UNBOUND:                -1.188
REMARK SMILES CCCCCCCCCCCCCCCCCCCCCC(=O)[O-]
REMARK SMILES IDX 12 1 11 2 10 3 9 4 8 5 7 6 6 7 5 8 4 9 3 10 2 11 1 12 13 13
REMARK SMILES IDX 14 14 15 15 16 16 17 17 18 18 19 19 20 20 21 21 22 22 23 23
REMARK SMILES IDX 24 24
REMARK H PARENT
REMARK Flexibility Score: inf
ROOT
ATOM      1  C   UNL     1      -4.125   8.186  -2.819  1.00  0.00     0.000 C 
ENDROOT
BRANCH   1   2
ATOM      2  C   UNL     1      -5.083   8.693  -1.723  1.00  0.00     0.000 C 
BRANCH   2   3
ATOM      3  C   UNL     1      -4.836  10.163  -1.330  1.00  0.00     0.000 C 
BRANCH   3   4
ATOM      4  C   UNL     1      -3.539  10.376  -0.523  1.00  0.00    -0.000 C 
BRANCH   4   5
ATOM      5  C   UNL     1      -2.849   9.078  -0.052  1.00  0.00    -0.000 C 
BRANCH   5   6
ATOM      6  C   UNL     1      -1.545   9.255   0.748  1.00  0.00    -0.000 C 
BRANCH   6   7
ATOM      7  C   UNL     1      -1.787   9.509   2.247  1.00  0.00    -0.000 C 
BRANCH   7   8
ATOM      8  C   UNL     1      -2.121  10.977   2.558  1.00  0.00    -0.000 C 
BRANCH   8   9
ATOM      9  C   UNL     1      -3.198  11.124   3.645  1.00  0.00    -0.000 C 
BRANCH   9  10
ATOM     10  C   UNL     1      -4.555  10.614   3.142  1.00  0.00    -0.000 C 
BRANCH  10  11
ATOM     11  C   UNL     1      -5.684  11.020   4.097  1.00  0.00    -0.003 C 
ATOM     12  C   UNL     1      -6.501   9.806   4.531  1.00  0.00     0.004 C 
ENDBRANCH  10  11
ENDBRANCH   9  10
ENDBRANCH   8   9
ENDBRANCH   7   8
ENDBRANCH   6   7
ENDBRANCH   5   6
ENDBRANCH   4   5
ENDBRANCH   3   4
ENDBRANCH   2   3
ENDBRANCH   1   2
BRANCH   1  13
ATOM     13  C   UNL     1      -3.088   9.222  -3.299  1.00  0.00     0.000 C 
BRANCH  13  14
ATOM     14  C   UNL     1      -2.806   9.243  -4.812  1.00  0.00     0.000 C 
BRANCH  14  15
ATOM     15  C   UNL     1      -1.745   8.213  -5.239  1.00  0.00     0.000 C 
BRANCH  15  16
ATOM     16  C   UNL     1      -0.958   8.646  -6.486  1.00  0.00     0.000 C 
BRANCH  16  17
ATOM     17  C   UNL     1      -1.181  10.126  -6.847  1.00  0.00     0.000 C 
BRANCH  17  18
ATOM     18  C   UNL     1      -0.876  10.425  -8.323  1.00  0.00     0.000 C 
BRANCH  18  19
ATOM     19  C   UNL     1      -2.112  10.921  -9.093  1.00  0.00     0.000 C 
BRANCH  19  20
ATOM     20  C   UNL     1      -1.901  10.939 -10.619  1.00  0.00     0.006 C 
BRANCH  20  21
ATOM     21  C   UNL     1      -1.507   9.574 -11.212  1.00  0.00     0.053 C 
BRANCH  21  22
ATOM     22  C   UNL     1      -2.623   8.930 -11.974  1.00  0.00     0.041 C 
ATOM     23  O   UNL     1      -2.791   7.684 -11.926  1.00  0.00    -0.550 OA
ATOM     24  O   UNL     1      -3.497   9.712 -12.721  1.00  0.00    -0.550 OA
ENDBRANCH  21  22
ENDBRANCH  20  21
ENDBRANCH  19  20
ENDBRANCH  18  19
ENDBRANCH  17  18
ENDBRANCH  16  17
ENDBRANCH  15  16
ENDBRANCH  14  15
ENDBRANCH  13  14
ENDBRANCH   1  13
TORSDOF 20
ENDMDL
MODEL 3
REMARK VINA RESULT:    -1.884      2.585      3.678
REMARK INTER + INTRA:          -5.274
REMARK INTER:                  -4.585
REMARK INTRA:                  -0.689
REMARK UNBOUND:                -1.188
REMARK SMILES CCCCCCCCCCCCCCCCCCCCCC(=O)[O-]
REMARK SMILES IDX 12 1 11 2 10 3 9 4 8 5 7 6 6 7 5 8 4 9 3 10 2 11 1 12 13 13
REMARK SMILES IDX 14 14 15 15 16 16 17 17 18 18 19 19 20 20 21 21 22 22 23 23
REMARK SMILES IDX 24 24
REMARK H PARENT
REMARK Flexibility Score: inf
ROOT
ATOM      1  C   UNL     1      -2.358   8.102  -4.398  1.00  0.00     0.000 C 
ENDROOT
BRANCH   1   2
ATOM      2  C   UNL     1      -1.598   8.907  -5.471  1.00  0.00     0.000 C 
BRANCH   2   3
ATOM      3  C   UNL     1      -1.000   8.025  -6.585  1.00  0.00     0.000 C 
BRANCH   3   4
ATOM      4  C   UNL     1      -0.898   8.740  -7.948  1.00  0.00    -0.000 C 
BRANCH   4   5
ATOM      5  C   UNL     1      -1.546  10.140  -7.995  1.00  0.00    -0.000 C 
BRANCH   5   6
ATOM      6  C   UNL     1      -0.958  11.125  -9.023  1.00  0.00    -0.000 C 
BRANCH   6   7
ATOM      7  C   UNL     1      -0.875  10.537 -10.443  1.00  0.00    -0.000 C 
BRANCH   7   8
ATOM      8  C   UNL     1      -1.992  11.048 -11.367  1.00  0.00    -0.000 C 
BRANCH   8   9
ATOM      9  C   UNL     1      -2.914   9.922 -11.863  1.00  0.00    -0.000 C 
BRANCH   9  10
ATOM     10  C   UNL     1      -2.210   9.068 -12.926  1.00  0.00    -0.000 C 
BRANCH  10  11
ATOM     11  C   UNL     1      -2.127   7.601 -12.487  1.00  0.00    -0.003 C 
ATOM     12  C   UNL     1      -3.514   6.968 -12.417  1.00  0.00     0.004 C 
ENDBRANCH  10  11
ENDBRANCH   9  10
ENDBRANCH   8   9
ENDBRANCH   7   8
ENDBRANCH   6   7
ENDBRANCH   5   6
ENDBRANCH   4   5
ENDBRANCH   3   4
ENDBRANCH   2   3
ENDBRANCH   1   2
BRANCH   1  13
ATOM     13  C   UNL     1      -3.614   7.369  -4.912  1.00  0.00     0.000 C 
BRANCH  13  14
ATOM     14  C   UNL     1      -4.695   7.064  -3.859  1.00  0.00     0.000 C 
BRANCH  14  15
ATOM     15  C   UNL     1      -4.606   7.979  -2.625  1.00  0.00     0.000 C 
BRANCH  15  16
ATOM     16  C   UNL     1      -5.156   9.390  -2.884  1.00  0.00     0.000 C 
BRANCH  16  17
ATOM     17  C   UNL     1      -4.202  10.499  -2.404  1.00  0.00     0.000 C 
BRANCH  17  18
ATOM     18  C   UNL     1      -2.747  10.017  -2.290  1.00  0.00     0.000 C 
BRANCH  18  19
ATOM     19  C   UNL     1      -1.794  11.121  -1.803  1.00  0.00     0.000 C 
BRANCH  19  20
ATOM     20  C   UNL     1      -1.117  10.782  -0.462  1.00  0.00     0.006 C 
BRANCH  20  21
ATOM     21  C   UNL     1      -2.019  11.002   0.766  1.00  0.00     0.053 C 
BRANCH  21  22
ATOM     22  C   UNL     1      -2.911   9.834   1.047  1.00  0.00     0.041 C 
ATOM     23  O   UNL     1      -2.665   8.708   0.539  1.00  0.00    -0.550 OA
ATOM     24  O   UNL     1      -4.006   9.980   1.891  1.00  0.00    -0.550 OA
ENDBRANCH  21  22
ENDBRANCH  20  21
ENDBRANCH  19  20
ENDBRANCH  18  19
ENDBRANCH  17  18
ENDBRANCH  16  17
ENDBRANCH  15  16
ENDBRANCH  14  15
ENDBRANCH  13  14
ENDBRANCH   1  13
TORSDOF 20
ENDMDL
MODEL 4
REMARK VINA RESULT:    -1.832      2.099      3.124
REMARK INTER + INTRA:          -5.161
REMARK INTER:                  -4.100
REMARK INTRA:                  -1.060
REMARK UNBOUND:                -1.188
REMARK SMILES CCCCCCCCCCCCCCCCCCCCCC(=O)[O-]
REMARK SMILES IDX 12 1 11 2 10 3 9 4 8 5 7 6 6 7 5 8 4 9 3 10 2 11 1 12 13 13
REMARK SMILES IDX 14 14 15 15 16 16 17 17 18 18 19 19 20 20 21 21 22 22 23 23
REMARK SMILES IDX 24 24
REMARK H PARENT
REMARK Flexibility Score: inf
ROOT
ATOM      1  C   UNL     1      -3.215  11.064  -3.593  1.00  0.00     0.000 C 
ENDROOT
BRANCH   1   2
ATOM      2  C   UNL     1      -3.053  10.161  -4.832  1.00  0.00     0.000 C 
BRANCH   2   3
ATOM      3  C   UNL     1      -1.594   9.727  -5.083  1.00  0.00     0.000 C 
BRANCH   3   4
ATOM      4  C   UNL     1      -0.901  10.518  -6.210  1.00  0.00    -0.000 C 
BRANCH   4   5
ATOM      5  C   UNL     1      -1.607  10.445  -7.581  1.00  0.00    -0.000 C 
BRANCH   5   6
ATOM      6  C   UNL     1      -0.878  11.125  -8.756  1.00  0.00    -0.000 C 
BRANCH   6   7
ATOM      7  C   UNL     1      -1.151  10.445 -10.110  1.00  0.00    -0.000 C 
BRANCH   7   8
ATOM      8  C   UNL     1      -2.282  11.122 -10.901  1.00  0.00    -0.000 C 
BRANCH   8   9
ATOM      9  C   UNL     1      -3.079  10.131 -11.765  1.00  0.00    -0.000 C 
BRANCH   9  10
ATOM     10  C   UNL     1      -2.279   9.724 -13.009  1.00  0.00    -0.000 C 
BRANCH  10  11
ATOM     11  C   UNL     1      -1.862   8.250 -12.937  1.00  0.00    -0.003 C 
ATOM     12  C   UNL     1      -2.776   7.464 -12.001  1.00  0.00     0.004 C 
ENDBRANCH  10  11
ENDBRANCH   9  10
ENDBRANCH   8   9
ENDBRANCH   7   8
ENDBRANCH   6   7
ENDBRANCH   5   6
ENDBRANCH   4   5
ENDBRANCH   3   4
ENDBRANCH   2   3
ENDBRANCH   1   2
BRANCH   1  13
ATOM     13  C   UNL     1      -4.135  10.492  -2.495  1.00  0.00     0.000 C 
BRANCH  13  14
ATOM     14  C   UNL     1      -4.083   8.966  -2.299  1.00  0.00     0.000 C 
BRANCH  14  15
ATOM     15  C   UNL     1      -4.458   8.531  -0.871  1.00  0.00     0.000 C 
BRANCH  15  16
ATOM     16  C   UNL     1      -4.654   9.717   0.086  1.00  0.00     0.000 C 
BRANCH  16  17
ATOM     17  C   UNL     1      -3.882   9.551   1.407  1.00  0.00     0.000 C 
BRANCH  17  18
ATOM     18  C   UNL     1      -3.455  10.896   2.014  1.00  0.00     0.000 C 
BRANCH  18  19
ATOM     19  C   UNL     1      -2.156  10.792   2.832  1.00  0.00     0.000 C 
BRANCH  19  20
ATOM     20  C   UNL     1      -0.915  10.536   1.955  1.00  0.00     0.006 C 
BRANCH  20  21
ATOM     21  C   UNL     1      -0.876   9.133   1.322  1.00  0.00     0.053 C 
BRANCH  21  22
ATOM     22  C   UNL     1      -0.920   9.172  -0.174  1.00  0.00     0.041 C 
ATOM     23  O   UNL     1      -0.982   8.103  -0.837  1.00  0.00    -0.550 OA
ATOM     24  O   UNL     1      -0.919  10.392  -0.839  1.00  0.00    -0.550 OA
ENDBRANCH  21  22
ENDBRANCH  20  21
ENDBRANCH  19  20
ENDBRANCH  18  19
ENDBRANCH  17  18
ENDBRANCH  16  17
ENDBRANCH  15  16
ENDBRANCH  14  15
ENDBRANCH  13  14
ENDBRANCH   1  13
TORSDOF 20
ENDMDL
MODEL 5
REMARK VINA RESULT:    -1.434      2.559      4.402
REMARK INTER + INTRA:          -4.297
REMARK INTER:                  -2.725
REMARK INTRA:                  -1.572
REMARK UNBOUND:                -1.188
REMARK SMILES CCCCCCCCCCCCCCCCCCCCCC(=O)[O-]
REMARK SMILES IDX 12 1 11 2 10 3 9 4 8 5 7 6 6 7 5 8 4 9 3 10 2 11 1 12 13 13
REMARK SMILES IDX 14 14 15 15 16 16 17 17 18 18 19 19 20 20 21 21 22 22 23 23
REMARK SMILES IDX 24 24
REMARK H PARENT
REMARK Flexibility Score: inf
ROOT
ATOM      1  C   UNL     1      -4.640   8.206  -4.683  1.00  0.00     0.000 C 
ENDROOT
BRANCH   1   2
ATOM      2  C   UNL     1      -3.903   6.852  -4.661  1.00  0.00     0.000 C 
BRANCH   2   3
ATOM      3  C   UNL     1      -2.602   6.880  -3.834  1.00  0.00     0.000 C 
BRANCH   3   4
ATOM      4  C   UNL     1      -1.329   7.025  -4.693  1.00  0.00    -0.000 C 
BRANCH   4   5
ATOM      5  C   UNL     1      -1.366   6.270  -6.038  1.00  0.00    -0.000 C 
BRANCH   5   6
ATOM      6  C   UNL     1      -0.939   7.075  -7.280  1.00  0.00    -0.000 C 
BRANCH   6   7
ATOM      7  C   UNL     1      -1.022   8.598  -7.069  1.00  0.00    -0.000 C 
BRANCH   7   8
ATOM      8  C   UNL     1      -1.011   9.385  -8.390  1.00  0.00    -0.000 C 
BRANCH   8   9
ATOM      9  C   UNL     1      -0.876   8.476  -9.622  1.00  0.00    -0.000 C 
BRANCH   9  10
ATOM     10  C   UNL     1      -1.665   9.043 -10.808  1.00  0.00    -0.000 C 
BRANCH  10  11
ATOM     11  C   UNL     1      -1.539  10.570 -10.875  1.00  0.00    -0.003 C 
ATOM     12  C   UNL     1      -2.023  11.104 -12.220  1.00  0.00     0.004 C 
ENDBRANCH  10  11
ENDBRANCH   9  10
ENDBRANCH   8   9
ENDBRANCH   7   8
ENDBRANCH   6   7
ENDBRANCH   5   6
ENDBRANCH   4   5
ENDBRANCH   3   4
ENDBRANCH   2   3
ENDBRANCH   1   2
BRANCH   1  13
ATOM     13  C   UNL     1      -3.761   9.412  -5.073  1.00  0.00     0.000 C 
BRANCH  13  14
ATOM     14  C   UNL     1      -3.226  10.261  -3.906  1.00  0.00     0.000 C 
BRANCH  14  15
ATOM     15  C   UNL     1      -1.722  10.566  -4.024  1.00  0.00     0.000 C 
BRANCH  15  16
ATOM     16  C   UNL     1      -1.058  10.844  -2.667  1.00  0.00     0.000 C 
BRANCH  16  17
ATOM     17  C   UNL     1      -1.099   9.628  -1.723  1.00  0.00     0.000 C 
BRANCH  17  18
ATOM     18  C   UNL     1      -1.246  10.031  -0.248  1.00  0.00     0.000 C 
BRANCH  18  19
ATOM     19  C   UNL     1      -2.013   8.984   0.578  1.00  0.00     0.000 C 
BRANCH  19  20
ATOM     20  C   UNL     1      -2.803   9.603   1.747  1.00  0.00     0.006 C 
BRANCH  20  21
ATOM     21  C   UNL     1      -4.136  10.250   1.327  1.00  0.00     0.053 C 
BRANCH  21  22
ATOM     22  C   UNL     1      -4.475   9.998  -0.109  1.00  0.00     0.041 C 
ATOM     23  O   UNL     1      -4.586  10.958  -0.915  1.00  0.00    -0.550 OA
ATOM     24  O   UNL     1      -4.644   8.696  -0.565  1.00  0.00    -0.550 OA
ENDBRANCH  21  22
ENDBRANCH  20  21
ENDBRANCH  19  20
ENDBRANCH  18  19
ENDBRANCH  17  18
ENDBRANCH  16  17
ENDBRANCH  15  16
ENDBRANCH  14  15
ENDBRANCH  13  14
ENDBRANCH   1  13
TORSDOF 20
ENDMDL
MODEL 6
REMARK VINA RESULT:    -0.369      2.780      8.714
REMARK INTER + INTRA:          -1.989
REMARK INTER:                  -2.589
REMARK INTRA:                   0.601
REMARK UNBOUND:                -1.188
REMARK SMILES CCCCCCCCCCCCCCCCCCCCCC(=O)[O-]
REMARK SMILES IDX 12 1 11 2 10 3 9 4 8 5 7 6 6 7 5 8 4 9 3 10 2 11 1 12 13 13
REMARK SMILES IDX 14 14 15 15 16 16 17 17 18 18 19 19 20 20 21 21 22 22 23 23
REMARK SMILES IDX 24 24
REMARK H PARENT
REMARK Flexibility Score: inf
ROOT
ATOM      1  C   UNL     1      -3.434   7.419  -4.287  1.00  0.00     0.000 C 
ENDROOT
BRANCH   1   2
ATOM      2  C   UNL     1      -3.279   7.475  -2.754  1.00  0.00     0.000 C 
BRANCH   2   3
ATOM      3  C   UNL     1      -3.139   8.911  -2.208  1.00  0.00     0.000 C 
BRANCH   3   4
ATOM      4  C   UNL     1      -4.078   9.924  -2.893  1.00  0.00    -0.000 C 
BRANCH   4   5
ATOM      5  C   UNL     1      -5.306  10.340  -2.055  1.00  0.00    -0.000 C 
BRANCH   5   6
ATOM      6  C   UNL     1      -5.084  10.448  -0.535  1.00  0.00    -0.000 C 
BRANCH   6   7
ATOM      7  C   UNL     1      -3.663  10.908  -0.164  1.00  0.00    -0.000 C 
BRANCH   7   8
ATOM      8  C   UNL     1      -3.235  10.452   1.241  1.00  0.00    -0.000 C 
BRANCH   8   9
ATOM      9  C   UNL     1      -1.744  10.704   1.519  1.00  0.00    -0.000 C 
BRANCH   9  10
ATOM     10  C   UNL     1      -0.876   9.619   0.870  1.00  0.00    -0.000 C 
BRANCH  10  11
ATOM     11  C   UNL     1      -1.678   8.330   0.652  1.00  0.00    -0.003 C 
ATOM     12  C   UNL     1      -0.917   7.353  -0.240  1.00  0.00     0.004 C 
ENDBRANCH  10  11
ENDBRANCH   9  10
ENDBRANCH   8   9
ENDBRANCH   7   8
ENDBRANCH   6   7
ENDBRANCH   5   6
ENDBRANCH   4   5
ENDBRANCH   3   4
ENDBRANCH   2   3
ENDBRANCH   1   2
BRANCH   1  13
ATOM     13  C   UNL     1      -3.228   6.021  -4.905  1.00  0.00     0.000 C 
BRANCH  13  14
ATOM     14  C   UNL     1      -1.784   5.489  -4.902  1.00  0.00     0.000 C 
BRANCH  14  15
ATOM     15  C   UNL     1      -1.114   5.562  -6.286  1.00  0.00     0.000 C 
BRANCH  15  16
ATOM     16  C   UNL     1      -0.925   7.003  -6.785  1.00  0.00     0.000 C 
BRANCH  16  17
ATOM     17  C   UNL     1      -1.228   8.053  -5.702  1.00  0.00     0.000 C 
BRANCH  17  18
ATOM     18  C   UNL     1      -0.967   9.489  -6.183  1.00  0.00     0.000 C 
BRANCH  18  19
ATOM     19  C   UNL     1      -1.768   9.845  -7.447  1.00  0.00     0.000 C 
BRANCH  19  20
ATOM     20  C   UNL     1      -0.876  10.022  -8.691  1.00  0.00     0.006 C 
BRANCH  20  21
ATOM     21  C   UNL     1      -1.130   8.981  -9.796  1.00  0.00     0.053 C 
BRANCH  21  22
ATOM     22  C   UNL     1      -1.816   9.562 -10.993  1.00  0.00     0.041 C 
ATOM     23  O   UNL     1      -2.082   8.838 -11.988  1.00  0.00    -0.550 OA
ATOM     24  O   UNL     1      -2.186  10.902 -11.001  1.00  0.00    -0.550 OA
ENDBRANCH  21  22
ENDBRANCH  20  21
ENDBRANCH  19  20
ENDBRANCH  18  19
ENDBRANCH  17  18
ENDBRANCH  16  17
ENDBRANCH  15  16
ENDBRANCH  14  15
ENDBRANCH  13  14
ENDBRANCH   1  13
TORSDOF 20
ENDMDL
