MODEL 1
REMARK VINA RESULT:    28.143      0.000      0.000
REMARK INTER + INTRA:          42.527
REMARK INTER:                  42.950
REMARK INTRA:                  -0.423
REMARK UNBOUND:                -0.423
REMARK SMILES COc1cc(C=CC(=O)CC(=O)C=Cc2ccc(O)c(OC)c2)ccc1O
REMARK SMILES IDX 10 1 8 2 9 3 7 4 6 5 5 6 3 7 26 8 4 9 25 10 24 11 2 12 1 13
REMARK SMILES IDX 27 14 11 16 12 17 13 18 14 19 15 20 23 21 16 22 20 23 17 24
REMARK SMILES IDX 18 25 21 26 22 27 19 28
REMARK H PARENT 27 15 19 29
REMARK Flexibility Score: inf
ROOT
ATOM      1  C   UNL     1     -28.340  32.470  -3.755  1.00  0.00     0.160 C 
ENDROOT
BRANCH   1   2
ATOM      2  C   UNL     1     -27.103  31.629  -3.900  1.00  0.00     0.163 C 
ATOM      3  O   UNL     1     -25.973  32.179  -3.795  1.00  0.00    -0.294 OA
BRANCH   2   4
ATOM      4  C   UNL     1     -27.223  30.181  -4.184  1.00  0.00     0.048 C 
ATOM      5  C   UNL     1     -27.103  29.612  -5.393  1.00  0.00     0.012 C 
BRANCH   5   6
ATOM      6  C   UNL     1     -26.645  30.297  -6.620  1.00  0.00    -0.022 A 
ATOM      7  C   UNL     1     -24.862  30.956  -8.158  1.00  0.00     0.161 A 
ATOM      8  C   UNL     1     -25.825  31.523  -9.013  1.00  0.00     0.157 A 
ATOM      9  C   UNL     1     -25.283  30.331  -6.968  1.00  0.00     0.058 A 
ATOM     10  C   UNL     1     -27.182  31.457  -8.681  1.00  0.00     0.051 A 
ATOM     11  C   UNL     1     -27.591  30.840  -7.497  1.00  0.00     0.012 A 
BRANCH   7  12
ATOM     12  O   UNL     1     -23.506  31.028  -8.519  1.00  0.00    -0.493 OA
ATOM     13  C   UNL     1     -22.883  32.178  -9.082  1.00  0.00     0.278 C 
ENDBRANCH   7  12
BRANCH   8  14
ATOM     14  O   UNL     1     -25.453  32.152 -10.201  1.00  0.00    -0.504 OA
ATOM     15  H   UNL     1     -24.487  32.369 -10.418  1.00  0.00     0.293 HD
ENDBRANCH   8  14
ENDBRANCH   5   6
ENDBRANCH   2   4
ENDBRANCH   1   2
BRANCH   1  16
ATOM     16  C   UNL     1     -29.275  31.939  -2.695  1.00  0.00     0.163 C 
ATOM     17  O   UNL     1     -28.842  31.697  -1.535  1.00  0.00    -0.294 OA
BRANCH  16  18
ATOM     18  C   UNL     1     -30.703  31.669  -2.973  1.00  0.00     0.048 C 
ATOM     19  C   UNL     1     -31.386  30.660  -2.411  1.00  0.00     0.012 C 
BRANCH  19  20
ATOM     20  C   UNL     1     -32.820  30.391  -2.679  1.00  0.00    -0.022 A 
ATOM     21  C   UNL     1     -33.523  29.549  -1.800  1.00  0.00     0.058 A 
ATOM     22  C   UNL     1     -33.488  30.915  -3.801  1.00  0.00     0.012 A 
ATOM     23  C   UNL     1     -34.884  29.252  -2.018  1.00  0.00     0.161 A 
ATOM     24  C   UNL     1     -34.837  30.623  -4.020  1.00  0.00     0.051 A 
ATOM     25  C   UNL     1     -35.536  29.797  -3.132  1.00  0.00     0.157 A 
BRANCH  23  26
ATOM     26  O   UNL     1     -35.617  28.423  -1.154  1.00  0.00    -0.493 OA
ATOM     27  C   UNL     1     -35.748  27.014  -1.308  1.00  0.00     0.278 C 
ENDBRANCH  23  26
BRANCH  25  28
ATOM     28  O   UNL     1     -36.882  29.508  -3.353  1.00  0.00    -0.504 OA
ATOM     29  H   UNL     1     -37.604  30.204  -3.209  1.00  0.00     0.293 HD
ENDBRANCH  25  28
ENDBRANCH  19  20
ENDBRANCH  16  18
ENDBRANCH   1  16
TORSDOF 10
ENDMDL
MODEL 2
REMARK VINA RESULT:    28.730      6.504     10.639
REMARK INTER + INTRA:          43.422
REMARK INTER:                  43.548
REMARK INTRA:                  -0.126
REMARK UNBOUND:                -0.423
REMARK SMILES COc1cc(C=CC(=O)CC(=O)C=Cc2ccc(O)c(OC)c2)ccc1O
REMARK SMILES IDX 10 1 8 2 9 3 7 4 6 5 5 6 3 7 26 8 4 9 25 10 24 11 2 12 1 13
REMARK SMILES IDX 27 14 11 16 12 17 13 18 14 19 15 20 23 21 16 22 20 23 17 24
REMARK SMILES IDX 18 25 21 26 22 27 19 28
REMARK H PARENT 27 15 19 29
REMARK Flexibility Score: inf
ROOT
ATOM      1  C   UNL     1     -22.115  26.364  -5.694  1.00  0.00     0.160 C 
ENDROOT
BRANCH   1   2
ATOM      2  C   UNL     1     -21.316  26.643  -4.452  1.00  0.00     0.163 C 
ATOM      3  O   UNL     1     -21.863  26.495  -3.326  1.00  0.00    -0.294 OA
BRANCH   2   4
ATOM      4  C   UNL     1     -19.915  27.107  -4.564  1.00  0.00     0.048 C 
ATOM      5  C   UNL     1     -18.882  26.368  -5.000  1.00  0.00     0.012 C 
BRANCH   5   6
ATOM      6  C   UNL     1     -18.989  25.032  -5.623  1.00  0.00    -0.022 A 
ATOM      7  C   UNL     1     -19.434  22.633  -5.466  1.00  0.00     0.161 A 
ATOM      8  C   UNL     1     -19.286  22.527  -6.862  1.00  0.00     0.157 A 
ATOM      9  C   UNL     1     -19.297  23.896  -4.856  1.00  0.00     0.058 A 
ATOM     10  C   UNL     1     -19.013  23.666  -7.626  1.00  0.00     0.051 A 
ATOM     11  C   UNL     1     -18.875  24.912  -7.013  1.00  0.00     0.012 A 
BRANCH   7  12
ATOM     12  O   UNL     1     -19.715  21.475  -4.723  1.00  0.00    -0.493 OA
ATOM     13  C   UNL     1     -20.478  21.455  -3.521  1.00  0.00     0.278 C 
ENDBRANCH   7  12
BRANCH   8  14
ATOM     14  O   UNL     1     -19.411  21.297  -7.508  1.00  0.00    -0.504 OA
ATOM     15  H   UNL     1     -19.879  21.201  -8.401  1.00  0.00     0.293 HD
ENDBRANCH   8  14
ENDBRANCH   5   6
ENDBRANCH   2   4
ENDBRANCH   1   2
BRANCH   1  16
ATOM     16  C   UNL     1     -21.812  27.341  -6.804  1.00  0.00     0.163 C 
ATOM     17  O   UNL     1     -20.744  27.234  -7.466  1.00  0.00    -0.294 OA
BRANCH  16  18
ATOM     18  C   UNL     1     -22.728  28.452  -7.143  1.00  0.00     0.048 C 
ATOM     19  C   UNL     1     -22.476  29.349  -8.108  1.00  0.00     0.012 C 
BRANCH  19  20
ATOM     20  C   UNL     1     -23.395  30.459  -8.458  1.00  0.00    -0.022 A 
ATOM     21  C   UNL     1     -24.764  30.315  -8.175  1.00  0.00     0.058 A 
ATOM     22  C   UNL     1     -22.952  31.632  -9.097  1.00  0.00     0.012 A 
ATOM     23  C   UNL     1     -25.680  31.336  -8.499  1.00  0.00     0.161 A 
ATOM     24  C   UNL     1     -23.857  32.646  -9.420  1.00  0.00     0.051 A 
ATOM     25  C   UNL     1     -25.217  32.503  -9.121  1.00  0.00     0.157 A 
BRANCH  23  26
ATOM     26  O   UNL     1     -27.052  31.227  -8.221  1.00  0.00    -0.493 OA
ATOM     27  C   UNL     1     -27.630  31.400  -6.932  1.00  0.00     0.278 C 
ENDBRANCH  23  26
BRANCH  25  28
ATOM     28  O   UNL     1     -26.117  33.517  -9.443  1.00  0.00    -0.504 OA
ATOM     29  H   UNL     1     -26.434  33.663 -10.394  1.00  0.00     0.293 HD
ENDBRANCH  25  28
ENDBRANCH  19  20
ENDBRANCH  16  18
ENDBRANCH   1  16
TORSDOF 10
ENDMDL
MODEL 3
REMARK VINA RESULT:    29.937      5.269     11.012
REMARK INTER + INTRA:          45.264
REMARK INTER:                  44.846
REMARK INTRA:                   0.418
REMARK UNBOUND:                -0.423
REMARK SMILES COc1cc(C=CC(=O)CC(=O)C=Cc2ccc(O)c(OC)c2)ccc1O
REMARK SMILES IDX 10 1 8 2 9 3 7 4 6 5 5 6 3 7 26 8 4 9 25 10 24 11 2 12 1 13
REMARK SMILES IDX 27 14 11 16 12 17 13 18 14 19 15 20 23 21 16 22 20 23 17 24
REMARK SMILES IDX 18 25 21 26 22 27 19 28
REMARK H PARENT 27 15 19 29
REMARK Flexibility Score: inf
ROOT
ATOM      1  C   UNL     1     -23.674  30.077  -7.908  1.00  0.00     0.160 C 
ENDROOT
BRANCH   1   2
ATOM      2  C   UNL     1     -23.907  31.295  -8.757  1.00  0.00     0.163 C 
ATOM      3  O   UNL     1     -23.053  32.222  -8.745  1.00  0.00    -0.294 OA
BRANCH   2   4
ATOM      4  C   UNL     1     -25.136  31.402  -9.575  1.00  0.00     0.048 C 
ATOM      5  C   UNL     1     -26.350  30.952  -9.220  1.00  0.00     0.012 C 
BRANCH   5   6
ATOM      6  C   UNL     1     -26.716  30.445  -7.881  1.00  0.00    -0.022 A 
ATOM      7  C   UNL     1     -27.563  28.670  -6.428  1.00  0.00     0.161 A 
ATOM      8  C   UNL     1     -27.302  29.480  -5.307  1.00  0.00     0.157 A 
ATOM      9  C   UNL     1     -27.253  29.157  -7.713  1.00  0.00     0.058 A 
ATOM     10  C   UNL     1     -26.735  30.747  -5.475  1.00  0.00     0.051 A 
ATOM     11  C   UNL     1     -26.435  31.224  -6.752  1.00  0.00     0.012 A 
BRANCH   7  12
ATOM     12  O   UNL     1     -28.126  27.398  -6.232  1.00  0.00    -0.493 OA
ATOM     13  C   UNL     1     -29.522  27.144  -6.115  1.00  0.00     0.278 C 
ENDBRANCH   7  12
BRANCH   8  14
ATOM     14  O   UNL     1     -27.594  29.039  -4.016  1.00  0.00    -0.504 OA
ATOM     15  H   UNL     1     -27.553  28.060  -3.757  1.00  0.00     0.293 HD
ENDBRANCH   8  14
ENDBRANCH   5   6
ENDBRANCH   2   4
ENDBRANCH   1   2
BRANCH   1  16
ATOM     16  C   UNL     1     -22.273  29.534  -8.054  1.00  0.00     0.163 C 
ATOM     17  O   UNL     1     -21.534  29.936  -8.994  1.00  0.00    -0.294 OA
BRANCH  16  18
ATOM     18  C   UNL     1     -21.727  28.515  -7.131  1.00  0.00     0.048 C 
ATOM     19  C   UNL     1     -21.154  27.375  -7.545  1.00  0.00     0.012 C 
BRANCH  19  20
ATOM     20  C   UNL     1     -20.596  26.355  -6.624  1.00  0.00    -0.022 A 
ATOM     21  C   UNL     1     -20.287  25.082  -7.134  1.00  0.00     0.058 A 
ATOM     22  C   UNL     1     -20.404  26.603  -5.252  1.00  0.00     0.012 A 
ATOM     23  C   UNL     1     -19.767  24.075  -6.297  1.00  0.00     0.161 A 
ATOM     24  C   UNL     1     -19.888  25.607  -4.419  1.00  0.00     0.051 A 
ATOM     25  C   UNL     1     -19.568  24.347  -4.937  1.00  0.00     0.157 A 
BRANCH  23  26
ATOM     26  O   UNL     1     -19.440  22.797  -6.778  1.00  0.00    -0.493 OA
ATOM     27  C   UNL     1     -18.875  22.538  -8.059  1.00  0.00     0.278 C 
ENDBRANCH  23  26
BRANCH  25  28
ATOM     28  O   UNL     1     -19.052  23.355  -4.104  1.00  0.00    -0.504 OA
ATOM     29  H   UNL     1     -18.366  23.567  -3.389  1.00  0.00     0.293 HD
ENDBRANCH  25  28
ENDBRANCH  19  20
ENDBRANCH  16  18
ENDBRANCH   1  16
TORSDOF 10
ENDMDL
MODEL 4
REMARK VINA RESULT:    30.454      1.008      1.717
REMARK INTER + INTRA:          46.054
REMARK INTER:                  45.305
REMARK INTRA:                   0.748
REMARK UNBOUND:                -0.423
REMARK SMILES COc1cc(C=CC(=O)CC(=O)C=Cc2ccc(O)c(OC)c2)ccc1O
REMARK SMILES IDX 10 1 8 2 9 3 7 4 6 5 5 6 3 7 26 8 4 9 25 10 24 11 2 12 1 13
REMARK SMILES IDX 27 14 11 16 12 17 13 18 14 19 15 20 23 21 16 22 20 23 17 24
REMARK SMILES IDX 18 25 21 26 22 27 19 28
REMARK H PARENT 27 15 19 29
REMARK Flexibility Score: inf
ROOT
ATOM      1  C   UNL     1     -27.124  32.052  -2.864  1.00  0.00     0.160 C 
ENDROOT
BRANCH   1   2
ATOM      2  C   UNL     1     -26.447  31.253  -3.942  1.00  0.00     0.163 C 
ATOM      3  O   UNL     1     -25.350  31.662  -4.409  1.00  0.00    -0.294 OA
BRANCH   2   4
ATOM      4  C   UNL     1     -27.081  30.018  -4.455  1.00  0.00     0.048 C 
ATOM      5  C   UNL     1     -27.255  29.711  -5.751  1.00  0.00     0.012 C 
BRANCH   5   6
ATOM      6  C   UNL     1     -26.678  30.455  -6.890  1.00  0.00    -0.022 A 
ATOM      7  C   UNL     1     -24.786  31.023  -8.330  1.00  0.00     0.161 A 
ATOM      8  C   UNL     1     -25.643  31.805  -9.128  1.00  0.00     0.157 A 
ATOM      9  C   UNL     1     -25.317  30.338  -7.219  1.00  0.00     0.058 A 
ATOM     10  C   UNL     1     -27.003  31.891  -8.817  1.00  0.00     0.051 A 
ATOM     11  C   UNL     1     -27.520  31.213  -7.711  1.00  0.00     0.012 A 
BRANCH   7  12
ATOM     12  O   UNL     1     -23.425  30.947  -8.668  1.00  0.00    -0.493 OA
ATOM     13  C   UNL     1     -22.636  32.055  -9.089  1.00  0.00     0.278 C 
ENDBRANCH   7  12
BRANCH   8  14
ATOM     14  O   UNL     1     -25.160  32.501 -10.236  1.00  0.00    -0.504 OA
ATOM     15  H   UNL     1     -25.358  32.209 -11.185  1.00  0.00     0.293 HD
ENDBRANCH   8  14
ENDBRANCH   5   6
ENDBRANCH   2   4
ENDBRANCH   1   2
BRANCH   1  16
ATOM     16  C   UNL     1     -28.562  32.368  -3.200  1.00  0.00     0.163 C 
ATOM     17  O   UNL     1     -28.848  33.435  -3.810  1.00  0.00    -0.294 OA
BRANCH  16  18
ATOM     18  C   UNL     1     -29.672  31.469  -2.819  1.00  0.00     0.048 C 
ATOM     19  C   UNL     1     -30.957  31.715  -3.117  1.00  0.00     0.012 C 
BRANCH  19  20
ATOM     20  C   UNL     1     -32.074  30.811  -2.745  1.00  0.00    -0.022 A 
ATOM     21  C   UNL     1     -33.293  30.927  -3.435  1.00  0.00     0.058 A 
ATOM     22  C   UNL     1     -31.968  29.873  -1.702  1.00  0.00     0.012 A 
ATOM     23  C   UNL     1     -34.387  30.100  -3.112  1.00  0.00     0.161 A 
ATOM     24  C   UNL     1     -33.051  29.052  -1.378  1.00  0.00     0.051 A 
ATOM     25  C   UNL     1     -34.257  29.161  -2.080  1.00  0.00     0.157 A 
BRANCH  23  26
ATOM     26  O   UNL     1     -35.615  30.184  -3.788  1.00  0.00    -0.493 OA
ATOM     27  C   UNL     1     -36.888  30.164  -3.153  1.00  0.00     0.278 C 
ENDBRANCH  23  26
BRANCH  25  28
ATOM     28  O   UNL     1     -35.335  28.339  -1.755  1.00  0.00    -0.504 OA
ATOM     29  H   UNL     1     -35.227  27.538  -1.144  1.00  0.00     0.293 HD
ENDBRANCH  25  28
ENDBRANCH  19  20
ENDBRANCH  16  18
ENDBRANCH   1  16
TORSDOF 10
ENDMDL
MODEL 5
REMARK VINA RESULT:    30.600      1.144      9.719
REMARK INTER + INTRA:          46.277
REMARK INTER:                  45.938
REMARK INTRA:                   0.339
REMARK UNBOUND:                -0.423
REMARK SMILES COc1cc(C=CC(=O)CC(=O)C=Cc2ccc(O)c(OC)c2)ccc1O
REMARK SMILES IDX 10 1 8 2 9 3 7 4 6 5 5 6 3 7 26 8 4 9 25 10 24 11 2 12 1 13
REMARK SMILES IDX 27 14 11 16 12 17 13 18 14 19 15 20 23 21 16 22 20 23 17 24
REMARK SMILES IDX 18 25 21 26 22 27 19 28
REMARK H PARENT 27 15 19 29
REMARK Flexibility Score: inf
ROOT
ATOM      1  C   UNL     1     -28.661  30.835  -3.136  1.00  0.00     0.160 C 
ENDROOT
BRANCH   1   2
ATOM      2  C   UNL     1     -29.551  31.763  -2.359  1.00  0.00     0.163 C 
ATOM      3  O   UNL     1     -29.834  32.891  -2.847  1.00  0.00    -0.294 OA
BRANCH   2   4
ATOM      4  C   UNL     1     -30.062  31.358  -1.031  1.00  0.00     0.048 C 
ATOM      5  C   UNL     1     -31.312  30.942  -0.770  1.00  0.00     0.012 C 
BRANCH   5   6
ATOM      6  C   UNL     1     -32.340  30.635  -1.786  1.00  0.00    -0.022 A 
ATOM      7  C   UNL     1     -34.517  29.713  -2.410  1.00  0.00     0.161 A 
ATOM      8  C   UNL     1     -34.316  30.162  -3.729  1.00  0.00     0.157 A 
ATOM      9  C   UNL     1     -33.527  29.968  -1.440  1.00  0.00     0.058 A 
ATOM     10  C   UNL     1     -33.148  30.856  -4.062  1.00  0.00     0.051 A 
ATOM     11  C   UNL     1     -32.170  31.100  -3.096  1.00  0.00     0.012 A 
BRANCH   7  12
ATOM     12  O   UNL     1     -35.701  29.025  -2.099  1.00  0.00    -0.493 OA
ATOM     13  C   UNL     1     -35.751  27.697  -1.587  1.00  0.00     0.278 C 
ENDBRANCH   7  12
BRANCH   8  14
ATOM     14  O   UNL     1     -35.268  29.931  -4.721  1.00  0.00    -0.504 OA
ATOM     15  H   UNL     1     -35.011  29.690  -5.671  1.00  0.00     0.293 HD
ENDBRANCH   8  14
ENDBRANCH   5   6
ENDBRANCH   2   4
ENDBRANCH   1   2
BRANCH   1  16
ATOM     16  C   UNL     1     -27.358  31.486  -3.535  1.00  0.00     0.163 C 
ATOM     17  O   UNL     1     -26.563  31.901  -2.648  1.00  0.00    -0.294 OA
BRANCH  16  18
ATOM     18  C   UNL     1     -26.978  31.676  -4.951  1.00  0.00     0.048 C 
ATOM     19  C   UNL     1     -26.541  30.681  -5.738  1.00  0.00     0.012 C 
BRANCH  19  20
ATOM     20  C   UNL     1     -26.167  30.864  -7.162  1.00  0.00    -0.022 A 
ATOM     21  C   UNL     1     -24.836  31.193  -7.472  1.00  0.00     0.058 A 
ATOM     22  C   UNL     1     -27.104  30.760  -8.207  1.00  0.00     0.012 A 
ATOM     23  C   UNL     1     -24.434  31.390  -8.808  1.00  0.00     0.161 A 
ATOM     24  C   UNL     1     -26.708  30.954  -9.533  1.00  0.00     0.051 A 
ATOM     25  C   UNL     1     -25.378  31.266  -9.836  1.00  0.00     0.157 A 
BRANCH  23  26
ATOM     26  O   UNL     1     -23.110  31.710  -9.152  1.00  0.00    -0.493 OA
ATOM     27  C   UNL     1     -22.563  33.023  -9.113  1.00  0.00     0.278 C 
ENDBRANCH  23  26
BRANCH  25  28
ATOM     28  O   UNL     1     -24.986  31.458 -11.160  1.00  0.00    -0.504 OA
ATOM     29  H   UNL     1     -24.098  31.113 -11.506  1.00  0.00     0.293 HD
ENDBRANCH  25  28
ENDBRANCH  19  20
ENDBRANCH  16  18
ENDBRANCH   1  16
TORSDOF 10
ENDMDL
MODEL 6
REMARK VINA RESULT:    30.725      1.589      2.442
REMARK INTER + INTRA:          46.468
REMARK INTER:                  46.890
REMARK INTRA:                  -0.423
REMARK UNBOUND:                -0.423
REMARK SMILES COc1cc(C=CC(=O)CC(=O)C=Cc2ccc(O)c(OC)c2)ccc1O
REMARK SMILES IDX 10 1 8 2 9 3 7 4 6 5 5 6 3 7 26 8 4 9 25 10 24 11 2 12 1 13
REMARK SMILES IDX 27 14 11 16 12 17 13 18 14 19 15 20 23 21 16 22 20 23 17 24
REMARK SMILES IDX 18 25 21 26 22 27 19 28
REMARK H PARENT 27 15 19 29
REMARK Flexibility Score: inf
ROOT
ATOM      1  C   UNL     1     -28.467  31.311  -3.124  1.00  0.00     0.160 C 
ENDROOT
BRANCH   1   2
ATOM      2  C   UNL     1     -27.442  31.892  -4.057  1.00  0.00     0.163 C 
ATOM      3  O   UNL     1     -26.225  31.620  -3.876  1.00  0.00    -0.294 OA
BRANCH   2   4
ATOM      4  C   UNL     1     -27.867  32.788  -5.156  1.00  0.00     0.048 C 
ATOM      5  C   UNL     1     -27.562  32.629  -6.454  1.00  0.00     0.012 C 
BRANCH   5   6
ATOM      6  C   UNL     1     -26.914  31.438  -7.040  1.00  0.00    -0.022 A 
ATOM      7  C   UNL     1     -26.830  29.024  -7.422  1.00  0.00     0.161 A 
ATOM      8  C   UNL     1     -25.712  29.207  -8.257  1.00  0.00     0.157 A 
ATOM      9  C   UNL     1     -27.435  30.149  -6.828  1.00  0.00     0.058 A 
ATOM     10  C   UNL     1     -25.218  30.494  -8.494  1.00  0.00     0.051 A 
ATOM     11  C   UNL     1     -25.820  31.603  -7.897  1.00  0.00     0.012 A 
BRANCH   7  12
ATOM     12  O   UNL     1     -27.311  27.722  -7.207  1.00  0.00    -0.493 OA
ATOM     13  C   UNL     1     -28.518  27.413  -6.518  1.00  0.00     0.278 C 
ENDBRANCH   7  12
BRANCH   8  14
ATOM     14  O   UNL     1     -25.082  28.122  -8.865  1.00  0.00    -0.504 OA
ATOM     15  H   UNL     1     -24.448  28.234  -9.648  1.00  0.00     0.293 HD
ENDBRANCH   8  14
ENDBRANCH   5   6
ENDBRANCH   2   4
ENDBRANCH   1   2
BRANCH   1  16
ATOM     16  C   UNL     1     -29.578  32.284  -2.812  1.00  0.00     0.163 C 
ATOM     17  O   UNL     1     -29.305  33.428  -2.357  1.00  0.00    -0.294 OA
BRANCH  16  18
ATOM     18  C   UNL     1     -31.002  31.936  -3.005  1.00  0.00     0.048 C 
ATOM     19  C   UNL     1     -31.537  30.770  -2.614  1.00  0.00     0.012 C 
BRANCH  19  20
ATOM     20  C   UNL     1     -32.967  30.420  -2.798  1.00  0.00    -0.022 A 
ATOM     21  C   UNL     1     -33.573  29.553  -1.872  1.00  0.00     0.058 A 
ATOM     22  C   UNL     1     -33.725  30.892  -3.885  1.00  0.00     0.012 A 
ATOM     23  C   UNL     1     -34.925  29.181  -2.009  1.00  0.00     0.161 A 
ATOM     24  C   UNL     1     -35.066  30.525  -4.024  1.00  0.00     0.051 A 
ATOM     25  C   UNL     1     -35.667  29.674  -3.090  1.00  0.00     0.157 A 
BRANCH  23  26
ATOM     26  O   UNL     1     -35.562  28.324  -1.097  1.00  0.00    -0.493 OA
ATOM     27  C   UNL     1     -35.803  26.939  -1.324  1.00  0.00     0.278 C 
ENDBRANCH  23  26
BRANCH  25  28
ATOM     28  O   UNL     1     -37.006  29.311  -3.231  1.00  0.00    -0.504 OA
ATOM     29  H   UNL     1     -37.274  28.379  -3.527  1.00  0.00     0.293 HD
ENDBRANCH  25  28
ENDBRANCH  19  20
ENDBRANCH  16  18
ENDBRANCH   1  16
TORSDOF 10
ENDMDL
