MODEL 1
REMARK VINA RESULT:    -3.768      0.000      0.000
REMARK INTER + INTRA:          -5.994
REMARK INTER:                  -5.310
REMARK INTRA:                  -0.684
REMARK UNBOUND:                -0.684
REMARK SMILES C=CCCCCCCC(=O)[O-]
REMARK SMILES IDX 6 1 7 2 8 3 9 4 10 5 11 6 5 7 4 8 3 9 2 10 1 11
REMARK H PARENT
REMARK Flexibility Score: inf
ROOT
ATOM      1  C   UNL     1       5.847  47.861  33.077  1.00  0.00     0.000 C 
ENDROOT
BRANCH   1   2
ATOM      2  C   UNL     1       5.468  48.504  31.735  1.00  0.00     0.006 C 
BRANCH   2   3
ATOM      3  C   UNL     1       6.210  47.864  30.554  1.00  0.00     0.053 C 
BRANCH   3   4
ATOM      4  C   UNL     1       5.961  48.603  29.276  1.00  0.00     0.041 C 
ATOM      5  O   UNL     1       6.089  49.855  29.232  1.00  0.00    -0.550 OA
ATOM      6  O   UNL     1       5.557  47.913  28.140  1.00  0.00    -0.550 OA
ENDBRANCH   3   4
ENDBRANCH   2   3
ENDBRANCH   1   2
BRANCH   1   7
ATOM      7  C   UNL     1       6.844  48.738  33.844  1.00  0.00     0.000 C 
BRANCH   7   8
ATOM      8  C   UNL     1       8.281  48.232  33.656  1.00  0.00     0.004 C 
BRANCH   8   9
ATOM      9  C   UNL     1       9.214  49.325  33.112  1.00  0.00     0.027 C 
BRANCH   9  10
ATOM     10  C   UNL     1       9.684  49.034  31.712  1.00  0.00    -0.035 C 
ATOM     11  C   UNL     1       9.350  49.816  30.681  1.00  0.00     0.004 C 
ENDBRANCH   9  10
ENDBRANCH   8   9
ENDBRANCH   7   8
ENDBRANCH   1   7
TORSDOF 7
ENDMDL
MODEL 2
REMARK VINA RESULT:    -3.579      2.169      4.245
REMARK INTER + INTRA:          -5.728
REMARK INTER:                  -5.110
REMARK INTRA:                  -0.618
REMARK UNBOUND:                -0.684
REMARK SMILES C=CCCCCCCC(=O)[O-]
REMARK SMILES IDX 6 1 7 2 8 3 9 4 10 5 11 6 5 7 4 8 3 9 2 10 1 11
REMARK H PARENT
REMARK Flexibility Score: inf
ROOT
ATOM      1  C   UNL     1       5.664  48.037  32.825  1.00  0.00     0.000 C 
ENDROOT
BRANCH   1   2
ATOM      2  C   UNL     1       6.734  49.093  33.142  1.00  0.00     0.006 C 
BRANCH   2   3
ATOM      3  C   UNL     1       8.126  48.472  33.318  1.00  0.00     0.053 C 
BRANCH   3   4
ATOM      4  C   UNL     1       9.124  49.073  32.377  1.00  0.00     0.041 C 
ATOM      5  O   UNL     1       9.011  48.896  31.135  1.00  0.00    -0.550 OA
ATOM      6  O   UNL     1      10.197  49.802  32.873  1.00  0.00    -0.550 OA
ENDBRANCH   3   4
ENDBRANCH   2   3
ENDBRANCH   1   2
BRANCH   1   7
ATOM      7  C   UNL     1       5.004  48.314  31.469  1.00  0.00     0.000 C 
BRANCH   7   8
ATOM      8  C   UNL     1       5.546  49.610  30.848  1.00  0.00     0.004 C 
BRANCH   8   9
ATOM      9  C   UNL     1       5.976  49.418  29.386  1.00  0.00     0.027 C 
BRANCH   9  10
ATOM     10  C   UNL     1       5.984  47.969  28.976  1.00  0.00    -0.035 C 
ATOM     11  C   UNL     1       5.379  47.550  27.861  1.00  0.00     0.004 C 
ENDBRANCH   9  10
ENDBRANCH   8   9
ENDBRANCH   7   8
ENDBRANCH   1   7
TORSDOF 7
ENDMDL
MODEL 3
REMARK VINA RESULT:    -3.570     17.445     18.681
REMARK INTER + INTRA:          -5.716
REMARK INTER:                  -5.194
REMARK INTRA:                  -0.522
REMARK UNBOUND:                -0.684
REMARK SMILES C=CCCCCCCC(=O)[O-]
REMARK SMILES IDX 6 1 7 2 8 3 9 4 10 5 11 6 5 7 4 8 3 9 2 10 1 11
REMARK H PARENT
REMARK Flexibility Score: inf
ROOT
ATOM      1  C   UNL     1      13.664  35.447  19.942  1.00  0.00     0.000 C 
ENDROOT
BRANCH   1   2
ATOM      2  C   UNL     1      14.275  34.268  20.714  1.00  0.00     0.006 C 
BRANCH   2   3
ATOM      3  C   UNL     1      13.469  32.975  20.531  1.00  0.00     0.053 C 
BRANCH   3   4
ATOM      4  C   UNL     1      13.505  32.120  21.760  1.00  0.00     0.041 C 
ATOM      5  O   UNL     1      12.435  31.804  22.344  1.00  0.00    -0.550 OA
ATOM      6  O   UNL     1      14.722  31.698  22.278  1.00  0.00    -0.550 OA
ENDBRANCH   3   4
ENDBRANCH   2   3
ENDBRANCH   1   2
BRANCH   1   7
ATOM      7  C   UNL     1      12.742  36.276  20.845  1.00  0.00     0.000 C 
BRANCH   7   8
ATOM      8  C   UNL     1      11.266  36.001  20.526  1.00  0.00     0.004 C 
BRANCH   8   9
ATOM      9  C   UNL     1      10.391  35.993  21.789  1.00  0.00     0.027 C 
BRANCH   9  10
ATOM     10  C   UNL     1      11.119  35.448  22.988  1.00  0.00    -0.035 C 
ATOM     11  C   UNL     1      11.071  36.056  24.177  1.00  0.00     0.004 C 
ENDBRANCH   9  10
ENDBRANCH   8   9
ENDBRANCH   7   8
ENDBRANCH   1   7
TORSDOF 7
ENDMDL
MODEL 4
REMARK VINA RESULT:    -3.558     17.472     18.775
REMARK INTER + INTRA:          -5.699
REMARK INTER:                  -4.978
REMARK INTRA:                  -0.721
REMARK UNBOUND:                -0.684
REMARK SMILES C=CCCCCCCC(=O)[O-]
REMARK SMILES IDX 6 1 7 2 8 3 9 4 10 5 11 6 5 7 4 8 3 9 2 10 1 11
REMARK H PARENT
REMARK Flexibility Score: inf
ROOT
ATOM      1  C   UNL     1      13.657  35.841  20.302  1.00  0.00     0.000 C 
ENDROOT
BRANCH   1   2
ATOM      2  C   UNL     1      14.241  34.478  20.705  1.00  0.00     0.006 C 
BRANCH   2   3
ATOM      3  C   UNL     1      13.192  33.359  20.649  1.00  0.00     0.053 C 
BRANCH   3   4
ATOM      4  C   UNL     1      13.444  32.310  21.688  1.00  0.00     0.041 C 
ATOM      5  O   UNL     1      14.620  31.939  21.942  1.00  0.00    -0.550 OA
ATOM      6  O   UNL     1      12.378  31.720  22.353  1.00  0.00    -0.550 OA
ENDBRANCH   3   4
ENDBRANCH   2   3
ENDBRANCH   1   2
BRANCH   1   7
ATOM      7  C   UNL     1      12.395  35.668  19.450  1.00  0.00     0.000 C 
BRANCH   7   8
ATOM      8  C   UNL     1      11.280  36.614  19.918  1.00  0.00     0.004 C 
BRANCH   8   9
ATOM      9  C   UNL     1      10.270  35.911  20.838  1.00  0.00     0.027 C 
BRANCH   9  10
ATOM     10  C   UNL     1      10.442  36.300  22.282  1.00  0.00    -0.035 C 
ATOM     11  C   UNL     1      11.190  35.578  23.121  1.00  0.00     0.004 C 
ENDBRANCH   9  10
ENDBRANCH   8   9
ENDBRANCH   7   8
ENDBRANCH   1   7
TORSDOF 7
ENDMDL
MODEL 5
REMARK VINA RESULT:    -3.503     16.664     17.759
REMARK INTER + INTRA:          -5.620
REMARK INTER:                  -5.253
REMARK INTRA:                  -0.367
REMARK UNBOUND:                -0.684
REMARK SMILES C=CCCCCCCC(=O)[O-]
REMARK SMILES IDX 6 1 7 2 8 3 9 4 10 5 11 6 5 7 4 8 3 9 2 10 1 11
REMARK H PARENT
REMARK Flexibility Score: inf
ROOT
ATOM      1  C   UNL     1      10.807  36.132  22.155  1.00  0.00     0.000 C 
ENDROOT
BRANCH   1   2
ATOM      2  C   UNL     1       9.926  36.268  20.904  1.00  0.00     0.006 C 
BRANCH   2   3
ATOM      3  C   UNL     1       9.186  34.966  20.571  1.00  0.00     0.053 C 
BRANCH   3   4
ATOM      4  C   UNL     1       7.804  35.228  20.056  1.00  0.00     0.041 C 
ATOM      5  O   UNL     1       7.596  36.177  19.255  1.00  0.00    -0.550 OA
ATOM      6  O   UNL     1       6.741  34.445  20.485  1.00  0.00    -0.550 OA
ENDBRANCH   3   4
ENDBRANCH   2   3
ENDBRANCH   1   2
BRANCH   1   7
ATOM      7  C   UNL     1      12.262  35.840  21.772  1.00  0.00     0.000 C 
BRANCH   7   8
ATOM      8  C   UNL     1      12.563  36.320  20.345  1.00  0.00     0.004 C 
BRANCH   8   9
ATOM      9  C   UNL     1      13.646  35.470  19.663  1.00  0.00     0.027 C 
BRANCH   9  10
ATOM     10  C   UNL     1      14.453  34.669  20.650  1.00  0.00    -0.035 C 
ATOM     11  C   UNL     1      15.073  33.538  20.299  1.00  0.00     0.004 C 
ENDBRANCH   9  10
ENDBRANCH   8   9
ENDBRANCH   7   8
ENDBRANCH   1   7
TORSDOF 7
ENDMDL
MODEL 6
REMARK VINA RESULT:    -3.502      2.046      3.873
REMARK INTER + INTRA:          -5.620
REMARK INTER:                  -5.093
REMARK INTRA:                  -0.527
REMARK UNBOUND:                -0.684
REMARK SMILES C=CCCCCCCC(=O)[O-]
REMARK SMILES IDX 6 1 7 2 8 3 9 4 10 5 11 6 5 7 4 8 3 9 2 10 1 11
REMARK H PARENT
REMARK Flexibility Score: inf
ROOT
ATOM      1  C   UNL     1       7.328  47.983  33.249  1.00  0.00     0.000 C 
ENDROOT
BRANCH   1   2
ATOM      2  C   UNL     1       8.306  49.153  33.058  1.00  0.00     0.006 C 
BRANCH   2   3
ATOM      3  C   UNL     1       9.612  48.713  32.384  1.00  0.00     0.053 C 
BRANCH   3   4
ATOM      4  C   UNL     1      10.028  49.666  31.306  1.00  0.00     0.041 C 
ATOM      5  O   UNL     1      11.217  50.077  31.247  1.00  0.00    -0.550 OA
ATOM      6  O   UNL     1       9.096  50.125  30.385  1.00  0.00    -0.550 OA
ENDBRANCH   3   4
ENDBRANCH   2   3
ENDBRANCH   1   2
BRANCH   1   7
ATOM      7  C   UNL     1       5.877  48.476  33.252  1.00  0.00     0.000 C 
BRANCH   7   8
ATOM      8  C   UNL     1       5.217  48.256  31.883  1.00  0.00     0.004 C 
BRANCH   8   9
ATOM      9  C   UNL     1       6.163  47.566  30.888  1.00  0.00     0.027 C 
BRANCH   9  10
ATOM     10  C   UNL     1       6.218  48.276  29.562  1.00  0.00    -0.035 C 
ATOM     11  C   UNL     1       5.860  49.558  29.435  1.00  0.00     0.004 C 
ENDBRANCH   9  10
ENDBRANCH   8   9
ENDBRANCH   7   8
ENDBRANCH   1   7
TORSDOF 7
ENDMDL
MODEL 7
REMARK VINA RESULT:    -3.437      2.944      4.826
REMARK INTER + INTRA:          -5.528
REMARK INTER:                  -4.825
REMARK INTRA:                  -0.703
REMARK UNBOUND:                -0.684
REMARK SMILES C=CCCCCCCC(=O)[O-]
REMARK SMILES IDX 6 1 7 2 8 3 9 4 10 5 11 6 5 7 4 8 3 9 2 10 1 11
REMARK H PARENT
REMARK Flexibility Score: inf
ROOT
ATOM      1  C   UNL     1       9.435  48.636  31.989  1.00  0.00     0.000 C 
ENDROOT
BRANCH   1   2
ATOM      2  C   UNL     1       8.685  48.956  33.291  1.00  0.00     0.006 C 
BRANCH   2   3
ATOM      3  C   UNL     1       7.919  47.742  33.832  1.00  0.00     0.053 C 
BRANCH   3   4
ATOM      4  C   UNL     1       7.022  48.115  34.972  1.00  0.00     0.041 C 
ATOM      5  O   UNL     1       6.054  48.899  34.786  1.00  0.00    -0.550 OA
ATOM      6  O   UNL     1       7.272  47.622  36.245  1.00  0.00    -0.550 OA
ENDBRANCH   3   4
ENDBRANCH   2   3
ENDBRANCH   1   2
BRANCH   1   7
ATOM      7  C   UNL     1       9.114  49.670  30.903  1.00  0.00     0.000 C 
BRANCH   7   8
ATOM      8  C   UNL     1       7.597  49.843  30.739  1.00  0.00     0.004 C 
BRANCH   8   9
ATOM      9  C   UNL     1       7.002  48.833  29.745  1.00  0.00     0.027 C 
BRANCH   9  10
ATOM     10  C   UNL     1       5.738  48.199  30.259  1.00  0.00    -0.035 C 
ATOM     11  C   UNL     1       5.176  48.580  31.410  1.00  0.00     0.004 C 
ENDBRANCH   9  10
ENDBRANCH   8   9
ENDBRANCH   7   8
ENDBRANCH   1   7
TORSDOF 7
ENDMDL
MODEL 8
REMARK VINA RESULT:    -3.426     16.954     18.377
REMARK INTER + INTRA:          -5.512
REMARK INTER:                  -4.780
REMARK INTRA:                  -0.733
REMARK UNBOUND:                -0.684
REMARK SMILES C=CCCCCCCC(=O)[O-]
REMARK SMILES IDX 6 1 7 2 8 3 9 4 10 5 11 6 5 7 4 8 3 9 2 10 1 11
REMARK H PARENT
REMARK Flexibility Score: inf
ROOT
ATOM      1  C   UNL     1      11.862  36.981  18.875  1.00  0.00     0.000 C 
ENDROOT
BRANCH   1   2
ATOM      2  C   UNL     1      13.260  36.344  18.875  1.00  0.00     0.006 C 
BRANCH   2   3
ATOM      3  C   UNL     1      13.694  35.899  20.278  1.00  0.00     0.053 C 
BRANCH   3   4
ATOM      4  C   UNL     1      13.993  34.432  20.326  1.00  0.00     0.041 C 
ATOM      5  O   UNL     1      13.094  33.592  20.053  1.00  0.00    -0.550 OA
ATOM      6  O   UNL     1      15.254  33.990  20.703  1.00  0.00    -0.550 OA
ENDBRANCH   3   4
ENDBRANCH   2   3
ENDBRANCH   1   2
BRANCH   1   7
ATOM      7  C   UNL     1      10.769  35.906  18.877  1.00  0.00     0.000 C 
BRANCH   7   8
ATOM      8  C   UNL     1       9.579  36.333  19.748  1.00  0.00     0.004 C 
BRANCH   8   9
ATOM      9  C   UNL     1       9.996  36.629  21.196  1.00  0.00     0.027 C 
BRANCH   9  10
ATOM     10  C   UNL     1      10.545  35.414  21.895  1.00  0.00    -0.035 C 
ATOM     11  C   UNL     1      11.157  35.499  23.080  1.00  0.00     0.004 C 
ENDBRANCH   9  10
ENDBRANCH   8   9
ENDBRANCH   7   8
ENDBRANCH   1   7
TORSDOF 7
ENDMDL
MODEL 9
REMARK VINA RESULT:    -3.413      3.386      4.621
REMARK INTER + INTRA:          -5.494
REMARK INTER:                  -4.878
REMARK INTRA:                  -0.616
REMARK UNBOUND:                -0.684
REMARK SMILES C=CCCCCCCC(=O)[O-]
REMARK SMILES IDX 6 1 7 2 8 3 9 4 10 5 11 6 5 7 4 8 3 9 2 10 1 11
REMARK H PARENT
REMARK Flexibility Score: inf
ROOT
ATOM      1  C   UNL     1       6.231  47.559  32.176  1.00  0.00     0.000 C 
ENDROOT
BRANCH   1   2
ATOM      2  C   UNL     1       6.084  48.355  33.482  1.00  0.00     0.006 C 
BRANCH   2   3
ATOM      3  C   UNL     1       7.237  48.084  34.458  1.00  0.00     0.053 C 
BRANCH   3   4
ATOM      4  C   UNL     1       6.837  48.356  35.876  1.00  0.00     0.041 C 
ATOM      5  O   UNL     1       6.055  49.305  36.144  1.00  0.00    -0.550 OA
ATOM      6  O   UNL     1       7.354  47.580  36.905  1.00  0.00    -0.550 OA
ENDBRANCH   3   4
ENDBRANCH   2   3
ENDBRANCH   1   2
BRANCH   1   7
ATOM      7  C   UNL     1       5.574  48.300  31.005  1.00  0.00     0.000 C 
BRANCH   7   8
ATOM      8  C   UNL     1       6.616  48.689  29.946  1.00  0.00     0.004 C 
BRANCH   8   9
ATOM      9  C   UNL     1       7.435  49.920  30.362  1.00  0.00     0.027 C 
BRANCH   9  10
ATOM     10  C   UNL     1       8.909  49.628  30.445  1.00  0.00    -0.035 C 
ATOM     11  C   UNL     1       9.503  49.332  31.605  1.00  0.00     0.004 C 
ENDBRANCH   9  10
ENDBRANCH   8   9
ENDBRANCH   7   8
ENDBRANCH   1   7
TORSDOF 7
ENDMDL
