MODEL 1
REMARK VINA RESULT:    -4.125      0.000      0.000
REMARK INTER + INTRA:          -9.901
REMARK INTER:                  -7.501
REMARK INTRA:                  -2.400
REMARK UNBOUND:                -2.400
REMARK SMILES CCCCCCCCCCCCCCCC(=O)[O-]
REMARK SMILES IDX 9 1 10 2 11 3 12 4 13 5 14 6 15 7 16 8 17 9 18 10 8 11 7 12
REMARK SMILES IDX 6 13 5 14 4 15 3 16 2 17 1 18
REMARK H PARENT
REMARK Flexibility Score: inf
ROOT
ATOM      1  C   UNL     1      -5.653   8.214  16.239  1.00  0.00     0.000 C 
ENDROOT
BRANCH   1   2
ATOM      2  C   UNL     1      -6.357   6.924  16.695  1.00  0.00     0.000 C 
BRANCH   2   3
ATOM      3  C   UNL     1      -5.375   5.898  17.301  1.00  0.00     0.000 C 
BRANCH   3   4
ATOM      4  C   UNL     1      -5.654   4.444  16.873  1.00  0.00     0.000 C 
BRANCH   4   5
ATOM      5  C   UNL     1      -4.550   3.793  16.018  1.00  0.00     0.000 C 
BRANCH   5   6
ATOM      6  C   UNL     1      -3.348   4.707  15.699  1.00  0.00     0.006 C 
BRANCH   6   7
ATOM      7  C   UNL     1      -2.035   3.958  15.424  1.00  0.00     0.053 C 
BRANCH   7   8
ATOM      8  C   UNL     1      -1.220   3.779  16.668  1.00  0.00     0.041 C 
ATOM      9  O   UNL     1      -1.229   2.678  17.279  1.00  0.00    -0.550 OA
ATOM     10  O   UNL     1      -0.423   4.818  17.133  1.00  0.00    -0.550 OA
ENDBRANCH   7   8
ENDBRANCH   6   7
ENDBRANCH   5   6
ENDBRANCH   4   5
ENDBRANCH   3   4
ENDBRANCH   2   3
ENDBRANCH   1   2
BRANCH   1  11
ATOM     11  C   UNL     1      -5.749   8.437  14.722  1.00  0.00     0.000 C 
BRANCH  11  12
ATOM     12  C   UNL     1      -4.841   7.481  13.927  1.00  0.00    -0.000 C 
BRANCH  12  13
ATOM     13  C   UNL     1      -5.554   6.868  12.710  1.00  0.00    -0.000 C 
BRANCH  13  14
ATOM     14  C   UNL     1      -5.687   5.339  12.812  1.00  0.00    -0.000 C 
BRANCH  14  15
ATOM     15  C   UNL     1      -7.151   4.862  12.793  1.00  0.00    -0.000 C 
BRANCH  15  16
ATOM     16  C   UNL     1      -7.918   5.057  14.114  1.00  0.00    -0.000 C 
BRANCH  16  17
ATOM     17  C   UNL     1      -9.278   5.742  13.920  1.00  0.00    -0.003 C 
ATOM     18  C   UNL     1      -9.216   7.211  14.330  1.00  0.00     0.004 C 
ENDBRANCH  16  17
ENDBRANCH  15  16
ENDBRANCH  14  15
ENDBRANCH  13  14
ENDBRANCH  12  13
ENDBRANCH  11  12
ENDBRANCH   1  11
TORSDOF 14
ENDMDL
MODEL 2
REMARK VINA RESULT:    -4.025      3.322      6.055
REMARK INTER + INTRA:          -9.719
REMARK INTER:                  -7.306
REMARK INTRA:                  -2.413
REMARK UNBOUND:                -2.400
REMARK SMILES CCCCCCCCCCCCCCCC(=O)[O-]
REMARK SMILES IDX 9 1 10 2 11 3 12 4 13 5 14 6 15 7 16 8 17 9 18 10 8 11 7 12
REMARK SMILES IDX 6 13 5 14 4 15 3 16 2 17 1 18
REMARK H PARENT
REMARK Flexibility Score: inf
ROOT
ATOM      1  C   UNL     1      -5.207   8.029  15.270  1.00  0.00     0.000 C 
ENDROOT
BRANCH   1   2
ATOM      2  C   UNL     1      -5.493   7.933  13.762  1.00  0.00     0.000 C 
BRANCH   2   3
ATOM      3  C   UNL     1      -4.903   6.653  13.129  1.00  0.00     0.000 C 
BRANCH   3   4
ATOM      4  C   UNL     1      -5.960   5.734  12.487  1.00  0.00     0.000 C 
BRANCH   4   5
ATOM      5  C   UNL     1      -6.478   4.602  13.395  1.00  0.00     0.000 C 
BRANCH   5   6
ATOM      6  C   UNL     1      -7.868   4.851  14.019  1.00  0.00     0.006 C 
BRANCH   6   7
ATOM      7  C   UNL     1      -8.662   5.995  13.368  1.00  0.00     0.053 C 
BRANCH   7   8
ATOM      8  C   UNL     1      -9.306   6.882  14.388  1.00  0.00     0.041 C 
ATOM      9  O   UNL     1      -9.751   6.396  15.461  1.00  0.00    -0.550 OA
ATOM     10  O   UNL     1      -9.385   8.251  14.168  1.00  0.00    -0.550 OA
ENDBRANCH   7   8
ENDBRANCH   6   7
ENDBRANCH   5   6
ENDBRANCH   4   5
ENDBRANCH   3   4
ENDBRANCH   2   3
ENDBRANCH   1   2
BRANCH   1  11
ATOM     11  C   UNL     1      -6.446   7.731  16.129  1.00  0.00     0.000 C 
BRANCH  11  12
ATOM     12  C   UNL     1      -6.148   6.741  17.269  1.00  0.00    -0.000 C 
BRANCH  12  13
ATOM     13  C   UNL     1      -4.877   5.913  17.012  1.00  0.00    -0.000 C 
BRANCH  13  14
ATOM     14  C   UNL     1      -5.180   4.423  16.782  1.00  0.00    -0.000 C 
BRANCH  14  15
ATOM     15  C   UNL     1      -4.022   3.674  16.098  1.00  0.00    -0.000 C 
BRANCH  15  16
ATOM     16  C   UNL     1      -2.955   4.575  15.450  1.00  0.00    -0.000 C 
BRANCH  16  17
ATOM     17  C   UNL     1      -1.527   4.224  15.892  1.00  0.00    -0.003 C 
ATOM     18  C   UNL     1      -1.502   2.922  16.687  1.00  0.00     0.004 C 
ENDBRANCH  16  17
ENDBRANCH  15  16
ENDBRANCH  14  15
ENDBRANCH  13  14
ENDBRANCH  12  13
ENDBRANCH  11  12
ENDBRANCH   1  11
TORSDOF 14
ENDMDL
MODEL 3
REMARK VINA RESULT:    -3.981      1.094      2.738
REMARK INTER + INTRA:          -9.639
REMARK INTER:                  -6.878
REMARK INTRA:                  -2.761
REMARK UNBOUND:                -2.400
REMARK SMILES CCCCCCCCCCCCCCCC(=O)[O-]
REMARK SMILES IDX 9 1 10 2 11 3 12 4 13 5 14 6 15 7 16 8 17 9 18 10 8 11 7 12
REMARK SMILES IDX 6 13 5 14 4 15 3 16 2 17 1 18
REMARK H PARENT
REMARK Flexibility Score: inf
ROOT
ATOM      1  C   UNL     1      -4.960   6.810  12.695  1.00  0.00     0.000 C 
ENDROOT
BRANCH   1   2
ATOM      2  C   UNL     1      -6.084   5.885  12.197  1.00  0.00     0.000 C 
BRANCH   2   3
ATOM      3  C   UNL     1      -6.128   4.545  12.964  1.00  0.00     0.000 C 
BRANCH   3   4
ATOM      4  C   UNL     1      -4.861   4.261  13.793  1.00  0.00     0.000 C 
BRANCH   4   5
ATOM      5  C   UNL     1      -5.110   3.971  15.286  1.00  0.00     0.000 C 
BRANCH   5   6
ATOM      6  C   UNL     1      -4.099   4.619  16.255  1.00  0.00     0.006 C 
BRANCH   6   7
ATOM      7  C   UNL     1      -2.772   5.039  15.602  1.00  0.00     0.053 C 
BRANCH   7   8
ATOM      8  C   UNL     1      -1.625   4.196  16.069  1.00  0.00     0.041 C 
ATOM      9  O   UNL     1      -0.501   4.721  16.286  1.00  0.00    -0.550 OA
ATOM     10  O   UNL     1      -1.807   2.839  16.299  1.00  0.00    -0.550 OA
ENDBRANCH   7   8
ENDBRANCH   6   7
ENDBRANCH   5   6
ENDBRANCH   4   5
ENDBRANCH   3   4
ENDBRANCH   2   3
ENDBRANCH   1   2
BRANCH   1  11
ATOM     11  C   UNL     1      -5.490   8.007  13.500  1.00  0.00     0.000 C 
BRANCH  11  12
ATOM     12  C   UNL     1      -5.032   7.978  14.969  1.00  0.00    -0.000 C 
BRANCH  12  13
ATOM     13  C   UNL     1      -6.203   8.140  15.953  1.00  0.00    -0.000 C 
BRANCH  13  14
ATOM     14  C   UNL     1      -7.033   6.853  16.099  1.00  0.00    -0.000 C 
BRANCH  14  15
ATOM     15  C   UNL     1      -8.499   7.034  15.664  1.00  0.00    -0.000 C 
BRANCH  15  16
ATOM     16  C   UNL     1      -9.009   5.999  14.644  1.00  0.00    -0.000 C 
BRANCH  16  17
ATOM     17  C   UNL     1      -9.551   6.642  13.360  1.00  0.00    -0.003 C 
ATOM     18  C   UNL     1      -9.219   8.130  13.308  1.00  0.00     0.004 C 
ENDBRANCH  16  17
ENDBRANCH  15  16
ENDBRANCH  14  15
ENDBRANCH  13  14
ENDBRANCH  12  13
ENDBRANCH  11  12
ENDBRANCH   1  11
TORSDOF 14
ENDMDL
MODEL 4
REMARK VINA RESULT:    -3.943      0.984      2.972
REMARK INTER + INTRA:          -9.571
REMARK INTER:                  -7.189
REMARK INTRA:                  -2.382
REMARK UNBOUND:                -2.400
REMARK SMILES CCCCCCCCCCCCCCCC(=O)[O-]
REMARK SMILES IDX 9 1 10 2 11 3 12 4 13 5 14 6 15 7 16 8 17 9 18 10 8 11 7 12
REMARK SMILES IDX 6 13 5 14 4 15 3 16 2 17 1 18
REMARK H PARENT
REMARK Flexibility Score: inf
ROOT
ATOM      1  C   UNL     1      -8.068   7.685  14.849  1.00  0.00     0.000 C 
ENDROOT
BRANCH   1   2
ATOM      2  C   UNL     1      -6.771   7.807  15.668  1.00  0.00     0.000 C 
BRANCH   2   3
ATOM      3  C   UNL     1      -6.658   6.719  16.759  1.00  0.00     0.000 C 
BRANCH   3   4
ATOM      4  C   UNL     1      -5.357   5.896  16.681  1.00  0.00     0.000 C 
BRANCH   4   5
ATOM      5  C   UNL     1      -5.556   4.381  16.488  1.00  0.00     0.000 C 
BRANCH   5   6
ATOM      6  C   UNL     1      -4.256   3.550  16.463  1.00  0.00     0.006 C 
BRANCH   6   7
ATOM      7  C   UNL     1      -3.176   4.087  15.511  1.00  0.00     0.053 C 
BRANCH   7   8
ATOM      8  C   UNL     1      -1.795   3.735  15.973  1.00  0.00     0.041 C 
ATOM      9  O   UNL     1      -0.825   4.492  15.705  1.00  0.00    -0.550 OA
ATOM     10  O   UNL     1      -1.585   2.588  16.728  1.00  0.00    -0.550 OA
ENDBRANCH   7   8
ENDBRANCH   6   7
ENDBRANCH   5   6
ENDBRANCH   4   5
ENDBRANCH   3   4
ENDBRANCH   2   3
ENDBRANCH   1   2
BRANCH   1  11
ATOM     11  C   UNL     1      -8.800   6.356  15.093  1.00  0.00     0.000 C 
BRANCH  11  12
ATOM     12  C   UNL     1      -8.888   5.489  13.824  1.00  0.00    -0.000 C 
BRANCH  12  13
ATOM     13  C   UNL     1      -7.563   4.774  13.508  1.00  0.00    -0.000 C 
BRANCH  13  14
ATOM     14  C   UNL     1      -7.150   4.923  12.034  1.00  0.00    -0.000 C 
BRANCH  14  15
ATOM     15  C   UNL     1      -6.086   6.015  11.816  1.00  0.00    -0.000 C 
BRANCH  15  16
ATOM     16  C   UNL     1      -5.035   6.132  12.935  1.00  0.00    -0.000 C 
BRANCH  16  17
ATOM     17  C   UNL     1      -4.349   7.506  12.970  1.00  0.00    -0.003 C 
ATOM     18  C   UNL     1      -3.187   7.514  13.959  1.00  0.00     0.004 C 
ENDBRANCH  16  17
ENDBRANCH  15  16
ENDBRANCH  14  15
ENDBRANCH  13  14
ENDBRANCH  12  13
ENDBRANCH  11  12
ENDBRANCH   1  11
TORSDOF 14
ENDMDL
MODEL 5
REMARK VINA RESULT:    -3.915      1.822      3.751
REMARK INTER + INTRA:          -9.520
REMARK INTER:                  -7.124
REMARK INTRA:                  -2.396
REMARK UNBOUND:                -2.400
REMARK SMILES CCCCCCCCCCCCCCCC(=O)[O-]
REMARK SMILES IDX 9 1 10 2 11 3 12 4 13 5 14 6 15 7 16 8 17 9 18 10 8 11 7 12
REMARK SMILES IDX 6 13 5 14 4 15 3 16 2 17 1 18
REMARK H PARENT
REMARK Flexibility Score: inf
ROOT
ATOM      1  C   UNL     1      -8.732   7.555  14.490  1.00  0.00     0.000 C 
ENDROOT
BRANCH   1   2
ATOM      2  C   UNL     1      -7.392   8.274  14.253  1.00  0.00     0.000 C 
BRANCH   2   3
ATOM      3  C   UNL     1      -6.417   8.112  15.440  1.00  0.00     0.000 C 
BRANCH   3   4
ATOM      4  C   UNL     1      -4.965   7.820  15.015  1.00  0.00     0.000 C 
BRANCH   4   5
ATOM      5  C   UNL     1      -4.525   6.352  15.167  1.00  0.00     0.000 C 
BRANCH   5   6
ATOM      6  C   UNL     1      -4.678   5.769  16.588  1.00  0.00     0.006 C 
BRANCH   6   7
ATOM      7  C   UNL     1      -5.541   4.499  16.665  1.00  0.00     0.053 C 
BRANCH   7   8
ATOM      8  C   UNL     1      -4.707   3.257  16.728  1.00  0.00     0.041 C 
ATOM      9  O   UNL     1      -3.530   3.260  16.278  1.00  0.00    -0.550 OA
ATOM     10  O   UNL     1      -5.216   2.105  17.314  1.00  0.00    -0.550 OA
ENDBRANCH   7   8
ENDBRANCH   6   7
ENDBRANCH   5   6
ENDBRANCH   4   5
ENDBRANCH   3   4
ENDBRANCH   2   3
ENDBRANCH   1   2
BRANCH   1  11
ATOM     11  C   UNL     1      -8.550   6.091  14.921  1.00  0.00     0.000 C 
BRANCH  11  12
ATOM     12  C   UNL     1      -8.473   5.129  13.722  1.00  0.00    -0.000 C 
BRANCH  12  13
ATOM     13  C   UNL     1      -7.050   4.597  13.485  1.00  0.00    -0.000 C 
BRANCH  13  14
ATOM     14  C   UNL     1      -6.586   4.782  12.030  1.00  0.00    -0.000 C 
BRANCH  14  15
ATOM     15  C   UNL     1      -7.369   5.881  11.287  1.00  0.00    -0.000 C 
BRANCH  15  16
ATOM     16  C   UNL     1      -6.508   7.021  10.715  1.00  0.00    -0.000 C 
BRANCH  16  17
ATOM     17  C   UNL     1      -5.102   7.077  11.330  1.00  0.00    -0.003 C 
ATOM     18  C   UNL     1      -4.029   7.130  10.247  1.00  0.00     0.004 C 
ENDBRANCH  16  17
ENDBRANCH  15  16
ENDBRANCH  14  15
ENDBRANCH  13  14
ENDBRANCH  12  13
ENDBRANCH  11  12
ENDBRANCH   1  11
TORSDOF 14
ENDMDL
MODEL 6
REMARK VINA RESULT:    -3.886      0.896      2.600
REMARK INTER + INTRA:          -9.467
REMARK INTER:                  -7.204
REMARK INTRA:                  -2.263
REMARK UNBOUND:                -2.400
REMARK SMILES CCCCCCCCCCCCCCCC(=O)[O-]
REMARK SMILES IDX 9 1 10 2 11 3 12 4 13 5 14 6 15 7 16 8 17 9 18 10 8 11 7 12
REMARK SMILES IDX 6 13 5 14 4 15 3 16 2 17 1 18
REMARK H PARENT
REMARK Flexibility Score: inf
ROOT
ATOM      1  C   UNL     1      -6.777   8.154  14.786  1.00  0.00     0.000 C 
ENDROOT
BRANCH   1   2
ATOM      2  C   UNL     1      -5.534   7.678  15.558  1.00  0.00     0.000 C 
BRANCH   2   3
ATOM      3  C   UNL     1      -5.866   7.243  17.002  1.00  0.00     0.000 C 
BRANCH   3   4
ATOM      4  C   UNL     1      -5.345   5.839  17.363  1.00  0.00     0.000 C 
BRANCH   4   5
ATOM      5  C   UNL     1      -5.800   4.713  16.415  1.00  0.00     0.000 C 
BRANCH   5   6
ATOM      6  C   UNL     1      -4.752   3.607  16.165  1.00  0.00     0.006 C 
BRANCH   6   7
ATOM      7  C   UNL     1      -3.541   4.055  15.331  1.00  0.00     0.053 C 
BRANCH   7   8
ATOM      8  C   UNL     1      -2.261   3.958  16.103  1.00  0.00     0.041 C 
ATOM      9  O   UNL     1      -1.841   2.837  16.495  1.00  0.00    -0.550 OA
ATOM     10  O   UNL     1      -1.515   5.101  16.360  1.00  0.00    -0.550 OA
ENDBRANCH   7   8
ENDBRANCH   6   7
ENDBRANCH   5   6
ENDBRANCH   4   5
ENDBRANCH   3   4
ENDBRANCH   2   3
ENDBRANCH   1   2
BRANCH   1  11
ATOM     11  C   UNL     1      -8.065   7.454  15.248  1.00  0.00     0.000 C 
BRANCH  11  12
ATOM     12  C   UNL     1      -9.126   7.378  14.135  1.00  0.00    -0.000 C 
BRANCH  12  13
ATOM     13  C   UNL     1      -9.471   5.930  13.750  1.00  0.00    -0.000 C 
BRANCH  13  14
ATOM     14  C   UNL     1      -8.258   4.989  13.848  1.00  0.00    -0.000 C 
BRANCH  14  15
ATOM     15  C   UNL     1      -7.436   4.932  12.547  1.00  0.00    -0.000 C 
BRANCH  15  16
ATOM     16  C   UNL     1      -5.909   4.958  12.739  1.00  0.00    -0.000 C 
BRANCH  16  17
ATOM     17  C   UNL     1      -5.242   6.166  12.066  1.00  0.00    -0.003 C 
ATOM     18  C   UNL     1      -6.034   6.620  10.844  1.00  0.00     0.004 C 
ENDBRANCH  16  17
ENDBRANCH  15  16
ENDBRANCH  14  15
ENDBRANCH  13  14
ENDBRANCH  12  13
ENDBRANCH  11  12
ENDBRANCH   1  11
TORSDOF 14
ENDMDL
MODEL 7
REMARK VINA RESULT:    -3.844      1.114      3.513
REMARK INTER + INTRA:          -9.390
REMARK INTER:                  -7.049
REMARK INTRA:                  -2.341
REMARK UNBOUND:                -2.400
REMARK SMILES CCCCCCCCCCCCCCCC(=O)[O-]
REMARK SMILES IDX 9 1 10 2 11 3 12 4 13 5 14 6 15 7 16 8 17 9 18 10 8 11 7 12
REMARK SMILES IDX 6 13 5 14 4 15 3 16 2 17 1 18
REMARK H PARENT
REMARK Flexibility Score: inf
ROOT
ATOM      1  C   UNL     1      -8.974   5.749  13.574  1.00  0.00     0.000 C 
ENDROOT
BRANCH   1   2
ATOM      2  C   UNL     1      -7.886   4.755  14.013  1.00  0.00     0.000 C 
BRANCH   2   3
ATOM      3  C   UNL     1      -6.593   4.888  13.177  1.00  0.00     0.000 C 
BRANCH   3   4
ATOM      4  C   UNL     1      -5.319   4.472  13.937  1.00  0.00     0.000 C 
BRANCH   4   5
ATOM      5  C   UNL     1      -5.533   4.105  15.417  1.00  0.00     0.000 C 
BRANCH   5   6
ATOM      6  C   UNL     1      -4.349   4.436  16.350  1.00  0.00     0.006 C 
BRANCH   6   7
ATOM      7  C   UNL     1      -3.098   4.960  15.628  1.00  0.00     0.053 C 
BRANCH   7   8
ATOM      8  C   UNL     1      -1.909   4.077  15.852  1.00  0.00     0.041 C 
ATOM      9  O   UNL     1      -0.756   4.475  15.539  1.00  0.00    -0.550 OA
ATOM     10  O   UNL     1      -2.070   2.828  16.437  1.00  0.00    -0.550 OA
ENDBRANCH   7   8
ENDBRANCH   6   7
ENDBRANCH   5   6
ENDBRANCH   4   5
ENDBRANCH   3   4
ENDBRANCH   2   3
ENDBRANCH   1   2
BRANCH   1  11
ATOM     11  C   UNL     1      -9.208   6.866  14.604  1.00  0.00     0.000 C 
BRANCH  11  12
ATOM     12  C   UNL     1      -8.961   8.268  14.020  1.00  0.00    -0.000 C 
BRANCH  12  13
ATOM     13  C   UNL     1      -7.599   8.379  13.313  1.00  0.00    -0.000 C 
BRANCH  13  14
ATOM     14  C   UNL     1      -6.529   9.040  14.199  1.00  0.00    -0.000 C 
BRANCH  14  15
ATOM     15  C   UNL     1      -5.753   8.026  15.060  1.00  0.00    -0.000 C 
BRANCH  15  16
ATOM     16  C   UNL     1      -5.981   8.150  16.577  1.00  0.00    -0.000 C 
BRANCH  16  17
ATOM     17  C   UNL     1      -6.863   7.028  17.144  1.00  0.00    -0.003 C 
ATOM     18  C   UNL     1      -6.429   6.650  18.557  1.00  0.00     0.004 C 
ENDBRANCH  16  17
ENDBRANCH  15  16
ENDBRANCH  14  15
ENDBRANCH  13  14
ENDBRANCH  12  13
ENDBRANCH  11  12
ENDBRANCH   1  11
TORSDOF 14
ENDMDL
MODEL 8
REMARK VINA RESULT:    -3.824      1.045      2.998
REMARK INTER + INTRA:          -9.354
REMARK INTER:                  -6.787
REMARK INTRA:                  -2.567
REMARK UNBOUND:                -2.400
REMARK SMILES CCCCCCCCCCCCCCCC(=O)[O-]
REMARK SMILES IDX 9 1 10 2 11 3 12 4 13 5 14 6 15 7 16 8 17 9 18 10 8 11 7 12
REMARK SMILES IDX 6 13 5 14 4 15 3 16 2 17 1 18
REMARK H PARENT
REMARK Flexibility Score: inf
ROOT
ATOM      1  C   UNL     1      -7.663   5.502  15.164  1.00  0.00     0.000 C 
ENDROOT
BRANCH   1   2
ATOM      2  C   UNL     1      -7.335   6.918  15.670  1.00  0.00     0.000 C 
BRANCH   2   3
ATOM      3  C   UNL     1      -6.264   6.914  16.782  1.00  0.00     0.000 C 
BRANCH   3   4
ATOM      4  C   UNL     1      -5.612   5.537  17.012  1.00  0.00     0.000 C 
BRANCH   4   5
ATOM      5  C   UNL     1      -4.141   5.430  16.566  1.00  0.00     0.000 C 
BRANCH   5   6
ATOM      6  C   UNL     1      -3.766   4.107  15.867  1.00  0.00     0.006 C 
BRANCH   6   7
ATOM      7  C   UNL     1      -2.321   4.050  15.345  1.00  0.00     0.053 C 
BRANCH   7   8
ATOM      8  C   UNL     1      -1.341   3.751  16.437  1.00  0.00     0.041 C 
ATOM      9  O   UNL     1      -0.630   4.671  16.920  1.00  0.00    -0.550 OA
ATOM     10  O   UNL     1      -1.237   2.462  16.945  1.00  0.00    -0.550 OA
ENDBRANCH   7   8
ENDBRANCH   6   7
ENDBRANCH   5   6
ENDBRANCH   4   5
ENDBRANCH   3   4
ENDBRANCH   2   3
ENDBRANCH   1   2
BRANCH   1  11
ATOM     11  C   UNL     1      -7.583   5.386  13.634  1.00  0.00     0.000 C 
BRANCH  11  12
ATOM     12  C   UNL     1      -6.146   5.151  13.135  1.00  0.00    -0.000 C 
BRANCH  12  13
ATOM     13  C   UNL     1      -5.503   6.429  12.570  1.00  0.00    -0.000 C 
BRANCH  13  14
ATOM     14  C   UNL     1      -4.220   6.825  13.321  1.00  0.00    -0.000 C 
BRANCH  14  15
ATOM     15  C   UNL     1      -4.283   8.247  13.907  1.00  0.00    -0.000 C 
BRANCH  15  16
ATOM     16  C   UNL     1      -5.427   9.124  13.368  1.00  0.00    -0.000 C 
BRANCH  16  17
ATOM     17  C   UNL     1      -5.993  10.086  14.423  1.00  0.00    -0.003 C 
ATOM     18  C   UNL     1      -5.003  10.290  15.566  1.00  0.00     0.004 C 
ENDBRANCH  16  17
ENDBRANCH  15  16
ENDBRANCH  14  15
ENDBRANCH  13  14
ENDBRANCH  12  13
ENDBRANCH  11  12
ENDBRANCH   1  11
TORSDOF 14
ENDMDL
MODEL 9
REMARK VINA RESULT:    -3.805      1.844      3.388
REMARK INTER + INTRA:          -9.319
REMARK INTER:                  -6.677
REMARK INTRA:                  -2.642
REMARK UNBOUND:                -2.400
REMARK SMILES CCCCCCCCCCCCCCCC(=O)[O-]
REMARK SMILES IDX 9 1 10 2 11 3 12 4 13 5 14 6 15 7 16 8 17 9 18 10 8 11 7 12
REMARK SMILES IDX 6 13 5 14 4 15 3 16 2 17 1 18
REMARK H PARENT
REMARK Flexibility Score: inf
ROOT
ATOM      1  C   UNL     1      -4.869   8.116  14.576  1.00  0.00     0.000 C 
ENDROOT
BRANCH   1   2
ATOM      2  C   UNL     1      -5.344   7.744  13.161  1.00  0.00     0.000 C 
BRANCH   2   3
ATOM      3  C   UNL     1      -5.035   6.274  12.802  1.00  0.00     0.000 C 
BRANCH   3   4
ATOM      4  C   UNL     1      -6.284   5.373  12.746  1.00  0.00     0.000 C 
BRANCH   4   5
ATOM      5  C   UNL     1      -6.425   4.380  13.915  1.00  0.00     0.000 C 
BRANCH   5   6
ATOM      6  C   UNL     1      -5.245   4.374  14.911  1.00  0.00     0.006 C 
BRANCH   6   7
ATOM      7  C   UNL     1      -5.625   3.970  16.344  1.00  0.00     0.053 C 
BRANCH   7   8
ATOM      8  C   UNL     1      -4.749   2.874  16.869  1.00  0.00     0.041 C 
ATOM      9  O   UNL     1      -5.253   1.911  17.506  1.00  0.00    -0.550 OA
ATOM     10  O   UNL     1      -3.382   2.898  16.626  1.00  0.00    -0.550 OA
ENDBRANCH   7   8
ENDBRANCH   6   7
ENDBRANCH   5   6
ENDBRANCH   4   5
ENDBRANCH   3   4
ENDBRANCH   2   3
ENDBRANCH   1   2
BRANCH   1  11
ATOM     11  C   UNL     1      -6.028   8.509  15.506  1.00  0.00     0.000 C 
BRANCH  11  12
ATOM     12  C   UNL     1      -6.233   7.500  16.651  1.00  0.00    -0.000 C 
BRANCH  12  13
ATOM     13  C   UNL     1      -7.685   7.002  16.744  1.00  0.00    -0.000 C 
BRANCH  13  14
ATOM     14  C   UNL     1      -8.517   7.377  15.505  1.00  0.00    -0.000 C 
BRANCH  14  15
ATOM     15  C   UNL     1      -9.404   6.221  15.007  1.00  0.00    -0.000 C 
BRANCH  15  16
ATOM     16  C   UNL     1      -9.813   6.305  13.525  1.00  0.00    -0.000 C 
BRANCH  16  17
ATOM     17  C   UNL     1      -9.335   7.595  12.844  1.00  0.00    -0.003 C 
ATOM     18  C   UNL     1      -9.049   7.361  11.364  1.00  0.00     0.004 C 
ENDBRANCH  16  17
ENDBRANCH  15  16
ENDBRANCH  14  15
ENDBRANCH  13  14
ENDBRANCH  12  13
ENDBRANCH  11  12
ENDBRANCH   1  11
TORSDOF 14
ENDMDL
