MODEL 1
REMARK VINA RESULT:    50.517      0.000      0.000
REMARK INTER + INTRA:          76.278
REMARK INTER:                  75.620
REMARK INTRA:                   0.658
REMARK UNBOUND:                 0.658
REMARK SMILES C=C(CC[C@@H](C(=O)[O-])[C@H]1[C@H](O)C[C@@]2(C)C3=C(CC[C@]12C)[C@]1(C)CC[C@H](OC(C)=O)C(C)(C)[C@@H]1CC3)C(C)C
REMARK SMILES IDX 4 1 5 2 6 3 7 4 8 5 9 6 10 7 19 8 12 9 13 10 18 11 20 12
REMARK SMILES IDX 14 13 15 14 17 15 16 16 35 17 21 18 34 19 33 20 23 21 22 22
REMARK SMILES IDX 30 23 24 24 25 25 31 26 32 27 11 28 26 30 27 31 29 32 28 33
REMARK SMILES IDX 3 34 2 35 1 36 36 37 37 38 38 39
REMARK H PARENT 11 29
REMARK Flexibility Score: inf
ROOT
ATOM      1  C   UNL     1      38.894  33.477  41.981  1.00  0.00     0.014 C 
ENDROOT
BRANCH   1   2
ATOM      2  C   UNL     1      39.797  33.974  40.822  1.00  0.00     0.042 C 
BRANCH   2   3
ATOM      3  C   UNL     1      41.204  34.178  41.319  1.00  0.00     0.045 C 
ATOM      4  O   UNL     1      42.159  33.541  40.798  1.00  0.00    -0.550 OA
ATOM      5  O   UNL     1      41.461  35.074  42.351  1.00  0.00    -0.550 OA
ENDBRANCH   2   3
BRANCH   2   6
ATOM      6  C   UNL     1      39.788  32.959  39.631  1.00  0.00     0.033 C 
ATOM      7  C   UNL     1      38.354  32.556  39.177  1.00  0.00     0.119 C 
ATOM      8  C   UNL     1      40.463  33.400  38.298  1.00  0.00    -0.017 C 
ATOM      9  C   UNL     1      38.413  32.318  37.650  1.00  0.00     0.043 C 
ATOM     10  C   UNL     1      39.908  32.339  37.297  1.00  0.00    -0.003 C 
ATOM     11  C   UNL     1      42.004  33.353  38.251  1.00  0.00     0.012 C 
ATOM     12  C   UNL     1      40.016  34.865  37.948  1.00  0.00     0.013 C 
ATOM     13  C   UNL     1      40.458  30.888  37.494  1.00  0.00     0.017 C 
ATOM     14  C   UNL     1      40.278  32.752  35.878  1.00  0.00    -0.064 C 
ATOM     15  C   UNL     1      42.550  33.304  36.793  1.00  0.00     0.032 C 
ATOM     16  C   UNL     1      41.505  33.303  35.644  1.00  0.00    -0.064 C 
ATOM     17  C   UNL     1      39.435  32.292  34.730  1.00  0.00     0.032 C 
ATOM     18  C   UNL     1      41.931  33.812  34.230  1.00  0.00    -0.008 C 
ATOM     19  C   UNL     1      39.419  33.341  33.647  1.00  0.00     0.009 C 
ATOM     20  C   UNL     1      40.841  33.565  33.078  1.00  0.00     0.009 C 
ATOM     21  C   UNL     1      42.285  35.337  34.331  1.00  0.00     0.015 C 
ATOM     22  C   UNL     1      43.219  33.021  33.869  1.00  0.00     0.016 C 
ATOM     23  C   UNL     1      40.822  34.668  31.933  1.00  0.00     0.005 C 
ATOM     24  C   UNL     1      41.114  36.253  33.991  1.00  0.00     0.047 C 
ATOM     25  C   UNL     1      40.620  36.109  32.535  1.00  0.00     0.182 C 
ATOM     26  C   UNL     1      39.713  34.359  30.881  1.00  0.00     0.015 C 
ATOM     27  C   UNL     1      42.139  34.623  31.107  1.00  0.00     0.015 C 
BRANCH   7  28
ATOM     28  O   UNL     1      37.949  31.390  39.846  1.00  0.00    -0.393 OA
ATOM     29  H   UNL     1      38.030  30.646  39.191  1.00  0.00     0.210 HD
ENDBRANCH   7  28
BRANCH  25  30
ATOM     30  O   UNL     1      39.240  36.488  32.497  1.00  0.00    -0.462 OA
BRANCH  30  31
ATOM     31  C   UNL     1      38.782  37.745  32.085  1.00  0.00     0.302 C 
ATOM     32  O   UNL     1      37.787  38.286  32.641  1.00  0.00    -0.253 OA
ATOM     33  C   UNL     1      39.453  38.433  30.949  1.00  0.00     0.139 C 
ENDBRANCH  30  31
ENDBRANCH  25  30
ENDBRANCH   2   6
ENDBRANCH   1   2
BRANCH   1  34
ATOM     34  C   UNL     1      38.603  34.549  43.055  1.00  0.00     0.031 C 
BRANCH  34  35
ATOM     35  C   UNL     1      38.962  34.076  44.450  1.00  0.00    -0.075 C 
ATOM     36  C   UNL     1      39.222  32.777  44.674  1.00  0.00     0.008 C 
BRANCH  35  37
ATOM     37  C   UNL     1      39.045  35.098  45.578  1.00  0.00     0.008 C 
ATOM     38  C   UNL     1      39.014  34.415  46.948  1.00  0.00     0.012 C 
ATOM     39  C   UNL     1      37.944  36.163  45.463  1.00  0.00     0.012 C 
ENDBRANCH  35  37
ENDBRANCH  34  35
ENDBRANCH   1  34
TORSDOF 9
ENDMDL
MODEL 2
REMARK VINA RESULT:    52.524      2.512      3.707
REMARK INTER + INTRA:          79.283
REMARK INTER:                  78.451
REMARK INTRA:                   0.832
REMARK UNBOUND:                 0.658
REMARK SMILES C=C(CC[C@@H](C(=O)[O-])[C@H]1[C@H](O)C[C@@]2(C)C3=C(CC[C@]12C)[C@]1(C)CC[C@H](OC(C)=O)C(C)(C)[C@@H]1CC3)C(C)C
REMARK SMILES IDX 4 1 5 2 6 3 7 4 8 5 9 6 10 7 19 8 12 9 13 10 18 11 20 12
REMARK SMILES IDX 14 13 15 14 17 15 16 16 35 17 21 18 34 19 33 20 23 21 22 22
REMARK SMILES IDX 30 23 24 24 25 25 31 26 32 27 11 28 26 30 27 31 29 32 28 33
REMARK SMILES IDX 3 34 2 35 1 36 36 37 37 38 38 39
REMARK H PARENT 11 29
REMARK Flexibility Score: inf
ROOT
ATOM      1  C   UNL     1      41.903  35.602  40.805  1.00  0.00     0.014 C 
ENDROOT
BRANCH   1   2
ATOM      2  C   UNL     1      41.138  34.277  41.060  1.00  0.00     0.042 C 
BRANCH   2   3
ATOM      3  C   UNL     1      40.546  34.286  42.446  1.00  0.00     0.045 C 
ATOM      4  O   UNL     1      40.973  35.094  43.313  1.00  0.00    -0.550 OA
ATOM      5  O   UNL     1      39.519  33.407  42.775  1.00  0.00    -0.550 OA
ENDBRANCH   2   3
BRANCH   2   6
ATOM      6  C   UNL     1      40.011  34.067  39.994  1.00  0.00     0.033 C 
ATOM      7  C   UNL     1      38.938  35.195  40.004  1.00  0.00     0.119 C 
ATOM      8  C   UNL     1      40.434  34.003  38.497  1.00  0.00    -0.017 C 
ATOM      9  C   UNL     1      38.457  35.373  38.545  1.00  0.00     0.043 C 
ATOM     10  C   UNL     1      39.065  34.192  37.772  1.00  0.00    -0.003 C 
ATOM     11  C   UNL     1      41.063  32.682  38.008  1.00  0.00     0.012 C 
ATOM     12  C   UNL     1      41.453  35.160  38.192  1.00  0.00     0.013 C 
ATOM     13  C   UNL     1      38.074  32.989  37.899  1.00  0.00     0.017 C 
ATOM     14  C   UNL     1      39.312  34.392  36.284  1.00  0.00    -0.064 C 
ATOM     15  C   UNL     1      40.975  32.521  36.461  1.00  0.00     0.032 C 
ATOM     16  C   UNL     1      40.289  33.666  35.667  1.00  0.00    -0.064 C 
ATOM     17  C   UNL     1      38.312  35.147  35.462  1.00  0.00     0.032 C 
ATOM     18  C   UNL     1      40.646  33.864  34.160  1.00  0.00    -0.008 C 
ATOM     19  C   UNL     1      39.012  35.904  34.363  1.00  0.00     0.009 C 
ATOM     20  C   UNL     1      39.724  34.930  33.391  1.00  0.00     0.009 C 
ATOM     21  C   UNL     1      42.158  34.269  34.050  1.00  0.00     0.015 C 
ATOM     22  C   UNL     1      40.450  32.473  33.495  1.00  0.00     0.016 C 
ATOM     23  C   UNL     1      40.458  35.729  32.230  1.00  0.00     0.005 C 
ATOM     24  C   UNL     1      42.378  35.777  34.003  1.00  0.00     0.047 C 
ATOM     25  C   UNL     1      41.749  36.454  32.766  1.00  0.00     0.182 C 
ATOM     26  C   UNL     1      39.493  36.760  31.567  1.00  0.00     0.015 C 
ATOM     27  C   UNL     1      40.837  34.775  31.063  1.00  0.00     0.015 C 
BRANCH   7  28
ATOM     28  O   UNL     1      37.868  34.833  40.838  1.00  0.00    -0.393 OA
ATOM     29  H   UNL     1      37.218  35.583  40.806  1.00  0.00     0.210 HD
ENDBRANCH   7  28
BRANCH  25  30
ATOM     30  O   UNL     1      41.465  37.816  33.104  1.00  0.00    -0.462 OA
BRANCH  30  31
ATOM     31  C   UNL     1      42.031  38.920  32.454  1.00  0.00     0.302 C 
ATOM     32  O   UNL     1      42.967  39.576  32.989  1.00  0.00    -0.253 OA
ATOM     33  C   UNL     1      41.491  39.350  31.136  1.00  0.00     0.139 C 
ENDBRANCH  30  31
ENDBRANCH  25  30
ENDBRANCH   2   6
ENDBRANCH   1   2
BRANCH   1  34
ATOM     34  C   UNL     1      42.880  35.991  41.937  1.00  0.00     0.031 C 
BRANCH  34  35
ATOM     35  C   UNL     1      43.402  37.406  41.783  1.00  0.00    -0.075 C 
ATOM     36  C   UNL     1      43.393  38.244  42.834  1.00  0.00     0.008 C 
BRANCH  35  37
ATOM     37  C   UNL     1      43.953  37.848  40.433  1.00  0.00     0.008 C 
ATOM     38  C   UNL     1      45.217  38.695  40.600  1.00  0.00     0.012 C 
ATOM     39  C   UNL     1      42.896  38.587  39.600  1.00  0.00     0.012 C 
ENDBRANCH  35  37
ENDBRANCH  34  35
ENDBRANCH   1  34
TORSDOF 9
ENDMDL
MODEL 3
REMARK VINA RESULT:    52.608      2.026      3.010
REMARK INTER + INTRA:          79.408
REMARK INTER:                  80.688
REMARK INTRA:                  -1.280
REMARK UNBOUND:                 0.658
REMARK SMILES C=C(CC[C@@H](C(=O)[O-])[C@H]1[C@H](O)C[C@@]2(C)C3=C(CC[C@]12C)[C@]1(C)CC[C@H](OC(C)=O)C(C)(C)[C@@H]1CC3)C(C)C
REMARK SMILES IDX 4 1 5 2 6 3 7 4 8 5 9 6 10 7 19 8 12 9 13 10 18 11 20 12
REMARK SMILES IDX 14 13 15 14 17 15 16 16 35 17 21 18 34 19 33 20 23 21 22 22
REMARK SMILES IDX 30 23 24 24 25 25 31 26 32 27 11 28 26 30 27 31 29 32 28 33
REMARK SMILES IDX 3 34 2 35 1 36 36 37 37 38 38 39
REMARK H PARENT 11 29
REMARK Flexibility Score: inf
ROOT
ATOM      1  C   UNL     1      37.725  34.993  40.766  1.00  0.00     0.014 C 
ENDROOT
BRANCH   1   2
ATOM      2  C   UNL     1      39.159  34.402  40.770  1.00  0.00     0.042 C 
BRANCH   2   3
ATOM      3  C   UNL     1      39.470  33.823  42.126  1.00  0.00     0.045 C 
ATOM      4  O   UNL     1      38.752  32.904  42.603  1.00  0.00    -0.550 OA
ATOM      5  O   UNL     1      40.556  34.293  42.857  1.00  0.00    -0.550 OA
ENDBRANCH   2   3
BRANCH   2   6
ATOM      6  C   UNL     1      39.314  33.303  39.667  1.00  0.00     0.033 C 
ATOM      7  C   UNL     1      37.953  32.807  39.098  1.00  0.00     0.119 C 
ATOM      8  C   UNL     1      40.113  33.676  38.382  1.00  0.00    -0.017 C 
ATOM      9  C   UNL     1      38.185  32.461  37.608  1.00  0.00     0.043 C 
ATOM     10  C   UNL     1      39.708  32.522  37.412  1.00  0.00    -0.003 C 
ATOM     11  C   UNL     1      41.651  33.693  38.501  1.00  0.00     0.012 C 
ATOM     12  C   UNL     1      39.655  35.091  37.875  1.00  0.00     0.013 C 
ATOM     13  C   UNL     1      40.284  31.114  37.777  1.00  0.00     0.017 C 
ATOM     14  C   UNL     1      40.214  32.846  36.013  1.00  0.00    -0.064 C 
ATOM     15  C   UNL     1      42.352  33.562  37.116  1.00  0.00     0.032 C 
ATOM     16  C   UNL     1      41.438  33.432  35.867  1.00  0.00    -0.064 C 
ATOM     17  C   UNL     1      39.516  32.267  34.821  1.00  0.00     0.032 C 
ATOM     18  C   UNL     1      41.995  33.855  34.471  1.00  0.00    -0.008 C 
ATOM     19  C   UNL     1      39.579  33.233  33.666  1.00  0.00     0.009 C 
ATOM     20  C   UNL     1      41.046  33.478  33.233  1.00  0.00     0.009 C 
ATOM     21  C   UNL     1      42.282  35.397  34.490  1.00  0.00     0.015 C 
ATOM     22  C   UNL     1      43.342  33.097  34.308  1.00  0.00     0.016 C 
ATOM     23  C   UNL     1      41.111  34.493  32.011  1.00  0.00     0.005 C 
ATOM     24  C   UNL     1      41.122  36.234  33.960  1.00  0.00     0.047 C 
ATOM     25  C   UNL     1      40.794  35.964  32.476  1.00  0.00     0.182 C 
ATOM     26  C   UNL     1      40.133  34.060  30.875  1.00  0.00     0.015 C 
ATOM     27  C   UNL     1      42.509  34.446  31.334  1.00  0.00     0.015 C 
BRANCH   7  28
ATOM     28  O   UNL     1      37.520  31.675  39.808  1.00  0.00    -0.393 OA
ATOM     29  H   UNL     1      37.472  31.943  40.764  1.00  0.00     0.210 HD
ENDBRANCH   7  28
BRANCH  25  30
ATOM     30  O   UNL     1      39.413  36.278  32.264  1.00  0.00    -0.462 OA
BRANCH  30  31
ATOM     31  C   UNL     1      38.947  37.534  31.857  1.00  0.00     0.302 C 
ATOM     32  O   UNL     1      37.833  37.972  32.256  1.00  0.00    -0.253 OA
ATOM     33  C   UNL     1      39.759  38.343  30.908  1.00  0.00     0.139 C 
ENDBRANCH  30  31
ENDBRANCH  25  30
ENDBRANCH   2   6
ENDBRANCH   1   2
BRANCH   1  34
ATOM     34  C   UNL     1      37.556  36.225  39.849  1.00  0.00     0.031 C 
BRANCH  34  35
ATOM     35  C   UNL     1      36.263  36.969  40.120  1.00  0.00    -0.075 C 
ATOM     36  C   UNL     1      35.859  37.178  41.385  1.00  0.00     0.008 C 
BRANCH  35  37
ATOM     37  C   UNL     1      35.451  37.492  38.941  1.00  0.00     0.008 C 
ATOM     38  C   UNL     1      35.513  36.527  37.754  1.00  0.00     0.012 C 
ATOM     39  C   UNL     1      35.889  38.906  38.531  1.00  0.00     0.012 C 
ENDBRANCH  35  37
ENDBRANCH  34  35
ENDBRANCH   1  34
TORSDOF 9
ENDMDL
