MODEL 1
REMARK VINA RESULT:    -5.324      0.000      0.000
REMARK INTER + INTRA:          -5.803
REMARK INTER:                  -5.635
REMARK INTRA:                  -0.167
REMARK UNBOUND:                -0.167
REMARK SMILES Cc1ccc(C(C)C)cc1
REMARK SMILES IDX 1 1 2 2 3 3 4 4 5 5 9 6 10 7 6 8 7 9 8 10
REMARK H PARENT
REMARK Flexibility Score: inf
ROOT
ATOM      1  C   UNL     1      -7.628  -0.183 -42.303  1.00  0.00     0.044 C 
ATOM      2  C   UNL     1      -7.382   0.601 -41.048  1.00  0.00    -0.051 A 
ATOM      3  C   UNL     1      -7.560   0.001 -39.794  1.00  0.00     0.004 A 
ATOM      4  C   UNL     1      -7.366   0.741 -38.623  1.00  0.00     0.004 A 
ATOM      5  C   UNL     1      -7.006   2.098 -38.687  1.00  0.00    -0.045 A 
ATOM      6  C   UNL     1      -6.848   2.701 -39.950  1.00  0.00     0.004 A 
ATOM      7  C   UNL     1      -7.041   1.960 -41.119  1.00  0.00     0.004 A 
ENDROOT
BRANCH   5   8
ATOM      8  C   UNL     1      -6.801   2.890 -37.409  1.00  0.00     0.013 C 
ATOM      9  C   UNL     1      -6.315   1.985 -36.270  1.00  0.00     0.012 C 
ATOM     10  C   UNL     1      -5.837   4.061 -37.633  1.00  0.00     0.012 C 
ENDBRANCH   5   8
TORSDOF 1
ENDMDL
MODEL 2
REMARK VINA RESULT:    -5.305     16.497     17.277
REMARK INTER + INTRA:          -5.782
REMARK INTER:                  -5.615
REMARK INTRA:                  -0.167
REMARK UNBOUND:                -0.167
REMARK SMILES Cc1ccc(C(C)C)cc1
REMARK SMILES IDX 1 1 2 2 3 3 4 4 5 5 9 6 10 7 6 8 7 9 8 10
REMARK H PARENT
REMARK Flexibility Score: inf
ROOT
ATOM      1  C   UNL     1       7.022  -9.094 -35.580  1.00  0.00     0.044 C 
ATOM      2  C   UNL     1       7.551  -7.713 -35.833  1.00  0.00    -0.051 A 
ATOM      3  C   UNL     1       7.874  -6.873 -34.758  1.00  0.00     0.004 A 
ATOM      4  C   UNL     1       8.333  -5.572 -34.992  1.00  0.00     0.004 A 
ATOM      5  C   UNL     1       8.463  -5.086 -36.304  1.00  0.00    -0.045 A 
ATOM      6  C   UNL     1       8.118  -5.928 -37.379  1.00  0.00     0.004 A 
ATOM      7  C   UNL     1       7.661  -7.228 -37.144  1.00  0.00     0.004 A 
ENDROOT
BRANCH   5   8
ATOM      8  C   UNL     1       8.960  -3.672 -36.544  1.00  0.00     0.013 C 
ATOM      9  C   UNL     1       8.341  -3.076 -37.814  1.00  0.00     0.012 C 
ATOM     10  C   UNL     1       8.690  -2.779 -35.327  1.00  0.00     0.012 C 
ENDBRANCH   5   8
TORSDOF 1
ENDMDL
MODEL 3
REMARK VINA RESULT:    -5.272     16.497     17.303
REMARK INTER + INTRA:          -5.748
REMARK INTER:                  -5.581
REMARK INTRA:                  -0.167
REMARK UNBOUND:                -0.167
REMARK SMILES Cc1ccc(C(C)C)cc1
REMARK SMILES IDX 1 1 2 2 3 3 4 4 5 5 9 6 10 7 6 8 7 9 8 10
REMARK H PARENT
REMARK Flexibility Score: inf
ROOT
ATOM      1  C   UNL     1       6.966  -9.197 -35.602  1.00  0.00     0.044 C 
ATOM      2  C   UNL     1       7.441  -7.791 -35.826  1.00  0.00    -0.051 A 
ATOM      3  C   UNL     1       7.473  -7.255 -37.120  1.00  0.00     0.004 A 
ATOM      4  C   UNL     1       7.950  -5.958 -37.335  1.00  0.00     0.004 A 
ATOM      5  C   UNL     1       8.417  -5.181 -36.260  1.00  0.00    -0.045 A 
ATOM      6  C   UNL     1       8.401  -5.733 -34.965  1.00  0.00     0.004 A 
ATOM      7  C   UNL     1       7.922  -7.030 -34.752  1.00  0.00     0.004 A 
ENDROOT
BRANCH   5   8
ATOM      8  C   UNL     1       8.933  -3.776 -36.507  1.00  0.00     0.013 C 
ATOM      9  C   UNL     1       8.394  -3.213 -37.828  1.00  0.00     0.012 C 
ATOM     10  C   UNL     1       8.595  -2.849 -35.334  1.00  0.00     0.012 C 
ENDBRANCH   5   8
TORSDOF 1
ENDMDL
MODEL 4
REMARK VINA RESULT:    -5.032      1.040      4.290
REMARK INTER + INTRA:          -5.494
REMARK INTER:                  -5.327
REMARK INTRA:                  -0.167
REMARK UNBOUND:                -0.167
REMARK SMILES Cc1ccc(C(C)C)cc1
REMARK SMILES IDX 1 1 2 2 3 3 4 4 5 5 9 6 10 7 6 8 7 9 8 10
REMARK H PARENT
REMARK Flexibility Score: inf
ROOT
ATOM      1  C   UNL     1      -5.751   4.575 -35.776  1.00  0.00     0.044 C 
ATOM      2  C   UNL     1      -6.106   3.670 -36.920  1.00  0.00    -0.051 A 
ATOM      3  C   UNL     1      -6.567   2.369 -36.674  1.00  0.00     0.004 A 
ATOM      4  C   UNL     1      -6.863   1.512 -37.739  1.00  0.00     0.004 A 
ATOM      5  C   UNL     1      -6.690   1.938 -39.067  1.00  0.00    -0.045 A 
ATOM      6  C   UNL     1      -6.208   3.239 -39.308  1.00  0.00     0.004 A 
ATOM      7  C   UNL     1      -5.913   4.095 -38.242  1.00  0.00     0.004 A 
ENDROOT
BRANCH   5   8
ATOM      8  C   UNL     1      -7.014   0.997 -40.213  1.00  0.00     0.013 C 
ATOM      9  C   UNL     1      -8.147   0.036 -39.836  1.00  0.00     0.012 C 
ATOM     10  C   UNL     1      -7.354   1.778 -41.489  1.00  0.00     0.012 C 
ENDBRANCH   5   8
TORSDOF 1
ENDMDL
MODEL 5
REMARK VINA RESULT:    -4.961     16.649     17.493
REMARK INTER + INTRA:          -5.419
REMARK INTER:                  -5.253
REMARK INTRA:                  -0.166
REMARK UNBOUND:                -0.167
REMARK SMILES Cc1ccc(C(C)C)cc1
REMARK SMILES IDX 1 1 2 2 3 3 4 4 5 5 9 6 10 7 6 8 7 9 8 10
REMARK H PARENT
REMARK Flexibility Score: inf
ROOT
ATOM      1  C   UNL     1       8.663  -3.390 -38.027  1.00  0.00     0.044 C 
ATOM      2  C   UNL     1       8.428  -4.608 -37.183  1.00  0.00    -0.051 A 
ATOM      3  C   UNL     1       7.999  -5.804 -37.774  1.00  0.00     0.004 A 
ATOM      4  C   UNL     1       7.744  -6.930 -36.985  1.00  0.00     0.004 A 
ATOM      5  C   UNL     1       7.900  -6.874 -35.589  1.00  0.00    -0.045 A 
ATOM      6  C   UNL     1       8.311  -5.664 -34.999  1.00  0.00     0.004 A 
ATOM      7  C   UNL     1       8.567  -4.539 -35.790  1.00  0.00     0.004 A 
ENDROOT
BRANCH   5   8
ATOM      8  C   UNL     1       7.618  -8.103 -34.744  1.00  0.00     0.013 C 
ATOM      9  C   UNL     1       6.720  -7.758 -33.550  1.00  0.00     0.012 C 
ATOM     10  C   UNL     1       7.004  -9.225 -35.590  1.00  0.00     0.012 C 
ENDBRANCH   5   8
TORSDOF 1
ENDMDL
MODEL 6
REMARK VINA RESULT:    -4.909     16.951     17.619
REMARK INTER + INTRA:          -5.363
REMARK INTER:                  -5.196
REMARK INTRA:                  -0.167
REMARK UNBOUND:                -0.167
REMARK SMILES Cc1ccc(C(C)C)cc1
REMARK SMILES IDX 1 1 2 2 3 3 4 4 5 5 9 6 10 7 6 8 7 9 8 10
REMARK H PARENT
REMARK Flexibility Score: inf
ROOT
ATOM      1  C   UNL     1       8.865  -3.737 -37.806  1.00  0.00     0.044 C 
ATOM      2  C   UNL     1       8.460  -4.939 -37.005  1.00  0.00    -0.051 A 
ATOM      3  C   UNL     1       8.559  -4.922 -35.607  1.00  0.00     0.004 A 
ATOM      4  C   UNL     1       8.216  -6.055 -34.861  1.00  0.00     0.004 A 
ATOM      5  C   UNL     1       7.781  -7.228 -35.502  1.00  0.00    -0.045 A 
ATOM      6  C   UNL     1       7.702  -7.245 -36.908  1.00  0.00     0.004 A 
ATOM      7  C   UNL     1       8.045  -6.112 -37.652  1.00  0.00     0.004 A 
ENDROOT
BRANCH   5   8
ATOM      8  C   UNL     1       7.414  -8.449 -34.681  1.00  0.00     0.013 C 
ATOM      9  C   UNL     1       6.754  -8.047 -33.356  1.00  0.00     0.012 C 
ATOM     10  C   UNL     1       6.514  -9.401 -35.479  1.00  0.00     0.012 C 
ENDBRANCH   5   8
TORSDOF 1
ENDMDL
MODEL 7
REMARK VINA RESULT:    -4.684     16.479     17.480
REMARK INTER + INTRA:          -5.125
REMARK INTER:                  -4.971
REMARK INTRA:                  -0.154
REMARK UNBOUND:                -0.167
REMARK SMILES Cc1ccc(C(C)C)cc1
REMARK SMILES IDX 1 1 2 2 3 3 4 4 5 5 9 6 10 7 6 8 7 9 8 10
REMARK H PARENT
REMARK Flexibility Score: inf
ROOT
ATOM      1  C   UNL     1       9.364  -3.911 -36.315  1.00  0.00     0.044 C 
ATOM      2  C   UNL     1       8.504  -5.118 -36.079  1.00  0.00    -0.051 A 
ATOM      3  C   UNL     1       8.119  -5.467 -34.778  1.00  0.00     0.004 A 
ATOM      4  C   UNL     1       7.348  -6.612 -34.553  1.00  0.00     0.004 A 
ATOM      5  C   UNL     1       6.962  -7.435 -35.625  1.00  0.00    -0.045 A 
ATOM      6  C   UNL     1       7.368  -7.090 -36.928  1.00  0.00     0.004 A 
ATOM      7  C   UNL     1       8.138  -5.944 -37.152  1.00  0.00     0.004 A 
ENDROOT
BRANCH   5   8
ATOM      8  C   UNL     1       6.127  -8.675 -35.367  1.00  0.00     0.013 C 
ATOM      9  C   UNL     1       4.869  -8.688 -36.244  1.00  0.00     0.012 C 
ATOM     10  C   UNL     1       6.955  -9.950 -35.571  1.00  0.00     0.012 C 
ENDBRANCH   5   8
TORSDOF 1
ENDMDL
MODEL 8
REMARK VINA RESULT:    -4.674      2.549      4.836
REMARK INTER + INTRA:          -5.114
REMARK INTER:                  -4.956
REMARK INTRA:                  -0.159
REMARK UNBOUND:                -0.167
REMARK SMILES Cc1ccc(C(C)C)cc1
REMARK SMILES IDX 1 1 2 2 3 3 4 4 5 5 9 6 10 7 6 8 7 9 8 10
REMARK H PARENT
REMARK Flexibility Score: inf
ROOT
ATOM      1  C   UNL     1      -6.689   1.192 -37.817  1.00  0.00     0.044 C 
ATOM      2  C   UNL     1      -6.419   2.354 -36.908  1.00  0.00    -0.051 A 
ATOM      3  C   UNL     1      -6.137   3.618 -37.442  1.00  0.00     0.004 A 
ATOM      4  C   UNL     1      -5.850   4.694 -36.596  1.00  0.00     0.004 A 
ATOM      5  C   UNL     1      -5.824   4.519 -35.201  1.00  0.00    -0.045 A 
ATOM      6  C   UNL     1      -6.088   3.242 -34.671  1.00  0.00     0.004 A 
ATOM      7  C   UNL     1      -6.377   2.167 -35.518  1.00  0.00     0.004 A 
ENDROOT
BRANCH   5   8
ATOM      8  C   UNL     1      -5.509   5.695 -34.295  1.00  0.00     0.013 C 
ATOM      9  C   UNL     1      -4.616   6.718 -35.008  1.00  0.00     0.012 C 
ATOM     10  C   UNL     1      -6.794   6.351 -33.775  1.00  0.00     0.012 C 
ENDBRANCH   5   8
TORSDOF 1
ENDMDL
MODEL 9
REMARK VINA RESULT:    -4.619     16.024     17.086
REMARK INTER + INTRA:          -5.057
REMARK INTER:                  -4.897
REMARK INTRA:                  -0.159
REMARK UNBOUND:                -0.167
REMARK SMILES Cc1ccc(C(C)C)cc1
REMARK SMILES IDX 1 1 2 2 3 3 4 4 5 5 9 6 10 7 6 8 7 9 8 10
REMARK H PARENT
REMARK Flexibility Score: inf
ROOT
ATOM      1  C   UNL     1       9.192  -1.706 -35.464  1.00  0.00     0.044 C 
ATOM      2  C   UNL     1       8.747  -3.060 -35.931  1.00  0.00    -0.051 A 
ATOM      3  C   UNL     1       8.609  -3.325 -37.300  1.00  0.00     0.004 A 
ATOM      4  C   UNL     1       8.159  -4.576 -37.735  1.00  0.00     0.004 A 
ATOM      5  C   UNL     1       7.825  -5.578 -36.807  1.00  0.00    -0.045 A 
ATOM      6  C   UNL     1       7.947  -5.299 -35.432  1.00  0.00     0.004 A 
ATOM      7  C   UNL     1       8.398  -4.048 -34.999  1.00  0.00     0.004 A 
ENDROOT
BRANCH   5   8
ATOM      8  C   UNL     1       7.337  -6.930 -37.293  1.00  0.00     0.013 C 
ATOM      9  C   UNL     1       7.427  -7.982 -36.181  1.00  0.00     0.012 C 
ATOM     10  C   UNL     1       5.910  -6.834 -37.848  1.00  0.00     0.012 C 
ENDBRANCH   5   8
TORSDOF 1
ENDMDL
