MODEL 1
REMARK VINA RESULT:    -6.534      0.000      0.000
REMARK INTER + INTRA:         -21.902
REMARK INTER:                 -17.229
REMARK INTRA:                  -4.673
REMARK UNBOUND:                -4.673
REMARK SMILES CCCCCCCCCCCCCCCCCCCCCCCCCCCCCC(=O)[O-]
REMARK SMILES IDX 16 1 17 2 18 3 19 4 20 5 21 6 22 7 23 8 24 9 25 10 26 11
REMARK SMILES IDX 27 12 28 13 29 14 30 15 31 16 32 17 15 18 14 19 13 20 12 21
REMARK SMILES IDX 11 22 10 23 9 24 8 25 7 26 6 27 5 28 4 29 3 30 2 31 1 32
REMARK H PARENT
REMARK Flexibility Score: inf
ROOT
ATOM      1  C   UNL     1       4.338  24.168  43.212  1.00  0.00     0.000 C 
ENDROOT
BRANCH   1   2
ATOM      2  C   UNL     1       5.139  25.415  43.625  1.00  0.00     0.000 C 
BRANCH   2   3
ATOM      3  C   UNL     1       6.649  25.132  43.710  1.00  0.00     0.000 C 
BRANCH   3   4
ATOM      4  C   UNL     1       6.971  23.633  43.801  1.00  0.00     0.000 C 
BRANCH   4   5
ATOM      5  C   UNL     1       8.286  23.347  44.552  1.00  0.00     0.000 C 
BRANCH   5   6
ATOM      6  C   UNL     1       8.063  22.765  45.964  1.00  0.00     0.000 C 
BRANCH   6   7
ATOM      7  C   UNL     1       6.590  22.736  46.416  1.00  0.00     0.000 C 
BRANCH   7   8
ATOM      8  C   UNL     1       5.917  21.353  46.393  1.00  0.00     0.000 C 
BRANCH   8   9
ATOM      9  C   UNL     1       4.560  21.359  45.672  1.00  0.00     0.000 C 
BRANCH   9  10
ATOM     10  C   UNL     1       4.673  20.747  44.268  1.00  0.00     0.000 C 
BRANCH  10  11
ATOM     11  C   UNL     1       5.917  19.858  44.110  1.00  0.00     0.000 C 
BRANCH  11  12
ATOM     12  C   UNL     1       6.815  20.295  42.942  1.00  0.00     0.000 C 
BRANCH  12  13
ATOM     13  C   UNL     1       8.293  20.005  43.249  1.00  0.00     0.006 C 
BRANCH  13  14
ATOM     14  C   UNL     1       8.472  19.238  44.566  1.00  0.00     0.053 C 
BRANCH  14  15
ATOM     15  C   UNL     1       9.910  19.173  44.977  1.00  0.00     0.041 C 
ATOM     16  O   UNL     1      10.437  20.133  45.599  1.00  0.00    -0.550 OA
ATOM     17  O   UNL     1      10.681  18.066  44.636  1.00  0.00    -0.550 OA
ENDBRANCH  14  15
ENDBRANCH  13  14
ENDBRANCH  12  13
ENDBRANCH  11  12
ENDBRANCH  10  11
ENDBRANCH   9  10
ENDBRANCH   8   9
ENDBRANCH   7   8
ENDBRANCH   6   7
ENDBRANCH   5   6
ENDBRANCH   4   5
ENDBRANCH   3   4
ENDBRANCH   2   3
ENDBRANCH   1   2
BRANCH   1  18
ATOM     18  C   UNL     1       2.924  24.160  43.819  1.00  0.00     0.000 C 
BRANCH  18  19
ATOM     19  C   UNL     1       2.532  25.525  44.422  1.00  0.00     0.000 C 
BRANCH  19  20
ATOM     20  C   UNL     1       1.535  26.326  43.567  1.00  0.00     0.000 C 
BRANCH  20  21
ATOM     21  C   UNL     1       2.162  27.571  42.923  1.00  0.00     0.000 C 
BRANCH  21  22
ATOM     22  C   UNL     1       1.088  28.473  42.294  1.00  0.00     0.000 C 
BRANCH  22  23
ATOM     23  C   UNL     1       0.405  27.816  41.083  1.00  0.00     0.000 C 
BRANCH  23  24
ATOM     24  C   UNL     1      -0.418  28.816  40.253  1.00  0.00    -0.000 C 
BRANCH  24  25
ATOM     25  C   UNL     1      -0.033  30.282  40.551  1.00  0.00    -0.000 C 
BRANCH  25  26
ATOM     26  C   UNL     1      -1.206  31.143  41.059  1.00  0.00    -0.000 C 
BRANCH  26  27
ATOM     27  C   UNL     1      -1.171  31.467  42.562  1.00  0.00    -0.000 C 
BRANCH  27  28
ATOM     28  C   UNL     1      -2.402  30.992  43.360  1.00  0.00    -0.000 C 
BRANCH  28  29
ATOM     29  C   UNL     1      -2.881  29.572  42.986  1.00  0.00    -0.000 C 
BRANCH  29  30
ATOM     30  C   UNL     1      -2.148  28.477  43.780  1.00  0.00    -0.000 C 
BRANCH  30  31
ATOM     31  C   UNL     1      -1.813  28.911  45.216  1.00  0.00    -0.003 C 
ATOM     32  C   UNL     1      -0.551  28.241  45.758  1.00  0.00     0.004 C 
ENDBRANCH  30  31
ENDBRANCH  29  30
ENDBRANCH  28  29
ENDBRANCH  27  28
ENDBRANCH  26  27
ENDBRANCH  25  26
ENDBRANCH  24  25
ENDBRANCH  23  24
ENDBRANCH  22  23
ENDBRANCH  21  22
ENDBRANCH  20  21
ENDBRANCH  19  20
ENDBRANCH  18  19
ENDBRANCH   1  18
TORSDOF 28
ENDMDL
MODEL 2
REMARK VINA RESULT:    -6.407      3.677     11.022
REMARK INTER + INTRA:         -21.568
REMARK INTER:                 -17.154
REMARK INTRA:                  -4.413
REMARK UNBOUND:                -4.673
REMARK SMILES CCCCCCCCCCCCCCCCCCCCCCCCCCCCCC(=O)[O-]
REMARK SMILES IDX 16 1 17 2 18 3 19 4 20 5 21 6 22 7 23 8 24 9 25 10 26 11
REMARK SMILES IDX 27 12 28 13 29 14 30 15 31 16 32 17 15 18 14 19 13 20 12 21
REMARK SMILES IDX 11 22 10 23 9 24 8 25 7 26 6 27 5 28 4 29 3 30 2 31 1 32
REMARK H PARENT
REMARK Flexibility Score: inf
ROOT
ATOM      1  C   UNL     1       5.937  24.967  44.232  1.00  0.00     0.000 C 
ENDROOT
BRANCH   1   2
ATOM      2  C   UNL     1       4.447  25.339  44.323  1.00  0.00     0.000 C 
BRANCH   2   3
ATOM      3  C   UNL     1       3.804  25.504  42.936  1.00  0.00     0.000 C 
BRANCH   3   4
ATOM      4  C   UNL     1       2.851  26.706  42.858  1.00  0.00     0.000 C 
BRANCH   4   5
ATOM      5  C   UNL     1       1.545  26.487  43.648  1.00  0.00     0.000 C 
BRANCH   5   6
ATOM      6  C   UNL     1       0.620  27.722  43.642  1.00  0.00     0.000 C 
BRANCH   6   7
ATOM      7  C   UNL     1      -0.799  27.458  44.182  1.00  0.00     0.000 C 
BRANCH   7   8
ATOM      8  C   UNL     1      -1.481  28.654  44.866  1.00  0.00     0.000 C 
BRANCH   8   9
ATOM      9  C   UNL     1      -0.611  29.921  44.865  1.00  0.00     0.000 C 
BRANCH   9  10
ATOM     10  C   UNL     1      -1.238  31.027  44.004  1.00  0.00     0.000 C 
BRANCH  10  11
ATOM     11  C   UNL     1      -2.488  30.550  43.248  1.00  0.00     0.000 C 
BRANCH  11  12
ATOM     12  C   UNL     1      -2.333  30.646  41.722  1.00  0.00     0.000 C 
BRANCH  12  13
ATOM     13  C   UNL     1      -1.801  29.327  41.141  1.00  0.00     0.006 C 
BRANCH  13  14
ATOM     14  C   UNL     1      -0.792  29.558  40.007  1.00  0.00     0.053 C 
BRANCH  14  15
ATOM     15  C   UNL     1       0.612  29.289  40.453  1.00  0.00     0.041 C 
ATOM     16  O   UNL     1       1.233  30.140  41.143  1.00  0.00    -0.550 OA
ATOM     17  O   UNL     1       1.250  28.114  40.070  1.00  0.00    -0.550 OA
ENDBRANCH  14  15
ENDBRANCH  13  14
ENDBRANCH  12  13
ENDBRANCH  11  12
ENDBRANCH  10  11
ENDBRANCH   9  10
ENDBRANCH   8   9
ENDBRANCH   7   8
ENDBRANCH   6   7
ENDBRANCH   5   6
ENDBRANCH   4   5
ENDBRANCH   3   4
ENDBRANCH   2   3
ENDBRANCH   1   2
BRANCH   1  18
ATOM     18  C   UNL     1       6.321  24.448  42.834  1.00  0.00     0.000 C 
BRANCH  18  19
ATOM     19  C   UNL     1       7.737  23.837  42.801  1.00  0.00     0.000 C 
BRANCH  19  20
ATOM     20  C   UNL     1       7.811  22.463  42.112  1.00  0.00     0.000 C 
BRANCH  20  21
ATOM     21  C   UNL     1       6.449  21.760  42.027  1.00  0.00     0.000 C 
BRANCH  21  22
ATOM     22  C   UNL     1       6.484  20.393  42.729  1.00  0.00     0.000 C 
BRANCH  22  23
ATOM     23  C   UNL     1       5.224  20.133  43.571  1.00  0.00     0.000 C 
BRANCH  23  24
ATOM     24  C   UNL     1       4.367  21.397  43.759  1.00  0.00    -0.000 C 
BRANCH  24  25
ATOM     25  C   UNL     1       4.424  21.934  45.206  1.00  0.00    -0.000 C 
BRANCH  25  26
ATOM     26  C   UNL     1       4.884  20.889  46.242  1.00  0.00    -0.000 C 
BRANCH  26  27
ATOM     27  C   UNL     1       6.383  20.928  46.584  1.00  0.00    -0.000 C 
BRANCH  27  28
ATOM     28  C   UNL     1       7.109  22.227  46.181  1.00  0.00    -0.000 C 
BRANCH  28  29
ATOM     29  C   UNL     1       8.595  22.024  45.813  1.00  0.00    -0.000 C 
BRANCH  29  30
ATOM     30  C   UNL     1       8.971  20.537  45.685  1.00  0.00    -0.000 C 
BRANCH  30  31
ATOM     31  C   UNL     1       9.610  20.203  44.328  1.00  0.00    -0.003 C 
ATOM     32  C   UNL     1       9.768  18.700  44.101  1.00  0.00     0.004 C 
ENDBRANCH  30  31
ENDBRANCH  29  30
ENDBRANCH  28  29
ENDBRANCH  27  28
ENDBRANCH  26  27
ENDBRANCH  25  26
ENDBRANCH  24  25
ENDBRANCH  23  24
ENDBRANCH  22  23
ENDBRANCH  21  22
ENDBRANCH  20  21
ENDBRANCH  19  20
ENDBRANCH  18  19
ENDBRANCH   1  18
TORSDOF 28
ENDMDL
MODEL 3
REMARK VINA RESULT:    -6.398      3.818     11.297
REMARK INTER + INTRA:         -21.544
REMARK INTER:                 -17.627
REMARK INTRA:                  -3.918
REMARK UNBOUND:                -4.673
REMARK SMILES CCCCCCCCCCCCCCCCCCCCCCCCCCCCCC(=O)[O-]
REMARK SMILES IDX 16 1 17 2 18 3 19 4 20 5 21 6 22 7 23 8 24 9 25 10 26 11
REMARK SMILES IDX 27 12 28 13 29 14 30 15 31 16 32 17 15 18 14 19 13 20 12 21
REMARK SMILES IDX 11 22 10 23 9 24 8 25 7 26 6 27 5 28 4 29 3 30 2 31 1 32
REMARK H PARENT
REMARK Flexibility Score: inf
ROOT
ATOM      1  C   UNL     1       5.735  25.352  43.601  1.00  0.00     0.000 C 
ENDROOT
BRANCH   1   2
ATOM      2  C   UNL     1       4.622  24.751  42.725  1.00  0.00     0.000 C 
BRANCH   2   3
ATOM      3  C   UNL     1       3.463  24.189  43.566  1.00  0.00     0.000 C 
BRANCH   3   4
ATOM      4  C   UNL     1       2.869  25.225  44.532  1.00  0.00     0.000 C 
BRANCH   4   5
ATOM      5  C   UNL     1       1.731  26.049  43.899  1.00  0.00     0.000 C 
BRANCH   5   6
ATOM      6  C   UNL     1       2.234  27.090  42.876  1.00  0.00     0.000 C 
BRANCH   6   7
ATOM      7  C   UNL     1       1.166  28.101  42.418  1.00  0.00     0.000 C 
BRANCH   7   8
ATOM      8  C   UNL     1       0.788  28.037  40.928  1.00  0.00     0.000 C 
BRANCH   8   9
ATOM      9  C   UNL     1      -0.517  28.782  40.608  1.00  0.00     0.000 C 
BRANCH   9  10
ATOM     10  C   UNL     1      -0.264  30.282  40.393  1.00  0.00     0.000 C 
BRANCH  10  11
ATOM     11  C   UNL     1      -1.224  31.165  41.204  1.00  0.00     0.000 C 
BRANCH  11  12
ATOM     12  C   UNL     1      -0.922  31.143  42.711  1.00  0.00     0.000 C 
BRANCH  12  13
ATOM     13  C   UNL     1      -2.210  30.946  43.526  1.00  0.00     0.006 C 
BRANCH  13  14
ATOM     14  C   UNL     1      -2.663  29.480  43.547  1.00  0.00     0.053 C 
BRANCH  14  15
ATOM     15  C   UNL     1      -1.918  28.685  44.573  1.00  0.00     0.041 C 
ATOM     16  O   UNL     1      -1.734  27.449  44.410  1.00  0.00    -0.550 OA
ATOM     17  O   UNL     1      -1.460  29.301  45.733  1.00  0.00    -0.550 OA
ENDBRANCH  14  15
ENDBRANCH  13  14
ENDBRANCH  12  13
ENDBRANCH  11  12
ENDBRANCH  10  11
ENDBRANCH   9  10
ENDBRANCH   8   9
ENDBRANCH   7   8
ENDBRANCH   6   7
ENDBRANCH   5   6
ENDBRANCH   4   5
ENDBRANCH   3   4
ENDBRANCH   2   3
ENDBRANCH   1   2
BRANCH   1  18
ATOM     18  C   UNL     1       6.881  24.355  43.849  1.00  0.00     0.000 C 
BRANCH  18  19
ATOM     19  C   UNL     1       7.857  24.270  42.657  1.00  0.00     0.000 C 
BRANCH  19  20
ATOM     20  C   UNL     1       8.135  22.835  42.175  1.00  0.00     0.000 C 
BRANCH  20  21
ATOM     21  C   UNL     1       6.889  22.141  41.607  1.00  0.00     0.000 C 
BRANCH  21  22
ATOM     22  C   UNL     1       6.509  20.908  42.443  1.00  0.00     0.000 C 
BRANCH  22  23
ATOM     23  C   UNL     1       5.198  21.107  43.220  1.00  0.00     0.000 C 
BRANCH  23  24
ATOM     24  C   UNL     1       5.189  20.363  44.567  1.00  0.00    -0.000 C 
BRANCH  24  25
ATOM     25  C   UNL     1       4.699  21.256  45.728  1.00  0.00    -0.000 C 
BRANCH  25  26
ATOM     26  C   UNL     1       5.834  21.978  46.480  1.00  0.00    -0.000 C 
BRANCH  26  27
ATOM     27  C   UNL     1       7.226  21.343  46.323  1.00  0.00    -0.000 C 
BRANCH  27  28
ATOM     28  C   UNL     1       8.370  22.339  46.047  1.00  0.00    -0.000 C 
BRANCH  28  29
ATOM     29  C   UNL     1       9.466  21.790  45.108  1.00  0.00    -0.000 C 
BRANCH  29  30
ATOM     30  C   UNL     1       9.801  20.316  45.396  1.00  0.00    -0.000 C 
BRANCH  30  31
ATOM     31  C   UNL     1       9.472  19.391  44.214  1.00  0.00    -0.003 C 
ATOM     32  C   UNL     1      10.213  18.057  44.281  1.00  0.00     0.004 C 
ENDBRANCH  30  31
ENDBRANCH  29  30
ENDBRANCH  28  29
ENDBRANCH  27  28
ENDBRANCH  26  27
ENDBRANCH  25  26
ENDBRANCH  24  25
ENDBRANCH  23  24
ENDBRANCH  22  23
ENDBRANCH  21  22
ENDBRANCH  20  21
ENDBRANCH  19  20
ENDBRANCH  18  19
ENDBRANCH   1  18
TORSDOF 28
ENDMDL
MODEL 4
REMARK VINA RESULT:    -6.356      1.262      2.664
REMARK INTER + INTRA:         -21.434
REMARK INTER:                 -16.812
REMARK INTRA:                  -4.622
REMARK UNBOUND:                -4.673
REMARK SMILES CCCCCCCCCCCCCCCCCCCCCCCCCCCCCC(=O)[O-]
REMARK SMILES IDX 16 1 17 2 18 3 19 4 20 5 21 6 22 7 23 8 24 9 25 10 26 11
REMARK SMILES IDX 27 12 28 13 29 14 30 15 31 16 32 17 15 18 14 19 13 20 12 21
REMARK SMILES IDX 11 22 10 23 9 24 8 25 7 26 6 27 5 28 4 29 3 30 2 31 1 32
REMARK H PARENT
REMARK Flexibility Score: inf
ROOT
ATOM      1  C   UNL     1       3.780  25.922  43.184  1.00  0.00     0.000 C 
ENDROOT
BRANCH   1   2
ATOM      2  C   UNL     1       4.771  24.747  43.231  1.00  0.00     0.000 C 
BRANCH   2   3
ATOM      3  C   UNL     1       4.168  23.507  43.914  1.00  0.00     0.000 C 
BRANCH   3   4
ATOM      4  C   UNL     1       4.864  23.158  45.238  1.00  0.00     0.000 C 
BRANCH   4   5
ATOM      5  C   UNL     1       4.841  21.648  45.547  1.00  0.00     0.000 C 
BRANCH   5   6
ATOM      6  C   UNL     1       4.309  20.798  44.373  1.00  0.00     0.000 C 
BRANCH   6   7
ATOM      7  C   UNL     1       5.327  19.792  43.803  1.00  0.00     0.000 C 
BRANCH   7   8
ATOM      8  C   UNL     1       6.556  20.410  43.116  1.00  0.00     0.000 C 
BRANCH   8   9
ATOM      9  C   UNL     1       6.198  21.208  41.852  1.00  0.00     0.000 C 
BRANCH   9  10
ATOM     10  C   UNL     1       7.092  22.449  41.705  1.00  0.00     0.000 C 
BRANCH  10  11
ATOM     11  C   UNL     1       8.270  22.448  42.691  1.00  0.00     0.000 C 
BRANCH  11  12
ATOM     12  C   UNL     1       8.191  23.593  43.713  1.00  0.00     0.000 C 
BRANCH  12  13
ATOM     13  C   UNL     1       9.024  23.270  44.964  1.00  0.00     0.006 C 
BRANCH  13  14
ATOM     14  C   UNL     1       8.330  22.250  45.875  1.00  0.00     0.053 C 
BRANCH  14  15
ATOM     15  C   UNL     1       9.009  20.916  45.831  1.00  0.00     0.041 C 
ATOM     16  O   UNL     1       8.392  19.877  46.185  1.00  0.00    -0.550 OA
ATOM     17  O   UNL     1      10.340  20.826  45.438  1.00  0.00    -0.550 OA
ENDBRANCH  14  15
ENDBRANCH  13  14
ENDBRANCH  12  13
ENDBRANCH  11  12
ENDBRANCH  10  11
ENDBRANCH   9  10
ENDBRANCH   8   9
ENDBRANCH   7   8
ENDBRANCH   6   7
ENDBRANCH   5   6
ENDBRANCH   4   5
ENDBRANCH   3   4
ENDBRANCH   2   3
ENDBRANCH   1   2
BRANCH   1  18
ATOM     18  C   UNL     1       2.496  25.632  43.980  1.00  0.00     0.000 C 
BRANCH  18  19
ATOM     19  C   UNL     1       1.322  26.540  43.558  1.00  0.00     0.000 C 
BRANCH  19  20
ATOM     20  C   UNL     1       1.658  27.505  42.408  1.00  0.00     0.000 C 
BRANCH  20  21
ATOM     21  C   UNL     1       1.434  28.979  42.776  1.00  0.00     0.000 C 
BRANCH  21  22
ATOM     22  C   UNL     1       1.495  29.879  41.532  1.00  0.00     0.000 C 
BRANCH  22  23
ATOM     23  C   UNL     1       1.144  29.122  40.241  1.00  0.00     0.000 C 
BRANCH  23  24
ATOM     24  C   UNL     1      -0.287  29.411  39.756  1.00  0.00    -0.000 C 
BRANCH  24  25
ATOM     25  C   UNL     1      -1.339  28.541  40.479  1.00  0.00    -0.000 C 
BRANCH  25  26
ATOM     26  C   UNL     1      -2.381  29.355  41.272  1.00  0.00    -0.000 C 
BRANCH  26  27
ATOM     27  C   UNL     1      -1.993  30.818  41.546  1.00  0.00    -0.000 C 
BRANCH  27  28
ATOM     28  C   UNL     1      -2.096  31.254  43.021  1.00  0.00    -0.000 C 
BRANCH  28  29
ATOM     29  C   UNL     1      -2.355  30.090  44.001  1.00  0.00    -0.000 C 
BRANCH  29  30
ATOM     30  C   UNL     1      -1.268  29.982  45.085  1.00  0.00    -0.000 C 
BRANCH  30  31
ATOM     31  C   UNL     1      -1.008  28.531  45.520  1.00  0.00    -0.003 C 
ATOM     32  C   UNL     1      -1.768  27.512  44.672  1.00  0.00     0.004 C 
ENDBRANCH  30  31
ENDBRANCH  29  30
ENDBRANCH  28  29
ENDBRANCH  27  28
ENDBRANCH  26  27
ENDBRANCH  25  26
ENDBRANCH  24  25
ENDBRANCH  23  24
ENDBRANCH  22  23
ENDBRANCH  21  22
ENDBRANCH  20  21
ENDBRANCH  19  20
ENDBRANCH  18  19
ENDBRANCH   1  18
TORSDOF 28
ENDMDL
MODEL 5
REMARK VINA RESULT:    -6.329      0.890      2.490
REMARK INTER + INTRA:         -21.362
REMARK INTER:                 -17.203
REMARK INTRA:                  -4.159
REMARK UNBOUND:                -4.673
REMARK SMILES CCCCCCCCCCCCCCCCCCCCCCCCCCCCCC(=O)[O-]
REMARK SMILES IDX 16 1 17 2 18 3 19 4 20 5 21 6 22 7 23 8 24 9 25 10 26 11
REMARK SMILES IDX 27 12 28 13 29 14 30 15 31 16 32 17 15 18 14 19 13 20 12 21
REMARK SMILES IDX 11 22 10 23 9 24 8 25 7 26 6 27 5 28 4 29 3 30 2 31 1 32
REMARK H PARENT
REMARK Flexibility Score: inf
ROOT
ATOM      1  C   UNL     1       6.062  23.709  42.924  1.00  0.00     0.000 C 
ENDROOT
BRANCH   1   2
ATOM      2  C   UNL     1       6.668  25.012  43.473  1.00  0.00     0.000 C 
BRANCH   2   3
ATOM      3  C   UNL     1       8.052  24.787  44.104  1.00  0.00     0.000 C 
BRANCH   3   4
ATOM      4  C   UNL     1       8.452  23.304  44.152  1.00  0.00     0.000 C 
BRANCH   4   5
ATOM      5  C   UNL     1       8.553  22.758  45.589  1.00  0.00     0.000 C 
BRANCH   5   6
ATOM      6  C   UNL     1       7.661  23.521  46.592  1.00  0.00     0.000 C 
BRANCH   6   7
ATOM      7  C   UNL     1       6.182  23.091  46.583  1.00  0.00     0.000 C 
BRANCH   7   8
ATOM      8  C   UNL     1       5.930  21.579  46.704  1.00  0.00     0.000 C 
BRANCH   8   9
ATOM      9  C   UNL     1       4.727  21.104  45.873  1.00  0.00     0.000 C 
BRANCH   9  10
ATOM     10  C   UNL     1       5.169  20.593  44.494  1.00  0.00     0.000 C 
BRANCH  10  11
ATOM     11  C   UNL     1       6.554  19.927  44.527  1.00  0.00     0.000 C 
BRANCH  11  12
ATOM     12  C   UNL     1       7.305  20.051  43.192  1.00  0.00     0.000 C 
BRANCH  12  13
ATOM     13  C   UNL     1       8.817  19.868  43.394  1.00  0.00     0.006 C 
BRANCH  13  14
ATOM     14  C   UNL     1       9.145  18.602  44.198  1.00  0.00     0.053 C 
BRANCH  14  15
ATOM     15  C   UNL     1      10.400  18.765  44.998  1.00  0.00     0.041 C 
ATOM     16  O   UNL     1      11.192  17.796  45.140  1.00  0.00    -0.550 OA
ATOM     17  O   UNL     1      10.676  19.977  45.621  1.00  0.00    -0.550 OA
ENDBRANCH  14  15
ENDBRANCH  13  14
ENDBRANCH  12  13
ENDBRANCH  11  12
ENDBRANCH  10  11
ENDBRANCH   9  10
ENDBRANCH   8   9
ENDBRANCH   7   8
ENDBRANCH   6   7
ENDBRANCH   5   6
ENDBRANCH   4   5
ENDBRANCH   3   4
ENDBRANCH   2   3
ENDBRANCH   1   2
BRANCH   1  18
ATOM     18  C   UNL     1       4.595  23.886  42.494  1.00  0.00     0.000 C 
BRANCH  18  19
ATOM     19  C   UNL     1       3.615  23.775  43.681  1.00  0.00     0.000 C 
BRANCH  19  20
ATOM     20  C   UNL     1       2.872  25.083  44.007  1.00  0.00     0.000 C 
BRANCH  20  21
ATOM     21  C   UNL     1       3.254  26.239  43.071  1.00  0.00     0.000 C 
BRANCH  21  22
ATOM     22  C   UNL     1       2.051  27.156  42.801  1.00  0.00     0.000 C 
BRANCH  22  23
ATOM     23  C   UNL     1       0.808  26.749  43.610  1.00  0.00     0.000 C 
BRANCH  23  24
ATOM     24  C   UNL     1       0.224  27.917  44.424  1.00  0.00    -0.000 C 
BRANCH  24  25
ATOM     25  C   UNL     1      -1.319  27.956  44.368  1.00  0.00    -0.000 C 
BRANCH  25  26
ATOM     26  C   UNL     1      -1.921  29.325  44.745  1.00  0.00    -0.000 C 
BRANCH  26  27
ATOM     27  C   UNL     1      -3.086  29.791  43.855  1.00  0.00    -0.000 C 
BRANCH  27  28
ATOM     28  C   UNL     1      -2.678  30.674  42.659  1.00  0.00    -0.000 C 
BRANCH  28  29
ATOM     29  C   UNL     1      -1.217  31.168  42.715  1.00  0.00    -0.000 C 
BRANCH  29  30
ATOM     30  C   UNL     1      -0.520  31.096  41.345  1.00  0.00    -0.000 C 
BRANCH  30  31
ATOM     31  C   UNL     1       0.426  29.891  41.224  1.00  0.00    -0.003 C 
ATOM     32  C   UNL     1       0.203  29.088  39.944  1.00  0.00     0.004 C 
ENDBRANCH  30  31
ENDBRANCH  29  30
ENDBRANCH  28  29
ENDBRANCH  27  28
ENDBRANCH  26  27
ENDBRANCH  25  26
ENDBRANCH  24  25
ENDBRANCH  23  24
ENDBRANCH  22  23
ENDBRANCH  21  22
ENDBRANCH  20  21
ENDBRANCH  19  20
ENDBRANCH  18  19
ENDBRANCH   1  18
TORSDOF 28
ENDMDL
MODEL 6
REMARK VINA RESULT:    -6.310      3.907     11.323
REMARK INTER + INTRA:         -21.312
REMARK INTER:                 -16.952
REMARK INTRA:                  -4.360
REMARK UNBOUND:                -4.673
REMARK SMILES CCCCCCCCCCCCCCCCCCCCCCCCCCCCCC(=O)[O-]
REMARK SMILES IDX 16 1 17 2 18 3 19 4 20 5 21 6 22 7 23 8 24 9 25 10 26 11
REMARK SMILES IDX 27 12 28 13 29 14 30 15 31 16 32 17 15 18 14 19 13 20 12 21
REMARK SMILES IDX 11 22 10 23 9 24 8 25 7 26 6 27 5 28 4 29 3 30 2 31 1 32
REMARK H PARENT
REMARK Flexibility Score: inf
ROOT
ATOM      1  C   UNL     1       3.926  24.259  45.118  1.00  0.00     0.000 C 
ENDROOT
BRANCH   1   2
ATOM      2  C   UNL     1       3.043  24.617  43.910  1.00  0.00     0.000 C 
BRANCH   2   3
ATOM      3  C   UNL     1       3.676  25.710  43.033  1.00  0.00     0.000 C 
BRANCH   3   4
ATOM      4  C   UNL     1       2.787  26.955  42.897  1.00  0.00     0.000 C 
BRANCH   4   5
ATOM      5  C   UNL     1       1.441  26.813  43.634  1.00  0.00     0.000 C 
BRANCH   5   6
ATOM      6  C   UNL     1       0.246  27.355  42.822  1.00  0.00     0.000 C 
BRANCH   6   7
ATOM      7  C   UNL     1       0.626  27.968  41.460  1.00  0.00     0.000 C 
BRANCH   7   8
ATOM      8  C   UNL     1      -0.491  27.978  40.403  1.00  0.00     0.000 C 
BRANCH   8   9
ATOM      9  C   UNL     1      -1.244  29.316  40.340  1.00  0.00     0.000 C 
BRANCH   9  10
ATOM     10  C   UNL     1      -0.340  30.484  40.762  1.00  0.00     0.000 C 
BRANCH  10  11
ATOM     11  C   UNL     1      -0.975  31.356  41.857  1.00  0.00     0.000 C 
BRANCH  11  12
ATOM     12  C   UNL     1      -2.425  30.956  42.169  1.00  0.00     0.000 C 
BRANCH  12  13
ATOM     13  C   UNL     1      -2.656  30.872  43.686  1.00  0.00     0.006 C 
BRANCH  13  14
ATOM     14  C   UNL     1      -2.439  29.452  44.227  1.00  0.00     0.053 C 
BRANCH  14  15
ATOM     15  C   UNL     1      -1.280  29.392  45.172  1.00  0.00     0.041 C 
ATOM     16  O   UNL     1      -1.112  28.384  45.909  1.00  0.00    -0.550 OA
ATOM     17  O   UNL     1      -0.405  30.468  45.269  1.00  0.00    -0.550 OA
ENDBRANCH  14  15
ENDBRANCH  13  14
ENDBRANCH  12  13
ENDBRANCH  11  12
ENDBRANCH  10  11
ENDBRANCH   9  10
ENDBRANCH   8   9
ENDBRANCH   7   8
ENDBRANCH   6   7
ENDBRANCH   5   6
ENDBRANCH   4   5
ENDBRANCH   3   4
ENDBRANCH   2   3
ENDBRANCH   1   2
BRANCH   1  18
ATOM     18  C   UNL     1       4.401  22.796  45.078  1.00  0.00     0.000 C 
BRANCH  18  19
ATOM     19  C   UNL     1       5.588  22.535  46.029  1.00  0.00     0.000 C 
BRANCH  19  20
ATOM     20  C   UNL     1       6.386  23.798  46.397  1.00  0.00     0.000 C 
BRANCH  20  21
ATOM     21  C   UNL     1       7.903  23.613  46.253  1.00  0.00     0.000 C 
BRANCH  21  22
ATOM     22  C   UNL     1       8.271  22.129  46.098  1.00  0.00     0.000 C 
BRANCH  22  23
ATOM     23  C   UNL     1       9.485  21.917  45.180  1.00  0.00     0.000 C 
BRANCH  23  24
ATOM     24  C   UNL     1       9.850  20.431  45.016  1.00  0.00    -0.000 C 
BRANCH  24  25
ATOM     25  C   UNL     1       9.235  19.813  43.742  1.00  0.00    -0.000 C 
BRANCH  25  26
ATOM     26  C   UNL     1       7.933  19.027  43.997  1.00  0.00    -0.000 C 
BRANCH  26  27
ATOM     27  C   UNL     1       6.643  19.859  43.899  1.00  0.00    -0.000 C 
BRANCH  27  28
ATOM     28  C   UNL     1       6.107  20.065  42.469  1.00  0.00    -0.000 C 
BRANCH  28  29
ATOM     29  C   UNL     1       5.960  21.548  42.063  1.00  0.00    -0.000 C 
BRANCH  29  30
ATOM     30  C   UNL     1       7.272  22.335  42.229  1.00  0.00    -0.000 C 
BRANCH  30  31
ATOM     31  C   UNL     1       7.040  23.784  42.682  1.00  0.00    -0.003 C 
ATOM     32  C   UNL     1       8.311  24.631  42.635  1.00  0.00     0.004 C 
ENDBRANCH  30  31
ENDBRANCH  29  30
ENDBRANCH  28  29
ENDBRANCH  27  28
ENDBRANCH  26  27
ENDBRANCH  25  26
ENDBRANCH  24  25
ENDBRANCH  23  24
ENDBRANCH  22  23
ENDBRANCH  21  22
ENDBRANCH  20  21
ENDBRANCH  19  20
ENDBRANCH  18  19
ENDBRANCH   1  18
TORSDOF 28
ENDMDL
MODEL 7
REMARK VINA RESULT:    -6.269      1.560      3.731
REMARK INTER + INTRA:         -21.204
REMARK INTER:                 -17.398
REMARK INTRA:                  -3.806
REMARK UNBOUND:                -4.673
REMARK SMILES CCCCCCCCCCCCCCCCCCCCCCCCCCCCCC(=O)[O-]
REMARK SMILES IDX 16 1 17 2 18 3 19 4 20 5 21 6 22 7 23 8 24 9 25 10 26 11
REMARK SMILES IDX 27 12 28 13 29 14 30 15 31 16 32 17 15 18 14 19 13 20 12 21
REMARK SMILES IDX 11 22 10 23 9 24 8 25 7 26 6 27 5 28 4 29 3 30 2 31 1 32
REMARK H PARENT
REMARK Flexibility Score: inf
ROOT
ATOM      1  C   UNL     1       7.226  22.745  42.431  1.00  0.00     0.000 C 
ENDROOT
BRANCH   1   2
ATOM      2  C   UNL     1       5.917  22.029  42.057  1.00  0.00     0.000 C 
BRANCH   2   3
ATOM      3  C   UNL     1       5.981  20.518  42.338  1.00  0.00     0.000 C 
BRANCH   3   4
ATOM      4  C   UNL     1       5.525  20.156  43.760  1.00  0.00     0.000 C 
BRANCH   4   5
ATOM      5  C   UNL     1       4.438  21.106  44.300  1.00  0.00     0.000 C 
BRANCH   5   6
ATOM      6  C   UNL     1       4.659  21.501  45.776  1.00  0.00     0.000 C 
BRANCH   6   7
ATOM      7  C   UNL     1       6.081  21.228  46.303  1.00  0.00     0.000 C 
BRANCH   7   8
ATOM      8  C   UNL     1       7.050  22.421  46.242  1.00  0.00     0.000 C 
BRANCH   8   9
ATOM      9  C   UNL     1       8.481  22.010  45.862  1.00  0.00     0.000 C 
BRANCH   9  10
ATOM     10  C   UNL     1       8.589  20.492  45.654  1.00  0.00     0.000 C 
BRANCH  10  11
ATOM     11  C   UNL     1       9.348  20.123  44.370  1.00  0.00     0.000 C 
BRANCH  11  12
ATOM     12  C   UNL     1       9.717  18.633  44.305  1.00  0.00     0.000 C 
BRANCH  12  13
ATOM     13  C   UNL     1      11.027  18.358  45.060  1.00  0.00     0.006 C 
BRANCH  13  14
ATOM     14  C   UNL     1      11.420  16.875  45.018  1.00  0.00     0.053 C 
BRANCH  14  15
ATOM     15  C   UNL     1      12.468  16.552  46.037  1.00  0.00     0.041 C 
ATOM     16  O   UNL     1      13.577  17.149  46.020  1.00  0.00    -0.550 OA
ATOM     17  O   UNL     1      12.235  15.559  46.983  1.00  0.00    -0.550 OA
ENDBRANCH  14  15
ENDBRANCH  13  14
ENDBRANCH  12  13
ENDBRANCH  11  12
ENDBRANCH  10  11
ENDBRANCH   9  10
ENDBRANCH   8   9
ENDBRANCH   7   8
ENDBRANCH   6   7
ENDBRANCH   5   6
ENDBRANCH   4   5
ENDBRANCH   3   4
ENDBRANCH   2   3
ENDBRANCH   1   2
BRANCH   1  18
ATOM     18  C   UNL     1       7.010  24.242  42.714  1.00  0.00     0.000 C 
BRANCH  18  19
ATOM     19  C   UNL     1       6.022  24.486  43.875  1.00  0.00     0.000 C 
BRANCH  19  20
ATOM     20  C   UNL     1       4.828  25.382  43.504  1.00  0.00     0.000 C 
BRANCH  20  21
ATOM     21  C   UNL     1       3.489  24.631  43.510  1.00  0.00     0.000 C 
BRANCH  21  22
ATOM     22  C   UNL     1       2.342  25.541  43.979  1.00  0.00     0.000 C 
BRANCH  22  23
ATOM     23  C   UNL     1       2.248  26.837  43.159  1.00  0.00     0.000 C 
BRANCH  23  24
ATOM     24  C   UNL     1       0.802  27.342  43.015  1.00  0.00    -0.000 C 
BRANCH  24  25
ATOM     25  C   UNL     1       0.170  27.710  44.375  1.00  0.00    -0.000 C 
BRANCH  25  26
ATOM     26  C   UNL     1      -1.365  27.846  44.333  1.00  0.00    -0.000 C 
BRANCH  26  27
ATOM     27  C   UNL     1      -1.892  29.290  44.380  1.00  0.00    -0.000 C 
BRANCH  27  28
ATOM     28  C   UNL     1      -2.752  29.710  43.172  1.00  0.00    -0.000 C 
BRANCH  28  29
ATOM     29  C   UNL     1      -2.217  30.950  42.423  1.00  0.00    -0.000 C 
BRANCH  29  30
ATOM     30  C   UNL     1      -0.729  30.817  42.055  1.00  0.00    -0.000 C 
BRANCH  30  31
ATOM     31  C   UNL     1      -0.514  30.478  40.571  1.00  0.00    -0.003 C 
ATOM     32  C   UNL     1      -0.927  29.048  40.224  1.00  0.00     0.004 C 
ENDBRANCH  30  31
ENDBRANCH  29  30
ENDBRANCH  28  29
ENDBRANCH  27  28
ENDBRANCH  26  27
ENDBRANCH  25  26
ENDBRANCH  24  25
ENDBRANCH  23  24
ENDBRANCH  22  23
ENDBRANCH  21  22
ENDBRANCH  20  21
ENDBRANCH  19  20
ENDBRANCH  18  19
ENDBRANCH   1  18
TORSDOF 28
ENDMDL
MODEL 8
REMARK VINA RESULT:    -6.251      4.502      9.128
REMARK INTER + INTRA:         -21.156
REMARK INTER:                 -17.386
REMARK INTRA:                  -3.771
REMARK UNBOUND:                -4.673
REMARK SMILES CCCCCCCCCCCCCCCCCCCCCCCCCCCCCC(=O)[O-]
REMARK SMILES IDX 16 1 17 2 18 3 19 4 20 5 21 6 22 7 23 8 24 9 25 10 26 11
REMARK SMILES IDX 27 12 28 13 29 14 30 15 31 16 32 17 15 18 14 19 13 20 12 21
REMARK SMILES IDX 11 22 10 23 9 24 8 25 7 26 6 27 5 28 4 29 3 30 2 31 1 32
REMARK H PARENT
REMARK Flexibility Score: inf
ROOT
ATOM      1  C   UNL     1      10.336  20.686  45.536  1.00  0.00     0.000 C 
ENDROOT
BRANCH   1   2
ATOM      2  C   UNL     1      10.114  19.185  45.788  1.00  0.00     0.000 C 
BRANCH   2   3
ATOM      3  C   UNL     1      10.330  18.345  44.518  1.00  0.00     0.000 C 
BRANCH   3   4
ATOM      4  C   UNL     1      11.314  17.184  44.730  1.00  0.00     0.000 C 
BRANCH   4   5
ATOM      5  C   UNL     1      12.393  17.500  45.784  1.00  0.00     0.000 C 
BRANCH   5   6
ATOM      6  C   UNL     1      12.330  16.569  47.014  1.00  0.00     0.000 C 
BRANCH   6   7
ATOM      7  C   UNL     1      13.485  16.759  48.016  1.00  0.00     0.000 C 
BRANCH   7   8
ATOM      8  C   UNL     1      14.200  15.470  48.454  1.00  0.00     0.000 C 
BRANCH   8   9
ATOM      9  C   UNL     1      13.411  14.198  48.104  1.00  0.00     0.000 C 
BRANCH   9  10
ATOM     10  C   UNL     1      14.148  13.359  47.048  1.00  0.00     0.000 C 
BRANCH  10  11
ATOM     11  C   UNL     1      15.637  13.722  46.940  1.00  0.00     0.000 C 
BRANCH  11  12
ATOM     12  C   UNL     1      16.059  14.081  45.507  1.00  0.00     0.000 C 
BRANCH  12  13
ATOM     13  C   UNL     1      15.477  15.441  45.088  1.00  0.00     0.006 C 
BRANCH  13  14
ATOM     14  C   UNL     1      15.218  15.520  43.578  1.00  0.00     0.053 C 
BRANCH  14  15
ATOM     15  C   UNL     1      13.867  14.983  43.220  1.00  0.00     0.041 C 
ATOM     16  O   UNL     1      13.378  15.202  42.080  1.00  0.00    -0.550 OA
ATOM     17  O   UNL     1      13.128  14.274  44.161  1.00  0.00    -0.550 OA
ENDBRANCH  14  15
ENDBRANCH  13  14
ENDBRANCH  12  13
ENDBRANCH  11  12
ENDBRANCH  10  11
ENDBRANCH   9  10
ENDBRANCH   8   9
ENDBRANCH   7   8
ENDBRANCH   6   7
ENDBRANCH   5   6
ENDBRANCH   4   5
ENDBRANCH   3   4
ENDBRANCH   2   3
ENDBRANCH   1   2
BRANCH   1  18
ATOM     18  C   UNL     1       9.076  21.375  44.982  1.00  0.00     0.000 C 
BRANCH  18  19
ATOM     19  C   UNL     1       8.618  22.559  45.859  1.00  0.00     0.000 C 
BRANCH  19  20
ATOM     20  C   UNL     1       7.140  22.493  46.280  1.00  0.00     0.000 C 
BRANCH  20  21
ATOM     21  C   UNL     1       6.593  21.059  46.329  1.00  0.00     0.000 C 
BRANCH  21  22
ATOM     22  C   UNL     1       5.109  21.016  45.931  1.00  0.00     0.000 C 
BRANCH  22  23
ATOM     23  C   UNL     1       4.904  21.128  44.412  1.00  0.00     0.000 C 
BRANCH  23  24
ATOM     24  C   UNL     1       5.735  20.099  43.625  1.00  0.00    -0.000 C 
BRANCH  24  25
ATOM     25  C   UNL     1       5.859  20.466  42.130  1.00  0.00    -0.000 C 
BRANCH  25  26
ATOM     26  C   UNL     1       5.922  21.983  41.864  1.00  0.00    -0.000 C 
BRANCH  26  27
ATOM     27  C   UNL     1       7.198  22.679  42.368  1.00  0.00    -0.000 C 
BRANCH  27  28
ATOM     28  C   UNL     1       7.084  24.208  42.532  1.00  0.00    -0.000 C 
BRANCH  28  29
ATOM     29  C   UNL     1       6.436  24.649  43.863  1.00  0.00    -0.000 C 
BRANCH  29  30
ATOM     30  C   UNL     1       5.173  25.501  43.647  1.00  0.00    -0.000 C 
BRANCH  30  31
ATOM     31  C   UNL     1       4.017  24.699  43.030  1.00  0.00    -0.003 C 
ATOM     32  C   UNL     1       2.945  24.322  44.051  1.00  0.00     0.004 C 
ENDBRANCH  30  31
ENDBRANCH  29  30
ENDBRANCH  28  29
ENDBRANCH  27  28
ENDBRANCH  26  27
ENDBRANCH  25  26
ENDBRANCH  24  25
ENDBRANCH  23  24
ENDBRANCH  22  23
ENDBRANCH  21  22
ENDBRANCH  20  21
ENDBRANCH  19  20
ENDBRANCH  18  19
ENDBRANCH   1  18
TORSDOF 28
ENDMDL
MODEL 9
REMARK VINA RESULT:    -6.204      4.603     12.939
REMARK INTER + INTRA:         -21.033
REMARK INTER:                 -17.014
REMARK INTRA:                  -4.019
REMARK UNBOUND:                -4.673
REMARK SMILES CCCCCCCCCCCCCCCCCCCCCCCCCCCCCC(=O)[O-]
REMARK SMILES IDX 16 1 17 2 18 3 19 4 20 5 21 6 22 7 23 8 24 9 25 10 26 11
REMARK SMILES IDX 27 12 28 13 29 14 30 15 31 16 32 17 15 18 14 19 13 20 12 21
REMARK SMILES IDX 11 22 10 23 9 24 8 25 7 26 6 27 5 28 4 29 3 30 2 31 1 32
REMARK H PARENT
REMARK Flexibility Score: inf
ROOT
ATOM      1  C   UNL     1       4.424  21.496  45.546  1.00  0.00     0.000 C 
ENDROOT
BRANCH   1   2
ATOM      2  C   UNL     1       4.475  21.181  44.041  1.00  0.00     0.000 C 
BRANCH   2   3
ATOM      3  C   UNL     1       5.486  20.069  43.716  1.00  0.00     0.000 C 
BRANCH   3   4
ATOM      4  C   UNL     1       6.260  20.327  42.414  1.00  0.00     0.000 C 
BRANCH   4   5
ATOM      5  C   UNL     1       6.102  21.772  41.901  1.00  0.00     0.000 C 
BRANCH   5   6
ATOM      6  C   UNL     1       7.327  22.660  42.205  1.00  0.00     0.000 C 
BRANCH   6   7
ATOM      7  C   UNL     1       6.990  23.997  42.892  1.00  0.00     0.000 C 
BRANCH   7   8
ATOM      8  C   UNL     1       5.508  24.409  42.850  1.00  0.00     0.000 C 
BRANCH   8   9
ATOM      9  C   UNL     1       5.118  25.359  43.993  1.00  0.00     0.000 C 
BRANCH   9  10
ATOM     10  C   UNL     1       3.868  24.857  44.732  1.00  0.00     0.000 C 
BRANCH  10  11
ATOM     11  C   UNL     1       2.564  25.357  44.092  1.00  0.00     0.000 C 
BRANCH  11  12
ATOM     12  C   UNL     1       2.788  26.530  43.124  1.00  0.00     0.000 C 
BRANCH  12  13
ATOM     13  C   UNL     1       1.471  27.272  42.847  1.00  0.00     0.006 C 
BRANCH  13  14
ATOM     14  C   UNL     1       1.687  28.777  42.638  1.00  0.00     0.053 C 
BRANCH  14  15
ATOM     15  C   UNL     1       0.640  29.367  41.745  1.00  0.00     0.041 C 
ATOM     16  O   UNL     1       0.302  30.574  41.874  1.00  0.00    -0.550 OA
ATOM     17  O   UNL     1       0.007  28.572  40.796  1.00  0.00    -0.550 OA
ENDBRANCH  14  15
ENDBRANCH  13  14
ENDBRANCH  12  13
ENDBRANCH  11  12
ENDBRANCH  10  11
ENDBRANCH   9  10
ENDBRANCH   8   9
ENDBRANCH   7   8
ENDBRANCH   6   7
ENDBRANCH   5   6
ENDBRANCH   4   5
ENDBRANCH   3   4
ENDBRANCH   2   3
ENDBRANCH   1   2
BRANCH   1  18
ATOM     18  C   UNL     1       5.769  21.222  46.243  1.00  0.00     0.000 C 
BRANCH  18  19
ATOM     19  C   UNL     1       6.642  22.489  46.360  1.00  0.00     0.000 C 
BRANCH  19  20
ATOM     20  C   UNL     1       8.095  22.296  45.891  1.00  0.00     0.000 C 
BRANCH  20  21
ATOM     21  C   UNL     1       8.422  20.838  45.537  1.00  0.00     0.000 C 
BRANCH  21  22
ATOM     22  C   UNL     1       9.629  20.754  44.589  1.00  0.00     0.000 C 
BRANCH  22  23
ATOM     23  C   UNL     1       9.616  19.477  43.733  1.00  0.00     0.000 C 
BRANCH  23  24
ATOM     24  C   UNL     1       9.994  18.221  44.537  1.00  0.00    -0.000 C 
BRANCH  24  25
ATOM     25  C   UNL     1      11.131  18.491  45.546  1.00  0.00    -0.000 C 
BRANCH  25  26
ATOM     26  C   UNL     1      12.230  17.409  45.550  1.00  0.00    -0.000 C 
BRANCH  26  27
ATOM     27  C   UNL     1      11.827  16.070  44.909  1.00  0.00    -0.000 C 
BRANCH  27  28
ATOM     28  C   UNL     1      12.940  15.372  44.104  1.00  0.00    -0.000 C 
BRANCH  28  29
ATOM     29  C   UNL     1      13.727  14.315  44.911  1.00  0.00    -0.000 C 
BRANCH  29  30
ATOM     30  C   UNL     1      14.979  14.904  45.584  1.00  0.00    -0.000 C 
BRANCH  30  31
ATOM     31  C   UNL     1      14.806  15.085  47.100  1.00  0.00    -0.003 C 
ATOM     32  C   UNL     1      13.672  14.236  47.674  1.00  0.00     0.004 C 
ENDBRANCH  30  31
ENDBRANCH  29  30
ENDBRANCH  28  29
ENDBRANCH  27  28
ENDBRANCH  26  27
ENDBRANCH  25  26
ENDBRANCH  24  25
ENDBRANCH  23  24
ENDBRANCH  22  23
ENDBRANCH  21  22
ENDBRANCH  20  21
ENDBRANCH  19  20
ENDBRANCH  18  19
ENDBRANCH   1  18
TORSDOF 28
ENDMDL
