MODEL 1
REMARK VINA RESULT:    -6.397      0.000      0.000
REMARK INTER + INTRA:          -7.842
REMARK INTER:                  -7.519
REMARK INTRA:                  -0.323
REMARK UNBOUND:                -0.323
REMARK SMILES O=c1c(O)c(-c2ccc(O)c(O)c2)oc2cc(O)ccc12
REMARK SMILES IDX 5 1 3 2 2 3 1 4 21 5 15 6 14 7 16 8 17 9 19 10 20 11 6 12
REMARK SMILES IDX 7 13 8 14 9 15 13 16 11 17 10 18 12 20 4 22 18 24
REMARK H PARENT 10 19 12 21 4 23 18 25
REMARK Flexibility Score: inf
ROOT
ATOM      1  C   UNL     1      47.114  38.492  -3.869  1.00  0.00     0.180 A 
ATOM      2  C   UNL     1      48.254  39.319  -3.930  1.00  0.00     0.208 A 
ATOM      3  C   UNL     1      49.497  38.788  -3.549  1.00  0.00     0.235 A 
ATOM      4  O   UNL     1      50.530  39.512  -3.585  1.00  0.00    -0.285 OA
ATOM      5  C   UNL     1      49.577  37.448  -3.139  1.00  0.00     0.069 A 
ATOM      6  C   UNL     1      48.393  36.679  -3.129  1.00  0.00     0.142 A 
ATOM      7  O   UNL     1      47.236  37.223  -3.488  1.00  0.00    -0.452 OA
ATOM      8  C   UNL     1      48.434  35.337  -2.735  1.00  0.00     0.094 A 
ATOM      9  C   UNL     1      49.645  34.751  -2.349  1.00  0.00     0.119 A 
ATOM     10  C   UNL     1      50.821  35.512  -2.357  1.00  0.00     0.047 A 
ATOM     11  C   UNL     1      50.791  36.854  -2.749  1.00  0.00     0.020 A 
ENDROOT
BRANCH   1  12
ATOM     12  C   UNL     1      45.766  38.983  -4.237  1.00  0.00     0.025 A 
ATOM     13  C   UNL     1      45.315  38.838  -5.558  1.00  0.00     0.016 A 
ATOM     14  C   UNL     1      44.039  39.275  -5.922  1.00  0.00     0.051 A 
ATOM     15  C   UNL     1      43.190  39.848  -4.971  1.00  0.00     0.157 A 
ATOM     16  C   UNL     1      44.903  39.542  -3.276  1.00  0.00     0.062 A 
ATOM     17  C   UNL     1      43.620  39.979  -3.640  1.00  0.00     0.158 A 
BRANCH  15  18
ATOM     18  O   UNL     1      41.922  40.278  -5.364  1.00  0.00    -0.504 OA
ATOM     19  H   UNL     1      41.437  41.029  -4.889  1.00  0.00     0.293 HD
ENDBRANCH  15  18
BRANCH  17  20
ATOM     20  O   UNL     1      42.774  40.537  -2.683  1.00  0.00    -0.504 OA
ATOM     21  H   UNL     1      41.847  40.166  -2.511  1.00  0.00     0.293 HD
ENDBRANCH  17  20
ENDBRANCH   1  12
BRANCH   2  22
ATOM     22  O   UNL     1      48.151  40.634  -4.389  1.00  0.00    -0.502 OA
ATOM     23  H   UNL     1      48.866  41.329  -4.210  1.00  0.00     0.293 HD
ENDBRANCH   2  22
BRANCH   9  24
ATOM     24  O   UNL     1      49.666  33.413  -1.960  1.00  0.00    -0.508 OA
ATOM     25  H   UNL     1      48.915  33.010  -1.412  1.00  0.00     0.293 HD
ENDBRANCH   9  24
TORSDOF 5
ENDMDL
MODEL 2
REMARK VINA RESULT:    -6.360      1.529      6.742
REMARK INTER + INTRA:          -7.798
REMARK INTER:                  -7.527
REMARK INTRA:                  -0.271
REMARK UNBOUND:                -0.323
REMARK SMILES O=c1c(O)c(-c2ccc(O)c(O)c2)oc2cc(O)ccc12
REMARK SMILES IDX 5 1 3 2 2 3 1 4 21 5 15 6 14 7 16 8 17 9 19 10 20 11 6 12
REMARK SMILES IDX 7 13 8 14 9 15 13 16 11 17 10 18 12 20 4 22 18 24
REMARK H PARENT 10 19 12 21 4 23 18 25
REMARK Flexibility Score: inf
ROOT
ATOM      1  C   UNL     1      47.306  38.058  -3.854  1.00  0.00     0.180 A 
ATOM      2  C   UNL     1      47.210  38.330  -5.235  1.00  0.00     0.208 A 
ATOM      3  C   UNL     1      46.036  38.917  -5.730  1.00  0.00     0.235 A 
ATOM      4  O   UNL     1      45.922  39.160  -6.963  1.00  0.00    -0.285 OA
ATOM      5  C   UNL     1      44.997  39.238  -4.841  1.00  0.00     0.069 A 
ATOM      6  C   UNL     1      45.181  38.956  -3.469  1.00  0.00     0.142 A 
ATOM      7  O   UNL     1      46.304  38.391  -3.044  1.00  0.00    -0.452 OA
ATOM      8  C   UNL     1      44.173  39.270  -2.551  1.00  0.00     0.094 A 
ATOM      9  C   UNL     1      42.981  39.860  -2.984  1.00  0.00     0.119 A 
ATOM     10  C   UNL     1      42.796  40.140  -4.344  1.00  0.00     0.047 A 
ATOM     11  C   UNL     1      43.797  39.831  -5.271  1.00  0.00     0.020 A 
ENDROOT
BRANCH   1  12
ATOM     12  C   UNL     1      48.504  37.424  -3.259  1.00  0.00     0.025 A 
ATOM     13  C   UNL     1      49.649  38.201  -3.019  1.00  0.00     0.016 A 
ATOM     14  C   UNL     1      50.784  37.628  -2.439  1.00  0.00     0.051 A 
ATOM     15  C   UNL     1      50.787  36.278  -2.076  1.00  0.00     0.157 A 
ATOM     16  C   UNL     1      48.503  36.071  -2.874  1.00  0.00     0.062 A 
ATOM     17  C   UNL     1      49.640  35.495  -2.289  1.00  0.00     0.158 A 
BRANCH  15  18
ATOM     18  O   UNL     1      51.935  35.733  -1.500  1.00  0.00    -0.504 OA
ATOM     19  H   UNL     1      52.805  35.648  -2.012  1.00  0.00     0.293 HD
ENDBRANCH  15  18
BRANCH  17  20
ATOM     20  O   UNL     1      49.632  34.152  -1.917  1.00  0.00    -0.504 OA
ATOM     21  H   UNL     1      50.337  33.767  -1.299  1.00  0.00     0.293 HD
ENDBRANCH  17  20
ENDBRANCH   1  12
BRANCH   2  22
ATOM     22  O   UNL     1      48.280  38.045  -6.088  1.00  0.00    -0.502 OA
ATOM     23  H   UNL     1      49.121  37.582  -5.767  1.00  0.00     0.293 HD
ENDBRANCH   2  22
BRANCH   9  24
ATOM     24  O   UNL     1      41.989  40.165  -2.055  1.00  0.00    -0.508 OA
ATOM     25  H   UNL     1      41.012  40.217  -2.322  1.00  0.00     0.293 HD
ENDBRANCH   9  24
TORSDOF 5
ENDMDL
MODEL 3
REMARK VINA RESULT:    -5.999      2.103      6.972
REMARK INTER + INTRA:          -7.374
REMARK INTER:                  -7.802
REMARK INTRA:                   0.428
REMARK UNBOUND:                -0.323
REMARK SMILES O=c1c(O)c(-c2ccc(O)c(O)c2)oc2cc(O)ccc12
REMARK SMILES IDX 5 1 3 2 2 3 1 4 21 5 15 6 14 7 16 8 17 9 19 10 20 11 6 12
REMARK SMILES IDX 7 13 8 14 9 15 13 16 11 17 10 18 12 20 4 22 18 24
REMARK H PARENT 10 19 12 21 4 23 18 25
REMARK Flexibility Score: inf
ROOT
ATOM      1  C   UNL     1      49.317  36.169  -3.203  1.00  0.00     0.180 A 
ATOM      2  C   UNL     1      50.132  37.195  -2.681  1.00  0.00     0.208 A 
ATOM      3  C   UNL     1      49.792  38.530  -2.946  1.00  0.00     0.235 A 
ATOM      4  O   UNL     1      50.512  39.465  -2.499  1.00  0.00    -0.285 OA
ATOM      5  C   UNL     1      48.643  38.813  -3.702  1.00  0.00     0.069 A 
ATOM      6  C   UNL     1      47.866  37.729  -4.167  1.00  0.00     0.142 A 
ATOM      7  O   UNL     1      48.228  36.479  -3.903  1.00  0.00    -0.452 OA
ATOM      8  C   UNL     1      46.709  37.970  -4.916  1.00  0.00     0.094 A 
ATOM      9  C   UNL     1      46.317  39.281  -5.209  1.00  0.00     0.119 A 
ATOM     10  C   UNL     1      47.086  40.358  -4.748  1.00  0.00     0.047 A 
ATOM     11  C   UNL     1      48.244  40.128  -3.999  1.00  0.00     0.020 A 
ENDROOT
BRANCH   1  12
ATOM     12  C   UNL     1      49.619  34.736  -2.982  1.00  0.00     0.025 A 
ATOM     13  C   UNL     1      48.674  33.766  -3.353  1.00  0.00     0.016 A 
ATOM     14  C   UNL     1      48.947  32.408  -3.173  1.00  0.00     0.051 A 
ATOM     15  C   UNL     1      50.171  31.997  -2.637  1.00  0.00     0.157 A 
ATOM     16  C   UNL     1      50.858  34.320  -2.462  1.00  0.00     0.062 A 
ATOM     17  C   UNL     1      51.134  32.956  -2.283  1.00  0.00     0.158 A 
BRANCH  15  18
ATOM     18  O   UNL     1      50.414  30.634  -2.467  1.00  0.00    -0.504 OA
ATOM     19  H   UNL     1      50.033  30.113  -1.687  1.00  0.00     0.293 HD
ENDBRANCH  15  18
BRANCH  17  20
ATOM     20  O   UNL     1      52.362  32.554  -1.760  1.00  0.00    -0.504 OA
ATOM     21  H   UNL     1      52.547  32.568  -0.764  1.00  0.00     0.293 HD
ENDBRANCH  17  20
ENDBRANCH   1  12
BRANCH   2  22
ATOM     22  O   UNL     1      51.242  36.884  -1.891  1.00  0.00    -0.502 OA
ATOM     23  H   UNL     1      51.157  36.421  -0.994  1.00  0.00     0.293 HD
ENDBRANCH   2  22
BRANCH   9  24
ATOM     24  O   UNL     1      45.162  39.501  -5.955  1.00  0.00    -0.508 OA
ATOM     25  H   UNL     1      44.620  38.731  -6.331  1.00  0.00     0.293 HD
ENDBRANCH   9  24
TORSDOF 5
ENDMDL
MODEL 4
REMARK VINA RESULT:    -5.903      1.946      6.965
REMARK INTER + INTRA:          -7.261
REMARK INTER:                  -6.989
REMARK INTRA:                  -0.272
REMARK UNBOUND:                -0.323
REMARK SMILES O=c1c(O)c(-c2ccc(O)c(O)c2)oc2cc(O)ccc12
REMARK SMILES IDX 5 1 3 2 2 3 1 4 21 5 15 6 14 7 16 8 17 9 19 10 20 11 6 12
REMARK SMILES IDX 7 13 8 14 9 15 13 16 11 17 10 18 12 20 4 22 18 24
REMARK H PARENT 10 19 12 21 4 23 18 25
REMARK Flexibility Score: inf
ROOT
ATOM      1  C   UNL     1      48.373  36.474  -4.217  1.00  0.00     0.180 A 
ATOM      2  C   UNL     1      48.410  36.685  -5.611  1.00  0.00     0.208 A 
ATOM      3  C   UNL     1      47.534  37.624  -6.177  1.00  0.00     0.235 A 
ATOM      4  O   UNL     1      47.541  37.822  -7.423  1.00  0.00    -0.285 OA
ATOM      5  C   UNL     1      46.662  38.343  -5.344  1.00  0.00     0.069 A 
ATOM      6  C   UNL     1      46.704  38.091  -3.956  1.00  0.00     0.142 A 
ATOM      7  O   UNL     1      47.541  37.187  -3.462  1.00  0.00    -0.452 OA
ATOM      8  C   UNL     1      45.857  38.794  -3.092  1.00  0.00     0.094 A 
ATOM      9  C   UNL     1      44.965  39.746  -3.598  1.00  0.00     0.119 A 
ATOM     10  C   UNL     1      44.921  39.997  -4.975  1.00  0.00     0.047 A 
ATOM     11  C   UNL     1      45.763  39.301  -5.847  1.00  0.00     0.020 A 
ENDROOT
BRANCH   1  12
ATOM     12  C   UNL     1      49.253  35.488  -3.548  1.00  0.00     0.025 A 
ATOM     13  C   UNL     1      48.948  34.121  -3.633  1.00  0.00     0.016 A 
ATOM     14  C   UNL     1      49.775  33.172  -3.027  1.00  0.00     0.051 A 
ATOM     15  C   UNL     1      50.925  33.572  -2.341  1.00  0.00     0.157 A 
ATOM     16  C   UNL     1      50.422  35.888  -2.875  1.00  0.00     0.062 A 
ATOM     17  C   UNL     1      51.255  34.936  -2.268  1.00  0.00     0.158 A 
BRANCH  15  18
ATOM     18  O   UNL     1      51.731  32.602  -1.744  1.00  0.00    -0.504 OA
ATOM     19  H   UNL     1      51.575  32.283  -0.796  1.00  0.00     0.293 HD
ENDBRANCH  15  18
BRANCH  17  20
ATOM     20  O   UNL     1      52.408  35.341  -1.597  1.00  0.00    -0.504 OA
ATOM     21  H   UNL     1      52.521  35.200  -0.600  1.00  0.00     0.293 HD
ENDBRANCH  17  20
ENDBRANCH   1  12
BRANCH   2  22
ATOM     22  O   UNL     1      49.323  35.990  -6.409  1.00  0.00    -0.502 OA
ATOM     23  H   UNL     1      49.366  34.978  -6.428  1.00  0.00     0.293 HD
ENDBRANCH   2  22
BRANCH   9  24
ATOM     24  O   UNL     1      44.129  40.436  -2.722  1.00  0.00    -0.508 OA
ATOM     25  H   UNL     1      43.965  41.432  -2.822  1.00  0.00     0.293 HD
ENDBRANCH   9  24
TORSDOF 5
ENDMDL
MODEL 5
REMARK VINA RESULT:    -5.887      1.846      6.883
REMARK INTER + INTRA:          -7.242
REMARK INTER:                  -7.418
REMARK INTRA:                   0.176
REMARK UNBOUND:                -0.323
REMARK SMILES O=c1c(O)c(-c2ccc(O)c(O)c2)oc2cc(O)ccc12
REMARK SMILES IDX 5 1 3 2 2 3 1 4 21 5 15 6 14 7 16 8 17 9 19 10 20 11 6 12
REMARK SMILES IDX 7 13 8 14 9 15 13 16 11 17 10 18 12 20 4 22 18 24
REMARK H PARENT 10 19 12 21 4 23 18 25
REMARK Flexibility Score: inf
ROOT
ATOM      1  C   UNL     1      48.604  35.807  -3.492  1.00  0.00     0.180 A 
ATOM      2  C   UNL     1      49.557  36.820  -3.728  1.00  0.00     0.208 A 
ATOM      3  C   UNL     1      49.109  38.129  -3.965  1.00  0.00     0.235 A 
ATOM      4  O   UNL     1      49.942  39.049  -4.189  1.00  0.00    -0.285 OA
ATOM      5  C   UNL     1      47.732  38.401  -3.941  1.00  0.00     0.069 A 
ATOM      6  C   UNL     1      46.844  37.336  -3.674  1.00  0.00     0.142 A 
ATOM      7  O   UNL     1      47.309  36.110  -3.464  1.00  0.00    -0.452 OA
ATOM      8  C   UNL     1      45.465  37.570  -3.633  1.00  0.00     0.094 A 
ATOM      9  C   UNL     1      44.959  38.855  -3.857  1.00  0.00     0.119 A 
ATOM     10  C   UNL     1      45.838  39.913  -4.123  1.00  0.00     0.047 A 
ATOM     11  C   UNL     1      47.218  39.690  -4.167  1.00  0.00     0.020 A 
ENDROOT
BRANCH   1  12
ATOM     12  C   UNL     1      48.997  34.399  -3.252  1.00  0.00     0.025 A 
ATOM     13  C   UNL     1      48.248  33.364  -3.834  1.00  0.00     0.016 A 
ATOM     14  C   UNL     1      48.613  32.030  -3.638  1.00  0.00     0.051 A 
ATOM     15  C   UNL     1      49.737  31.710  -2.872  1.00  0.00     0.157 A 
ATOM     16  C   UNL     1      50.140  34.076  -2.498  1.00  0.00     0.062 A 
ATOM     17  C   UNL     1      50.508  32.736  -2.302  1.00  0.00     0.158 A 
BRANCH  15  18
ATOM     18  O   UNL     1      50.075  30.368  -2.691  1.00  0.00    -0.504 OA
ATOM     19  H   UNL     1      50.560  30.043  -1.864  1.00  0.00     0.293 HD
ENDBRANCH  15  18
BRANCH  17  20
ATOM     20  O   UNL     1      51.639  32.425  -1.548  1.00  0.00    -0.504 OA
ATOM     21  H   UNL     1      51.762  32.776  -0.605  1.00  0.00     0.293 HD
ENDBRANCH  17  20
ENDBRANCH   1  12
BRANCH   2  22
ATOM     22  O   UNL     1      50.923  36.528  -3.696  1.00  0.00    -0.502 OA
ATOM     23  H   UNL     1      51.405  36.104  -4.480  1.00  0.00     0.293 HD
ENDBRANCH   2  22
BRANCH   9  24
ATOM     24  O   UNL     1      43.583  39.068  -3.812  1.00  0.00    -0.508 OA
ATOM     25  H   UNL     1      42.927  38.297  -3.858  1.00  0.00     0.293 HD
ENDBRANCH   9  24
TORSDOF 5
ENDMDL
MODEL 6
REMARK VINA RESULT:    -5.488      2.537      7.436
REMARK INTER + INTRA:          -6.773
REMARK INTER:                  -6.626
REMARK INTRA:                  -0.147
REMARK UNBOUND:                -0.323
REMARK SMILES O=c1c(O)c(-c2ccc(O)c(O)c2)oc2cc(O)ccc12
REMARK SMILES IDX 5 1 3 2 2 3 1 4 21 5 15 6 14 7 16 8 17 9 19 10 20 11 6 12
REMARK SMILES IDX 7 13 8 14 9 15 13 16 11 17 10 18 12 20 4 22 18 24
REMARK H PARENT 10 19 12 21 4 23 18 25
REMARK Flexibility Score: inf
ROOT
ATOM      1  C   UNL     1      47.280  34.823  -3.003  1.00  0.00     0.180 A 
ATOM      2  C   UNL     1      45.974  34.826  -2.469  1.00  0.00     0.208 A 
ATOM      3  C   UNL     1      45.242  36.023  -2.477  1.00  0.00     0.235 A 
ATOM      4  O   UNL     1      44.077  36.054  -1.996  1.00  0.00    -0.285 OA
ATOM      5  C   UNL     1      45.816  37.179  -3.033  1.00  0.00     0.069 A 
ATOM      6  C   UNL     1      47.119  37.087  -3.569  1.00  0.00     0.142 A 
ATOM      7  O   UNL     1      47.781  35.936  -3.532  1.00  0.00    -0.452 OA
ATOM      8  C   UNL     1      47.721  38.214  -4.139  1.00  0.00     0.094 A 
ATOM      9  C   UNL     1      47.038  39.434  -4.180  1.00  0.00     0.119 A 
ATOM     10  C   UNL     1      45.746  39.528  -3.648  1.00  0.00     0.047 A 
ATOM     11  C   UNL     1      45.135  38.408  -3.076  1.00  0.00     0.020 A 
ENDROOT
BRANCH   1  12
ATOM     12  C   UNL     1      48.121  33.605  -3.014  1.00  0.00     0.025 A 
ATOM     13  C   UNL     1      47.733  32.504  -3.794  1.00  0.00     0.016 A 
ATOM     14  C   UNL     1      48.523  31.353  -3.836  1.00  0.00     0.051 A 
ATOM     15  C   UNL     1      49.718  31.288  -3.114  1.00  0.00     0.157 A 
ATOM     16  C   UNL     1      49.335  33.546  -2.304  1.00  0.00     0.062 A 
ATOM     17  C   UNL     1      50.130  32.391  -2.347  1.00  0.00     0.158 A 
BRANCH  15  18
ATOM     18  O   UNL     1      50.485  30.124  -3.173  1.00  0.00    -0.504 OA
ATOM     19  H   UNL     1      50.173  29.299  -3.671  1.00  0.00     0.293 HD
ENDBRANCH  15  18
BRANCH  17  20
ATOM     20  O   UNL     1      51.328  32.339  -1.635  1.00  0.00    -0.504 OA
ATOM     21  H   UNL     1      51.453  31.711  -0.850  1.00  0.00     0.293 HD
ENDBRANCH  17  20
ENDBRANCH   1  12
BRANCH   2  22
ATOM     22  O   UNL     1      45.412  33.649  -1.968  1.00  0.00    -0.502 OA
ATOM     23  H   UNL     1      45.956  32.960  -1.463  1.00  0.00     0.293 HD
ENDBRANCH   2  22
BRANCH   9  24
ATOM     24  O   UNL     1      47.654  40.546  -4.752  1.00  0.00    -0.508 OA
ATOM     25  H   UNL     1      47.323  40.942  -5.625  1.00  0.00     0.293 HD
ENDBRANCH   9  24
TORSDOF 5
ENDMDL
MODEL 7
REMARK VINA RESULT:    -5.458      3.177      5.396
REMARK INTER + INTRA:          -6.738
REMARK INTER:                  -7.097
REMARK INTRA:                   0.359
REMARK UNBOUND:                -0.323
REMARK SMILES O=c1c(O)c(-c2ccc(O)c(O)c2)oc2cc(O)ccc12
REMARK SMILES IDX 5 1 3 2 2 3 1 4 21 5 15 6 14 7 16 8 17 9 19 10 20 11 6 12
REMARK SMILES IDX 7 13 8 14 9 15 13 16 11 17 10 18 12 20 4 22 18 24
REMARK H PARENT 10 19 12 21 4 23 18 25
REMARK Flexibility Score: inf
ROOT
ATOM      1  C   UNL     1      49.582  35.206  -3.333  1.00  0.00     0.180 A 
ATOM      2  C   UNL     1      50.721  34.698  -2.675  1.00  0.00     0.208 A 
ATOM      3  C   UNL     1      50.843  33.309  -2.506  1.00  0.00     0.235 A 
ATOM      4  O   UNL     1      51.847  32.832  -1.911  1.00  0.00    -0.285 OA
ATOM      5  C   UNL     1      49.843  32.463  -3.014  1.00  0.00     0.069 A 
ATOM      6  C   UNL     1      48.746  33.050  -3.682  1.00  0.00     0.142 A 
ATOM      7  O   UNL     1      48.665  34.369  -3.811  1.00  0.00    -0.452 OA
ATOM      8  C   UNL     1      47.735  32.239  -4.209  1.00  0.00     0.094 A 
ATOM      9  C   UNL     1      47.803  30.848  -4.077  1.00  0.00     0.119 A 
ATOM     10  C   UNL     1      48.890  30.264  -3.413  1.00  0.00     0.047 A 
ATOM     11  C   UNL     1      49.906  31.065  -2.883  1.00  0.00     0.020 A 
ENDROOT
BRANCH   1  12
ATOM     12  C   UNL     1      49.373  36.658  -3.533  1.00  0.00     0.025 A 
ATOM     13  C   UNL     1      48.441  37.097  -4.487  1.00  0.00     0.016 A 
ATOM     14  C   UNL     1      48.212  38.462  -4.677  1.00  0.00     0.051 A 
ATOM     15  C   UNL     1      48.898  39.408  -3.909  1.00  0.00     0.157 A 
ATOM     16  C   UNL     1      50.047  37.611  -2.747  1.00  0.00     0.062 A 
ATOM     17  C   UNL     1      49.817  38.982  -2.936  1.00  0.00     0.158 A 
BRANCH  15  18
ATOM     18  O   UNL     1      48.651  40.764  -4.123  1.00  0.00    -0.504 OA
ATOM     19  H   UNL     1      48.543  41.418  -3.358  1.00  0.00     0.293 HD
ENDBRANCH  15  18
BRANCH  17  20
ATOM     20  O   UNL     1      50.495  39.919  -2.157  1.00  0.00    -0.504 OA
ATOM     21  H   UNL     1      50.405  39.936  -1.148  1.00  0.00     0.293 HD
ENDBRANCH  17  20
ENDBRANCH   1  12
BRANCH   2  22
ATOM     22  O   UNL     1      51.723  35.561  -2.224  1.00  0.00    -0.502 OA
ATOM     23  H   UNL     1      51.518  36.403  -1.700  1.00  0.00     0.293 HD
ENDBRANCH   2  22
BRANCH   9  24
ATOM     24  O   UNL     1      46.787  30.058  -4.608  1.00  0.00    -0.508 OA
ATOM     25  H   UNL     1      45.949  29.847  -4.078  1.00  0.00     0.293 HD
ENDBRANCH   9  24
TORSDOF 5
ENDMDL
MODEL 8
REMARK VINA RESULT:    -5.411      1.749      2.387
REMARK INTER + INTRA:          -6.683
REMARK INTER:                  -6.391
REMARK INTRA:                  -0.292
REMARK UNBOUND:                -0.323
REMARK SMILES O=c1c(O)c(-c2ccc(O)c(O)c2)oc2cc(O)ccc12
REMARK SMILES IDX 5 1 3 2 2 3 1 4 21 5 15 6 14 7 16 8 17 9 19 10 20 11 6 12
REMARK SMILES IDX 7 13 8 14 9 15 13 16 11 17 10 18 12 20 4 22 18 24
REMARK H PARENT 10 19 12 21 4 23 18 25
REMARK Flexibility Score: inf
ROOT
ATOM      1  C   UNL     1      48.035  36.963  -3.680  1.00  0.00     0.180 A 
ATOM      2  C   UNL     1      49.251  37.305  -3.052  1.00  0.00     0.208 A 
ATOM      3  C   UNL     1      50.095  36.277  -2.604  1.00  0.00     0.235 A 
ATOM      4  O   UNL     1      51.182  36.559  -2.030  1.00  0.00    -0.285 OA
ATOM      5  C   UNL     1      49.720  34.940  -2.809  1.00  0.00     0.069 A 
ATOM      6  C   UNL     1      48.499  34.680  -3.467  1.00  0.00     0.142 A 
ATOM      7  O   UNL     1      47.725  35.683  -3.867  1.00  0.00    -0.452 OA
ATOM      8  C   UNL     1      48.095  33.360  -3.698  1.00  0.00     0.094 A 
ATOM      9  C   UNL     1      48.897  32.293  -3.278  1.00  0.00     0.119 A 
ATOM     10  C   UNL     1      50.109  32.548  -2.624  1.00  0.00     0.047 A 
ATOM     11  C   UNL     1      50.521  33.863  -2.388  1.00  0.00     0.020 A 
ENDROOT
BRANCH   1  12
ATOM     12  C   UNL     1      47.084  37.990  -4.163  1.00  0.00     0.025 A 
ATOM     13  C   UNL     1      46.994  38.254  -5.539  1.00  0.00     0.016 A 
ATOM     14  C   UNL     1      46.088  39.204  -6.019  1.00  0.00     0.051 A 
ATOM     15  C   UNL     1      45.250  39.891  -5.137  1.00  0.00     0.157 A 
ATOM     16  C   UNL     1      46.225  38.667  -3.279  1.00  0.00     0.062 A 
ATOM     17  C   UNL     1      45.314  39.619  -3.760  1.00  0.00     0.158 A 
BRANCH  15  18
ATOM     18  O   UNL     1      44.357  40.835  -5.645  1.00  0.00    -0.504 OA
ATOM     19  H   UNL     1      43.877  41.497  -5.048  1.00  0.00     0.293 HD
ENDBRANCH  15  18
BRANCH  17  20
ATOM     20  O   UNL     1      44.471  40.291  -2.875  1.00  0.00    -0.504 OA
ATOM     21  H   UNL     1      44.572  41.282  -2.694  1.00  0.00     0.293 HD
ENDBRANCH  17  20
ENDBRANCH   1  12
BRANCH   2  22
ATOM     22  O   UNL     1      49.620  38.645  -2.906  1.00  0.00    -0.502 OA
ATOM     23  H   UNL     1      49.820  39.242  -3.700  1.00  0.00     0.293 HD
ENDBRANCH   2  22
BRANCH   9  24
ATOM     24  O   UNL     1      48.479  30.986  -3.516  1.00  0.00    -0.508 OA
ATOM     25  H   UNL     1      47.495  30.748  -3.577  1.00  0.00     0.293 HD
ENDBRANCH   9  24
TORSDOF 5
ENDMDL
MODEL 9
REMARK VINA RESULT:    -5.344      2.937      6.703
REMARK INTER + INTRA:          -6.604
REMARK INTER:                  -6.292
REMARK INTRA:                  -0.311
REMARK UNBOUND:                -0.323
REMARK SMILES O=c1c(O)c(-c2ccc(O)c(O)c2)oc2cc(O)ccc12
REMARK SMILES IDX 5 1 3 2 2 3 1 4 21 5 15 6 14 7 16 8 17 9 19 10 20 11 6 12
REMARK SMILES IDX 7 13 8 14 9 15 13 16 11 17 10 18 12 20 4 22 18 24
REMARK H PARENT 10 19 12 21 4 23 18 25
REMARK Flexibility Score: inf
ROOT
ATOM      1  C   UNL     1      48.980  34.454  -3.242  1.00  0.00     0.180 A 
ATOM      2  C   UNL     1      50.214  34.643  -2.585  1.00  0.00     0.208 A 
ATOM      3  C   UNL     1      50.708  35.948  -2.436  1.00  0.00     0.235 A 
ATOM      4  O   UNL     1      51.815  36.141  -1.861  1.00  0.00    -0.285 OA
ATOM      5  C   UNL     1      49.957  37.030  -2.922  1.00  0.00     0.069 A 
ATOM      6  C   UNL     1      48.720  36.759  -3.546  1.00  0.00     0.142 A 
ATOM      7  O   UNL     1      48.293  35.508  -3.676  1.00  0.00    -0.452 OA
ATOM      8  C   UNL     1      47.938  37.811  -4.035  1.00  0.00     0.094 A 
ATOM      9  C   UNL     1      48.376  39.134  -3.910  1.00  0.00     0.119 A 
ATOM     10  C   UNL     1      49.604  39.406  -3.292  1.00  0.00     0.047 A 
ATOM     11  C   UNL     1      50.393  38.361  -2.800  1.00  0.00     0.020 A 
ENDROOT
BRANCH   1  12
ATOM     12  C   UNL     1      48.401  33.108  -3.455  1.00  0.00     0.025 A 
ATOM     13  C   UNL     1      48.676  32.418  -4.646  1.00  0.00     0.016 A 
ATOM     14  C   UNL     1      48.157  31.138  -4.858  1.00  0.00     0.051 A 
ATOM     15  C   UNL     1      47.370  30.523  -3.881  1.00  0.00     0.157 A 
ATOM     16  C   UNL     1      47.625  32.479  -2.463  1.00  0.00     0.062 A 
ATOM     17  C   UNL     1      47.106  31.193  -2.675  1.00  0.00     0.158 A 
BRANCH  15  18
ATOM     18  O   UNL     1      46.864  29.245  -4.122  1.00  0.00    -0.504 OA
ATOM     19  H   UNL     1      45.873  29.043  -4.079  1.00  0.00     0.293 HD
ENDBRANCH  15  18
BRANCH  17  20
ATOM     20  O   UNL     1      46.333  30.580  -1.690  1.00  0.00    -0.504 OA
ATOM     21  H   UNL     1      45.446  30.969  -1.390  1.00  0.00     0.293 HD
ENDBRANCH  17  20
ENDBRANCH   1  12
BRANCH   2  22
ATOM     22  O   UNL     1      50.915  33.550  -2.068  1.00  0.00    -0.502 OA
ATOM     23  H   UNL     1      51.341  33.565  -1.150  1.00  0.00     0.293 HD
ENDBRANCH   2  22
BRANCH   9  24
ATOM     24  O   UNL     1      47.584  40.168  -4.403  1.00  0.00    -0.508 OA
ATOM     25  H   UNL     1      47.928  41.121  -4.450  1.00  0.00     0.293 HD
ENDBRANCH   9  24
TORSDOF 5
ENDMDL
