MODEL 1
REMARK VINA RESULT:    -6.125      0.000      0.000
REMARK INTER + INTRA:          -6.354
REMARK INTER:                  -6.662
REMARK INTRA:                   0.308
REMARK UNBOUND:                 0.308
REMARK SMILES Cc1ccc(C(C)C)c(O)c1
REMARK SMILES IDX 1 1 2 2 11 3 9 4 5 5 4 6 3 7 10 8 6 10 7 11 8 12
REMARK H PARENT 10 9
REMARK Flexibility Score: inf
ROOT
ATOM      1  C   UNL     1     -13.082  -1.935 -10.693  1.00  0.00     0.044 C 
ATOM      2  C   UNL     1     -12.945  -0.507 -10.257  1.00  0.00    -0.047 A 
ATOM      3  C   UNL     1     -14.084   0.283 -10.056  1.00  0.00     0.049 A 
ATOM      4  C   UNL     1     -13.967   1.609  -9.613  1.00  0.00     0.119 A 
ATOM      5  C   UNL     1     -12.690   2.158  -9.352  1.00  0.00    -0.004 A 
ATOM      6  C   UNL     1     -11.554   1.347  -9.540  1.00  0.00     0.008 A 
ATOM      7  C   UNL     1     -11.682   0.028  -9.980  1.00  0.00     0.004 A 
ENDROOT
BRANCH   4   8
ATOM      8  O   UNL     1     -15.121   2.371  -9.432  1.00  0.00    -0.508 OA
ATOM      9  H   UNL     1     -15.891   2.048  -8.860  1.00  0.00     0.293 HD
ENDBRANCH   4   8
BRANCH   5  10
ATOM     10  C   UNL     1     -12.498   3.590  -8.870  1.00  0.00     0.017 C 
ATOM     11  C   UNL     1     -13.464   3.942  -7.732  1.00  0.00     0.012 C 
ATOM     12  C   UNL     1     -11.041   3.869  -8.480  1.00  0.00     0.012 C 
ENDBRANCH   5  10
TORSDOF 2
ENDMDL
MODEL 2
REMARK VINA RESULT:    -6.043      1.742      4.720
REMARK INTER + INTRA:          -6.265
REMARK INTER:                  -6.405
REMARK INTRA:                   0.140
REMARK UNBOUND:                 0.308
REMARK SMILES Cc1ccc(C(C)C)c(O)c1
REMARK SMILES IDX 1 1 2 2 11 3 9 4 5 5 4 6 3 7 10 8 6 10 7 11 8 12
REMARK H PARENT 10 9
REMARK Flexibility Score: inf
ROOT
ATOM      1  C   UNL     1     -12.870   3.887  -8.542  1.00  0.00     0.044 C 
ATOM      2  C   UNL     1     -12.948   2.526  -9.166  1.00  0.00    -0.047 A 
ATOM      3  C   UNL     1     -11.780   1.791  -9.405  1.00  0.00     0.049 A 
ATOM      4  C   UNL     1     -11.844   0.502  -9.955  1.00  0.00     0.119 A 
ATOM      5  C   UNL     1     -13.099  -0.074 -10.263  1.00  0.00    -0.004 A 
ATOM      6  C   UNL     1     -14.267   0.668  -9.999  1.00  0.00     0.008 A 
ATOM      7  C   UNL     1     -14.191   1.950  -9.451  1.00  0.00     0.004 A 
ENDROOT
BRANCH   4   8
ATOM      8  O   UNL     1     -10.661  -0.199 -10.189  1.00  0.00    -0.508 OA
ATOM      9  H   UNL     1     -10.642  -1.043 -10.749  1.00  0.00     0.293 HD
ENDBRANCH   4   8
BRANCH   5  10
ATOM     10  C   UNL     1     -13.234  -1.468 -10.861  1.00  0.00     0.017 C 
ATOM     11  C   UNL     1     -12.535  -2.527 -10.000  1.00  0.00     0.012 C 
ATOM     12  C   UNL     1     -14.700  -1.834 -11.125  1.00  0.00     0.012 C 
ENDBRANCH   5  10
TORSDOF 2
ENDMDL
MODEL 3
REMARK VINA RESULT:    -5.931      1.593      2.373
REMARK INTER + INTRA:          -6.143
REMARK INTER:                  -5.953
REMARK INTRA:                  -0.189
REMARK UNBOUND:                 0.308
REMARK SMILES Cc1ccc(C(C)C)c(O)c1
REMARK SMILES IDX 1 1 2 2 11 3 9 4 5 5 4 6 3 7 10 8 6 10 7 11 8 12
REMARK H PARENT 10 9
REMARK Flexibility Score: inf
ROOT
ATOM      1  C   UNL     1     -13.809  -1.873 -11.125  1.00  0.00     0.044 C 
ATOM      2  C   UNL     1     -13.448  -0.580 -10.457  1.00  0.00    -0.047 A 
ATOM      3  C   UNL     1     -12.158  -0.384  -9.949  1.00  0.00     0.049 A 
ATOM      4  C   UNL     1     -11.799   0.836  -9.356  1.00  0.00     0.119 A 
ATOM      5  C   UNL     1     -12.741   1.888  -9.275  1.00  0.00    -0.004 A 
ATOM      6  C   UNL     1     -14.029   1.684  -9.808  1.00  0.00     0.008 A 
ATOM      7  C   UNL     1     -14.375   0.467 -10.397  1.00  0.00     0.004 A 
ENDROOT
BRANCH   4   8
ATOM      8  O   UNL     1     -10.509   0.995  -8.851  1.00  0.00    -0.508 OA
ATOM      9  H   UNL     1      -9.830   1.599  -9.299  1.00  0.00     0.293 HD
ENDBRANCH   4   8
BRANCH   5  10
ATOM     10  C   UNL     1     -12.413   3.234  -8.643  1.00  0.00     0.017 C 
ATOM     11  C   UNL     1     -11.756   4.189  -9.647  1.00  0.00     0.012 C 
ATOM     12  C   UNL     1     -13.643   3.868  -7.983  1.00  0.00     0.012 C 
ENDBRANCH   5  10
TORSDOF 2
ENDMDL
MODEL 4
REMARK VINA RESULT:    -5.821      6.637      8.292
REMARK INTER + INTRA:          -6.023
REMARK INTER:                  -5.899
REMARK INTRA:                  -0.125
REMARK UNBOUND:                 0.308
REMARK SMILES Cc1ccc(C(C)C)c(O)c1
REMARK SMILES IDX 1 1 2 2 11 3 9 4 5 5 4 6 3 7 10 8 6 10 7 11 8 12
REMARK H PARENT 10 9
REMARK Flexibility Score: inf
ROOT
ATOM      1  C   UNL     1     -11.504  -8.125  -4.773  1.00  0.00     0.044 C 
ATOM      2  C   UNL     1     -11.034  -7.036  -5.690  1.00  0.00    -0.047 A 
ATOM      3  C   UNL     1     -10.497  -7.353  -6.944  1.00  0.00     0.049 A 
ATOM      4  C   UNL     1     -10.087  -6.339  -7.824  1.00  0.00     0.119 A 
ATOM      5  C   UNL     1     -10.226  -4.981  -7.453  1.00  0.00    -0.004 A 
ATOM      6  C   UNL     1     -10.785  -4.677  -6.197  1.00  0.00     0.008 A 
ATOM      7  C   UNL     1     -11.190  -5.693  -5.329  1.00  0.00     0.004 A 
ENDROOT
BRANCH   4   8
ATOM      8  O   UNL     1      -9.548  -6.689  -9.062  1.00  0.00    -0.508 OA
ATOM      9  H   UNL     1      -8.808  -7.376  -9.148  1.00  0.00     0.293 HD
ENDBRANCH   4   8
BRANCH   5  10
ATOM     10  C   UNL     1      -9.800  -3.838  -8.364  1.00  0.00     0.017 C 
ATOM     11  C   UNL     1     -10.786  -3.634  -9.521  1.00  0.00     0.012 C 
ATOM     12  C   UNL     1      -9.575  -2.539  -7.580  1.00  0.00     0.012 C 
ENDBRANCH   5  10
TORSDOF 2
ENDMDL
MODEL 5
REMARK VINA RESULT:    -5.696      2.622      4.972
REMARK INTER + INTRA:          -5.887
REMARK INTER:                  -5.786
REMARK INTRA:                  -0.101
REMARK UNBOUND:                 0.308
REMARK SMILES Cc1ccc(C(C)C)c(O)c1
REMARK SMILES IDX 1 1 2 2 11 3 9 4 5 5 4 6 3 7 10 8 6 10 7 11 8 12
REMARK H PARENT 10 9
REMARK Flexibility Score: inf
ROOT
ATOM      1  C   UNL     1     -13.981   1.659  -9.999  1.00  0.00     0.044 C 
ATOM      2  C   UNL     1     -13.162   0.404  -9.956  1.00  0.00    -0.047 A 
ATOM      3  C   UNL     1     -13.739  -0.827 -10.294  1.00  0.00     0.049 A 
ATOM      4  C   UNL     1     -12.971  -2.001 -10.293  1.00  0.00     0.119 A 
ATOM      5  C   UNL     1     -11.598  -1.949  -9.959  1.00  0.00    -0.004 A 
ATOM      6  C   UNL     1     -11.026  -0.702  -9.640  1.00  0.00     0.008 A 
ATOM      7  C   UNL     1     -11.799   0.461  -9.645  1.00  0.00     0.004 A 
ENDROOT
BRANCH   4   8
ATOM      8  O   UNL     1     -13.578  -3.212 -10.626  1.00  0.00    -0.508 OA
ATOM      9  H   UNL     1     -14.583  -3.298 -10.719  1.00  0.00     0.293 HD
ENDBRANCH   4   8
BRANCH   5  10
ATOM     10  C   UNL     1     -10.713  -3.188  -9.940  1.00  0.00     0.017 C 
ATOM     11  C   UNL     1      -9.224  -2.826  -9.991  1.00  0.00     0.012 C 
ATOM     12  C   UNL     1     -11.032  -4.096  -8.745  1.00  0.00     0.012 C 
ENDBRANCH   5  10
TORSDOF 2
ENDMDL
MODEL 6
REMARK VINA RESULT:    -5.501      4.434      6.764
REMARK INTER + INTRA:          -5.676
REMARK INTER:                  -5.479
REMARK INTRA:                  -0.196
REMARK UNBOUND:                 0.308
REMARK SMILES Cc1ccc(C(C)C)c(O)c1
REMARK SMILES IDX 1 1 2 2 11 3 9 4 5 5 4 6 3 7 10 8 6 10 7 11 8 12
REMARK H PARENT 10 9
REMARK Flexibility Score: inf
ROOT
ATOM      1  C   UNL     1     -12.162  -0.616 -10.720  1.00  0.00     0.044 C 
ATOM      2  C   UNL     1     -11.572  -1.797 -10.008  1.00  0.00    -0.047 A 
ATOM      3  C   UNL     1     -10.340  -1.682  -9.352  1.00  0.00     0.049 A 
ATOM      4  C   UNL     1      -9.797  -2.771  -8.653  1.00  0.00     0.119 A 
ATOM      5  C   UNL     1     -10.500  -3.997  -8.595  1.00  0.00    -0.004 A 
ATOM      6  C   UNL     1     -11.747  -4.092  -9.243  1.00  0.00     0.008 A 
ATOM      7  C   UNL     1     -12.279  -3.002  -9.936  1.00  0.00     0.004 A 
ENDROOT
BRANCH   4   8
ATOM      8  O   UNL     1      -8.563  -2.626  -8.018  1.00  0.00    -0.508 OA
ATOM      9  H   UNL     1      -7.691  -2.825  -8.494  1.00  0.00     0.293 HD
ENDBRANCH   4   8
BRANCH   5  10
ATOM     10  C   UNL     1      -9.964  -5.213  -7.853  1.00  0.00     0.017 C 
ATOM     11  C   UNL     1     -10.421  -5.235  -6.389  1.00  0.00     0.012 C 
ATOM     12  C   UNL     1     -10.317  -6.521  -8.573  1.00  0.00     0.012 C 
ENDBRANCH   5  10
TORSDOF 2
ENDMDL
MODEL 7
REMARK VINA RESULT:    -5.433     15.811     17.332
REMARK INTER + INTRA:          -5.602
REMARK INTER:                  -5.515
REMARK INTRA:                  -0.087
REMARK UNBOUND:                 0.308
REMARK SMILES Cc1ccc(C(C)C)c(O)c1
REMARK SMILES IDX 1 1 2 2 11 3 9 4 5 5 4 6 3 7 10 8 6 10 7 11 8 12
REMARK H PARENT 10 9
REMARK Flexibility Score: inf
ROOT
ATOM      1  C   UNL     1      -8.000   8.771   5.226  1.00  0.00     0.044 C 
ATOM      2  C   UNL     1      -8.755   7.620   5.820  1.00  0.00    -0.047 A 
ATOM      3  C   UNL     1      -9.194   6.568   5.006  1.00  0.00     0.049 A 
ATOM      4  C   UNL     1      -9.869   5.469   5.558  1.00  0.00     0.119 A 
ATOM      5  C   UNL     1     -10.104   5.410   6.952  1.00  0.00    -0.004 A 
ATOM      6  C   UNL     1      -9.640   6.465   7.761  1.00  0.00     0.008 A 
ATOM      7  C   UNL     1      -8.968   7.554   7.201  1.00  0.00     0.004 A 
ENDROOT
BRANCH   4   8
ATOM      8  O   UNL     1     -10.302   4.443   4.718  1.00  0.00    -0.508 OA
ATOM      9  H   UNL     1     -11.237   4.429   4.328  1.00  0.00     0.293 HD
ENDBRANCH   4   8
BRANCH   5  10
ATOM     10  C   UNL     1     -10.831   4.245   7.609  1.00  0.00     0.017 C 
ATOM     11  C   UNL     1     -10.598   4.211   9.125  1.00  0.00     0.012 C 
ATOM     12  C   UNL     1     -12.327   4.243   7.269  1.00  0.00     0.012 C 
ENDBRANCH   5  10
TORSDOF 2
ENDMDL
MODEL 8
REMARK VINA RESULT:    -5.432      4.971      7.260
REMARK INTER + INTRA:          -5.600
REMARK INTER:                  -5.405
REMARK INTRA:                  -0.195
REMARK UNBOUND:                 0.308
REMARK SMILES Cc1ccc(C(C)C)c(O)c1
REMARK SMILES IDX 1 1 2 2 11 3 9 4 5 5 4 6 3 7 10 8 6 10 7 11 8 12
REMARK H PARENT 10 9
REMARK Flexibility Score: inf
ROOT
ATOM      1  C   UNL     1     -10.283  -0.956  -9.970  1.00  0.00     0.044 C 
ATOM      2  C   UNL     1     -10.518  -2.252  -9.253  1.00  0.00    -0.047 A 
ATOM      3  C   UNL     1     -11.437  -3.181  -9.756  1.00  0.00     0.049 A 
ATOM      4  C   UNL     1     -11.637  -4.411  -9.113  1.00  0.00     0.119 A 
ATOM      5  C   UNL     1     -10.899  -4.730  -7.949  1.00  0.00    -0.004 A 
ATOM      6  C   UNL     1      -9.964  -3.794  -7.464  1.00  0.00     0.008 A 
ATOM      7  C   UNL     1      -9.772  -2.573  -8.113  1.00  0.00     0.004 A 
ENDROOT
BRANCH   4   8
ATOM      8  O   UNL     1     -12.567  -5.310  -9.635  1.00  0.00    -0.508 OA
ATOM      9  H   UNL     1     -13.158  -5.071 -10.422  1.00  0.00     0.293 HD
ENDBRANCH   4   8
BRANCH   5  10
ATOM     10  C   UNL     1     -11.072  -6.048  -7.206  1.00  0.00     0.017 C 
ATOM     11  C   UNL     1     -10.144  -7.138  -7.757  1.00  0.00     0.012 C 
ATOM     12  C   UNL     1     -10.899  -5.874  -5.691  1.00  0.00     0.012 C 
ENDBRANCH   5  10
TORSDOF 2
ENDMDL
MODEL 9
REMARK VINA RESULT:    -5.287      3.618      5.364
REMARK INTER + INTRA:          -5.443
REMARK INTER:                  -5.391
REMARK INTRA:                  -0.051
REMARK UNBOUND:                 0.308
REMARK SMILES Cc1ccc(C(C)C)c(O)c1
REMARK SMILES IDX 1 1 2 2 11 3 9 4 5 5 4 6 3 7 10 8 6 10 7 11 8 12
REMARK H PARENT 10 9
REMARK Flexibility Score: inf
ROOT
ATOM      1  C   UNL     1     -10.269  -6.160  -8.589  1.00  0.00     0.044 C 
ATOM      2  C   UNL     1     -10.698  -4.811  -9.082  1.00  0.00    -0.047 A 
ATOM      3  C   UNL     1      -9.743  -3.876  -9.502  1.00  0.00     0.049 A 
ATOM      4  C   UNL     1     -10.137  -2.625 -10.001  1.00  0.00     0.119 A 
ATOM      5  C   UNL     1     -11.510  -2.300 -10.093  1.00  0.00    -0.004 A 
ATOM      6  C   UNL     1     -12.460  -3.257  -9.686  1.00  0.00     0.008 A 
ATOM      7  C   UNL     1     -12.058  -4.499  -9.192  1.00  0.00     0.004 A 
ENDROOT
BRANCH   4   8
ATOM      8  O   UNL     1      -9.160  -1.713 -10.402  1.00  0.00    -0.508 OA
ATOM      9  H   UNL     1      -9.278  -0.715 -10.278  1.00  0.00     0.293 HD
ENDBRANCH   4   8
BRANCH   5  10
ATOM     10  C   UNL     1     -12.000  -0.960 -10.625  1.00  0.00     0.017 C 
ATOM     11  C   UNL     1     -13.501  -0.984 -10.937  1.00  0.00     0.012 C 
ATOM     12  C   UNL     1     -11.639   0.193  -9.679  1.00  0.00     0.012 C 
ENDBRANCH   5  10
TORSDOF 2
ENDMDL
