MODEL 1
REMARK VINA RESULT:    -4.996      0.000      0.000
REMARK INTER + INTRA:          -5.787
REMARK INTER:                  -5.580
REMARK INTRA:                  -0.207
REMARK UNBOUND:                -0.207
REMARK SMILES O=C([O-])c1ccccc1C(=O)[O-]
REMARK SMILES IDX 4 1 9 2 5 3 8 4 6 5 7 6 2 7 1 8 3 9 10 10 11 11 12 12
REMARK H PARENT
REMARK Flexibility Score: inf
ROOT
ATOM      1  C   UNL     1      79.426  54.705   8.651  1.00  0.00     0.006 A 
ATOM      2  C   UNL     1      79.356  55.588   9.766  1.00  0.00     0.006 A 
ATOM      3  C   UNL     1      78.582  54.932   7.547  1.00  0.00     0.010 A 
ATOM      4  C   UNL     1      78.400  56.620   9.763  1.00  0.00     0.010 A 
ATOM      5  C   UNL     1      77.659  55.976   7.556  1.00  0.00     0.001 A 
ATOM      6  C   UNL     1      77.559  56.811   8.667  1.00  0.00     0.001 A 
ENDROOT
BRANCH   1   7
ATOM      7  C   UNL     1      80.301  53.511   8.619  1.00  0.00     0.072 C 
ATOM      8  O   UNL     1      79.840  52.367   8.871  1.00  0.00    -0.545 OA
ATOM      9  O   UNL     1      81.634  53.634   8.242  1.00  0.00    -0.545 OA
ENDBRANCH   1   7
BRANCH   2  10
ATOM     10  C   UNL     1      80.290  55.515  10.913  1.00  0.00     0.072 C 
ATOM     11  O   UNL     1      81.439  56.028  10.843  1.00  0.00    -0.545 OA
ATOM     12  O   UNL     1      79.883  54.935  12.108  1.00  0.00    -0.545 OA
ENDBRANCH   2  10
TORSDOF 2
ENDMDL
MODEL 2
REMARK VINA RESULT:    -4.978      0.129      3.180
REMARK INTER + INTRA:          -5.767
REMARK INTER:                  -5.556
REMARK INTRA:                  -0.211
REMARK UNBOUND:                -0.207
REMARK SMILES O=C([O-])c1ccccc1C(=O)[O-]
REMARK SMILES IDX 4 1 9 2 5 3 8 4 6 5 7 6 2 7 1 8 3 9 10 10 11 11 12 12
REMARK H PARENT
REMARK Flexibility Score: inf
ROOT
ATOM      1  C   UNL     1      79.448  55.551   9.713  1.00  0.00     0.006 A 
ATOM      2  C   UNL     1      79.472  54.652   8.609  1.00  0.00     0.006 A 
ATOM      3  C   UNL     1      78.492  56.583   9.732  1.00  0.00     0.010 A 
ATOM      4  C   UNL     1      78.586  54.860   7.538  1.00  0.00     0.010 A 
ATOM      5  C   UNL     1      77.606  56.756   8.669  1.00  0.00     0.001 A 
ATOM      6  C   UNL     1      77.661  55.904   7.568  1.00  0.00     0.001 A 
ENDROOT
BRANCH   1   7
ATOM      7  C   UNL     1      80.431  55.497  10.821  1.00  0.00     0.072 C 
ATOM      8  O   UNL     1      81.569  56.020  10.699  1.00  0.00    -0.545 OA
ATOM      9  O   UNL     1      80.077  54.923  12.037  1.00  0.00    -0.545 OA
ENDBRANCH   1   7
BRANCH   2  10
ATOM     10  C   UNL     1      80.348  53.458   8.560  1.00  0.00     0.072 C 
ATOM     11  O   UNL     1      79.909  52.322   8.884  1.00  0.00    -0.545 OA
ATOM     12  O   UNL     1      81.650  53.567   8.088  1.00  0.00    -0.545 OA
ENDBRANCH   2  10
TORSDOF 2
ENDMDL
MODEL 3
REMARK VINA RESULT:    -4.841      1.588      2.246
REMARK INTER + INTRA:          -5.613
REMARK INTER:                  -5.419
REMARK INTRA:                  -0.195
REMARK UNBOUND:                -0.207
REMARK SMILES O=C([O-])c1ccccc1C(=O)[O-]
REMARK SMILES IDX 4 1 9 2 5 3 8 4 6 5 7 6 2 7 1 8 3 9 10 10 11 11 12 12
REMARK H PARENT
REMARK Flexibility Score: inf
ROOT
ATOM      1  C   UNL     1      80.004  54.836   9.565  1.00  0.00     0.006 A 
ATOM      2  C   UNL     1      78.930  55.760   9.698  1.00  0.00     0.006 A 
ATOM      3  C   UNL     1      80.012  53.951   8.471  1.00  0.00     0.010 A 
ATOM      4  C   UNL     1      77.873  55.720   8.771  1.00  0.00     0.010 A 
ATOM      5  C   UNL     1      78.965  53.944   7.549  1.00  0.00     0.001 A 
ATOM      6  C   UNL     1      77.892  54.819   7.706  1.00  0.00     0.001 A 
ENDROOT
BRANCH   1   7
ATOM      7  C   UNL     1      81.089  54.709  10.565  1.00  0.00     0.072 C 
ATOM      8  O   UNL     1      81.037  53.831  11.465  1.00  0.00    -0.545 OA
ATOM      9  O   UNL     1      82.216  55.520  10.477  1.00  0.00    -0.545 OA
ENDBRANCH   1   7
BRANCH   2  10
ATOM     10  C   UNL     1      78.898  56.818  10.735  1.00  0.00     0.072 C 
ATOM     11  O   UNL     1      79.150  58.017  10.442  1.00  0.00    -0.545 OA
ATOM     12  O   UNL     1      78.523  56.507  12.036  1.00  0.00    -0.545 OA
ENDBRANCH   2  10
TORSDOF 2
ENDMDL
MODEL 4
REMARK VINA RESULT:    -4.831      1.498      3.298
REMARK INTER + INTRA:          -5.603
REMARK INTER:                  -5.408
REMARK INTRA:                  -0.195
REMARK UNBOUND:                -0.207
REMARK SMILES O=C([O-])c1ccccc1C(=O)[O-]
REMARK SMILES IDX 4 1 9 2 5 3 8 4 6 5 7 6 2 7 1 8 3 9 10 10 11 11 12 12
REMARK H PARENT
REMARK Flexibility Score: inf
ROOT
ATOM      1  C   UNL     1      78.880  55.966   9.604  1.00  0.00     0.006 A 
ATOM      2  C   UNL     1      79.912  54.996   9.456  1.00  0.00     0.006 A 
ATOM      3  C   UNL     1      77.840  56.006   8.657  1.00  0.00     0.010 A 
ATOM      4  C   UNL     1      79.899  54.149   8.333  1.00  0.00     0.010 A 
ATOM      5  C   UNL     1      77.835  55.141   7.564  1.00  0.00     0.001 A 
ATOM      6  C   UNL     1      78.869  54.222   7.395  1.00  0.00     0.001 A 
ENDROOT
BRANCH   1   7
ATOM      7  C   UNL     1      78.881  56.990  10.675  1.00  0.00     0.072 C 
ATOM      8  O   UNL     1      79.186  58.185  10.424  1.00  0.00    -0.545 OA
ATOM      9  O   UNL     1      78.476  56.651  11.961  1.00  0.00    -0.545 OA
ENDBRANCH   1   7
BRANCH   2  10
ATOM     10  C   UNL     1      80.973  54.786  10.468  1.00  0.00     0.072 C 
ATOM     11  O   UNL     1      80.783  54.024  11.454  1.00  0.00    -0.545 OA
ATOM     12  O   UNL     1      82.219  55.377  10.304  1.00  0.00    -0.545 OA
ENDBRANCH   2  10
TORSDOF 2
ENDMDL
MODEL 5
REMARK VINA RESULT:    -4.735      2.278      3.226
REMARK INTER + INTRA:          -5.495
REMARK INTER:                  -5.571
REMARK INTRA:                   0.076
REMARK UNBOUND:                -0.207
REMARK SMILES O=C([O-])c1ccccc1C(=O)[O-]
REMARK SMILES IDX 4 1 9 2 5 3 8 4 6 5 7 6 2 7 1 8 3 9 10 10 11 11 12 12
REMARK H PARENT
REMARK Flexibility Score: inf
ROOT
ATOM      1  C   UNL     1      78.564  55.311   8.566  1.00  0.00     0.006 A 
ATOM      2  C   UNL     1      79.508  55.259   9.631  1.00  0.00     0.006 A 
ATOM      3  C   UNL     1      78.457  54.210   7.695  1.00  0.00     0.010 A 
ATOM      4  C   UNL     1      80.353  54.141   9.743  1.00  0.00     0.010 A 
ATOM      5  C   UNL     1      79.289  53.101   7.839  1.00  0.00     0.001 A 
ATOM      6  C   UNL     1      80.243  53.071   8.853  1.00  0.00     0.001 A 
ENDROOT
BRANCH   1   7
ATOM      7  C   UNL     1      77.728  56.501   8.284  1.00  0.00     0.072 C 
ATOM      8  O   UNL     1      77.043  57.037   9.193  1.00  0.00    -0.545 OA
ATOM      9  O   UNL     1      77.746  57.080   7.020  1.00  0.00    -0.545 OA
ENDBRANCH   1   7
BRANCH   2  10
ATOM     10  C   UNL     1      79.602  56.304  10.676  1.00  0.00     0.072 C 
ATOM     11  O   UNL     1      80.359  57.300  10.526  1.00  0.00    -0.545 OA
ATOM     12  O   UNL     1      78.802  56.231  11.809  1.00  0.00    -0.545 OA
ENDBRANCH   2  10
TORSDOF 2
ENDMDL
MODEL 6
REMARK VINA RESULT:    -4.706      2.308      4.096
REMARK INTER + INTRA:          -5.463
REMARK INTER:                  -5.568
REMARK INTRA:                   0.105
REMARK UNBOUND:                -0.207
REMARK SMILES O=C([O-])c1ccccc1C(=O)[O-]
REMARK SMILES IDX 4 1 9 2 5 3 8 4 6 5 7 6 2 7 1 8 3 9 10 10 11 11 12 12
REMARK H PARENT
REMARK Flexibility Score: inf
ROOT
ATOM      1  C   UNL     1      79.513  55.366   9.695  1.00  0.00     0.006 A 
ATOM      2  C   UNL     1      78.613  55.365   8.592  1.00  0.00     0.006 A 
ATOM      3  C   UNL     1      80.382  54.273   9.868  1.00  0.00     0.010 A 
ATOM      4  C   UNL     1      78.569  54.243   7.745  1.00  0.00     0.010 A 
ATOM      5  C   UNL     1      80.339  53.181   9.002  1.00  0.00     0.001 A 
ATOM      6  C   UNL     1      79.425  53.161   7.950  1.00  0.00     0.001 A 
ENDROOT
BRANCH   1   7
ATOM      7  C   UNL     1      79.536  56.437  10.719  1.00  0.00     0.072 C 
ATOM      8  O   UNL     1      80.243  57.465  10.560  1.00  0.00    -0.545 OA
ATOM      9  O   UNL     1      78.718  56.346  11.840  1.00  0.00    -0.545 OA
ENDBRANCH   1   7
BRANCH   2  10
ATOM     10  C   UNL     1      77.756  56.524   8.249  1.00  0.00     0.072 C 
ATOM     11  O   UNL     1      77.057  57.093   9.129  1.00  0.00    -0.545 OA
ATOM     12  O   UNL     1      77.766  57.040   6.959  1.00  0.00    -0.545 OA
ENDBRANCH   2  10
TORSDOF 2
ENDMDL
MODEL 7
REMARK VINA RESULT:    -4.663      1.857      3.356
REMARK INTER + INTRA:          -5.415
REMARK INTER:                  -5.269
REMARK INTRA:                  -0.146
REMARK UNBOUND:                -0.207
REMARK SMILES O=C([O-])c1ccccc1C(=O)[O-]
REMARK SMILES IDX 4 1 9 2 5 3 8 4 6 5 7 6 2 7 1 8 3 9 10 10 11 11 12 12
REMARK H PARENT
REMARK Flexibility Score: inf
ROOT
ATOM      1  C   UNL     1      79.882  54.738   9.363  1.00  0.00     0.006 A 
ATOM      2  C   UNL     1      78.738  55.480   8.953  1.00  0.00     0.006 A 
ATOM      3  C   UNL     1      80.324  54.845  10.695  1.00  0.00     0.010 A 
ATOM      4  C   UNL     1      78.122  56.351   9.870  1.00  0.00     0.010 A 
ATOM      5  C   UNL     1      79.684  55.697  11.594  1.00  0.00     0.001 A 
ATOM      6  C   UNL     1      78.592  56.458  11.179  1.00  0.00     0.001 A 
ENDROOT
BRANCH   1   7
ATOM      7  C   UNL     1      80.678  53.903   8.435  1.00  0.00     0.072 C 
ATOM      8  O   UNL     1      81.648  54.391   7.799  1.00  0.00    -0.545 OA
ATOM      9  O   UNL     1      80.401  52.546   8.308  1.00  0.00    -0.545 OA
ENDBRANCH   1   7
BRANCH   2  10
ATOM     10  C   UNL     1      78.117  55.333   7.616  1.00  0.00     0.072 C 
ATOM     11  O   UNL     1      77.562  54.253   7.278  1.00  0.00    -0.545 OA
ATOM     12  O   UNL     1      78.079  56.413   6.743  1.00  0.00    -0.545 OA
ENDBRANCH   2  10
TORSDOF 2
ENDMDL
MODEL 8
REMARK VINA RESULT:    -4.658      1.888      3.351
REMARK INTER + INTRA:          -5.409
REMARK INTER:                  -5.272
REMARK INTRA:                  -0.137
REMARK UNBOUND:                -0.207
REMARK SMILES O=C([O-])c1ccccc1C(=O)[O-]
REMARK SMILES IDX 4 1 9 2 5 3 8 4 6 5 7 6 2 7 1 8 3 9 10 10 11 11 12 12
REMARK H PARENT
REMARK Flexibility Score: inf
ROOT
ATOM      1  C   UNL     1      78.753  55.474   9.002  1.00  0.00     0.006 A 
ATOM      2  C   UNL     1      79.905  54.717   9.360  1.00  0.00     0.006 A 
ATOM      3  C   UNL     1      78.153  56.303   9.968  1.00  0.00     0.010 A 
ATOM      4  C   UNL     1      80.372  54.767  10.685  1.00  0.00     0.010 A 
ATOM      5  C   UNL     1      78.648  56.355  11.271  1.00  0.00     0.001 A 
ATOM      6  C   UNL     1      79.747  55.579  11.632  1.00  0.00     0.001 A 
ENDROOT
BRANCH   1   7
ATOM      7  C   UNL     1      78.107  55.382   7.672  1.00  0.00     0.072 C 
ATOM      8  O   UNL     1      77.563  54.312   7.292  1.00  0.00    -0.545 OA
ATOM      9  O   UNL     1      78.034  56.504   6.854  1.00  0.00    -0.545 OA
ENDBRANCH   1   7
BRANCH   2  10
ATOM     10  C   UNL     1      80.684  53.923   8.382  1.00  0.00     0.072 C 
ATOM     11  O   UNL     1      81.690  54.416   7.806  1.00  0.00    -0.545 OA
ATOM     12  O   UNL     1      80.352  52.596   8.140  1.00  0.00    -0.545 OA
ENDBRANCH   2  10
TORSDOF 2
ENDMDL
MODEL 9
REMARK VINA RESULT:    -4.429      6.592      7.928
REMARK INTER + INTRA:          -5.154
REMARK INTER:                  -4.943
REMARK INTRA:                  -0.212
REMARK UNBOUND:                -0.207
REMARK SMILES O=C([O-])c1ccccc1C(=O)[O-]
REMARK SMILES IDX 4 1 9 2 5 3 8 4 6 5 7 6 2 7 1 8 3 9 10 10 11 11 12 12
REMARK H PARENT
REMARK Flexibility Score: inf
ROOT
ATOM      1  C   UNL     1      83.555  60.880  10.514  1.00  0.00     0.006 A 
ATOM      2  C   UNL     1      84.967  60.767  10.372  1.00  0.00     0.006 A 
ATOM      3  C   UNL     1      82.899  61.991   9.953  1.00  0.00     0.010 A 
ATOM      4  C   UNL     1      85.675  61.802   9.734  1.00  0.00     0.010 A 
ATOM      5  C   UNL     1      83.618  62.993   9.304  1.00  0.00     0.001 A 
ATOM      6  C   UNL     1      85.006  62.905   9.205  1.00  0.00     0.001 A 
ENDROOT
BRANCH   1   7
ATOM      7  C   UNL     1      82.741  59.913  11.287  1.00  0.00     0.072 C 
ATOM      8  O   UNL     1      82.531  60.085  12.516  1.00  0.00    -0.545 OA
ATOM      9  O   UNL     1      82.142  58.836  10.643  1.00  0.00    -0.545 OA
ENDBRANCH   1   7
BRANCH   2  10
ATOM     10  C   UNL     1      85.730  59.574  10.808  1.00  0.00     0.072 C 
ATOM     11  O   UNL     1      86.067  58.686   9.980  1.00  0.00    -0.545 OA
ATOM     12  O   UNL     1      86.143  59.456  12.129  1.00  0.00    -0.545 OA
ENDBRANCH   2  10
TORSDOF 2
ENDMDL
