MODEL 1
REMARK VINA RESULT:    -0.867      0.000      0.000
REMARK INTER + INTRA:          -0.570
REMARK INTER:                  -1.146
REMARK INTRA:                   0.576
REMARK UNBOUND:                 0.576
REMARK SMILES CCCCC=CC=CCO
REMARK SMILES IDX 5 1 6 2 4 3 3 4 2 5 1 6 7 7 8 8 9 9 10 10
REMARK H PARENT 10 11
REMARK Flexibility Score: inf
ROOT
ATOM      1  C   UNL     1      15.893  17.328  52.419  1.00  0.00    -0.027 C 
ATOM      2  C   UNL     1      15.935  15.997  52.525  1.00  0.00    -0.005 C 
ENDROOT
BRANCH   1   3
ATOM      3  C   UNL     1      15.948  18.014  51.082  1.00  0.00     0.027 C 
BRANCH   3   4
ATOM      4  C   UNL     1      17.338  18.593  50.777  1.00  0.00     0.004 C 
BRANCH   4   5
ATOM      5  C   UNL     1      17.258  19.885  49.951  1.00  0.00    -0.003 C 
ATOM      6  C   UNL     1      18.457  20.015  49.016  1.00  0.00     0.004 C 
ENDBRANCH   4   5
ENDBRANCH   3   4
ENDBRANCH   1   3
BRANCH   2   7
ATOM      7  C   UNL     1      15.875  15.341  53.847  1.00  0.00    -0.002 C 
ATOM      8  C   UNL     1      16.950  14.875  54.497  1.00  0.00     0.001 C 
BRANCH   8   9
ATOM      9  C   UNL     1      18.354  14.959  53.972  1.00  0.00     0.183 C 
BRANCH   9  10
ATOM     10  O   UNL     1      18.341  14.910  52.573  1.00  0.00    -0.392 OA
ATOM     11  H   UNL     1      19.247  14.610  52.300  1.00  0.00     0.210 HD
ENDBRANCH   9  10
ENDBRANCH   8   9
ENDBRANCH   2   7
TORSDOF 6
ENDMDL
MODEL 2
REMARK VINA RESULT:    -0.274     20.532     22.795
REMARK INTER + INTRA:           0.214
REMARK INTER:                   0.172
REMARK INTRA:                   0.042
REMARK UNBOUND:                 0.576
REMARK SMILES CCCCC=CC=CCO
REMARK SMILES IDX 5 1 6 2 4 3 3 4 2 5 1 6 7 7 8 8 9 9 10 10
REMARK H PARENT 10 11
REMARK Flexibility Score: inf
ROOT
ATOM      1  C   UNL     1      33.810  31.209  55.489  1.00  0.00    -0.027 C 
ATOM      2  C   UNL     1      33.726  31.805  54.297  1.00  0.00    -0.005 C 
ENDROOT
BRANCH   1   3
ATOM      3  C   UNL     1      32.620  30.546  56.125  1.00  0.00     0.027 C 
BRANCH   3   4
ATOM      4  C   UNL     1      31.289  31.154  55.654  1.00  0.00     0.004 C 
BRANCH   4   5
ATOM      5  C   UNL     1      30.080  30.333  56.125  1.00  0.00    -0.003 C 
ATOM      6  C   UNL     1      28.809  31.178  56.125  1.00  0.00     0.004 C 
ENDBRANCH   4   5
ENDBRANCH   3   4
ENDBRANCH   1   3
BRANCH   2   7
ATOM      7  C   UNL     1      34.907  32.447  53.687  1.00  0.00    -0.002 C 
ATOM      8  C   UNL     1      35.585  33.452  54.255  1.00  0.00     0.001 C 
BRANCH   8   9
ATOM      9  C   UNL     1      35.239  34.057  55.584  1.00  0.00     0.183 C 
BRANCH   9  10
ATOM     10  O   UNL     1      34.351  35.124  55.403  1.00  0.00    -0.392 OA
ATOM     11  H   UNL     1      33.512  34.867  55.867  1.00  0.00     0.210 HD
ENDBRANCH   9  10
ENDBRANCH   8   9
ENDBRANCH   2   7
TORSDOF 6
ENDMDL
MODEL 3
REMARK VINA RESULT:     0.111     21.230     23.552
REMARK INTER + INTRA:           0.723
REMARK INTER:                   0.273
REMARK INTRA:                   0.450
REMARK UNBOUND:                 0.576
REMARK SMILES CCCCC=CC=CCO
REMARK SMILES IDX 5 1 6 2 4 3 3 4 2 5 1 6 7 7 8 8 9 9 10 10
REMARK H PARENT 10 11
REMARK Flexibility Score: inf
ROOT
ATOM      1  C   UNL     1      34.205  32.266  54.354  1.00  0.00    -0.027 C 
ATOM      2  C   UNL     1      35.354  32.462  55.007  1.00  0.00    -0.005 C 
ENDROOT
BRANCH   1   3
ATOM      3  C   UNL     1      33.403  31.007  54.531  1.00  0.00     0.027 C 
BRANCH   3   4
ATOM      4  C   UNL     1      32.321  31.148  55.613  1.00  0.00     0.004 C 
BRANCH   4   5
ATOM      5  C   UNL     1      30.904  31.072  55.026  1.00  0.00    -0.003 C 
ATOM      6  C   UNL     1      29.888  30.677  56.094  1.00  0.00     0.004 C 
ENDBRANCH   4   5
ENDBRANCH   3   4
ENDBRANCH   1   3
BRANCH   2   7
ATOM      7  C   UNL     1      36.125  33.708  54.823  1.00  0.00    -0.002 C 
ATOM      8  C   UNL     1      35.742  34.898  55.302  1.00  0.00     0.001 C 
BRANCH   8   9
ATOM      9  C   UNL     1      34.485  35.125  56.090  1.00  0.00     0.183 C 
BRANCH   9  10
ATOM     10  O   UNL     1      33.368  34.923  55.270  1.00  0.00    -0.392 OA
ATOM     11  H   UNL     1      32.612  35.386  55.715  1.00  0.00     0.210 HD
ENDBRANCH   9  10
ENDBRANCH   8   9
ENDBRANCH   2   7
TORSDOF 6
ENDMDL
MODEL 4
REMARK VINA RESULT:     0.377     20.008     22.220
REMARK INTER + INTRA:           1.074
REMARK INTER:                   0.843
REMARK INTRA:                   0.230
REMARK UNBOUND:                 0.576
REMARK SMILES CCCCC=CC=CCO
REMARK SMILES IDX 5 1 6 2 4 3 3 4 2 5 1 6 7 7 8 8 9 9 10 10
REMARK H PARENT 10 11
REMARK Flexibility Score: inf
ROOT
ATOM      1  C   UNL     1      32.994  31.672  54.464  1.00  0.00    -0.027 C 
ATOM      2  C   UNL     1      33.703  32.769  54.741  1.00  0.00    -0.005 C 
ENDROOT
BRANCH   1   3
ATOM      3  C   UNL     1      31.532  31.572  54.801  1.00  0.00     0.027 C 
BRANCH   3   4
ATOM      4  C   UNL     1      31.275  30.714  56.049  1.00  0.00     0.004 C 
BRANCH   4   5
ATOM      5  C   UNL     1      29.827  30.209  56.115  1.00  0.00    -0.003 C 
ATOM      6  C   UNL     1      28.839  31.372  56.125  1.00  0.00     0.004 C 
ENDBRANCH   4   5
ENDBRANCH   3   4
ENDBRANCH   1   3
BRANCH   2   7
ATOM      7  C   UNL     1      35.137  32.850  54.398  1.00  0.00    -0.002 C 
ATOM      8  C   UNL     1      36.086  32.111  54.987  1.00  0.00     0.001 C 
BRANCH   8   9
ATOM      9  C   UNL     1      35.821  31.103  56.067  1.00  0.00     0.183 C 
BRANCH   9  10
ATOM     10  O   UNL     1      35.320  29.923  55.503  1.00  0.00    -0.392 OA
ATOM     11  H   UNL     1      34.430  29.777  55.916  1.00  0.00     0.210 HD
ENDBRANCH   9  10
ENDBRANCH   8   9
ENDBRANCH   2   7
TORSDOF 6
ENDMDL
MODEL 5
REMARK VINA RESULT:     0.971     20.949     22.688
REMARK INTER + INTRA:           1.859
REMARK INTER:                   0.838
REMARK INTRA:                   1.021
REMARK UNBOUND:                 0.576
REMARK SMILES CCCCC=CC=CCO
REMARK SMILES IDX 5 1 6 2 4 3 3 4 2 5 1 6 7 7 8 8 9 9 10 10
REMARK H PARENT 10 11
REMARK Flexibility Score: inf
ROOT
ATOM      1  C   UNL     1      35.566  32.558  55.820  1.00  0.00    -0.027 C 
ATOM      2  C   UNL     1      35.161  31.313  55.553  1.00  0.00    -0.005 C 
ENDROOT
BRANCH   1   3
ATOM      3  C   UNL     1      34.695  33.749  55.532  1.00  0.00     0.027 C 
BRANCH   3   4
ATOM      4  C   UNL     1      33.682  33.477  54.410  1.00  0.00     0.004 C 
BRANCH   4   5
ATOM      5  C   UNL     1      33.038  32.089  54.537  1.00  0.00    -0.003 C 
ATOM      6  C   UNL     1      32.136  31.790  53.342  1.00  0.00     0.004 C 
ENDBRANCH   4   5
ENDBRANCH   3   4
ENDBRANCH   1   3
BRANCH   2   7
ATOM      7  C   UNL     1      36.028  30.156  55.847  1.00  0.00    -0.002 C 
ATOM      8  C   UNL     1      35.566  28.925  56.105  1.00  0.00     0.001 C 
BRANCH   8   9
ATOM      9  C   UNL     1      34.111  28.558  56.125  1.00  0.00     0.183 C 
BRANCH   9  10
ATOM     10  O   UNL     1      33.939  27.269  55.606  1.00  0.00    -0.392 OA
ATOM     11  H   UNL     1      33.396  26.775  56.272  1.00  0.00     0.210 HD
ENDBRANCH   9  10
ENDBRANCH   8   9
ENDBRANCH   2   7
TORSDOF 6
ENDMDL
MODEL 6
REMARK VINA RESULT:     1.132     21.214     23.293
REMARK INTER + INTRA:           2.072
REMARK INTER:                   0.545
REMARK INTRA:                   1.527
REMARK UNBOUND:                 0.576
REMARK SMILES CCCCC=CC=CCO
REMARK SMILES IDX 5 1 6 2 4 3 3 4 2 5 1 6 7 7 8 8 9 9 10 10
REMARK H PARENT 10 11
REMARK Flexibility Score: inf
ROOT
ATOM      1  C   UNL     1      33.775  31.363  56.031  1.00  0.00    -0.027 C 
ATOM      2  C   UNL     1      34.901  30.959  55.437  1.00  0.00    -0.005 C 
ENDROOT
BRANCH   1   3
ATOM      3  C   UNL     1      32.520  30.536  55.985  1.00  0.00     0.027 C 
BRANCH   3   4
ATOM      4  C   UNL     1      31.463  31.126  55.039  1.00  0.00     0.004 C 
BRANCH   4   5
ATOM      5  C   UNL     1      32.032  32.254  54.168  1.00  0.00    -0.003 C 
ATOM      6  C   UNL     1      33.079  31.722  53.193  1.00  0.00     0.004 C 
ENDBRANCH   4   5
ENDBRANCH   3   4
ENDBRANCH   1   3
BRANCH   2   7
ATOM      7  C   UNL     1      36.125  31.783  55.497  1.00  0.00    -0.002 C 
ATOM      8  C   UNL     1      36.124  33.121  55.457  1.00  0.00     0.001 C 
BRANCH   8   9
ATOM      9  C   UNL     1      34.885  33.961  55.349  1.00  0.00     0.183 C 
BRANCH   9  10
ATOM     10  O   UNL     1      35.158  35.119  54.611  1.00  0.00    -0.392 OA
ATOM     11  H   UNL     1      35.984  34.928  54.095  1.00  0.00     0.210 HD
ENDBRANCH   9  10
ENDBRANCH   8   9
ENDBRANCH   2   7
TORSDOF 6
ENDMDL
MODEL 7
REMARK VINA RESULT:     1.216     21.096     23.369
REMARK INTER + INTRA:           2.183
REMARK INTER:                   1.800
REMARK INTRA:                   0.383
REMARK UNBOUND:                 0.576
REMARK SMILES CCCCC=CC=CCO
REMARK SMILES IDX 5 1 6 2 4 3 3 4 2 5 1 6 7 7 8 8 9 9 10 10
REMARK H PARENT 10 11
REMARK Flexibility Score: inf
ROOT
ATOM      1  C   UNL     1      35.473  31.283  55.437  1.00  0.00    -0.027 C 
ATOM      2  C   UNL     1      35.769  32.421  56.070  1.00  0.00    -0.005 C 
ENDROOT
BRANCH   1   3
ATOM      3  C   UNL     1      35.721  29.942  56.070  1.00  0.00     0.027 C 
BRANCH   3   4
ATOM      4  C   UNL     1      34.459  29.065  56.099  1.00  0.00     0.004 C 
BRANCH   4   5
ATOM      5  C   UNL     1      34.796  27.567  56.097  1.00  0.00    -0.003 C 
ATOM      6  C   UNL     1      33.527  26.719  56.075  1.00  0.00     0.004 C 
ENDBRANCH   4   5
ENDBRANCH   3   4
ENDBRANCH   1   3
BRANCH   2   7
ATOM      7  C   UNL     1      35.514  33.729  55.433  1.00  0.00    -0.002 C 
ATOM      8  C   UNL     1      34.393  34.026  54.765  1.00  0.00     0.001 C 
BRANCH   8   9
ATOM      9  C   UNL     1      33.247  33.074  54.576  1.00  0.00     0.183 C 
BRANCH   9  10
ATOM     10  O   UNL     1      33.253  32.578  53.267  1.00  0.00    -0.392 OA
ATOM     11  H   UNL     1      34.096  32.065  53.171  1.00  0.00     0.210 HD
ENDBRANCH   9  10
ENDBRANCH   8   9
ENDBRANCH   2   7
TORSDOF 6
ENDMDL
