MODEL 1
REMARK VINA RESULT:    -6.157      0.000      0.000
REMARK INTER + INTRA:         -10.325
REMARK INTER:                  -9.037
REMARK INTRA:                  -1.288
REMARK UNBOUND:                -1.288
REMARK SMILES CC(C)COC(=O)c1ccccc1C(=O)OCC(C)C
REMARK SMILES IDX 8 1 9 2 10 3 11 4 12 5 13 6 6 7 7 8 5 9 4 10 2 11 1 12 3 13
REMARK SMILES IDX 14 14 15 15 16 16 17 17 18 18 19 19 20 20
REMARK H PARENT
REMARK Flexibility Score: inf
ROOT
ATOM      1  C   UNL     1     135.275 124.110 139.717  1.00  0.00     0.074 A 
ATOM      2  C   UNL     1     136.162 124.729 138.817  1.00  0.00     0.016 A 
ATOM      3  C   UNL     1     135.687 125.367 137.672  1.00  0.00     0.001 A 
ATOM      4  C   UNL     1     134.320 125.398 137.405  1.00  0.00     0.001 A 
ATOM      5  C   UNL     1     133.424 124.772 138.272  1.00  0.00     0.016 A 
ATOM      6  C   UNL     1     133.882 124.103 139.422  1.00  0.00     0.074 A 
ENDROOT
BRANCH   1   7
ATOM      7  C   UNL     1     135.839 123.551 140.966  1.00  0.00     0.339 C 
ATOM      8  O   UNL     1     136.199 124.315 141.903  1.00  0.00    -0.246 OA
BRANCH   7   9
ATOM      9  O   UNL     1     136.025 122.170 141.076  1.00  0.00    -0.462 OA
BRANCH   9  10
ATOM     10  C   UNL     1     137.245 121.524 140.720  1.00  0.00     0.236 C 
BRANCH  10  11
ATOM     11  C   UNL     1     136.963 120.177 140.036  1.00  0.00     0.021 C 
ATOM     12  C   UNL     1     138.267 119.453 139.682  1.00  0.00     0.011 C 
ATOM     13  C   UNL     1     136.089 120.363 138.788  1.00  0.00     0.011 C 
ENDBRANCH  10  11
ENDBRANCH   9  10
ENDBRANCH   7   9
ENDBRANCH   1   7
BRANCH   6  14
ATOM     14  C   UNL     1     132.889 123.364 140.234  1.00  0.00     0.339 C 
ATOM     15  O   UNL     1     132.767 122.115 140.108  1.00  0.00    -0.246 OA
BRANCH  14  16
ATOM     16  O   UNL     1     132.044 124.073 141.097  1.00  0.00    -0.462 OA
BRANCH  16  17
ATOM     17  C   UNL     1     130.640 124.233 140.883  1.00  0.00     0.236 C 
BRANCH  17  18
ATOM     18  C   UNL     1     130.286 125.706 140.608  1.00  0.00     0.021 C 
ATOM     19  C   UNL     1     131.366 126.628 141.186  1.00  0.00     0.011 C 
ATOM     20  C   UNL     1     130.108 125.979 139.108  1.00  0.00     0.011 C 
ENDBRANCH  17  18
ENDBRANCH  16  17
ENDBRANCH  14  16
ENDBRANCH   6  14
TORSDOF 8
ENDMDL
MODEL 2
REMARK VINA RESULT:    -6.156      1.960      4.337
REMARK INTER + INTRA:         -10.323
REMARK INTER:                  -9.345
REMARK INTRA:                  -0.978
REMARK UNBOUND:                -1.288
REMARK SMILES CC(C)COC(=O)c1ccccc1C(=O)OCC(C)C
REMARK SMILES IDX 8 1 9 2 10 3 11 4 12 5 13 6 6 7 7 8 5 9 4 10 2 11 1 12 3 13
REMARK SMILES IDX 14 14 15 15 16 16 17 17 18 18 19 19 20 20
REMARK H PARENT
REMARK Flexibility Score: inf
ROOT
ATOM      1  C   UNL     1     135.065 123.125 139.600  1.00  0.00     0.074 A 
ATOM      2  C   UNL     1     135.804 121.932 139.698  1.00  0.00     0.016 A 
ATOM      3  C   UNL     1     135.183 120.735 140.056  1.00  0.00     0.001 A 
ATOM      4  C   UNL     1     133.816 120.710 140.322  1.00  0.00     0.001 A 
ATOM      5  C   UNL     1     133.067 121.885 140.252  1.00  0.00     0.016 A 
ATOM      6  C   UNL     1     133.676 123.108 139.916  1.00  0.00     0.074 A 
ENDROOT
BRANCH   1   7
ATOM      7  C   UNL     1     135.766 124.332 139.107  1.00  0.00     0.339 C 
ATOM      8  O   UNL     1     136.477 125.022 139.887  1.00  0.00    -0.246 OA
BRANCH   7   9
ATOM      9  O   UNL     1     135.586 124.735 137.780  1.00  0.00    -0.462 OA
BRANCH   9  10
ATOM     10  C   UNL     1     136.047 125.989 137.285  1.00  0.00     0.236 C 
BRANCH  10  11
ATOM     11  C   UNL     1     135.148 126.481 136.140  1.00  0.00     0.021 C 
ATOM     12  C   UNL     1     134.964 128.002 136.195  1.00  0.00     0.011 C 
ATOM     13  C   UNL     1     133.789 125.769 136.158  1.00  0.00     0.011 C 
ENDBRANCH  10  11
ENDBRANCH   9  10
ENDBRANCH   7   9
ENDBRANCH   1   7
BRANCH   6  14
ATOM     14  C   UNL     1     132.847 124.333 139.973  1.00  0.00     0.339 C 
ATOM     15  O   UNL     1     132.159 124.682 138.974  1.00  0.00    -0.246 OA
BRANCH  14  16
ATOM     16  O   UNL     1     132.883 125.134 141.121  1.00  0.00    -0.462 OA
BRANCH  16  17
ATOM     17  C   UNL     1     131.721 125.673 141.753  1.00  0.00     0.236 C 
BRANCH  17  18
ATOM     18  C   UNL     1     130.845 124.555 142.348  1.00  0.00     0.021 C 
ATOM     19  C   UNL     1     130.495 124.875 143.806  1.00  0.00     0.011 C 
ATOM     20  C   UNL     1     129.563 124.340 141.533  1.00  0.00     0.011 C 
ENDBRANCH  17  18
ENDBRANCH  16  17
ENDBRANCH  14  16
ENDBRANCH   6  14
TORSDOF 8
ENDMDL
MODEL 3
REMARK VINA RESULT:    -6.153      0.558      5.900
REMARK INTER + INTRA:         -10.318
REMARK INTER:                  -8.847
REMARK INTRA:                  -1.472
REMARK UNBOUND:                -1.288
REMARK SMILES CC(C)COC(=O)c1ccccc1C(=O)OCC(C)C
REMARK SMILES IDX 8 1 9 2 10 3 11 4 12 5 13 6 6 7 7 8 5 9 4 10 2 11 1 12 3 13
REMARK SMILES IDX 14 14 15 15 16 16 17 17 18 18 19 19 20 20
REMARK H PARENT
REMARK Flexibility Score: inf
ROOT
ATOM      1  C   UNL     1     133.990 123.931 139.398  1.00  0.00     0.074 A 
ATOM      2  C   UNL     1     133.569 124.593 138.230  1.00  0.00     0.016 A 
ATOM      3  C   UNL     1     134.470 125.333 137.465  1.00  0.00     0.001 A 
ATOM      4  C   UNL     1     135.804 125.426 137.853  1.00  0.00     0.001 A 
ATOM      5  C   UNL     1     136.240 124.796 139.019  1.00  0.00     0.016 A 
ATOM      6  C   UNL     1     135.344 124.063 139.819  1.00  0.00     0.074 A 
ENDROOT
BRANCH   1   7
ATOM      7  C   UNL     1     133.007 123.073 140.097  1.00  0.00     0.339 C 
ATOM      8  O   UNL     1     133.140 121.818 140.098  1.00  0.00    -0.246 OA
BRANCH   7   9
ATOM      9  O   UNL     1     131.895 123.661 140.707  1.00  0.00    -0.462 OA
BRANCH   9  10
ATOM     10  C   UNL     1     131.995 124.784 141.577  1.00  0.00     0.236 C 
BRANCH  10  11
ATOM     11  C   UNL     1     131.263 125.997 140.981  1.00  0.00     0.021 C 
ATOM     12  C   UNL     1     130.362 125.579 139.813  1.00  0.00     0.011 C 
ATOM     13  C   UNL     1     132.256 127.081 140.542  1.00  0.00     0.011 C 
ENDBRANCH  10  11
ENDBRANCH   9  10
ENDBRANCH   7   9
ENDBRANCH   1   7
BRANCH   6  14
ATOM     14  C   UNL     1     135.848 123.517 141.100  1.00  0.00     0.339 C 
ATOM     15  O   UNL     1     136.045 124.283 142.083  1.00  0.00    -0.246 OA
BRANCH  14  16
ATOM     16  O   UNL     1     136.164 122.155 141.189  1.00  0.00    -0.462 OA
BRANCH  16  17
ATOM     17  C   UNL     1     137.336 121.570 140.620  1.00  0.00     0.236 C 
BRANCH  17  18
ATOM     18  C   UNL     1     137.022 120.200 139.991  1.00  0.00     0.021 C 
ATOM     19  C   UNL     1     136.174 120.380 138.727  1.00  0.00     0.011 C 
ATOM     20  C   UNL     1     138.300 119.418 139.662  1.00  0.00     0.011 C 
ENDBRANCH  17  18
ENDBRANCH  16  17
ENDBRANCH  14  16
ENDBRANCH   6  14
TORSDOF 8
ENDMDL
MODEL 4
REMARK VINA RESULT:    -5.906      1.470      5.690
REMARK INTER + INTRA:          -9.956
REMARK INTER:                  -9.160
REMARK INTRA:                  -0.797
REMARK UNBOUND:                -1.288
REMARK SMILES CC(C)COC(=O)c1ccccc1C(=O)OCC(C)C
REMARK SMILES IDX 8 1 9 2 10 3 11 4 12 5 13 6 6 7 7 8 5 9 4 10 2 11 1 12 3 13
REMARK SMILES IDX 14 14 15 15 16 16 17 17 18 18 19 19 20 20
REMARK H PARENT
REMARK Flexibility Score: inf
ROOT
ATOM      1  C   UNL     1     133.716 125.035 138.560  1.00  0.00     0.074 A 
ATOM      2  C   UNL     1     133.139 125.815 137.541  1.00  0.00     0.016 A 
ATOM      3  C   UNL     1     133.916 126.306 136.492  1.00  0.00     0.001 A 
ATOM      4  C   UNL     1     135.280 126.028 136.443  1.00  0.00     0.001 A 
ATOM      5  C   UNL     1     135.877 125.275 137.454  1.00  0.00     0.016 A 
ATOM      6  C   UNL     1     135.118 124.789 138.534  1.00  0.00     0.074 A 
ENDROOT
BRANCH   1   7
ATOM      7  C   UNL     1     132.813 124.454 139.579  1.00  0.00     0.339 C 
ATOM      8  O   UNL     1     132.145 123.415 139.323  1.00  0.00    -0.246 OA
BRANCH   7   9
ATOM      9  O   UNL     1     132.660 125.102 140.809  1.00  0.00    -0.462 OA
BRANCH   9  10
ATOM     10  C   UNL     1     131.397 125.549 141.294  1.00  0.00     0.236 C 
BRANCH  10  11
ATOM     11  C   UNL     1     130.790 124.514 142.254  1.00  0.00     0.021 C 
ATOM     12  C   UNL     1     129.358 124.152 141.844  1.00  0.00     0.011 C 
ATOM     13  C   UNL     1     130.830 125.015 143.704  1.00  0.00     0.011 C 
ENDBRANCH  10  11
ENDBRANCH   9  10
ENDBRANCH   7   9
ENDBRANCH   1   7
BRANCH   6  14
ATOM     14  C   UNL     1     135.836 124.096 139.628  1.00  0.00     0.339 C 
ATOM     15  O   UNL     1     136.515 124.757 140.461  1.00  0.00    -0.246 OA
BRANCH  14  16
ATOM     16  O   UNL     1     135.806 122.697 139.692  1.00  0.00    -0.462 OA
BRANCH  16  17
ATOM     17  C   UNL     1     136.315 121.939 140.790  1.00  0.00     0.236 C 
BRANCH  17  18
ATOM     18  C   UNL     1     135.576 120.595 140.925  1.00  0.00     0.021 C 
ATOM     19  C   UNL     1     134.141 120.724 140.401  1.00  0.00     0.011 C 
ATOM     20  C   UNL     1     136.307 119.465 140.188  1.00  0.00     0.011 C 
ENDBRANCH  17  18
ENDBRANCH  16  17
ENDBRANCH  14  16
ENDBRANCH   6  14
TORSDOF 8
ENDMDL
MODEL 5
REMARK VINA RESULT:    -5.894      2.055      5.728
REMARK INTER + INTRA:          -9.938
REMARK INTER:                  -9.121
REMARK INTRA:                  -0.817
REMARK UNBOUND:                -1.288
REMARK SMILES CC(C)COC(=O)c1ccccc1C(=O)OCC(C)C
REMARK SMILES IDX 8 1 9 2 10 3 11 4 12 5 13 6 6 7 7 8 5 9 4 10 2 11 1 12 3 13
REMARK SMILES IDX 14 14 15 15 16 16 17 17 18 18 19 19 20 20
REMARK H PARENT
REMARK Flexibility Score: inf
ROOT
ATOM      1  C   UNL     1     133.630 123.121 139.980  1.00  0.00     0.074 A 
ATOM      2  C   UNL     1     133.067 121.874 140.306  1.00  0.00     0.016 A 
ATOM      3  C   UNL     1     133.837 120.712 140.270  1.00  0.00     0.001 A 
ATOM      4  C   UNL     1     135.181 120.775 139.908  1.00  0.00     0.001 A 
ATOM      5  C   UNL     1     135.755 121.998 139.559  1.00  0.00     0.016 A 
ATOM      6  C   UNL     1     134.991 123.180 139.566  1.00  0.00     0.074 A 
ENDROOT
BRANCH   1   7
ATOM      7  C   UNL     1     132.785 124.325 140.149  1.00  0.00     0.339 C 
ATOM      8  O   UNL     1     132.132 124.789 139.174  1.00  0.00    -0.246 OA
BRANCH   7   9
ATOM      9  O   UNL     1     132.763 124.980 141.384  1.00  0.00    -0.462 OA
BRANCH   9  10
ATOM     10  C   UNL     1     131.826 126.006 141.697  1.00  0.00     0.236 C 
BRANCH  10  11
ATOM     11  C   UNL     1     131.372 125.894 143.161  1.00  0.00     0.021 C 
ATOM     12  C   UNL     1     132.566 125.986 144.119  1.00  0.00     0.011 C 
ATOM     13  C   UNL     1     130.583 124.600 143.398  1.00  0.00     0.011 C 
ENDBRANCH  10  11
ENDBRANCH   9  10
ENDBRANCH   7   9
ENDBRANCH   1   7
BRANCH   6  14
ATOM     14  C   UNL     1     135.633 124.421 139.076  1.00  0.00     0.339 C 
ATOM     15  O   UNL     1     136.215 125.197 139.882  1.00  0.00    -0.246 OA
BRANCH  14  16
ATOM     16  O   UNL     1     135.532 124.756 137.719  1.00  0.00    -0.462 OA
BRANCH  16  17
ATOM     17  C   UNL     1     136.061 125.957 137.154  1.00  0.00     0.236 C 
BRANCH  17  18
ATOM     18  C   UNL     1     135.109 126.535 136.090  1.00  0.00     0.021 C 
ATOM     19  C   UNL     1     133.735 125.862 136.187  1.00  0.00     0.011 C 
ATOM     20  C   UNL     1     134.962 128.056 136.223  1.00  0.00     0.011 C 
ENDBRANCH  17  18
ENDBRANCH  16  17
ENDBRANCH  14  16
ENDBRANCH   6  14
TORSDOF 8
ENDMDL
MODEL 6
REMARK VINA RESULT:    -5.766      1.891      5.939
REMARK INTER + INTRA:          -9.751
REMARK INTER:                  -8.720
REMARK INTRA:                  -1.031
REMARK UNBOUND:                -1.288
REMARK SMILES CC(C)COC(=O)c1ccccc1C(=O)OCC(C)C
REMARK SMILES IDX 8 1 9 2 10 3 11 4 12 5 13 6 6 7 7 8 5 9 4 10 2 11 1 12 3 13
REMARK SMILES IDX 14 14 15 15 16 16 17 17 18 18 19 19 20 20
REMARK H PARENT
REMARK Flexibility Score: inf
ROOT
ATOM      1  C   UNL     1     133.697 123.081 139.992  1.00  0.00     0.074 A 
ATOM      2  C   UNL     1     133.105 121.844 140.306  1.00  0.00     0.016 A 
ATOM      3  C   UNL     1     133.838 120.661 140.225  1.00  0.00     0.001 A 
ATOM      4  C   UNL     1     135.173 120.692 139.828  1.00  0.00     0.001 A 
ATOM      5  C   UNL     1     135.775 121.905 139.490  1.00  0.00     0.016 A 
ATOM      6  C   UNL     1     135.048 123.108 139.543  1.00  0.00     0.074 A 
ENDROOT
BRANCH   1   7
ATOM      7  C   UNL     1     132.894 124.305 140.209  1.00  0.00     0.339 C 
ATOM      8  O   UNL     1     133.077 125.017 141.234  1.00  0.00    -0.246 OA
BRANCH   7   9
ATOM      9  O   UNL     1     131.887 124.635 139.296  1.00  0.00    -0.462 OA
BRANCH   9  10
ATOM     10  C   UNL     1     130.760 125.435 139.645  1.00  0.00     0.236 C 
BRANCH  10  11
ATOM     11  C   UNL     1     130.692 126.688 138.758  1.00  0.00     0.021 C 
ATOM     12  C   UNL     1     131.917 127.585 138.973  1.00  0.00     0.011 C 
ATOM     13  C   UNL     1     129.395 127.470 139.005  1.00  0.00     0.011 C 
ENDBRANCH  10  11
ENDBRANCH   9  10
ENDBRANCH   7   9
ENDBRANCH   1   7
BRANCH   6  14
ATOM     14  C   UNL     1     135.714 124.340 139.062  1.00  0.00     0.339 C 
ATOM     15  O   UNL     1     136.401 125.042 139.853  1.00  0.00    -0.246 OA
BRANCH  14  16
ATOM     16  O   UNL     1     135.522 124.752 137.737  1.00  0.00    -0.462 OA
BRANCH  16  17
ATOM     17  C   UNL     1     136.078 125.947 137.186  1.00  0.00     0.236 C 
BRANCH  17  18
ATOM     18  C   UNL     1     135.122 126.580 136.158  1.00  0.00     0.021 C 
ATOM     19  C   UNL     1     133.771 125.855 136.174  1.00  0.00     0.011 C 
ATOM     20  C   UNL     1     134.919 128.079 136.416  1.00  0.00     0.011 C 
ENDBRANCH  17  18
ENDBRANCH  16  17
ENDBRANCH  14  16
ENDBRANCH   6  14
TORSDOF 8
ENDMDL
MODEL 7
REMARK VINA RESULT:    -5.667      2.048      2.571
REMARK INTER + INTRA:          -9.605
REMARK INTER:                  -8.968
REMARK INTRA:                  -0.637
REMARK UNBOUND:                -1.288
REMARK SMILES CC(C)COC(=O)c1ccccc1C(=O)OCC(C)C
REMARK SMILES IDX 8 1 9 2 10 3 11 4 12 5 13 6 6 7 7 8 5 9 4 10 2 11 1 12 3 13
REMARK SMILES IDX 14 14 15 15 16 16 17 17 18 18 19 19 20 20
REMARK H PARENT
REMARK Flexibility Score: inf
ROOT
ATOM      1  C   UNL     1     135.024 122.373 140.261  1.00  0.00     0.074 A 
ATOM      2  C   UNL     1     136.419 122.495 140.396  1.00  0.00     0.016 A 
ATOM      3  C   UNL     1     137.009 123.740 140.612  1.00  0.00     0.001 A 
ATOM      4  C   UNL     1     136.218 124.883 140.696  1.00  0.00     0.001 A 
ATOM      5  C   UNL     1     134.834 124.789 140.542  1.00  0.00     0.016 A 
ATOM      6  C   UNL     1     134.219 123.547 140.300  1.00  0.00     0.074 A 
ENDROOT
BRANCH   1   7
ATOM      7  C   UNL     1     134.459 121.010 140.147  1.00  0.00     0.339 C 
ATOM      8  O   UNL     1     133.504 120.649 140.888  1.00  0.00    -0.246 OA
BRANCH   7   9
ATOM      9  O   UNL     1     135.032 120.103 139.250  1.00  0.00    -0.462 OA
BRANCH   9  10
ATOM     10  C   UNL     1     135.765 118.957 139.674  1.00  0.00     0.236 C 
BRANCH  10  11
ATOM     11  C   UNL     1     136.985 118.731 138.768  1.00  0.00     0.021 C 
ATOM     12  C   UNL     1     138.241 119.386 139.357  1.00  0.00     0.011 C 
ATOM     13  C   UNL     1     136.722 119.244 137.346  1.00  0.00     0.011 C 
ENDBRANCH  10  11
ENDBRANCH   9  10
ENDBRANCH   7   9
ENDBRANCH   1   7
BRANCH   6  14
ATOM     14  C   UNL     1     132.763 123.536 140.034  1.00  0.00     0.339 C 
ATOM     15  O   UNL     1     132.330 123.255 138.883  1.00  0.00    -0.246 OA
BRANCH  14  16
ATOM     16  O   UNL     1     131.875 123.903 141.053  1.00  0.00    -0.462 OA
BRANCH  16  17
ATOM     17  C   UNL     1     130.581 124.460 140.820  1.00  0.00     0.236 C 
BRANCH  17  18
ATOM     18  C   UNL     1     129.727 124.434 142.101  1.00  0.00     0.021 C 
ATOM     19  C   UNL     1     130.629 124.482 143.340  1.00  0.00     0.011 C 
ATOM     20  C   UNL     1     128.718 125.590 142.138  1.00  0.00     0.011 C 
ENDBRANCH  17  18
ENDBRANCH  16  17
ENDBRANCH  14  16
ENDBRANCH   6  14
TORSDOF 8
ENDMDL
MODEL 8
REMARK VINA RESULT:    -5.554      1.907      4.378
REMARK INTER + INTRA:          -9.439
REMARK INTER:                  -8.385
REMARK INTRA:                  -1.054
REMARK UNBOUND:                -1.288
REMARK SMILES CC(C)COC(=O)c1ccccc1C(=O)OCC(C)C
REMARK SMILES IDX 8 1 9 2 10 3 11 4 12 5 13 6 6 7 7 8 5 9 4 10 2 11 1 12 3 13
REMARK SMILES IDX 14 14 15 15 16 16 17 17 18 18 19 19 20 20
REMARK H PARENT
REMARK Flexibility Score: inf
ROOT
ATOM      1  C   UNL     1     134.482 123.771 139.852  1.00  0.00     0.074 A 
ATOM      2  C   UNL     1     135.632 122.967 139.758  1.00  0.00     0.016 A 
ATOM      3  C   UNL     1     135.548 121.582 139.898  1.00  0.00     0.001 A 
ATOM      4  C   UNL     1     134.316 120.978 140.136  1.00  0.00     0.001 A 
ATOM      5  C   UNL     1     133.165 121.758 140.255  1.00  0.00     0.016 A 
ATOM      6  C   UNL     1     133.230 123.159 140.140  1.00  0.00     0.074 A 
ENDROOT
BRANCH   1   7
ATOM      7  C   UNL     1     134.629 125.219 139.581  1.00  0.00     0.339 C 
ATOM      8  O   UNL     1     134.537 126.058 140.519  1.00  0.00    -0.246 OA
BRANCH   7   9
ATOM      9  O   UNL     1     134.812 125.655 138.265  1.00  0.00    -0.462 OA
BRANCH   9  10
ATOM     10  C   UNL     1     133.861 125.413 137.232  1.00  0.00     0.236 C 
BRANCH  10  11
ATOM     11  C   UNL     1     134.022 126.437 136.098  1.00  0.00     0.021 C 
ATOM     12  C   UNL     1     135.498 126.788 135.875  1.00  0.00     0.011 C 
ATOM     13  C   UNL     1     133.198 127.701 136.373  1.00  0.00     0.011 C 
ENDBRANCH  10  11
ENDBRANCH   9  10
ENDBRANCH   7   9
ENDBRANCH   1   7
BRANCH   6  14
ATOM     14  C   UNL     1     131.992 123.931 140.391  1.00  0.00     0.339 C 
ATOM     15  O   UNL     1     131.533 124.035 141.561  1.00  0.00    -0.246 OA
BRANCH  14  16
ATOM     16  O   UNL     1     131.301 124.492 139.309  1.00  0.00    -0.462 OA
BRANCH  16  17
ATOM     17  C   UNL     1     130.256 125.456 139.445  1.00  0.00     0.236 C 
BRANCH  17  18
ATOM     18  C   UNL     1     130.802 126.889 139.308  1.00  0.00     0.021 C 
ATOM     19  C   UNL     1     129.737 127.806 138.695  1.00  0.00     0.011 C 
ATOM     20  C   UNL     1     131.269 127.452 140.657  1.00  0.00     0.011 C 
ENDBRANCH  17  18
ENDBRANCH  16  17
ENDBRANCH  14  16
ENDBRANCH   6  14
TORSDOF 8
ENDMDL
MODEL 9
REMARK VINA RESULT:    -5.532      9.378     11.462
REMARK INTER + INTRA:          -9.407
REMARK INTER:                  -7.829
REMARK INTRA:                  -1.578
REMARK UNBOUND:                -1.288
REMARK SMILES CC(C)COC(=O)c1ccccc1C(=O)OCC(C)C
REMARK SMILES IDX 8 1 9 2 10 3 11 4 12 5 13 6 6 7 7 8 5 9 4 10 2 11 1 12 3 13
REMARK SMILES IDX 14 14 15 15 16 16 17 17 18 18 19 19 20 20
REMARK H PARENT
REMARK Flexibility Score: inf
ROOT
ATOM      1  C   UNL     1     130.317 133.949 139.785  1.00  0.00     0.074 A 
ATOM      2  C   UNL     1     129.909 135.024 140.595  1.00  0.00     0.016 A 
ATOM      3  C   UNL     1     128.992 135.964 140.126  1.00  0.00     0.001 A 
ATOM      4  C   UNL     1     128.469 135.848 138.840  1.00  0.00     0.001 A 
ATOM      5  C   UNL     1     128.876 134.802 138.011  1.00  0.00     0.016 A 
ATOM      6  C   UNL     1     129.816 133.855 138.455  1.00  0.00     0.074 A 
ENDROOT
BRANCH   1   7
ATOM      7  C   UNL     1     131.204 132.929 140.388  1.00  0.00     0.339 C 
ATOM      8  O   UNL     1     132.421 133.184 140.599  1.00  0.00    -0.246 OA
BRANCH   7   9
ATOM      9  O   UNL     1     130.696 131.656 140.665  1.00  0.00    -0.462 OA
BRANCH   9  10
ATOM     10  C   UNL     1     129.592 131.439 141.539  1.00  0.00     0.236 C 
BRANCH  10  11
ATOM     11  C   UNL     1     128.363 130.963 140.749  1.00  0.00     0.021 C 
ATOM     12  C   UNL     1     127.228 131.992 140.817  1.00  0.00     0.011 C 
ATOM     13  C   UNL     1     127.884 129.593 141.245  1.00  0.00     0.011 C 
ENDBRANCH  10  11
ENDBRANCH   9  10
ENDBRANCH   7   9
ENDBRANCH   1   7
BRANCH   6  14
ATOM     14  C   UNL     1     130.288 132.841 137.485  1.00  0.00     0.339 C 
ATOM     15  O   UNL     1     129.532 131.892 137.139  1.00  0.00    -0.246 OA
BRANCH  14  16
ATOM     16  O   UNL     1     131.602 132.909 137.005  1.00  0.00    -0.462 OA
BRANCH  16  17
ATOM     17  C   UNL     1     132.039 133.835 136.009  1.00  0.00     0.236 C 
BRANCH  17  18
ATOM     18  C   UNL     1     133.407 134.439 136.376  1.00  0.00     0.021 C 
ATOM     19  C   UNL     1     133.357 135.050 137.782  1.00  0.00     0.011 C 
ATOM     20  C   UNL     1     134.531 133.398 136.294  1.00  0.00     0.011 C 
ENDBRANCH  17  18
ENDBRANCH  16  17
ENDBRANCH  14  16
ENDBRANCH   6  14
TORSDOF 8
ENDMDL
