MODEL 1
REMARK VINA RESULT:    -2.910      0.000      0.000
REMARK INTER + INTRA:          -3.165
REMARK INTER:                  -3.165
REMARK INTRA:                   0.000
REMARK UNBOUND:                 0.000
REMARK SMILES [NH3+]CC(=O)[O-]
REMARK SMILES IDX 2 1 1 2 3 6 4 7 5 8
REMARK H PARENT 1 3 1 4 1 5
REMARK Flexibility Score: inf
ROOT
ATOM      1  C   UNL     1     128.399 134.331 146.680  1.00  0.00     0.312 C 
ENDROOT
BRANCH   1   2
ATOM      2  N   UNL     1     127.267 133.671 146.034  1.00  0.00    -0.353 N 
ATOM      3  H   UNL     1     126.467 133.593 146.705  1.00  0.00     0.344 HD
ATOM      4  H   UNL     1     127.554 132.711 145.737  1.00  0.00     0.344 HD
ATOM      5  H   UNL     1     126.968 134.213 145.190  1.00  0.00     0.344 HD
ENDBRANCH   1   2
BRANCH   1   6
ATOM      6  C   UNL     1     128.394 135.799 146.382  1.00  0.00     0.096 C 
ATOM      7  O   UNL     1     128.181 136.632 147.302  1.00  0.00    -0.544 OA
ATOM      8  O   UNL     1     128.675 136.249 145.097  1.00  0.00    -0.544 OA
ENDBRANCH   1   6
TORSDOF 2
ENDMDL
MODEL 2
REMARK VINA RESULT:    -2.725      2.527      2.983
REMARK INTER + INTRA:          -2.964
REMARK INTER:                  -2.964
REMARK INTRA:                   0.000
REMARK UNBOUND:                 0.000
REMARK SMILES [NH3+]CC(=O)[O-]
REMARK SMILES IDX 2 1 1 2 3 6 4 7 5 8
REMARK H PARENT 1 3 1 4 1 5
REMARK Flexibility Score: inf
ROOT
ATOM      1  C   UNL     1     128.142 135.868 146.859  1.00  0.00     0.312 C 
ENDROOT
BRANCH   1   2
ATOM      2  N   UNL     1     128.130 136.561 148.145  1.00  0.00    -0.353 N 
ATOM      3  H   UNL     1     127.157 136.870 148.378  1.00  0.00     0.344 HD
ATOM      4  H   UNL     1     128.748 137.402 148.087  1.00  0.00     0.344 HD
ATOM      5  H   UNL     1     128.489 135.928 148.898  1.00  0.00     0.344 HD
ENDBRANCH   1   2
BRANCH   1   6
ATOM      6  C   UNL     1     128.181 134.384 147.059  1.00  0.00     0.096 C 
ATOM      7  O   UNL     1     127.723 133.614 146.175  1.00  0.00    -0.544 OA
ATOM      8  O   UNL     1     128.771 133.852 148.199  1.00  0.00    -0.544 OA
ENDBRANCH   1   6
TORSDOF 2
ENDMDL
MODEL 3
REMARK VINA RESULT:    -2.712      2.233      2.389
REMARK INTER + INTRA:          -2.950
REMARK INTER:                  -2.950
REMARK INTRA:                   0.000
REMARK UNBOUND:                 0.000
REMARK SMILES [NH3+]CC(=O)[O-]
REMARK SMILES IDX 2 1 1 2 3 6 4 7 5 8
REMARK H PARENT 1 3 1 4 1 5
REMARK Flexibility Score: inf
ROOT
ATOM      1  C   UNL     1     127.819 135.883 147.573  1.00  0.00     0.312 C 
ENDROOT
BRANCH   1   2
ATOM      2  N   UNL     1     128.303 137.215 147.927  1.00  0.00    -0.353 N 
ATOM      3  H   UNL     1     128.064 137.898 147.170  1.00  0.00     0.344 HD
ATOM      4  H   UNL     1     129.342 137.184 148.038  1.00  0.00     0.344 HD
ATOM      5  H   UNL     1     127.875 137.525 148.830  1.00  0.00     0.344 HD
ENDBRANCH   1   2
BRANCH   1   6
ATOM      6  C   UNL     1     128.513 135.378 146.345  1.00  0.00     0.096 C 
ATOM      7  O   UNL     1     128.903 134.183 146.285  1.00  0.00    -0.544 OA
ATOM      8  O   UNL     1     128.684 136.215 145.249  1.00  0.00    -0.544 OA
ENDBRANCH   1   6
TORSDOF 2
ENDMDL
MODEL 4
REMARK VINA RESULT:    -2.584      6.912      7.115
REMARK INTER + INTRA:          -2.810
REMARK INTER:                  -2.810
REMARK INTRA:                   0.000
REMARK UNBOUND:                 0.000
REMARK SMILES [NH3+]CC(=O)[O-]
REMARK SMILES IDX 2 1 1 2 3 6 4 7 5 8
REMARK H PARENT 1 3 1 4 1 5
REMARK Flexibility Score: inf
ROOT
ATOM      1  C   UNL     1     123.623 130.912 143.044  1.00  0.00     0.312 C 
ENDROOT
BRANCH   1   2
ATOM      2  N   UNL     1     123.726 129.478 143.306  1.00  0.00    -0.353 N 
ATOM      3  H   UNL     1     123.430 128.937 142.460  1.00  0.00     0.344 HD
ATOM      4  H   UNL     1     123.098 129.230 144.104  1.00  0.00     0.344 HD
ATOM      5  H   UNL     1     124.710 129.228 143.559  1.00  0.00     0.344 HD
ENDBRANCH   1   2
BRANCH   1   6
ATOM      6  C   UNL     1     122.981 131.615 144.200  1.00  0.00     0.096 C 
ATOM      7  O   UNL     1     121.728 131.719 144.262  1.00  0.00    -0.544 OA
ATOM      8  O   UNL     1     123.765 132.112 145.234  1.00  0.00    -0.544 OA
ENDBRANCH   1   6
TORSDOF 2
ENDMDL
MODEL 5
REMARK VINA RESULT:    -2.580     13.414     13.907
REMARK INTER + INTRA:          -2.806
REMARK INTER:                  -2.806
REMARK INTRA:                   0.000
REMARK UNBOUND:                 0.000
REMARK SMILES [NH3+]CC(=O)[O-]
REMARK SMILES IDX 2 1 1 2 3 6 4 7 5 8
REMARK H PARENT 1 3 1 4 1 5
REMARK Flexibility Score: inf
ROOT
ATOM      1  C   UNL     1     122.095 125.127 154.931  1.00  0.00     0.312 C 
ENDROOT
BRANCH   1   2
ATOM      2  N   UNL     1     121.210 125.811 153.990  1.00  0.00    -0.353 N 
ATOM      3  H   UNL     1     121.727 126.583 153.509  1.00  0.00     0.344 HD
ATOM      4  H   UNL     1     120.403 126.219 154.514  1.00  0.00     0.344 HD
ATOM      5  H   UNL     1     120.847 125.133 153.281  1.00  0.00     0.344 HD
ENDBRANCH   1   2
BRANCH   1   6
ATOM      6  C   UNL     1     123.349 125.917 155.147  1.00  0.00     0.096 C 
ATOM      7  O   UNL     1     124.349 125.382 155.692  1.00  0.00    -0.544 OA
ATOM      8  O   UNL     1     123.429 127.230 154.700  1.00  0.00    -0.544 OA
ENDBRANCH   1   6
TORSDOF 2
ENDMDL
MODEL 6
REMARK VINA RESULT:    -2.571      9.334      9.550
REMARK INTER + INTRA:          -2.797
REMARK INTER:                  -2.797
REMARK INTRA:                   0.000
REMARK UNBOUND:                 0.000
REMARK SMILES [NH3+]CC(=O)[O-]
REMARK SMILES IDX 2 1 1 2 3 6 4 7 5 8
REMARK H PARENT 1 3 1 4 1 5
REMARK Flexibility Score: inf
ROOT
ATOM      1  C   UNL     1     123.062 127.279 148.173  1.00  0.00     0.312 C 
ENDROOT
BRANCH   1   2
ATOM      2  N   UNL     1     122.098 126.201 148.377  1.00  0.00    -0.353 N 
ATOM      3  H   UNL     1     121.292 126.311 147.718  1.00  0.00     0.344 HD
ATOM      4  H   UNL     1     121.740 126.243 149.359  1.00  0.00     0.344 HD
ATOM      5  H   UNL     1     122.557 125.274 148.223  1.00  0.00     0.344 HD
ENDBRANCH   1   2
BRANCH   1   6
ATOM      6  C   UNL     1     122.597 128.207 147.094  1.00  0.00     0.096 C 
ATOM      7  O   UNL     1     121.393 128.570 147.046  1.00  0.00    -0.544 OA
ATOM      8  O   UNL     1     123.505 128.710 146.170  1.00  0.00    -0.544 OA
ENDBRANCH   1   6
TORSDOF 2
ENDMDL
MODEL 7
REMARK VINA RESULT:    -2.522      9.177      9.517
REMARK INTER + INTRA:          -2.743
REMARK INTER:                  -2.743
REMARK INTRA:                   0.000
REMARK UNBOUND:                 0.000
REMARK SMILES [NH3+]CC(=O)[O-]
REMARK SMILES IDX 2 1 1 2 3 6 4 7 5 8
REMARK H PARENT 1 3 1 4 1 5
REMARK Flexibility Score: inf
ROOT
ATOM      1  C   UNL     1     122.157 127.375 147.626  1.00  0.00     0.312 C 
ENDROOT
BRANCH   1   2
ATOM      2  N   UNL     1     121.981 126.138 148.384  1.00  0.00    -0.353 N 
ATOM      3  H   UNL     1     121.187 125.585 147.986  1.00  0.00     0.344 HD
ATOM      4  H   UNL     1     121.766 126.374 149.379  1.00  0.00     0.344 HD
ATOM      5  H   UNL     1     122.859 125.569 148.352  1.00  0.00     0.344 HD
ENDBRANCH   1   2
BRANCH   1   6
ATOM      6  C   UNL     1     123.371 128.115 148.099  1.00  0.00     0.096 C 
ATOM      7  O   UNL     1     124.459 128.010 147.475  1.00  0.00    -0.544 OA
ATOM      8  O   UNL     1     123.286 128.960 149.198  1.00  0.00    -0.544 OA
ENDBRANCH   1   6
TORSDOF 2
ENDMDL
MODEL 8
REMARK VINA RESULT:    -2.480      7.967      8.165
REMARK INTER + INTRA:          -2.698
REMARK INTER:                  -2.698
REMARK INTRA:                   0.000
REMARK UNBOUND:                 0.000
REMARK SMILES [NH3+]CC(=O)[O-]
REMARK SMILES IDX 2 1 1 2 3 6 4 7 5 8
REMARK H PARENT 1 3 1 4 1 5
REMARK Flexibility Score: inf
ROOT
ATOM      1  C   UNL     1     123.312 130.355 144.560  1.00  0.00     0.312 C 
ENDROOT
BRANCH   1   2
ATOM      2  N   UNL     1     123.848 129.398 143.596  1.00  0.00    -0.353 N 
ATOM      3  H   UNL     1     123.066 128.875 143.136  1.00  0.00     0.344 HD
ATOM      4  H   UNL     1     124.463 128.716 144.096  1.00  0.00     0.344 HD
ATOM      5  H   UNL     1     124.414 129.896 142.871  1.00  0.00     0.344 HD
ENDBRANCH   1   2
BRANCH   1   6
ATOM      6  C   UNL     1     122.659 129.643 145.704  1.00  0.00     0.096 C 
ATOM      7  O   UNL     1     121.417 129.742 145.887  1.00  0.00    -0.544 OA
ATOM      8  O   UNL     1     123.414 128.829 146.539  1.00  0.00    -0.544 OA
ENDBRANCH   1   6
TORSDOF 2
ENDMDL
MODEL 9
REMARK VINA RESULT:    -2.424     13.306     13.562
REMARK INTER + INTRA:          -2.637
REMARK INTER:                  -2.637
REMARK INTRA:                   0.000
REMARK UNBOUND:                 0.000
REMARK SMILES [NH3+]CC(=O)[O-]
REMARK SMILES IDX 2 1 1 2 3 6 4 7 5 8
REMARK H PARENT 1 3 1 4 1 5
REMARK Flexibility Score: inf
ROOT
ATOM      1  C   UNL     1     123.549 127.925 155.285  1.00  0.00     0.312 C 
ENDROOT
BRANCH   1   2
ATOM      2  N   UNL     1     124.657 128.372 156.125  1.00  0.00    -0.353 N 
ATOM      3  H   UNL     1     124.968 129.328 155.831  1.00  0.00     0.344 HD
ATOM      4  H   UNL     1     125.458 127.709 156.018  1.00  0.00     0.344 HD
ATOM      5  H   UNL     1     124.364 128.390 157.129  1.00  0.00     0.344 HD
ENDBRANCH   1   2
BRANCH   1   6
ATOM      6  C   UNL     1     123.404 126.436 155.351  1.00  0.00     0.096 C 
ATOM      7  O   UNL     1     124.183 125.754 156.067  1.00  0.00    -0.544 OA
ATOM      8  O   UNL     1     122.376 125.806 154.659  1.00  0.00    -0.544 OA
ENDBRANCH   1   6
TORSDOF 2
ENDMDL
