MODEL 1
REMARK VINA RESULT:    -4.537      0.000      0.000
REMARK INTER + INTRA:          -5.277
REMARK INTER:                  -5.068
REMARK INTRA:                  -0.210
REMARK UNBOUND:                -0.210
REMARK SMILES CC=C(C)C=CC=C(C)C
REMARK SMILES IDX 5 1 6 2 3 3 1 4 2 5 4 6 7 7 8 8 9 9 10 10
REMARK H PARENT
REMARK Flexibility Score: inf
ROOT
ATOM      1  C   UNL     1       4.288  -1.689  14.699  1.00  0.00     0.003 C 
ATOM      2  C   UNL     1       5.052  -2.263  15.637  1.00  0.00     0.000 C 
ENDROOT
BRANCH   1   3
ATOM      3  C   UNL     1       2.804  -1.725  14.718  1.00  0.00    -0.055 C 
ATOM      4  C   UNL     1       0.667  -0.705  15.567  1.00  0.00     0.036 C 
ATOM      5  C   UNL     1       2.157  -0.765  15.408  1.00  0.00    -0.027 C 
ATOM      6  C   UNL     1       2.056  -2.850  14.036  1.00  0.00     0.044 C 
ENDBRANCH   1   3
BRANCH   2   7
ATOM      7  C   UNL     1       6.527  -2.183  15.561  1.00  0.00    -0.001 C 
ATOM      8  C   UNL     1       7.342  -2.321  16.624  1.00  0.00    -0.076 C 
ATOM      9  C   UNL     1       8.828  -2.217  16.409  1.00  0.00     0.039 C 
ATOM     10  C   UNL     1       6.809  -2.575  18.011  1.00  0.00     0.039 C 
ENDBRANCH   2   7
TORSDOF 2
ENDMDL
MODEL 2
REMARK VINA RESULT:    -4.476      2.927      4.016
REMARK INTER + INTRA:          -5.209
REMARK INTER:                  -4.954
REMARK INTRA:                  -0.255
REMARK UNBOUND:                -0.210
REMARK SMILES CC=C(C)C=CC=C(C)C
REMARK SMILES IDX 5 1 6 2 3 3 1 4 2 5 4 6 7 7 8 8 9 9 10 10
REMARK H PARENT
REMARK Flexibility Score: inf
ROOT
ATOM      1  C   UNL     1       5.120  -3.924  18.967  1.00  0.00     0.003 C 
ATOM      2  C   UNL     1       5.468  -2.935  18.133  1.00  0.00     0.000 C 
ENDROOT
BRANCH   1   3
ATOM      3  C   UNL     1       3.712  -4.328  19.213  1.00  0.00    -0.055 C 
ATOM      4  C   UNL     1       1.353  -4.438  18.348  1.00  0.00     0.036 C 
ATOM      5  C   UNL     1       2.816  -4.135  18.225  1.00  0.00    -0.027 C 
ATOM      6  C   UNL     1       3.297  -4.875  20.562  1.00  0.00     0.044 C 
ENDBRANCH   1   3
BRANCH   2   7
ATOM      7  C   UNL     1       6.891  -2.589  17.928  1.00  0.00    -0.001 C 
ATOM      8  C   UNL     1       7.423  -2.277  16.730  1.00  0.00    -0.076 C 
ATOM      9  C   UNL     1       8.888  -1.943  16.659  1.00  0.00     0.039 C 
ATOM     10  C   UNL     1       6.594  -2.252  15.471  1.00  0.00     0.039 C 
ENDBRANCH   2   7
TORSDOF 2
ENDMDL
MODEL 3
REMARK VINA RESULT:    -4.377      2.051      5.672
REMARK INTER + INTRA:          -5.098
REMARK INTER:                  -4.904
REMARK INTRA:                  -0.194
REMARK UNBOUND:                -0.210
REMARK SMILES CC=C(C)C=CC=C(C)C
REMARK SMILES IDX 5 1 6 2 3 3 1 4 2 5 4 6 7 7 8 8 9 9 10 10
REMARK H PARENT
REMARK Flexibility Score: inf
ROOT
ATOM      1  C   UNL     1       5.253  -2.547  17.569  1.00  0.00     0.003 C 
ATOM      2  C   UNL     1       4.001  -2.294  17.166  1.00  0.00     0.000 C 
ENDROOT
BRANCH   1   3
ATOM      3  C   UNL     1       6.448  -2.319  16.717  1.00  0.00    -0.055 C 
ATOM      4  C   UNL     1       8.927  -1.912  16.604  1.00  0.00     0.036 C 
ATOM      5  C   UNL     1       7.645  -2.202  17.325  1.00  0.00    -0.027 C 
ATOM      6  C   UNL     1       6.302  -2.157  15.220  1.00  0.00     0.044 C 
ENDBRANCH   1   3
BRANCH   2   7
ATOM      7  C   UNL     1       2.855  -2.538  18.069  1.00  0.00    -0.001 C 
ATOM      8  C   UNL     1       1.577  -2.255  17.752  1.00  0.00    -0.076 C 
ATOM      9  C   UNL     1       0.503  -2.552  18.764  1.00  0.00     0.039 C 
ATOM     10  C   UNL     1       1.197  -1.655  16.422  1.00  0.00     0.039 C 
ENDBRANCH   2   7
TORSDOF 2
ENDMDL
MODEL 4
REMARK VINA RESULT:    -4.373      2.507      3.054
REMARK INTER + INTRA:          -5.093
REMARK INTER:                  -4.860
REMARK INTRA:                  -0.233
REMARK UNBOUND:                -0.210
REMARK SMILES CC=C(C)C=CC=C(C)C
REMARK SMILES IDX 5 1 6 2 3 3 1 4 2 5 4 6 7 7 8 8 9 9 10 10
REMARK H PARENT
REMARK Flexibility Score: inf
ROOT
ATOM      1  C   UNL     1       4.298  -2.190  17.927  1.00  0.00     0.003 C 
ATOM      2  C   UNL     1       5.381  -2.975  17.987  1.00  0.00     0.000 C 
ENDROOT
BRANCH   1   3
ATOM      3  C   UNL     1       2.912  -2.714  17.831  1.00  0.00    -0.055 C 
ATOM      4  C   UNL     1       1.285  -4.536  18.431  1.00  0.00     0.036 C 
ATOM      5  C   UNL     1       2.621  -3.857  18.483  1.00  0.00    -0.027 C 
ATOM      6  C   UNL     1       1.886  -2.011  16.969  1.00  0.00     0.044 C 
ENDBRANCH   1   3
BRANCH   2   7
ATOM      7  C   UNL     1       6.734  -2.387  18.090  1.00  0.00    -0.001 C 
ATOM      8  C   UNL     1       7.490  -2.055  17.026  1.00  0.00    -0.076 C 
ATOM      9  C   UNL     1       8.852  -1.463  17.268  1.00  0.00     0.039 C 
ATOM     10  C   UNL     1       7.011  -2.258  15.610  1.00  0.00     0.039 C 
ENDBRANCH   2   7
TORSDOF 2
ENDMDL
MODEL 5
REMARK VINA RESULT:    -4.336      1.516      5.713
REMARK INTER + INTRA:          -5.052
REMARK INTER:                  -4.760
REMARK INTRA:                  -0.292
REMARK UNBOUND:                -0.210
REMARK SMILES CC=C(C)C=CC=C(C)C
REMARK SMILES IDX 5 1 6 2 3 3 1 4 2 5 4 6 7 7 8 8 9 9 10 10
REMARK H PARENT
REMARK Flexibility Score: inf
ROOT
ATOM      1  C   UNL     1       4.265  -2.106  17.899  1.00  0.00     0.003 C 
ATOM      2  C   UNL     1       3.539  -2.511  16.849  1.00  0.00     0.000 C 
ENDROOT
BRANCH   1   3
ATOM      3  C   UNL     1       5.683  -2.494  18.110  1.00  0.00    -0.055 C 
ATOM      4  C   UNL     1       7.959  -2.851  17.101  1.00  0.00     0.036 C 
ATOM      5  C   UNL     1       6.519  -2.436  17.055  1.00  0.00    -0.027 C 
ATOM      6  C   UNL     1       6.146  -3.001  19.459  1.00  0.00     0.044 C 
ENDBRANCH   1   3
BRANCH   2   7
ATOM      7  C   UNL     1       2.132  -2.081  16.696  1.00  0.00    -0.001 C 
ATOM      8  C   UNL     1       1.731  -1.113  15.849  1.00  0.00    -0.076 C 
ATOM      9  C   UNL     1       0.267  -0.771  15.790  1.00  0.00     0.039 C 
ATOM     10  C   UNL     1       2.703  -0.371  14.967  1.00  0.00     0.039 C 
ENDBRANCH   2   7
TORSDOF 2
ENDMDL
MODEL 6
REMARK VINA RESULT:    -4.317      8.624     12.155
REMARK INTER + INTRA:          -5.031
REMARK INTER:                  -4.816
REMARK INTRA:                  -0.215
REMARK UNBOUND:                -0.210
REMARK SMILES CC=C(C)C=CC=C(C)C
REMARK SMILES IDX 5 1 6 2 3 3 1 4 2 5 4 6 7 7 8 8 9 9 10 10
REMARK H PARENT
REMARK Flexibility Score: inf
ROOT
ATOM      1  C   UNL     1      10.419   0.757  25.515  1.00  0.00     0.003 C 
ATOM      2  C   UNL     1       9.847   1.130  24.362  1.00  0.00     0.000 C 
ENDROOT
BRANCH   1   3
ATOM      3  C   UNL     1      11.847   0.366  25.631  1.00  0.00    -0.055 C 
ATOM      4  C   UNL     1      13.721  -1.095  24.807  1.00  0.00     0.036 C 
ATOM      5  C   UNL     1      12.321  -0.559  24.773  1.00  0.00    -0.027 C 
ATOM      6  C   UNL     1      12.713   0.947  26.727  1.00  0.00     0.044 C 
ENDBRANCH   1   3
BRANCH   2   7
ATOM      7  C   UNL     1       8.420   1.514  24.319  1.00  0.00    -0.001 C 
ATOM      8  C   UNL     1       7.766   1.846  23.189  1.00  0.00    -0.076 C 
ATOM      9  C   UNL     1       6.311   2.218  23.283  1.00  0.00     0.039 C 
ATOM     10  C   UNL     1       8.448   1.853  21.844  1.00  0.00     0.039 C 
ENDBRANCH   2   7
TORSDOF 2
ENDMDL
MODEL 7
REMARK VINA RESULT:    -4.215      1.336      5.517
REMARK INTER + INTRA:          -4.918
REMARK INTER:                  -4.633
REMARK INTRA:                  -0.284
REMARK UNBOUND:                -0.210
REMARK SMILES CC=C(C)C=CC=C(C)C
REMARK SMILES IDX 5 1 6 2 3 3 1 4 2 5 4 6 7 7 8 8 9 9 10 10
REMARK H PARENT
REMARK Flexibility Score: inf
ROOT
ATOM      1  C   UNL     1       3.932  -1.984  15.420  1.00  0.00     0.003 C 
ATOM      2  C   UNL     1       3.140  -0.959  15.759  1.00  0.00     0.000 C 
ENDROOT
BRANCH   1   3
ATOM      3  C   UNL     1       5.227  -2.274  16.089  1.00  0.00    -0.055 C 
ATOM      4  C   UNL     1       6.441  -2.787  18.231  1.00  0.00     0.036 C 
ATOM      5  C   UNL     1       5.211  -2.535  17.411  1.00  0.00    -0.027 C 
ATOM      6  C   UNL     1       6.523  -2.207  15.311  1.00  0.00     0.044 C 
ENDBRANCH   1   3
BRANCH   2   7
ATOM      7  C   UNL     1       1.859  -0.733  15.056  1.00  0.00    -0.001 C 
ATOM      8  C   UNL     1       0.652  -1.002  15.589  1.00  0.00    -0.076 C 
ATOM      9  C   UNL     1      -0.576  -0.724  14.766  1.00  0.00     0.039 C 
ATOM     10  C   UNL     1       0.501  -1.570  16.978  1.00  0.00     0.039 C 
ENDBRANCH   2   7
TORSDOF 2
ENDMDL
MODEL 8
REMARK VINA RESULT:    -4.096      4.519      7.293
REMARK INTER + INTRA:          -4.785
REMARK INTER:                  -4.550
REMARK INTRA:                  -0.235
REMARK UNBOUND:                -0.210
REMARK SMILES CC=C(C)C=CC=C(C)C
REMARK SMILES IDX 5 1 6 2 3 3 1 4 2 5 4 6 7 7 8 8 9 9 10 10
REMARK H PARENT
REMARK Flexibility Score: inf
ROOT
ATOM      1  C   UNL     1      -1.482  -4.171  12.611  1.00  0.00     0.003 C 
ATOM      2  C   UNL     1      -0.545  -3.221  12.725  1.00  0.00     0.000 C 
ENDROOT
BRANCH   1   3
ATOM      3  C   UNL     1      -1.297  -5.412  11.815  1.00  0.00    -0.055 C 
ATOM      4  C   UNL     1      -2.097  -6.855   9.917  1.00  0.00     0.036 C 
ATOM      5  C   UNL     1      -2.125  -5.624  10.774  1.00  0.00    -0.027 C 
ATOM      6  C   UNL     1      -0.250  -6.428  12.214  1.00  0.00     0.044 C 
ENDBRANCH   1   3
BRANCH   2   7
ATOM      7  C   UNL     1      -0.793  -2.012  13.541  1.00  0.00    -0.001 C 
ATOM      8  C   UNL     1      -0.006  -1.622  14.561  1.00  0.00    -0.076 C 
ATOM      9  C   UNL     1      -0.372  -0.370  15.312  1.00  0.00     0.039 C 
ATOM     10  C   UNL     1       1.220  -2.399  14.967  1.00  0.00     0.039 C 
ENDBRANCH   2   7
TORSDOF 2
ENDMDL
