MODEL 1
REMARK VINA RESULT:    -3.999      0.000      0.000
REMARK INTER + INTRA:         -12.006
REMARK INTER:                  -9.143
REMARK INTRA:                  -2.864
REMARK UNBOUND:                -2.864
REMARK SMILES CCCCCCCCCCCCCCCCCCCCCCCC(=O)[O-]
REMARK SMILES IDX 13 1 14 2 15 3 16 4 17 5 18 6 19 7 20 8 21 9 22 10 23 11
REMARK SMILES IDX 24 12 25 13 26 14 12 15 11 16 10 17 9 18 8 19 7 20 6 21 5 22
REMARK SMILES IDX 4 23 3 24 2 25 1 26
REMARK H PARENT
REMARK Flexibility Score: inf
ROOT
ATOM      1  C   UNL     1       1.427  -8.270   4.334  1.00  0.00     0.000 C 
ENDROOT
BRANCH   1   2
ATOM      2  C   UNL     1       1.869  -9.639   3.789  1.00  0.00     0.000 C 
BRANCH   2   3
ATOM      3  C   UNL     1       3.381  -9.703   3.517  1.00  0.00     0.000 C 
BRANCH   3   4
ATOM      4  C   UNL     1       4.130  -8.465   4.037  1.00  0.00     0.000 C 
BRANCH   4   5
ATOM      5  C   UNL     1       5.580  -8.390   3.526  1.00  0.00     0.000 C 
BRANCH   5   6
ATOM      6  C   UNL     1       6.382  -7.261   4.193  1.00  0.00     0.000 C 
BRANCH   6   7
ATOM      7  C   UNL     1       7.057  -6.331   3.174  1.00  0.00     0.000 C 
BRANCH   7   8
ATOM      8  C   UNL     1       7.443  -4.992   3.822  1.00  0.00     0.000 C 
BRANCH   8   9
ATOM      9  C   UNL     1       6.750  -4.783   5.185  1.00  0.00     0.000 C 
BRANCH   9  10
ATOM     10  C   UNL     1       5.379  -4.092   5.079  1.00  0.00     0.006 C 
BRANCH  10  11
ATOM     11  C   UNL     1       5.353  -2.711   5.744  1.00  0.00     0.053 C 
BRANCH  11  12
ATOM     12  C   UNL     1       5.239  -1.636   4.709  1.00  0.00     0.041 C 
ATOM     13  O   UNL     1       4.224  -1.577   3.966  1.00  0.00    -0.550 OA
ATOM     14  O   UNL     1       6.230  -0.669   4.599  1.00  0.00    -0.550 OA
ENDBRANCH  11  12
ENDBRANCH  10  11
ENDBRANCH   9  10
ENDBRANCH   8   9
ENDBRANCH   7   8
ENDBRANCH   6   7
ENDBRANCH   5   6
ENDBRANCH   4   5
ENDBRANCH   3   4
ENDBRANCH   2   3
ENDBRANCH   1   2
BRANCH   1  15
ATOM     15  C   UNL     1      -0.104  -8.114   4.362  1.00  0.00     0.000 C 
BRANCH  15  16
ATOM     16  C   UNL     1      -0.617  -7.602   5.717  1.00  0.00     0.000 C 
BRANCH  16  17
ATOM     17  C   UNL     1       0.202  -8.139   6.904  1.00  0.00     0.000 C 
BRANCH  17  18
ATOM     18  C   UNL     1       0.867  -7.019   7.724  1.00  0.00    -0.000 C 
BRANCH  18  19
ATOM     19  C   UNL     1       2.407  -6.983   7.641  1.00  0.00    -0.000 C 
BRANCH  19  20
ATOM     20  C   UNL     1       2.988  -5.818   6.816  1.00  0.00    -0.000 C 
BRANCH  20  21
ATOM     21  C   UNL     1       1.984  -5.123   5.875  1.00  0.00    -0.000 C 
BRANCH  21  22
ATOM     22  C   UNL     1       1.733  -3.631   6.175  1.00  0.00    -0.000 C 
BRANCH  22  23
ATOM     23  C   UNL     1       0.479  -3.336   7.017  1.00  0.00    -0.000 C 
BRANCH  23  24
ATOM     24  C   UNL     1      -0.799  -3.956   6.426  1.00  0.00    -0.000 C 
BRANCH  24  25
ATOM     25  C   UNL     1      -2.030  -3.055   6.610  1.00  0.00    -0.003 C 
ATOM     26  C   UNL     1      -3.315  -3.693   6.081  1.00  0.00     0.004 C 
ENDBRANCH  24  25
ENDBRANCH  23  24
ENDBRANCH  22  23
ENDBRANCH  21  22
ENDBRANCH  20  21
ENDBRANCH  19  20
ENDBRANCH  18  19
ENDBRANCH  17  18
ENDBRANCH  16  17
ENDBRANCH  15  16
ENDBRANCH   1  15
TORSDOF 22
ENDMDL
MODEL 2
REMARK VINA RESULT:    -3.962      3.567      6.923
REMARK INTER + INTRA:         -11.922
REMARK INTER:                  -8.214
REMARK INTRA:                  -3.708
REMARK UNBOUND:                -2.864
REMARK SMILES CCCCCCCCCCCCCCCCCCCCCCCC(=O)[O-]
REMARK SMILES IDX 13 1 14 2 15 3 16 4 17 5 18 6 19 7 20 8 21 9 22 10 23 11
REMARK SMILES IDX 24 12 25 13 26 14 12 15 11 16 10 17 9 18 8 19 7 20 6 21 5 22
REMARK SMILES IDX 4 23 3 24 2 25 1 26
REMARK H PARENT
REMARK Flexibility Score: inf
ROOT
ATOM      1  C   UNL     1       9.039  -5.024   4.190  1.00  0.00     0.000 C 
ENDROOT
BRANCH   1   2
ATOM      2  C   UNL     1       8.259  -5.362   2.908  1.00  0.00     0.000 C 
BRANCH   2   3
ATOM      3  C   UNL     1       7.148  -6.398   3.152  1.00  0.00     0.000 C 
BRANCH   3   4
ATOM      4  C   UNL     1       7.202  -7.004   4.564  1.00  0.00     0.000 C 
BRANCH   4   5
ATOM      5  C   UNL     1       6.137  -8.093   4.783  1.00  0.00     0.000 C 
BRANCH   5   6
ATOM      6  C   UNL     1       5.232  -8.288   3.556  1.00  0.00     0.000 C 
BRANCH   6   7
ATOM      7  C   UNL     1       4.330  -9.526   3.676  1.00  0.00     0.000 C 
BRANCH   7   8
ATOM      8  C   UNL     1       3.068  -9.209   4.494  1.00  0.00     0.000 C 
BRANCH   8   9
ATOM      9  C   UNL     1       2.692  -7.713   4.431  1.00  0.00     0.000 C 
BRANCH   9  10
ATOM     10  C   UNL     1       1.260  -7.417   4.910  1.00  0.00     0.006 C 
BRANCH  10  11
ATOM     11  C   UNL     1       0.240  -8.449   4.414  1.00  0.00     0.053 C 
BRANCH  11  12
ATOM     12  C   UNL     1      -1.134  -7.857   4.397  1.00  0.00     0.041 C 
ATOM     13  O   UNL     1      -1.811  -7.855   3.336  1.00  0.00    -0.550 OA
ATOM     14  O   UNL     1      -1.688  -7.350   5.566  1.00  0.00    -0.550 OA
ENDBRANCH  11  12
ENDBRANCH  10  11
ENDBRANCH   9  10
ENDBRANCH   8   9
ENDBRANCH   7   8
ENDBRANCH   6   7
ENDBRANCH   5   6
ENDBRANCH   4   5
ENDBRANCH   3   4
ENDBRANCH   2   3
ENDBRANCH   1   2
BRANCH   1  15
ATOM     15  C   UNL     1       9.362  -3.524   4.305  1.00  0.00     0.000 C 
BRANCH  15  16
ATOM     16  C   UNL     1       8.979  -2.944   5.675  1.00  0.00     0.000 C 
BRANCH  16  17
ATOM     17  C   UNL     1       8.455  -4.015   6.648  1.00  0.00     0.000 C 
BRANCH  17  18
ATOM     18  C   UNL     1       7.769  -3.409   7.886  1.00  0.00    -0.000 C 
BRANCH  18  19
ATOM     19  C   UNL     1       6.260  -3.708   8.003  1.00  0.00    -0.000 C 
BRANCH  19  20
ATOM     20  C   UNL     1       5.752  -4.860   7.114  1.00  0.00    -0.000 C 
BRANCH  20  21
ATOM     21  C   UNL     1       4.726  -4.448   6.040  1.00  0.00    -0.000 C 
BRANCH  21  22
ATOM     22  C   UNL     1       5.331  -3.849   4.753  1.00  0.00    -0.000 C 
BRANCH  22  23
ATOM     23  C   UNL     1       5.428  -2.313   4.731  1.00  0.00    -0.000 C 
BRANCH  23  24
ATOM     24  C   UNL     1       4.215  -1.627   5.379  1.00  0.00    -0.000 C 
BRANCH  24  25
ATOM     25  C   UNL     1       4.618  -0.466   6.301  1.00  0.00    -0.003 C 
ATOM     26  C   UNL     1       6.134  -0.298   6.415  1.00  0.00     0.004 C 
ENDBRANCH  24  25
ENDBRANCH  23  24
ENDBRANCH  22  23
ENDBRANCH  21  22
ENDBRANCH  20  21
ENDBRANCH  19  20
ENDBRANCH  18  19
ENDBRANCH  17  18
ENDBRANCH  16  17
ENDBRANCH  15  16
ENDBRANCH   1  15
TORSDOF 22
ENDMDL
MODEL 3
REMARK VINA RESULT:    -3.957      3.082      6.577
REMARK INTER + INTRA:         -11.910
REMARK INTER:                  -9.061
REMARK INTRA:                  -2.849
REMARK UNBOUND:                -2.864
REMARK SMILES CCCCCCCCCCCCCCCCCCCCCCCC(=O)[O-]
REMARK SMILES IDX 13 1 14 2 15 3 16 4 17 5 18 6 19 7 20 8 21 9 22 10 23 11
REMARK SMILES IDX 24 12 25 13 26 14 12 15 11 16 10 17 9 18 8 19 7 20 6 21 5 22
REMARK SMILES IDX 4 23 3 24 2 25 1 26
REMARK H PARENT
REMARK Flexibility Score: inf
ROOT
ATOM      1  C   UNL     1       1.874  -9.282   5.117  1.00  0.00     0.000 C 
ENDROOT
BRANCH   1   2
ATOM      2  C   UNL     1       0.677  -8.349   5.365  1.00  0.00     0.000 C 
BRANCH   2   3
ATOM      3  C   UNL     1       0.991  -6.884   5.020  1.00  0.00     0.000 C 
BRANCH   3   4
ATOM      4  C   UNL     1       2.393  -6.454   5.481  1.00  0.00     0.000 C 
BRANCH   4   5
ATOM      5  C   UNL     1       2.460  -4.966   5.868  1.00  0.00     0.000 C 
BRANCH   5   6
ATOM      6  C   UNL     1       1.118  -4.244   5.670  1.00  0.00     0.000 C 
BRANCH   6   7
ATOM      7  C   UNL     1       0.759  -3.326   6.848  1.00  0.00     0.000 C 
BRANCH   7   8
ATOM      8  C   UNL     1      -0.548  -3.778   7.519  1.00  0.00     0.000 C 
BRANCH   8   9
ATOM      9  C   UNL     1      -1.378  -4.711   6.611  1.00  0.00     0.000 C 
BRANCH   9  10
ATOM     10  C   UNL     1      -2.798  -4.191   6.328  1.00  0.00     0.006 C 
BRANCH  10  11
ATOM     11  C   UNL     1      -2.878  -2.661   6.291  1.00  0.00     0.053 C 
BRANCH  11  12
ATOM     12  C   UNL     1      -4.304  -2.214   6.230  1.00  0.00     0.041 C 
ATOM     13  O   UNL     1      -4.651  -1.126   6.761  1.00  0.00    -0.550 OA
ATOM     14  O   UNL     1      -5.243  -2.975   5.545  1.00  0.00    -0.550 OA
ENDBRANCH  11  12
ENDBRANCH  10  11
ENDBRANCH   9  10
ENDBRANCH   8   9
ENDBRANCH   7   8
ENDBRANCH   6   7
ENDBRANCH   5   6
ENDBRANCH   4   5
ENDBRANCH   3   4
ENDBRANCH   2   3
ENDBRANCH   1   2
BRANCH   1  15
ATOM     15  C   UNL     1       2.035  -9.650   3.631  1.00  0.00     0.000 C 
BRANCH  15  16
ATOM     16  C   UNL     1       3.495  -9.952   3.256  1.00  0.00     0.000 C 
BRANCH  16  17
ATOM     17  C   UNL     1       4.502  -9.328   4.238  1.00  0.00     0.000 C 
BRANCH  17  18
ATOM     18  C   UNL     1       5.309  -8.176   3.612  1.00  0.00    -0.000 C 
BRANCH  18  19
ATOM     19  C   UNL     1       6.449  -7.629   4.494  1.00  0.00    -0.000 C 
BRANCH  19  20
ATOM     20  C   UNL     1       6.531  -6.092   4.575  1.00  0.00    -0.000 C 
BRANCH  20  21
ATOM     21  C   UNL     1       6.103  -5.489   5.928  1.00  0.00    -0.000 C 
BRANCH  21  22
ATOM     22  C   UNL     1       6.029  -3.949   5.963  1.00  0.00    -0.000 C 
BRANCH  22  23
ATOM     23  C   UNL     1       5.694  -3.280   4.618  1.00  0.00    -0.000 C 
BRANCH  23  24
ATOM     24  C   UNL     1       5.125  -1.861   4.781  1.00  0.00    -0.000 C 
BRANCH  24  25
ATOM     25  C   UNL     1       4.321  -1.694   6.080  1.00  0.00    -0.003 C 
ATOM     26  C   UNL     1       3.862  -0.254   6.312  1.00  0.00     0.004 C 
ENDBRANCH  24  25
ENDBRANCH  23  24
ENDBRANCH  22  23
ENDBRANCH  21  22
ENDBRANCH  20  21
ENDBRANCH  19  20
ENDBRANCH  18  19
ENDBRANCH  17  18
ENDBRANCH  16  17
ENDBRANCH  15  16
ENDBRANCH   1  15
TORSDOF 22
ENDMDL
MODEL 4
REMARK VINA RESULT:    -3.951      1.252      5.572
REMARK INTER + INTRA:         -11.895
REMARK INTER:                  -8.148
REMARK INTRA:                  -3.747
REMARK UNBOUND:                -2.864
REMARK SMILES CCCCCCCCCCCCCCCCCCCCCCCC(=O)[O-]
REMARK SMILES IDX 13 1 14 2 15 3 16 4 17 5 18 6 19 7 20 8 21 9 22 10 23 11
REMARK SMILES IDX 24 12 25 13 26 14 12 15 11 16 10 17 9 18 8 19 7 20 6 21 5 22
REMARK SMILES IDX 4 23 3 24 2 25 1 26
REMARK H PARENT
REMARK Flexibility Score: inf
ROOT
ATOM      1  C   UNL     1      -1.563  -5.176   6.802  1.00  0.00     0.000 C 
ENDROOT
BRANCH   1   2
ATOM      2  C   UNL     1      -0.911  -3.805   6.553  1.00  0.00     0.000 C 
BRANCH   2   3
ATOM      3  C   UNL     1      -0.063  -3.333   7.746  1.00  0.00     0.000 C 
BRANCH   3   4
ATOM      4  C   UNL     1       1.390  -3.017   7.352  1.00  0.00     0.000 C 
BRANCH   4   5
ATOM      5  C   UNL     1       1.715  -3.430   5.906  1.00  0.00     0.000 C 
BRANCH   5   6
ATOM      6  C   UNL     1       2.671  -4.633   5.837  1.00  0.00     0.000 C 
BRANCH   6   7
ATOM      7  C   UNL     1       3.468  -4.832   7.134  1.00  0.00     0.000 C 
BRANCH   7   8
ATOM      8  C   UNL     1       4.971  -4.621   6.893  1.00  0.00     0.000 C 
BRANCH   8   9
ATOM      9  C   UNL     1       5.274  -4.175   5.447  1.00  0.00     0.000 C 
BRANCH   9  10
ATOM     10  C   UNL     1       5.956  -2.799   5.357  1.00  0.00     0.006 C 
BRANCH  10  11
ATOM     11  C   UNL     1       5.186  -1.700   6.100  1.00  0.00     0.053 C 
BRANCH  11  12
ATOM     12  C   UNL     1       5.510  -0.357   5.528  1.00  0.00     0.041 C 
ATOM     13  O   UNL     1       6.460  -0.228   4.712  1.00  0.00    -0.550 OA
ATOM     14  O   UNL     1       4.731   0.745   5.856  1.00  0.00    -0.550 OA
ENDBRANCH  11  12
ENDBRANCH  10  11
ENDBRANCH   9  10
ENDBRANCH   8   9
ENDBRANCH   7   8
ENDBRANCH   6   7
ENDBRANCH   5   6
ENDBRANCH   4   5
ENDBRANCH   3   4
ENDBRANCH   2   3
ENDBRANCH   1   2
BRANCH   1  15
ATOM     15  C   UNL     1      -0.807  -6.005   7.855  1.00  0.00     0.000 C 
BRANCH  15  16
ATOM     16  C   UNL     1       0.160  -7.018   7.221  1.00  0.00     0.000 C 
BRANCH  16  17
ATOM     17  C   UNL     1      -0.367  -7.592   5.894  1.00  0.00     0.000 C 
BRANCH  17  18
ATOM     18  C   UNL     1       0.628  -7.415   4.733  1.00  0.00    -0.000 C 
BRANCH  18  19
ATOM     19  C   UNL     1       1.084  -8.727   4.064  1.00  0.00    -0.000 C 
BRANCH  19  20
ATOM     20  C   UNL     1       2.611  -8.902   3.943  1.00  0.00    -0.000 C 
BRANCH  20  21
ATOM     21  C   UNL     1       3.447  -7.868   4.723  1.00  0.00    -0.000 C 
BRANCH  21  22
ATOM     22  C   UNL     1       4.616  -8.455   5.540  1.00  0.00    -0.000 C 
BRANCH  22  23
ATOM     23  C   UNL     1       5.956  -7.714   5.389  1.00  0.00    -0.000 C 
BRANCH  23  24
ATOM     24  C   UNL     1       6.333  -7.453   3.921  1.00  0.00    -0.000 C 
BRANCH  24  25
ATOM     25  C   UNL     1       7.489  -6.451   3.779  1.00  0.00    -0.003 C 
ATOM     26  C   UNL     1       7.579  -5.844   2.378  1.00  0.00     0.004 C 
ENDBRANCH  24  25
ENDBRANCH  23  24
ENDBRANCH  22  23
ENDBRANCH  21  22
ENDBRANCH  20  21
ENDBRANCH  19  20
ENDBRANCH  18  19
ENDBRANCH  17  18
ENDBRANCH  16  17
ENDBRANCH  15  16
ENDBRANCH   1  15
TORSDOF 22
ENDMDL
MODEL 5
REMARK VINA RESULT:    -3.904      2.682      6.276
REMARK INTER + INTRA:         -11.790
REMARK INTER:                  -8.274
REMARK INTRA:                  -3.515
REMARK UNBOUND:                -2.864
REMARK SMILES CCCCCCCCCCCCCCCCCCCCCCCC(=O)[O-]
REMARK SMILES IDX 13 1 14 2 15 3 16 4 17 5 18 6 19 7 20 8 21 9 22 10 23 11
REMARK SMILES IDX 24 12 25 13 26 14 12 15 11 16 10 17 9 18 8 19 7 20 6 21 5 22
REMARK SMILES IDX 4 23 3 24 2 25 1 26
REMARK H PARENT
REMARK Flexibility Score: inf
ROOT
ATOM      1  C   UNL     1       1.439  -7.575   4.732  1.00  0.00     0.000 C 
ENDROOT
BRANCH   1   2
ATOM      2  C   UNL     1       0.505  -7.504   5.952  1.00  0.00     0.000 C 
BRANCH   2   3
ATOM      3  C   UNL     1       1.276  -7.395   7.278  1.00  0.00     0.000 C 
BRANCH   3   4
ATOM      4  C   UNL     1       2.792  -7.243   7.071  1.00  0.00     0.000 C 
BRANCH   4   5
ATOM      5  C   UNL     1       3.297  -5.828   7.402  1.00  0.00     0.000 C 
BRANCH   5   6
ATOM      6  C   UNL     1       3.468  -4.955   6.147  1.00  0.00     0.000 C 
BRANCH   6   7
ATOM      7  C   UNL     1       2.243  -4.072   5.868  1.00  0.00     0.000 C 
BRANCH   7   8
ATOM      8  C   UNL     1       1.896  -3.209   7.091  1.00  0.00     0.000 C 
BRANCH   8   9
ATOM      9  C   UNL     1       0.425  -3.382   7.528  1.00  0.00     0.000 C 
BRANCH   9  10
ATOM     10  C   UNL     1      -0.540  -3.641   6.358  1.00  0.00     0.006 C 
BRANCH  10  11
ATOM     11  C   UNL     1      -1.976  -3.196   6.657  1.00  0.00     0.053 C 
BRANCH  11  12
ATOM     12  C   UNL     1      -2.908  -4.364   6.599  1.00  0.00     0.041 C 
ATOM     13  O   UNL     1      -4.104  -4.241   6.972  1.00  0.00    -0.550 OA
ATOM     14  O   UNL     1      -2.469  -5.579   6.087  1.00  0.00    -0.550 OA
ENDBRANCH  11  12
ENDBRANCH  10  11
ENDBRANCH   9  10
ENDBRANCH   8   9
ENDBRANCH   7   8
ENDBRANCH   6   7
ENDBRANCH   5   6
ENDBRANCH   4   5
ENDBRANCH   3   4
ENDBRANCH   2   3
ENDBRANCH   1   2
BRANCH   1  15
ATOM     15  C   UNL     1       1.445  -8.966   4.075  1.00  0.00     0.000 C 
BRANCH  15  16
ATOM     16  C   UNL     1       2.857  -9.417   3.668  1.00  0.00     0.000 C 
BRANCH  16  17
ATOM     17  C   UNL     1       3.934  -8.370   4.002  1.00  0.00     0.000 C 
BRANCH  17  18
ATOM     18  C   UNL     1       5.239  -9.003   4.519  1.00  0.00    -0.000 C 
BRANCH  18  19
ATOM     19  C   UNL     1       6.369  -7.999   4.827  1.00  0.00    -0.000 C 
BRANCH  19  20
ATOM     20  C   UNL     1       6.097  -6.551   4.373  1.00  0.00    -0.000 C 
BRANCH  20  21
ATOM     21  C   UNL     1       7.200  -5.929   3.493  1.00  0.00    -0.000 C 
BRANCH  21  22
ATOM     22  C   UNL     1       7.813  -4.623   4.040  1.00  0.00    -0.000 C 
BRANCH  22  23
ATOM     23  C   UNL     1       7.239  -4.146   5.387  1.00  0.00    -0.000 C 
BRANCH  23  24
ATOM     24  C   UNL     1       7.175  -2.614   5.500  1.00  0.00    -0.000 C 
BRANCH  24  25
ATOM     25  C   UNL     1       5.736  -2.095   5.649  1.00  0.00    -0.003 C 
ATOM     26  C   UNL     1       4.976  -2.069   4.323  1.00  0.00     0.004 C 
ENDBRANCH  24  25
ENDBRANCH  23  24
ENDBRANCH  22  23
ENDBRANCH  21  22
ENDBRANCH  20  21
ENDBRANCH  19  20
ENDBRANCH  18  19
ENDBRANCH  17  18
ENDBRANCH  16  17
ENDBRANCH  15  16
ENDBRANCH   1  15
TORSDOF 22
ENDMDL
MODEL 6
REMARK VINA RESULT:    -3.877      1.354      3.829
REMARK INTER + INTRA:         -11.726
REMARK INTER:                  -8.659
REMARK INTRA:                  -3.068
REMARK UNBOUND:                -2.864
REMARK SMILES CCCCCCCCCCCCCCCCCCCCCCCC(=O)[O-]
REMARK SMILES IDX 13 1 14 2 15 3 16 4 17 5 18 6 19 7 20 8 21 9 22 10 23 11
REMARK SMILES IDX 24 12 25 13 26 14 12 15 11 16 10 17 9 18 8 19 7 20 6 21 5 22
REMARK SMILES IDX 4 23 3 24 2 25 1 26
REMARK H PARENT
REMARK Flexibility Score: inf
ROOT
ATOM      1  C   UNL     1       5.720  -6.923   4.405  1.00  0.00     0.000 C 
ENDROOT
BRANCH   1   2
ATOM      2  C   UNL     1       7.218  -6.697   4.135  1.00  0.00     0.000 C 
BRANCH   2   3
ATOM      3  C   UNL     1       7.471  -5.946   2.818  1.00  0.00     0.000 C 
BRANCH   3   4
ATOM      4  C   UNL     1       8.566  -4.874   2.948  1.00  0.00     0.000 C 
BRANCH   4   5
ATOM      5  C   UNL     1       9.192  -4.833   4.353  1.00  0.00     0.000 C 
BRANCH   5   6
ATOM      6  C   UNL     1       8.895  -3.519   5.094  1.00  0.00     0.000 C 
BRANCH   6   7
ATOM      7  C   UNL     1       8.601  -3.733   6.586  1.00  0.00     0.000 C 
BRANCH   7   8
ATOM      8  C   UNL     1       7.137  -4.147   6.804  1.00  0.00     0.000 C 
BRANCH   8   9
ATOM      9  C   UNL     1       6.147  -3.057   6.341  1.00  0.00     0.000 C 
BRANCH   9  10
ATOM     10  C   UNL     1       5.428  -3.396   5.024  1.00  0.00     0.006 C 
BRANCH  10  11
ATOM     11  C   UNL     1       4.877  -2.157   4.308  1.00  0.00     0.053 C 
BRANCH  11  12
ATOM     12  C   UNL     1       5.363  -0.909   4.976  1.00  0.00     0.041 C 
ATOM     13  O   UNL     1       4.637  -0.316   5.815  1.00  0.00    -0.550 OA
ATOM     14  O   UNL     1       6.638  -0.428   4.707  1.00  0.00    -0.550 OA
ENDBRANCH  11  12
ENDBRANCH  10  11
ENDBRANCH   9  10
ENDBRANCH   8   9
ENDBRANCH   7   8
ENDBRANCH   6   7
ENDBRANCH   5   6
ENDBRANCH   4   5
ENDBRANCH   3   4
ENDBRANCH   2   3
ENDBRANCH   1   2
BRANCH   1  15
ATOM     15  C   UNL     1       5.373  -8.411   4.587  1.00  0.00     0.000 C 
BRANCH  15  16
ATOM     16  C   UNL     1       5.002  -9.094   3.262  1.00  0.00     0.000 C 
BRANCH  16  17
ATOM     17  C   UNL     1       3.574  -9.670   3.269  1.00  0.00     0.000 C 
BRANCH  17  18
ATOM     18  C   UNL     1       2.746  -9.193   4.476  1.00  0.00    -0.000 C 
BRANCH  18  19
ATOM     19  C   UNL     1       1.384  -8.564   4.119  1.00  0.00    -0.000 C 
BRANCH  19  20
ATOM     20  C   UNL     1       1.056  -7.254   4.861  1.00  0.00    -0.000 C 
BRANCH  20  21
ATOM     21  C   UNL     1       1.968  -6.943   6.064  1.00  0.00    -0.000 C 
BRANCH  21  22
ATOM     22  C   UNL     1       2.715  -5.595   5.987  1.00  0.00    -0.000 C 
BRANCH  22  23
ATOM     23  C   UNL     1       1.834  -4.379   5.650  1.00  0.00    -0.000 C 
BRANCH  23  24
ATOM     24  C   UNL     1       1.109  -3.806   6.878  1.00  0.00    -0.000 C 
BRANCH  24  25
ATOM     25  C   UNL     1      -0.365  -3.479   6.593  1.00  0.00    -0.003 C 
ATOM     26  C   UNL     1      -1.257  -4.722   6.588  1.00  0.00     0.004 C 
ENDBRANCH  24  25
ENDBRANCH  23  24
ENDBRANCH  22  23
ENDBRANCH  21  22
ENDBRANCH  20  21
ENDBRANCH  19  20
ENDBRANCH  18  19
ENDBRANCH  17  18
ENDBRANCH  16  17
ENDBRANCH  15  16
ENDBRANCH   1  15
TORSDOF 22
ENDMDL
MODEL 7
REMARK VINA RESULT:    -3.826      4.091      7.119
REMARK INTER + INTRA:         -11.611
REMARK INTER:                  -9.039
REMARK INTRA:                  -2.572
REMARK UNBOUND:                -2.864
REMARK SMILES CCCCCCCCCCCCCCCCCCCCCCCC(=O)[O-]
REMARK SMILES IDX 13 1 14 2 15 3 16 4 17 5 18 6 19 7 20 8 21 9 22 10 23 11
REMARK SMILES IDX 24 12 25 13 26 14 12 15 11 16 10 17 9 18 8 19 7 20 6 21 5 22
REMARK SMILES IDX 4 23 3 24 2 25 1 26
REMARK H PARENT
REMARK Flexibility Score: inf
ROOT
ATOM      1  C   UNL     1       6.319  -4.705   5.491  1.00  0.00     0.000 C 
ENDROOT
BRANCH   1   2
ATOM      2  C   UNL     1       6.804  -4.787   4.033  1.00  0.00     0.000 C 
BRANCH   2   3
ATOM      3  C   UNL     1       7.347  -6.180   3.672  1.00  0.00     0.000 C 
BRANCH   3   4
ATOM      4  C   UNL     1       6.705  -7.301   4.506  1.00  0.00     0.000 C 
BRANCH   4   5
ATOM      5  C   UNL     1       5.565  -8.017   3.761  1.00  0.00     0.000 C 
BRANCH   5   6
ATOM      6  C   UNL     1       4.210  -7.868   4.471  1.00  0.00     0.000 C 
BRANCH   6   7
ATOM      7  C   UNL     1       4.339  -7.875   6.002  1.00  0.00     0.000 C 
BRANCH   7   8
ATOM      8  C   UNL     1       3.480  -6.768   6.631  1.00  0.00     0.000 C 
BRANCH   8   9
ATOM      9  C   UNL     1       2.936  -5.780   5.576  1.00  0.00     0.000 C 
BRANCH   9  10
ATOM     10  C   UNL     1       1.404  -5.634   5.601  1.00  0.00     0.006 C 
BRANCH  10  11
ATOM     11  C   UNL     1       0.693  -6.889   6.121  1.00  0.00     0.053 C 
BRANCH  11  12
ATOM     12  C   UNL     1      -0.439  -7.260   5.216  1.00  0.00     0.041 C 
ATOM     13  O   UNL     1      -0.209  -7.781   4.093  1.00  0.00    -0.550 OA
ATOM     14  O   UNL     1      -1.752  -7.075   5.632  1.00  0.00    -0.550 OA
ENDBRANCH  11  12
ENDBRANCH  10  11
ENDBRANCH   9  10
ENDBRANCH   8   9
ENDBRANCH   7   8
ENDBRANCH   6   7
ENDBRANCH   5   6
ENDBRANCH   4   5
ENDBRANCH   3   4
ENDBRANCH   2   3
ENDBRANCH   1   2
BRANCH   1  15
ATOM     15  C   UNL     1       5.916  -3.276   5.897  1.00  0.00     0.000 C 
BRANCH  15  16
ATOM     16  C   UNL     1       5.222  -2.515   4.756  1.00  0.00     0.000 C 
BRANCH  16  17
ATOM     17  C   UNL     1       3.798  -2.061   5.124  1.00  0.00     0.000 C 
BRANCH  17  18
ATOM     18  C   UNL     1       3.553  -2.044   6.644  1.00  0.00    -0.000 C 
BRANCH  18  19
ATOM     19  C   UNL     1       3.272  -0.650   7.240  1.00  0.00    -0.000 C 
BRANCH  19  20
ATOM     20  C   UNL     1       4.141   0.489   6.671  1.00  0.00    -0.000 C 
BRANCH  20  21
ATOM     21  C   UNL     1       3.437   1.858   6.580  1.00  0.00    -0.000 C 
BRANCH  21  22
ATOM     22  C   UNL     1       4.208   2.938   5.794  1.00  0.00    -0.000 C 
BRANCH  22  23
ATOM     23  C   UNL     1       3.375   3.712   4.756  1.00  0.00    -0.000 C 
BRANCH  23  24
ATOM     24  C   UNL     1       3.661   5.223   4.765  1.00  0.00    -0.000 C 
BRANCH  24  25
ATOM     25  C   UNL     1       3.876   5.773   6.183  1.00  0.00    -0.003 C 
ATOM     26  C   UNL     1       3.637   7.281   6.276  1.00  0.00     0.004 C 
ENDBRANCH  24  25
ENDBRANCH  23  24
ENDBRANCH  22  23
ENDBRANCH  21  22
ENDBRANCH  20  21
ENDBRANCH  19  20
ENDBRANCH  18  19
ENDBRANCH  17  18
ENDBRANCH  16  17
ENDBRANCH  15  16
ENDBRANCH   1  15
TORSDOF 22
ENDMDL
MODEL 8
REMARK VINA RESULT:    -3.802      2.997      6.619
REMARK INTER + INTRA:         -11.554
REMARK INTER:                  -8.359
REMARK INTRA:                  -3.195
REMARK UNBOUND:                -2.864
REMARK SMILES CCCCCCCCCCCCCCCCCCCCCCCC(=O)[O-]
REMARK SMILES IDX 13 1 14 2 15 3 16 4 17 5 18 6 19 7 20 8 21 9 22 10 23 11
REMARK SMILES IDX 24 12 25 13 26 14 12 15 11 16 10 17 9 18 8 19 7 20 6 21 5 22
REMARK SMILES IDX 4 23 3 24 2 25 1 26
REMARK H PARENT
REMARK Flexibility Score: inf
ROOT
ATOM      1  C   UNL     1       5.188  -2.141   4.466  1.00  0.00     0.000 C 
ENDROOT
BRANCH   1   2
ATOM      2  C   UNL     1       5.951  -3.468   4.621  1.00  0.00     0.000 C 
BRANCH   2   3
ATOM      3  C   UNL     1       7.362  -3.271   5.200  1.00  0.00     0.000 C 
BRANCH   3   4
ATOM      4  C   UNL     1       7.397  -2.234   6.336  1.00  0.00     0.000 C 
BRANCH   4   5
ATOM      5  C   UNL     1       8.701  -1.417   6.354  1.00  0.00     0.000 C 
BRANCH   5   6
ATOM      6  C   UNL     1       8.447   0.099   6.347  1.00  0.00     0.000 C 
BRANCH   6   7
ATOM      7  C   UNL     1       7.654   0.562   5.116  1.00  0.00     0.000 C 
BRANCH   7   8
ATOM      8  C   UNL     1       6.605   1.616   5.502  1.00  0.00     0.000 C 
BRANCH   8   9
ATOM      9  C   UNL     1       5.420   1.003   6.280  1.00  0.00     0.000 C 
BRANCH   9  10
ATOM     10  C   UNL     1       4.211   1.945   6.404  1.00  0.00     0.006 C 
BRANCH  10  11
ATOM     11  C   UNL     1       4.570   3.415   6.154  1.00  0.00     0.053 C 
BRANCH  11  12
ATOM     12  C   UNL     1       3.888   3.916   4.920  1.00  0.00     0.041 C 
ATOM     13  O   UNL     1       2.993   3.225   4.365  1.00  0.00    -0.550 OA
ATOM     14  O   UNL     1       4.207   5.168   4.409  1.00  0.00    -0.550 OA
ENDBRANCH  11  12
ENDBRANCH  10  11
ENDBRANCH   9  10
ENDBRANCH   8   9
ENDBRANCH   7   8
ENDBRANCH   6   7
ENDBRANCH   5   6
ENDBRANCH   4   5
ENDBRANCH   3   4
ENDBRANCH   2   3
ENDBRANCH   1   2
BRANCH   1  15
ATOM     15  C   UNL     1       3.744  -2.228   4.991  1.00  0.00     0.000 C 
BRANCH  15  16
ATOM     16  C   UNL     1       3.679  -2.270   6.526  1.00  0.00     0.000 C 
BRANCH  16  17
ATOM     17  C   UNL     1       3.035  -3.563   7.058  1.00  0.00     0.000 C 
BRANCH  17  18
ATOM     18  C   UNL     1       4.072  -4.647   7.402  1.00  0.00    -0.000 C 
BRANCH  18  19
ATOM     19  C   UNL     1       3.806  -6.024   6.760  1.00  0.00    -0.000 C 
BRANCH  19  20
ATOM     20  C   UNL     1       3.048  -5.984   5.419  1.00  0.00    -0.000 C 
BRANCH  20  21
ATOM     21  C   UNL     1       1.730  -6.784   5.394  1.00  0.00    -0.000 C 
BRANCH  21  22
ATOM     22  C   UNL     1       1.785  -8.109   4.606  1.00  0.00    -0.000 C 
BRANCH  22  23
ATOM     23  C   UNL     1       3.120  -8.392   3.895  1.00  0.00    -0.000 C 
BRANCH  23  24
ATOM     24  C   UNL     1       4.017  -9.369   4.673  1.00  0.00    -0.000 C 
BRANCH  24  25
ATOM     25  C   UNL     1       5.495  -9.262   4.269  1.00  0.00    -0.003 C 
ATOM     26  C   UNL     1       5.925  -7.824   3.971  1.00  0.00     0.004 C 
ENDBRANCH  24  25
ENDBRANCH  23  24
ENDBRANCH  22  23
ENDBRANCH  21  22
ENDBRANCH  20  21
ENDBRANCH  19  20
ENDBRANCH  18  19
ENDBRANCH  17  18
ENDBRANCH  16  17
ENDBRANCH  15  16
ENDBRANCH   1  15
TORSDOF 22
ENDMDL
MODEL 9
REMARK VINA RESULT:    -3.771      2.078      5.343
REMARK INTER + INTRA:         -11.485
REMARK INTER:                  -7.619
REMARK INTRA:                  -3.867
REMARK UNBOUND:                -2.864
REMARK SMILES CCCCCCCCCCCCCCCCCCCCCCCC(=O)[O-]
REMARK SMILES IDX 13 1 14 2 15 3 16 4 17 5 18 6 19 7 20 8 21 9 22 10 23 11
REMARK SMILES IDX 24 12 25 13 26 14 12 15 11 16 10 17 9 18 8 19 7 20 6 21 5 22
REMARK SMILES IDX 4 23 3 24 2 25 1 26
REMARK H PARENT
REMARK Flexibility Score: inf
ROOT
ATOM      1  C   UNL     1       2.501  -8.318   4.297  1.00  0.00     0.000 C 
ENDROOT
BRANCH   1   2
ATOM      2  C   UNL     1       0.980  -8.098   4.378  1.00  0.00     0.000 C 
BRANCH   2   3
ATOM      3  C   UNL     1       0.611  -6.820   5.151  1.00  0.00     0.000 C 
BRANCH   3   4
ATOM      4  C   UNL     1       1.835  -6.134   5.780  1.00  0.00     0.000 C 
BRANCH   4   5
ATOM      5  C   UNL     1       1.848  -4.613   5.545  1.00  0.00     0.000 C 
BRANCH   5   6
ATOM      6  C   UNL     1       2.265  -3.826   6.799  1.00  0.00     0.000 C 
BRANCH   6   7
ATOM      7  C   UNL     1       3.671  -3.221   6.679  1.00  0.00     0.000 C 
BRANCH   7   8
ATOM      8  C   UNL     1       3.730  -2.187   5.544  1.00  0.00     0.000 C 
BRANCH   8   9
ATOM      9  C   UNL     1       4.928  -2.426   4.598  1.00  0.00     0.000 C 
BRANCH   9  10
ATOM     10  C   UNL     1       6.287  -2.066   5.223  1.00  0.00     0.006 C 
BRANCH  10  11
ATOM     11  C   UNL     1       6.216  -0.843   6.145  1.00  0.00     0.053 C 
BRANCH  11  12
ATOM     12  C   UNL     1       6.487   0.409   5.373  1.00  0.00     0.041 C 
ATOM     13  O   UNL     1       7.424   0.446   4.533  1.00  0.00    -0.550 OA
ATOM     14  O   UNL     1       5.673   1.521   5.544  1.00  0.00    -0.550 OA
ENDBRANCH  11  12
ENDBRANCH  10  11
ENDBRANCH   9  10
ENDBRANCH   8   9
ENDBRANCH   7   8
ENDBRANCH   6   7
ENDBRANCH   5   6
ENDBRANCH   4   5
ENDBRANCH   3   4
ENDBRANCH   2   3
ENDBRANCH   1   2
BRANCH   1  15
ATOM     15  C   UNL     1       2.866  -9.724   3.791  1.00  0.00     0.000 C 
BRANCH  15  16
ATOM     16  C   UNL     1       4.110  -9.718   2.887  1.00  0.00     0.000 C 
BRANCH  16  17
ATOM     17  C   UNL     1       5.375  -9.241   3.622  1.00  0.00     0.000 C 
BRANCH  17  18
ATOM     18  C   UNL     1       5.729 -10.122   4.833  1.00  0.00    -0.000 C 
BRANCH  18  19
ATOM     19  C   UNL     1       6.674  -9.465   5.859  1.00  0.00    -0.000 C 
BRANCH  19  20
ATOM     20  C   UNL     1       6.002  -9.018   7.172  1.00  0.00    -0.000 C 
BRANCH  20  21
ATOM     21  C   UNL     1       4.941  -7.910   7.014  1.00  0.00    -0.000 C 
BRANCH  21  22
ATOM     22  C   UNL     1       5.379  -6.511   7.492  1.00  0.00    -0.000 C 
BRANCH  22  23
ATOM     23  C   UNL     1       6.143  -5.674   6.451  1.00  0.00    -0.000 C 
BRANCH  23  24
ATOM     24  C   UNL     1       5.653  -5.916   5.013  1.00  0.00    -0.000 C 
BRANCH  24  25
ATOM     25  C   UNL     1       6.806  -5.967   3.999  1.00  0.00    -0.003 C 
ATOM     26  C   UNL     1       8.158  -6.258   4.653  1.00  0.00     0.004 C 
ENDBRANCH  24  25
ENDBRANCH  23  24
ENDBRANCH  22  23
ENDBRANCH  21  22
ENDBRANCH  20  21
ENDBRANCH  19  20
ENDBRANCH  18  19
ENDBRANCH  17  18
ENDBRANCH  16  17
ENDBRANCH  15  16
ENDBRANCH   1  15
TORSDOF 22
ENDMDL
