MODEL 1
REMARK VINA RESULT:    -4.331      0.000      0.000
REMARK INTER + INTRA:          -5.415
REMARK INTER:                  -5.217
REMARK INTRA:                  -0.198
REMARK UNBOUND:                -0.198
REMARK SMILES OCC(O)CO
REMARK SMILES IDX 3 1 5 2 6 3 2 5 1 6 4 8
REMARK H PARENT 6 4 1 7 4 9
REMARK Flexibility Score: inf
ROOT
ATOM      1  C   UNL     1     -21.156  -5.918   0.742  1.00  0.00     0.165 C 
ENDROOT
BRANCH   1   2
ATOM      2  C   UNL     1     -20.417  -4.921  -0.161  1.00  0.00     0.190 C 
BRANCH   2   3
ATOM      3  O   UNL     1     -20.042  -3.784   0.569  1.00  0.00    -0.394 OA
ATOM      4  H   UNL     1     -20.677  -3.062   0.319  1.00  0.00     0.210 HD
ENDBRANCH   2   3
ENDBRANCH   1   2
BRANCH   1   5
ATOM      5  C   UNL     1     -20.221  -7.044   1.205  1.00  0.00     0.190 C 
BRANCH   5   6
ATOM      6  O   UNL     1     -19.010  -6.507   1.662  1.00  0.00    -0.394 OA
ATOM      7  H   UNL     1     -19.031  -6.583   2.651  1.00  0.00     0.210 HD
ENDBRANCH   5   6
ENDBRANCH   1   5
BRANCH   1   8
ATOM      8  O   UNL     1     -22.237  -6.466   0.031  1.00  0.00    -0.388 OA
ATOM      9  H   UNL     1     -21.876  -6.792  -0.834  1.00  0.00     0.211 HD
ENDBRANCH   1   8
TORSDOF 5
ENDMDL
MODEL 2
REMARK VINA RESULT:    -4.327      0.957      2.290
REMARK INTER + INTRA:          -5.411
REMARK INTER:                  -5.189
REMARK INTRA:                  -0.222
REMARK UNBOUND:                -0.198
REMARK SMILES OCC(O)CO
REMARK SMILES IDX 3 1 5 2 6 3 2 5 1 6 4 8
REMARK H PARENT 6 4 1 7 4 9
REMARK Flexibility Score: inf
ROOT
ATOM      1  C   UNL     1     -19.966  -6.185   0.576  1.00  0.00     0.165 C 
ENDROOT
BRANCH   1   2
ATOM      2  C   UNL     1     -20.334  -4.697   0.492  1.00  0.00     0.190 C 
BRANCH   2   3
ATOM      3  O   UNL     1     -20.567  -4.324  -0.839  1.00  0.00    -0.394 OA
ATOM      4  H   UNL     1     -21.529  -4.490  -1.017  1.00  0.00     0.210 HD
ENDBRANCH   2   3
ENDBRANCH   1   2
BRANCH   1   5
ATOM      5  C   UNL     1     -21.206  -7.047   0.847  1.00  0.00     0.190 C 
BRANCH   5   6
ATOM      6  O   UNL     1     -22.335  -6.470   0.250  1.00  0.00    -0.394 OA
ATOM      7  H   UNL     1     -23.106  -7.035   0.518  1.00  0.00     0.210 HD
ENDBRANCH   5   6
ENDBRANCH   1   5
BRANCH   1   8
ATOM      8  O   UNL     1     -19.030  -6.368   1.608  1.00  0.00    -0.388 OA
ATOM      9  H   UNL     1     -18.544  -5.509   1.710  1.00  0.00     0.211 HD
ENDBRANCH   1   8
TORSDOF 5
ENDMDL
MODEL 3
REMARK VINA RESULT:    -4.273      1.108      2.571
REMARK INTER + INTRA:          -5.346
REMARK INTER:                  -5.143
REMARK INTRA:                  -0.203
REMARK UNBOUND:                -0.198
REMARK SMILES OCC(O)CO
REMARK SMILES IDX 3 1 5 2 6 3 2 5 1 6 4 8
REMARK H PARENT 6 4 1 7 4 9
REMARK Flexibility Score: inf
ROOT
ATOM      1  C   UNL     1     -20.711  -5.276   0.396  1.00  0.00     0.165 C 
ENDROOT
BRANCH   1   2
ATOM      2  C   UNL     1     -19.388  -5.614   1.098  1.00  0.00     0.190 C 
BRANCH   2   3
ATOM      3  O   UNL     1     -19.410  -6.932   1.576  1.00  0.00    -0.394 OA
ATOM      4  H   UNL     1     -19.618  -6.880   2.546  1.00  0.00     0.210 HD
ENDBRANCH   2   3
ENDBRANCH   1   2
BRANCH   1   5
ATOM      5  C   UNL     1     -21.303  -6.512  -0.294  1.00  0.00     0.190 C 
BRANCH   5   6
ATOM      6  O   UNL     1     -22.307  -7.076   0.504  1.00  0.00    -0.394 OA
ATOM      7  H   UNL     1     -22.051  -6.886   1.443  1.00  0.00     0.210 HD
ENDBRANCH   5   6
ENDBRANCH   1   5
BRANCH   1   8
ATOM      8  O   UNL     1     -20.479  -4.270  -0.556  1.00  0.00    -0.388 OA
ATOM      9  H   UNL     1     -21.228  -3.623  -0.479  1.00  0.00     0.211 HD
ENDBRANCH   1   8
TORSDOF 5
ENDMDL
MODEL 4
REMARK VINA RESULT:    -4.271      1.488      2.387
REMARK INTER + INTRA:          -5.344
REMARK INTER:                  -5.127
REMARK INTRA:                  -0.217
REMARK UNBOUND:                -0.198
REMARK SMILES OCC(O)CO
REMARK SMILES IDX 3 1 5 2 6 3 2 5 1 6 4 8
REMARK H PARENT 6 4 1 7 4 9
REMARK Flexibility Score: inf
ROOT
ATOM      1  C   UNL     1     -20.164  -5.678   1.077  1.00  0.00     0.165 C 
ENDROOT
BRANCH   1   2
ATOM      2  C   UNL     1     -20.432  -5.735  -0.433  1.00  0.00     0.190 C 
BRANCH   2   3
ATOM      3  O   UNL     1     -20.588  -4.442  -0.952  1.00  0.00    -0.394 OA
ATOM      4  H   UNL     1     -21.548  -4.209  -0.853  1.00  0.00     0.210 HD
ENDBRANCH   2   3
ENDBRANCH   1   2
BRANCH   1   5
ATOM      5  C   UNL     1     -19.375  -4.417   1.452  1.00  0.00     0.190 C 
BRANCH   5   6
ATOM      6  O   UNL     1     -20.251  -3.339   1.644  1.00  0.00    -0.394 OA
ATOM      7  H   UNL     1     -21.025  -3.504   1.046  1.00  0.00     0.210 HD
ENDBRANCH   5   6
ENDBRANCH   1   5
BRANCH   1   8
ATOM      8  O   UNL     1     -19.436  -6.819   1.456  1.00  0.00    -0.388 OA
ATOM      9  H   UNL     1     -19.969  -7.280   2.155  1.00  0.00     0.211 HD
ENDBRANCH   1   8
TORSDOF 5
ENDMDL
MODEL 5
REMARK VINA RESULT:    -4.253      0.950      2.863
REMARK INTER + INTRA:          -5.322
REMARK INTER:                  -5.099
REMARK INTRA:                  -0.223
REMARK UNBOUND:                -0.198
REMARK SMILES OCC(O)CO
REMARK SMILES IDX 3 1 5 2 6 3 2 5 1 6 4 8
REMARK H PARENT 6 4 1 7 4 9
REMARK Flexibility Score: inf
ROOT
ATOM      1  C   UNL     1     -20.327  -5.896   1.264  1.00  0.00     0.165 C 
ENDROOT
BRANCH   1   2
ATOM      2  C   UNL     1     -21.039  -6.761   0.215  1.00  0.00     0.190 C 
BRANCH   2   3
ATOM      3  O   UNL     1     -22.418  -6.505   0.222  1.00  0.00    -0.394 OA
ATOM      4  H   UNL     1     -22.866  -7.365   0.436  1.00  0.00     0.210 HD
ENDBRANCH   2   3
ENDBRANCH   1   2
BRANCH   1   5
ATOM      5  C   UNL     1     -20.144  -4.457   0.764  1.00  0.00     0.190 C 
BRANCH   5   6
ATOM      6  O   UNL     1     -20.528  -4.360  -0.580  1.00  0.00    -0.394 OA
ATOM      7  H   UNL     1     -19.746  -4.658  -1.112  1.00  0.00     0.210 HD
ENDBRANCH   5   6
ENDBRANCH   1   5
BRANCH   1   8
ATOM      8  O   UNL     1     -19.072  -6.460   1.547  1.00  0.00    -0.388 OA
ATOM      9  H   UNL     1     -19.141  -7.430   1.346  1.00  0.00     0.211 HD
ENDBRANCH   1   8
TORSDOF 5
ENDMDL
MODEL 6
REMARK VINA RESULT:    -4.246      1.157      2.167
REMARK INTER + INTRA:          -5.313
REMARK INTER:                  -5.116
REMARK INTRA:                  -0.197
REMARK UNBOUND:                -0.198
REMARK SMILES OCC(O)CO
REMARK SMILES IDX 3 1 5 2 6 3 2 5 1 6 4 8
REMARK H PARENT 6 4 1 7 4 9
REMARK Flexibility Score: inf
ROOT
ATOM      1  C   UNL     1     -20.122  -5.719  -0.335  1.00  0.00     0.165 C 
ENDROOT
BRANCH   1   2
ATOM      2  C   UNL     1     -21.230  -6.780  -0.383  1.00  0.00     0.190 C 
BRANCH   2   3
ATOM      3  O   UNL     1     -22.318  -6.389   0.409  1.00  0.00    -0.394 OA
ATOM      4  H   UNL     1     -22.100  -5.490   0.769  1.00  0.00     0.210 HD
ENDBRANCH   2   3
ENDBRANCH   1   2
BRANCH   1   5
ATOM      5  C   UNL     1     -19.420  -5.714   1.029  1.00  0.00     0.190 C 
BRANCH   5   6
ATOM      6  O   UNL     1     -19.510  -6.980   1.623  1.00  0.00    -0.394 OA
ATOM      7  H   UNL     1     -18.723  -7.491   1.302  1.00  0.00     0.210 HD
ENDBRANCH   5   6
ENDBRANCH   1   5
BRANCH   1   8
ATOM      8  O   UNL     1     -20.686  -4.456  -0.579  1.00  0.00    -0.388 OA
ATOM      9  H   UNL     1     -20.003  -3.782  -0.325  1.00  0.00     0.211 HD
ENDBRANCH   1   8
TORSDOF 5
ENDMDL
MODEL 7
REMARK VINA RESULT:    -4.173      0.780      2.373
REMARK INTER + INTRA:          -5.225
REMARK INTER:                  -5.001
REMARK INTRA:                  -0.224
REMARK UNBOUND:                -0.198
REMARK SMILES OCC(O)CO
REMARK SMILES IDX 3 1 5 2 6 3 2 5 1 6 4 8
REMARK H PARENT 6 4 1 7 4 9
REMARK Flexibility Score: inf
ROOT
ATOM      1  C   UNL     1     -21.086  -6.786  -0.105  1.00  0.00     0.165 C 
ENDROOT
BRANCH   1   2
ATOM      2  C   UNL     1     -20.320  -7.387   1.082  1.00  0.00     0.190 C 
BRANCH   2   3
ATOM      3  O   UNL     1     -19.269  -6.542   1.466  1.00  0.00    -0.394 OA
ATOM      4  H   UNL     1     -19.669  -5.822   2.020  1.00  0.00     0.210 HD
ENDBRANCH   2   3
ENDBRANCH   1   2
BRANCH   1   5
ATOM      5  C   UNL     1     -20.339  -5.580  -0.692  1.00  0.00     0.190 C 
BRANCH   5   6
ATOM      6  O   UNL     1     -20.666  -4.418   0.019  1.00  0.00    -0.394 OA
ATOM      7  H   UNL     1     -20.550  -3.665  -0.617  1.00  0.00     0.210 HD
ENDBRANCH   5   6
ENDBRANCH   1   5
BRANCH   1   8
ATOM      8  O   UNL     1     -22.361  -6.385   0.328  1.00  0.00    -0.388 OA
ATOM      9  H   UNL     1     -22.240  -5.943   1.209  1.00  0.00     0.211 HD
ENDBRANCH   1   8
TORSDOF 5
ENDMDL
MODEL 8
REMARK VINA RESULT:    -3.966     18.118     18.978
REMARK INTER + INTRA:          -4.976
REMARK INTER:                  -4.771
REMARK INTRA:                  -0.205
REMARK UNBOUND:                -0.198
REMARK SMILES OCC(O)CO
REMARK SMILES IDX 3 1 5 2 6 3 2 5 1 6 4 8
REMARK H PARENT 6 4 1 7 4 9
REMARK Flexibility Score: inf
ROOT
ATOM      1  C   UNL     1     -17.965   9.894  11.247  1.00  0.00     0.165 C 
ENDROOT
BRANCH   1   2
ATOM      2  C   UNL     1     -17.442   9.170   9.999  1.00  0.00     0.190 C 
BRANCH   2   3
ATOM      3  O   UNL     1     -17.163  10.090   8.978  1.00  0.00    -0.394 OA
ATOM      4  H   UNL     1     -18.039  10.372   8.602  1.00  0.00     0.210 HD
ENDBRANCH   2   3
ENDBRANCH   1   2
BRANCH   1   5
ATOM      5  C   UNL     1     -16.846  10.098  12.278  1.00  0.00     0.190 C 
BRANCH   5   6
ATOM      6  O   UNL     1     -15.599  10.125  11.638  1.00  0.00    -0.394 OA
ATOM      7  H   UNL     1     -15.705  10.724  10.855  1.00  0.00     0.210 HD
ENDBRANCH   5   6
ENDBRANCH   1   5
BRANCH   1   8
ATOM      8  O   UNL     1     -18.998   9.133  11.819  1.00  0.00    -0.388 OA
ATOM      9  H   UNL     1     -19.241   8.434  11.157  1.00  0.00     0.211 HD
ENDBRANCH   1   8
TORSDOF 5
ENDMDL
MODEL 9
REMARK VINA RESULT:    -3.703     18.206     19.242
REMARK INTER + INTRA:          -4.659
REMARK INTER:                  -4.642
REMARK INTRA:                  -0.017
REMARK UNBOUND:                -0.198
REMARK SMILES OCC(O)CO
REMARK SMILES IDX 3 1 5 2 6 3 2 5 1 6 4 8
REMARK H PARENT 6 4 1 7 4 9
REMARK Flexibility Score: inf
ROOT
ATOM      1  C   UNL     1     -16.650  10.125  11.280  1.00  0.00     0.165 C 
ENDROOT
BRANCH   1   2
ATOM      2  C   UNL     1     -17.275   9.738  12.627  1.00  0.00     0.190 C 
BRANCH   2   3
ATOM      3  O   UNL     1     -18.615   9.360  12.455  1.00  0.00    -0.394 OA
ATOM      4  H   UNL     1     -18.731   9.150  11.492  1.00  0.00     0.210 HD
ENDBRANCH   2   3
ENDBRANCH   1   2
BRANCH   1   5
ATOM      5  C   UNL     1     -17.095   9.166  10.167  1.00  0.00     0.190 C 
BRANCH   5   6
ATOM      6  O   UNL     1     -17.122   9.835   8.936  1.00  0.00    -0.394 OA
ATOM      7  H   UNL     1     -16.239  10.277   8.844  1.00  0.00     0.210 HD
ENDBRANCH   5   6
ENDBRANCH   1   5
BRANCH   1   8
ATOM      8  O   UNL     1     -15.251  10.093  11.398  1.00  0.00    -0.388 OA
ATOM      9  H   UNL     1     -15.047   9.961  12.360  1.00  0.00     0.211 HD
ENDBRANCH   1   8
TORSDOF 5
ENDMDL
