MODEL 1
REMARK VINA RESULT:     4.612      0.000      0.000
REMARK INTER + INTRA:           6.465
REMARK INTER:                   6.230
REMARK INTRA:                   0.235
REMARK UNBOUND:                 0.235
REMARK SMILES CC[C@H](CC[C@H](C)[C@H]1CC[C@@H]2[C@H]3CC(=O)C4=CC(=O)CC[C@]4(C)[C@H]3CC[C@@]21C)C(C)C
REMARK SMILES IDX 4 1 3 2 2 3 1 4 29 5 30 6 31 7 5 8 6 9 7 10 8 11 9 12 27 13
REMARK SMILES IDX 10 14 11 15 26 16 28 17 12 18 25 19 24 20 13 21 22 22 14 23
REMARK SMILES IDX 16 24 21 25 23 26 15 27 17 28 20 29 18 30 19 31
REMARK H PARENT
REMARK Flexibility Score: inf
ROOT
ATOM      1  C   UNL     1      16.743  28.650  11.876  1.00  0.00     0.004 C 
ENDROOT
BRANCH   1   2
ATOM      2  C   UNL     1      17.747  29.561  12.643  1.00  0.00    -0.009 C 
BRANCH   2   3
ATOM      3  C   UNL     1      19.186  29.349  12.068  1.00  0.00     0.000 C 
ATOM      4  C   UNL     1      20.049  28.393  12.902  1.00  0.00     0.004 C 
ENDBRANCH   2   3
BRANCH   2   5
ATOM      5  C   UNL     1      17.287  31.063  12.697  1.00  0.00    -0.014 C 
ATOM      6  C   UNL     1      18.467  32.042  12.773  1.00  0.00     0.007 C 
ATOM      7  C   UNL     1      16.346  31.465  11.544  1.00  0.00     0.007 C 
ENDBRANCH   2   5
ENDBRANCH   1   2
BRANCH   1   8
ATOM      8  C   UNL     1      17.325  27.882  10.670  1.00  0.00     0.004 C 
BRANCH   8   9
ATOM      9  C   UNL     1      17.273  26.329  10.766  1.00  0.00    -0.011 C 
ATOM     10  C   UNL     1      18.240  25.826  11.862  1.00  0.00     0.008 C 
BRANCH   9  11
ATOM     11  C   UNL     1      17.525  25.708   9.341  1.00  0.00    -0.002 C 
ATOM     12  C   UNL     1      16.588  24.581   8.921  1.00  0.00     0.005 C 
ATOM     13  C   UNL     1      17.577  26.671   8.124  1.00  0.00    -0.026 C 
ATOM     14  C   UNL     1      16.800  24.424   7.418  1.00  0.00     0.005 C 
ATOM     15  C   UNL     1      17.518  25.698   6.901  1.00  0.00    -0.001 C 
ATOM     16  C   UNL     1      18.875  27.530   8.151  1.00  0.00     0.007 C 
ATOM     17  C   UNL     1      16.343  27.615   8.072  1.00  0.00     0.012 C 
ATOM     18  C   UNL     1      18.930  25.392   6.298  1.00  0.00     0.004 C 
ATOM     19  C   UNL     1      19.298  27.935   6.740  1.00  0.00     0.005 C 
ATOM     20  C   UNL     1      19.716  26.701   5.900  1.00  0.00     0.003 C 
ATOM     21  C   UNL     1      18.858  24.329   5.164  1.00  0.00     0.085 C 
ATOM     22  C   UNL     1      19.823  26.999   4.348  1.00  0.00    -0.000 C 
ATOM     23  C   UNL     1      19.987  24.429   4.187  1.00  0.00     0.159 C 
ATOM     24  C   UNL     1      20.392  25.752   3.669  1.00  0.00     0.005 C 
ATOM     25  C   UNL     1      20.787  28.209   4.122  1.00  0.00     0.020 C 
ATOM     26  C   UNL     1      18.443  27.323   3.717  1.00  0.00     0.017 C 
ATOM     27  O   UNL     1      20.553  23.375   3.789  1.00  0.00    -0.295 OA
ATOM     28  C   UNL     1      21.204  25.836   2.597  1.00  0.00     0.055 C 
ATOM     29  C   UNL     1      21.178  28.409   2.652  1.00  0.00     0.081 C 
ATOM     30  C   UNL     1      21.652  27.123   2.055  1.00  0.00     0.156 C 
ATOM     31  O   UNL     1      22.430  27.143   1.066  1.00  0.00    -0.295 OA
ENDBRANCH   9  11
ENDBRANCH   8   9
ENDBRANCH   1   8
TORSDOF 6
ENDMDL
MODEL 2
REMARK VINA RESULT:     4.827      0.658      1.122
REMARK INTER + INTRA:           6.755
REMARK INTER:                   5.706
REMARK INTRA:                   1.049
REMARK UNBOUND:                 0.235
REMARK SMILES CC[C@H](CC[C@H](C)[C@H]1CC[C@@H]2[C@H]3CC(=O)C4=CC(=O)CC[C@]4(C)[C@H]3CC[C@@]21C)C(C)C
REMARK SMILES IDX 4 1 3 2 2 3 1 4 29 5 30 6 31 7 5 8 6 9 7 10 8 11 9 12 27 13
REMARK SMILES IDX 10 14 11 15 26 16 28 17 12 18 25 19 24 20 13 21 22 22 14 23
REMARK SMILES IDX 16 24 21 25 23 26 15 27 17 28 20 29 18 30 19 31
REMARK H PARENT
REMARK Flexibility Score: inf
ROOT
ATOM      1  C   UNL     1      17.927  28.941  11.240  1.00  0.00     0.004 C 
ENDROOT
BRANCH   1   2
ATOM      2  C   UNL     1      17.524  29.587  12.600  1.00  0.00    -0.009 C 
BRANCH   2   3
ATOM      3  C   UNL     1      18.703  30.470  13.125  1.00  0.00     0.000 C 
ATOM      4  C   UNL     1      18.562  31.958  12.777  1.00  0.00     0.004 C 
ENDBRANCH   2   3
BRANCH   2   5
ATOM      5  C   UNL     1      16.140  30.326  12.535  1.00  0.00    -0.014 C 
ATOM      6  C   UNL     1      15.970  31.156  11.255  1.00  0.00     0.007 C 
ATOM      7  C   UNL     1      14.927  29.392  12.718  1.00  0.00     0.007 C 
ENDBRANCH   2   5
ENDBRANCH   1   2
BRANCH   1   8
ATOM      8  C   UNL     1      16.943  27.890  10.682  1.00  0.00     0.004 C 
BRANCH   8   9
ATOM      9  C   UNL     1      17.381  26.404  10.836  1.00  0.00    -0.011 C 
ATOM     10  C   UNL     1      18.603  26.298  11.776  1.00  0.00     0.008 C 
BRANCH   9  11
ATOM     11  C   UNL     1      17.599  25.772   9.410  1.00  0.00    -0.002 C 
ATOM     12  C   UNL     1      16.643  24.653   9.014  1.00  0.00     0.005 C 
ATOM     13  C   UNL     1      17.638  26.728   8.187  1.00  0.00    -0.026 C 
ATOM     14  C   UNL     1      16.825  24.486   7.508  1.00  0.00     0.005 C 
ATOM     15  C   UNL     1      17.546  25.750   6.971  1.00  0.00    -0.001 C 
ATOM     16  C   UNL     1      18.945  27.575   8.185  1.00  0.00     0.007 C 
ATOM     17  C   UNL     1      16.413  27.685   8.153  1.00  0.00     0.012 C 
ATOM     18  C   UNL     1      18.944  25.426   6.344  1.00  0.00     0.004 C 
ATOM     19  C   UNL     1      19.345  27.968   6.764  1.00  0.00     0.005 C 
ATOM     20  C   UNL     1      19.735  26.726   5.923  1.00  0.00     0.003 C 
ATOM     21  C   UNL     1      18.840  24.358   5.217  1.00  0.00     0.085 C 
ATOM     22  C   UNL     1      19.816  27.014   4.368  1.00  0.00    -0.000 C 
ATOM     23  C   UNL     1      19.951  24.442   4.218  1.00  0.00     0.159 C 
ATOM     24  C   UNL     1      20.359  25.758   3.685  1.00  0.00     0.005 C 
ATOM     25  C   UNL     1      20.787  28.214   4.117  1.00  0.00     0.020 C 
ATOM     26  C   UNL     1      18.427  27.348   3.761  1.00  0.00     0.017 C 
ATOM     27  O   UNL     1      20.500  23.380   3.815  1.00  0.00    -0.295 OA
ATOM     28  C   UNL     1      21.152  25.828   2.597  1.00  0.00     0.055 C 
ATOM     29  C   UNL     1      21.153  28.401   2.639  1.00  0.00     0.081 C 
ATOM     30  C   UNL     1      21.603  27.108   2.041  1.00  0.00     0.156 C 
ATOM     31  O   UNL     1      22.362  27.115   1.037  1.00  0.00    -0.295 OA
ENDBRANCH   9  11
ENDBRANCH   8   9
ENDBRANCH   1   8
TORSDOF 6
ENDMDL
MODEL 3
REMARK VINA RESULT:     4.929      1.638      2.520
REMARK INTER + INTRA:           6.893
REMARK INTER:                   6.225
REMARK INTRA:                   0.668
REMARK UNBOUND:                 0.235
REMARK SMILES CC[C@H](CC[C@H](C)[C@H]1CC[C@@H]2[C@H]3CC(=O)C4=CC(=O)CC[C@]4(C)[C@H]3CC[C@@]21C)C(C)C
REMARK SMILES IDX 4 1 3 2 2 3 1 4 29 5 30 6 31 7 5 8 6 9 7 10 8 11 9 12 27 13
REMARK SMILES IDX 10 14 11 15 26 16 28 17 12 18 25 19 24 20 13 21 22 22 14 23
REMARK SMILES IDX 16 24 21 25 23 26 15 27 17 28 20 29 18 30 19 31
REMARK H PARENT
REMARK Flexibility Score: inf
ROOT
ATOM      1  C   UNL     1      17.042  27.938  13.125  1.00  0.00     0.004 C 
ENDROOT
BRANCH   1   2
ATOM      2  C   UNL     1      17.187  29.489  13.117  1.00  0.00    -0.009 C 
BRANCH   2   3
ATOM      3  C   UNL     1      18.681  29.870  12.852  1.00  0.00     0.000 C 
ATOM      4  C   UNL     1      18.881  31.335  12.444  1.00  0.00     0.004 C 
ENDBRANCH   2   3
BRANCH   2   5
ATOM      5  C   UNL     1      16.160  30.190  12.157  1.00  0.00    -0.014 C 
ATOM      6  C   UNL     1      14.877  29.370  11.960  1.00  0.00     0.007 C 
ATOM      7  C   UNL     1      15.802  31.630  12.576  1.00  0.00     0.007 C 
ENDBRANCH   2   5
ENDBRANCH   1   2
BRANCH   1   8
ATOM      8  C   UNL     1      18.352  27.143  12.930  1.00  0.00     0.004 C 
BRANCH   8   9
ATOM      9  C   UNL     1      18.229  25.826  12.108  1.00  0.00    -0.011 C 
ATOM     10  C   UNL     1      19.511  24.976  12.264  1.00  0.00     0.008 C 
BRANCH   9  11
ATOM     11  C   UNL     1      17.854  26.171  10.619  1.00  0.00    -0.002 C 
ATOM     12  C   UNL     1      16.699  27.145  10.422  1.00  0.00     0.005 C 
ATOM     13  C   UNL     1      18.983  26.681   9.682  1.00  0.00    -0.026 C 
ATOM     14  C   UNL     1      16.786  27.580   8.963  1.00  0.00     0.005 C 
ATOM     15  C   UNL     1      18.196  27.206   8.437  1.00  0.00    -0.001 C 
ATOM     16  C   UNL     1      19.974  25.534   9.331  1.00  0.00     0.007 C 
ATOM     17  C   UNL     1      19.774  27.863  10.309  1.00  0.00     0.012 C 
ATOM     18  C   UNL     1      18.148  26.168   7.265  1.00  0.00     0.004 C 
ATOM     19  C   UNL     1      20.626  25.765   7.968  1.00  0.00     0.005 C 
ATOM     20  C   UNL     1      19.584  25.684   6.823  1.00  0.00     0.003 C 
ATOM     21  C   UNL     1      17.259  26.663   6.088  1.00  0.00     0.085 C 
ATOM     22  C   UNL     1      20.113  26.255   5.445  1.00  0.00    -0.000 C 
ATOM     23  C   UNL     1      17.630  26.058   4.771  1.00  0.00     0.159 C 
ATOM     24  C   UNL     1      19.053  25.970   4.381  1.00  0.00     0.005 C 
ATOM     25  C   UNL     1      21.448  25.534   5.067  1.00  0.00     0.020 C 
ATOM     26  C   UNL     1      20.361  27.786   5.501  1.00  0.00     0.017 C 
ATOM     27  O   UNL     1      16.718  25.665   3.994  1.00  0.00    -0.295 OA
ATOM     28  C   UNL     1      19.385  25.691   3.104  1.00  0.00     0.055 C 
ATOM     29  C   UNL     1      21.902  25.808   3.628  1.00  0.00     0.081 C 
ATOM     30  C   UNL     1      20.780  25.572   2.669  1.00  0.00     0.156 C 
ATOM     31  O   UNL     1      21.034  25.287   1.470  1.00  0.00    -0.295 OA
ENDBRANCH   9  11
ENDBRANCH   8   9
ENDBRANCH   1   8
TORSDOF 6
ENDMDL
MODEL 4
REMARK VINA RESULT:     6.132      1.918      3.343
REMARK INTER + INTRA:           8.518
REMARK INTER:                   8.055
REMARK INTRA:                   0.464
REMARK UNBOUND:                 0.235
REMARK SMILES CC[C@H](CC[C@H](C)[C@H]1CC[C@@H]2[C@H]3CC(=O)C4=CC(=O)CC[C@]4(C)[C@H]3CC[C@@]21C)C(C)C
REMARK SMILES IDX 4 1 3 2 2 3 1 4 29 5 30 6 31 7 5 8 6 9 7 10 8 11 9 12 27 13
REMARK SMILES IDX 10 14 11 15 26 16 28 17 12 18 25 19 24 20 13 21 22 22 14 23
REMARK SMILES IDX 16 24 21 25 23 26 15 27 17 28 20 29 18 30 19 31
REMARK H PARENT
REMARK Flexibility Score: inf
ROOT
ATOM      1  C   UNL     1      17.661  29.729  11.994  1.00  0.00     0.004 C 
ENDROOT
BRANCH   1   2
ATOM      2  C   UNL     1      17.085  30.709  13.060  1.00  0.00    -0.009 C 
BRANCH   2   3
ATOM      3  C   UNL     1      17.736  32.119  12.875  1.00  0.00     0.000 C 
ATOM      4  C   UNL     1      19.260  32.125  13.056  1.00  0.00     0.004 C 
ENDBRANCH   2   3
BRANCH   2   5
ATOM      5  C   UNL     1      15.514  30.719  13.090  1.00  0.00    -0.014 C 
ATOM      6  C   UNL     1      14.914  31.903  12.318  1.00  0.00     0.007 C 
ATOM      7  C   UNL     1      14.875  29.402  12.609  1.00  0.00     0.007 C 
ENDBRANCH   2   5
ENDBRANCH   1   2
BRANCH   1   8
ATOM      8  C   UNL     1      17.651  28.236  12.384  1.00  0.00     0.004 C 
BRANCH   8   9
ATOM      9  C   UNL     1      19.048  27.569  12.549  1.00  0.00    -0.011 C 
ATOM     10  C   UNL     1      20.063  28.583  13.123  1.00  0.00     0.008 C 
BRANCH   9  11
ATOM     11  C   UNL     1      19.481  26.917  11.183  1.00  0.00    -0.002 C 
ATOM     12  C   UNL     1      20.557  25.840  11.260  1.00  0.00     0.005 C 
ATOM     13  C   UNL     1      18.372  26.322  10.274  1.00  0.00    -0.026 C 
ATOM     14  C   UNL     1      20.520  25.140   9.905  1.00  0.00     0.005 C 
ATOM     15  C   UNL     1      19.183  25.510   9.212  1.00  0.00    -0.001 C 
ATOM     16  C   UNL     1      17.507  27.451   9.641  1.00  0.00     0.007 C 
ATOM     17  C   UNL     1      17.443  25.345  11.049  1.00  0.00     0.012 C 
ATOM     18  C   UNL     1      19.393  26.297   7.875  1.00  0.00     0.004 C 
ATOM     19  C   UNL     1      16.922  27.012   8.299  1.00  0.00     0.005 C 
ATOM     20  C   UNL     1      18.035  26.793   7.242  1.00  0.00     0.003 C 
ATOM     21  C   UNL     1      20.305  25.520   6.882  1.00  0.00     0.085 C 
ATOM     22  C   UNL     1      17.542  26.008   5.959  1.00  0.00    -0.000 C 
ATOM     23  C   UNL     1      20.069  25.886   5.451  1.00  0.00     0.159 C 
ATOM     24  C   UNL     1      18.686  26.003   4.944  1.00  0.00     0.005 C 
ATOM     25  C   UNL     1      16.301  26.741   5.352  1.00  0.00     0.020 C 
ATOM     26  C   UNL     1      17.158  24.539   6.280  1.00  0.00     0.017 C 
ATOM     27  O   UNL     1      21.057  26.054   4.686  1.00  0.00    -0.295 OA
ATOM     28  C   UNL     1      18.458  26.056   3.616  1.00  0.00     0.055 C 
ATOM     29  C   UNL     1      15.913  26.230   3.959  1.00  0.00     0.081 C 
ATOM     30  C   UNL     1      17.107  26.193   3.061  1.00  0.00     0.156 C 
ATOM     31  O   UNL     1      16.953  26.261   1.814  1.00  0.00    -0.295 OA
ENDBRANCH   9  11
ENDBRANCH   8   9
ENDBRANCH   1   8
TORSDOF 6
ENDMDL
MODEL 5
REMARK VINA RESULT:     7.240      3.236      7.676
REMARK INTER + INTRA:          10.014
REMARK INTER:                   9.694
REMARK INTRA:                   0.320
REMARK UNBOUND:                 0.235
REMARK SMILES CC[C@H](CC[C@H](C)[C@H]1CC[C@@H]2[C@H]3CC(=O)C4=CC(=O)CC[C@]4(C)[C@H]3CC[C@@]21C)C(C)C
REMARK SMILES IDX 4 1 3 2 2 3 1 4 29 5 30 6 31 7 5 8 6 9 7 10 8 11 9 12 27 13
REMARK SMILES IDX 10 14 11 15 26 16 28 17 12 18 25 19 24 20 13 21 22 22 14 23
REMARK SMILES IDX 16 24 21 25 23 26 15 27 17 28 20 29 18 30 19 31
REMARK H PARENT
REMARK Flexibility Score: inf
ROOT
ATOM      1  C   UNL     1      19.284  25.564   2.532  1.00  0.00     0.004 C 
ENDROOT
BRANCH   1   2
ATOM      2  C   UNL     1      20.329  26.115   3.548  1.00  0.00    -0.009 C 
BRANCH   2   3
ATOM      3  C   UNL     1      21.487  25.077   3.716  1.00  0.00     0.000 C 
ATOM      4  C   UNL     1      22.108  25.067   5.119  1.00  0.00     0.004 C 
ENDBRANCH   2   3
BRANCH   2   5
ATOM      5  C   UNL     1      20.809  27.569   3.198  1.00  0.00    -0.014 C 
ATOM      6  C   UNL     1      21.902  27.589   2.120  1.00  0.00     0.007 C 
ATOM      7  C   UNL     1      19.665  28.523   2.801  1.00  0.00     0.007 C 
ENDBRANCH   2   5
ENDBRANCH   1   2
BRANCH   1   8
ATOM      8  C   UNL     1      18.107  24.776   3.147  1.00  0.00     0.004 C 
BRANCH   8   9
ATOM      9  C   UNL     1      16.763  25.552   3.272  1.00  0.00    -0.011 C 
ATOM     10  C   UNL     1      16.807  26.842   2.422  1.00  0.00     0.008 C 
BRANCH   9  11
ATOM     11  C   UNL     1      16.434  25.786   4.794  1.00  0.00    -0.002 C 
ATOM     12  C   UNL     1      15.137  25.171   5.306  1.00  0.00     0.005 C 
ATOM     13  C   UNL     1      17.512  25.397   5.842  1.00  0.00    -0.026 C 
ATOM     14  C   UNL     1      15.243  25.222   6.827  1.00  0.00     0.005 C 
ATOM     15  C   UNL     1      16.730  25.465   7.194  1.00  0.00    -0.001 C 
ATOM     16  C   UNL     1      18.718  26.380   5.790  1.00  0.00     0.007 C 
ATOM     17  C   UNL     1      18.031  23.946   5.636  1.00  0.00     0.012 C 
ATOM     18  C   UNL     1      16.951  26.814   7.957  1.00  0.00     0.004 C 
ATOM     19  C   UNL     1      19.407  26.479   7.150  1.00  0.00     0.005 C 
ATOM     20  C   UNL     1      18.478  27.126   8.208  1.00  0.00     0.003 C 
ATOM     21  C   UNL     1      16.070  26.908   9.236  1.00  0.00     0.085 C 
ATOM     22  C   UNL     1      18.988  26.939   9.696  1.00  0.00    -0.000 C 
ATOM     23  C   UNL     1      16.634  27.821  10.279  1.00  0.00     0.159 C 
ATOM     24  C   UNL     1      18.072  27.752  10.611  1.00  0.00     0.005 C 
ATOM     25  C   UNL     1      20.454  27.470   9.808  1.00  0.00     0.020 C 
ATOM     26  C   UNL     1      18.949  25.454  10.147  1.00  0.00     0.017 C 
ATOM     27  O   UNL     1      15.864  28.613  10.886  1.00  0.00    -0.295 OA
ATOM     28  C   UNL     1      18.536  28.359  11.722  1.00  0.00     0.055 C 
ATOM     29  C   UNL     1      20.948  27.592  11.256  1.00  0.00     0.081 C 
ATOM     30  C   UNL     1      19.956  28.338  12.088  1.00  0.00     0.156 C 
ATOM     31  O   UNL     1      20.338  28.941  13.125  1.00  0.00    -0.295 OA
ENDBRANCH   9  11
ENDBRANCH   8   9
ENDBRANCH   1   8
TORSDOF 6
ENDMDL
