MODEL 1
REMARK VINA RESULT:    -3.736      0.000      0.000
REMARK INTER + INTRA:          -9.523
REMARK INTER:                  -7.230
REMARK INTRA:                  -2.293
REMARK UNBOUND:                -2.293
REMARK SMILES CCCCCCCCCCCCCCCCCC(=O)[O-]
REMARK SMILES IDX 10 1 11 2 12 3 13 4 14 5 15 6 16 7 17 8 18 9 19 10 20 11
REMARK SMILES IDX 9 12 8 13 7 14 6 15 5 16 4 17 3 18 2 19 1 20
REMARK H PARENT
REMARK Flexibility Score: inf
ROOT
ATOM      1  C   UNL     1     126.127 120.237 117.811  1.00  0.00     0.000 C 
ENDROOT
BRANCH   1   2
ATOM      2  C   UNL     1     126.164 119.398 119.101  1.00  0.00     0.000 C 
BRANCH   2   3
ATOM      3  C   UNL     1     125.572 120.145 120.306  1.00  0.00     0.000 C 
BRANCH   3   4
ATOM      4  C   UNL     1     126.374 121.407 120.671  1.00  0.00     0.000 C 
BRANCH   4   5
ATOM      5  C   UNL     1     127.731 121.081 121.319  1.00  0.00     0.000 C 
BRANCH   5   6
ATOM      6  C   UNL     1     128.947 121.773 120.667  1.00  0.00     0.000 C 
BRANCH   6   7
ATOM      7  C   UNL     1     129.441 121.127 119.357  1.00  0.00     0.006 C 
BRANCH   7   8
ATOM      8  C   UNL     1     130.963 121.184 119.157  1.00  0.00     0.053 C 
BRANCH   8   9
ATOM      9  C   UNL     1     131.701 120.642 120.342  1.00  0.00     0.041 C 
ATOM     10  O   UNL     1     132.503 121.374 120.980  1.00  0.00    -0.550 OA
ATOM     11  O   UNL     1     131.479 119.336 120.762  1.00  0.00    -0.550 OA
ENDBRANCH   8   9
ENDBRANCH   7   8
ENDBRANCH   6   7
ENDBRANCH   5   6
ENDBRANCH   4   5
ENDBRANCH   3   4
ENDBRANCH   2   3
ENDBRANCH   1   2
BRANCH   1  12
ATOM     12  C   UNL     1     124.686 120.581 117.382  1.00  0.00     0.000 C 
BRANCH  12  13
ATOM     13  C   UNL     1     124.462 122.080 117.119  1.00  0.00    -0.000 C 
BRANCH  13  14
ATOM     14  C   UNL     1     123.108 122.583 117.641  1.00  0.00    -0.000 C 
BRANCH  14  15
ATOM     15  C   UNL     1     123.101 122.653 119.172  1.00  0.00    -0.000 C 
BRANCH  15  16
ATOM     16  C   UNL     1     122.113 121.636 119.764  1.00  0.00    -0.000 C 
BRANCH  16  17
ATOM     17  C   UNL     1     121.916 121.814 121.278  1.00  0.00    -0.000 C 
BRANCH  17  18
ATOM     18  C   UNL     1     123.085 122.554 121.944  1.00  0.00    -0.000 C 
BRANCH  18  19
ATOM     19  C   UNL     1     123.367 121.987 123.341  1.00  0.00    -0.003 C 
ATOM     20  C   UNL     1     123.426 120.463 123.315  1.00  0.00     0.004 C 
ENDBRANCH  18  19
ENDBRANCH  17  18
ENDBRANCH  16  17
ENDBRANCH  15  16
ENDBRANCH  14  15
ENDBRANCH  13  14
ENDBRANCH  12  13
ENDBRANCH   1  12
TORSDOF 16
ENDMDL
MODEL 2
REMARK VINA RESULT:    -3.733      1.369      3.683
REMARK INTER + INTRA:          -9.518
REMARK INTER:                  -7.210
REMARK INTRA:                  -2.308
REMARK UNBOUND:                -2.293
REMARK SMILES CCCCCCCCCCCCCCCCCC(=O)[O-]
REMARK SMILES IDX 10 1 11 2 12 3 13 4 14 5 15 6 16 7 17 8 18 9 19 10 20 11
REMARK SMILES IDX 9 12 8 13 7 14 6 15 5 16 4 17 3 18 2 19 1 20
REMARK H PARENT
REMARK Flexibility Score: inf
ROOT
ATOM      1  C   UNL     1     126.311 120.741 121.274  1.00  0.00     0.000 C 
ENDROOT
BRANCH   1   2
ATOM      2  C   UNL     1     127.730 121.332 121.195  1.00  0.00     0.000 C 
BRANCH   2   3
ATOM      3  C   UNL     1     128.698 120.438 120.404  1.00  0.00     0.000 C 
BRANCH   3   4
ATOM      4  C   UNL     1     129.100 121.054 119.053  1.00  0.00     0.000 C 
BRANCH   4   5
ATOM      5  C   UNL     1     130.621 121.249 118.919  1.00  0.00     0.000 C 
BRANCH   5   6
ATOM      6  C   UNL     1     131.332 121.733 120.200  1.00  0.00     0.000 C 
BRANCH   6   7
ATOM      7  C   UNL     1     132.522 120.864 120.656  1.00  0.00     0.006 C 
BRANCH   7   8
ATOM      8  C   UNL     1     132.741 119.598 119.814  1.00  0.00     0.053 C 
BRANCH   8   9
ATOM      9  C   UNL     1     132.335 118.361 120.553  1.00  0.00     0.041 C 
ATOM     10  O   UNL     1     131.336 118.378 121.319  1.00  0.00    -0.550 OA
ATOM     11  O   UNL     1     133.040 117.177 120.368  1.00  0.00    -0.550 OA
ENDBRANCH   8   9
ENDBRANCH   7   8
ENDBRANCH   6   7
ENDBRANCH   5   6
ENDBRANCH   4   5
ENDBRANCH   3   4
ENDBRANCH   2   3
ENDBRANCH   1   2
BRANCH   1  12
ATOM     12  C   UNL     1     125.222 121.820 121.097  1.00  0.00     0.000 C 
BRANCH  12  13
ATOM     13  C   UNL     1     123.789 121.281 121.250  1.00  0.00    -0.000 C 
BRANCH  13  14
ATOM     14  C   UNL     1     122.850 121.754 120.131  1.00  0.00    -0.000 C 
BRANCH  14  15
ATOM     15  C   UNL     1     123.607 122.595 119.096  1.00  0.00    -0.000 C 
BRANCH  15  16
ATOM     16  C   UNL     1     123.122 122.279 117.673  1.00  0.00    -0.000 C 
BRANCH  16  17
ATOM     17  C   UNL     1     124.074 121.336 116.918  1.00  0.00    -0.000 C 
BRANCH  17  18
ATOM     18  C   UNL     1     125.479 121.295 117.537  1.00  0.00    -0.000 C 
BRANCH  18  19
ATOM     19  C   UNL     1     125.897 119.853 117.849  1.00  0.00    -0.003 C 
ATOM     20  C   UNL     1     124.697 119.012 118.275  1.00  0.00     0.004 C 
ENDBRANCH  18  19
ENDBRANCH  17  18
ENDBRANCH  16  17
ENDBRANCH  15  16
ENDBRANCH  14  15
ENDBRANCH  13  14
ENDBRANCH  12  13
ENDBRANCH   1  12
TORSDOF 16
ENDMDL
MODEL 3
REMARK VINA RESULT:    -3.698      1.098      2.062
REMARK INTER + INTRA:          -9.450
REMARK INTER:                  -7.337
REMARK INTRA:                  -2.113
REMARK UNBOUND:                -2.293
REMARK SMILES CCCCCCCCCCCCCCCCCC(=O)[O-]
REMARK SMILES IDX 10 1 11 2 12 3 13 4 14 5 15 6 16 7 17 8 18 9 19 10 20 11
REMARK SMILES IDX 9 12 8 13 7 14 6 15 5 16 4 17 3 18 2 19 1 20
REMARK H PARENT
REMARK Flexibility Score: inf
ROOT
ATOM      1  C   UNL     1     125.963 119.488 119.308  1.00  0.00     0.000 C 
ENDROOT
BRANCH   1   2
ATOM      2  C   UNL     1     126.653 120.670 120.012  1.00  0.00     0.000 C 
BRANCH   2   3
ATOM      3  C   UNL     1     128.113 120.365 120.380  1.00  0.00     0.000 C 
BRANCH   3   4
ATOM      4  C   UNL     1     129.112 121.256 119.622  1.00  0.00     0.000 C 
BRANCH   4   5
ATOM      5  C   UNL     1     129.225 120.887 118.132  1.00  0.00     0.000 C 
BRANCH   5   6
ATOM      6  C   UNL     1     130.342 119.876 117.795  1.00  0.00     0.000 C 
BRANCH   6   7
ATOM      7  C   UNL     1     131.775 120.362 118.091  1.00  0.00     0.006 C 
BRANCH   7   8
ATOM      8  C   UNL     1     132.552 119.479 119.078  1.00  0.00     0.053 C 
BRANCH   8   9
ATOM      9  C   UNL     1     132.222 119.809 120.501  1.00  0.00     0.041 C 
ATOM     10  O   UNL     1     132.593 120.902 121.002  1.00  0.00    -0.550 OA
ATOM     11  O   UNL     1     131.473 118.922 121.265  1.00  0.00    -0.550 OA
ENDBRANCH   8   9
ENDBRANCH   7   8
ENDBRANCH   6   7
ENDBRANCH   5   6
ENDBRANCH   4   5
ENDBRANCH   3   4
ENDBRANCH   2   3
ENDBRANCH   1   2
BRANCH   1  12
ATOM     12  C   UNL     1     125.552 119.832 117.861  1.00  0.00     0.000 C 
BRANCH  12  13
ATOM     13  C   UNL     1     125.700 121.324 117.517  1.00  0.00    -0.000 C 
BRANCH  13  14
ATOM     14  C   UNL     1     124.468 121.897 116.802  1.00  0.00    -0.000 C 
BRANCH  14  15
ATOM     15  C   UNL     1     123.526 122.585 117.796  1.00  0.00    -0.000 C 
BRANCH  15  16
ATOM     16  C   UNL     1     122.455 121.607 118.304  1.00  0.00    -0.000 C 
BRANCH  16  17
ATOM     17  C   UNL     1     122.436 121.492 119.837  1.00  0.00    -0.000 C 
BRANCH  17  18
ATOM     18  C   UNL     1     123.449 122.428 120.513  1.00  0.00    -0.000 C 
BRANCH  18  19
ATOM     19  C   UNL     1     123.790 121.936 121.925  1.00  0.00    -0.003 C 
ATOM     20  C   UNL     1     123.051 122.748 122.985  1.00  0.00     0.004 C 
ENDBRANCH  18  19
ENDBRANCH  17  18
ENDBRANCH  16  17
ENDBRANCH  15  16
ENDBRANCH  14  15
ENDBRANCH  13  14
ENDBRANCH  12  13
ENDBRANCH   1  12
TORSDOF 16
ENDMDL
MODEL 4
REMARK VINA RESULT:    -3.691      3.106      5.099
REMARK INTER + INTRA:          -9.437
REMARK INTER:                  -7.087
REMARK INTRA:                  -2.350
REMARK UNBOUND:                -2.293
REMARK SMILES CCCCCCCCCCCCCCCCCC(=O)[O-]
REMARK SMILES IDX 10 1 11 2 12 3 13 4 14 5 15 6 16 7 17 8 18 9 19 10 20 11
REMARK SMILES IDX 9 12 8 13 7 14 6 15 5 16 4 17 3 18 2 19 1 20
REMARK H PARENT
REMARK Flexibility Score: inf
ROOT
ATOM      1  C   UNL     1     128.869 120.761 117.902  1.00  0.00     0.000 C 
ENDROOT
BRANCH   1   2
ATOM      2  C   UNL     1     130.148 120.869 118.753  1.00  0.00     0.000 C 
BRANCH   2   3
ATOM      3  C   UNL     1     129.859 120.804 120.260  1.00  0.00     0.000 C 
BRANCH   3   4
ATOM      4  C   UNL     1     128.757 121.785 120.694  1.00  0.00     0.000 C 
BRANCH   4   5
ATOM      5  C   UNL     1     127.618 121.097 121.467  1.00  0.00     0.000 C 
BRANCH   5   6
ATOM      6  C   UNL     1     126.196 121.501 121.027  1.00  0.00     0.000 C 
BRANCH   6   7
ATOM      7  C   UNL     1     125.071 120.558 121.502  1.00  0.00     0.006 C 
BRANCH   7   8
ATOM      8  C   UNL     1     124.710 120.701 122.988  1.00  0.00     0.053 C 
BRANCH   8   9
ATOM      9  C   UNL     1     123.405 121.408 123.179  1.00  0.00     0.041 C 
ATOM     10  O   UNL     1     122.327 120.757 123.203  1.00  0.00    -0.550 OA
ATOM     11  O   UNL     1     123.380 122.785 123.365  1.00  0.00    -0.550 OA
ENDBRANCH   8   9
ENDBRANCH   7   8
ENDBRANCH   6   7
ENDBRANCH   5   6
ENDBRANCH   4   5
ENDBRANCH   3   4
ENDBRANCH   2   3
ENDBRANCH   1   2
BRANCH   1  12
ATOM     12  C   UNL     1     128.183 119.388 118.056  1.00  0.00     0.000 C 
BRANCH  12  13
ATOM     13  C   UNL     1     126.665 119.426 117.806  1.00  0.00    -0.000 C 
BRANCH  13  14
ATOM     14  C   UNL     1     126.112 120.854 117.703  1.00  0.00    -0.000 C 
BRANCH  14  15
ATOM     15  C   UNL     1     124.641 120.845 117.273  1.00  0.00    -0.000 C 
BRANCH  15  16
ATOM     16  C   UNL     1     124.164 122.261 116.915  1.00  0.00    -0.000 C 
BRANCH  16  17
ATOM     17  C   UNL     1     122.917 122.686 117.708  1.00  0.00    -0.000 C 
BRANCH  17  18
ATOM     18  C   UNL     1     123.171 122.743 119.222  1.00  0.00    -0.000 C 
BRANCH  18  19
ATOM     19  C   UNL     1     122.021 122.083 119.994  1.00  0.00    -0.003 C 
ATOM     20  C   UNL     1     121.757 120.668 119.487  1.00  0.00     0.004 C 
ENDBRANCH  18  19
ENDBRANCH  17  18
ENDBRANCH  16  17
ENDBRANCH  15  16
ENDBRANCH  14  15
ENDBRANCH  13  14
ENDBRANCH  12  13
ENDBRANCH   1  12
TORSDOF 16
ENDMDL
MODEL 5
REMARK VINA RESULT:    -3.666      3.306      7.197
REMARK INTER + INTRA:          -9.389
REMARK INTER:                  -7.112
REMARK INTRA:                  -2.277
REMARK UNBOUND:                -2.293
REMARK SMILES CCCCCCCCCCCCCCCCCC(=O)[O-]
REMARK SMILES IDX 10 1 11 2 12 3 13 4 14 5 15 6 16 7 17 8 18 9 19 10 20 11
REMARK SMILES IDX 9 12 8 13 7 14 6 15 5 16 4 17 3 18 2 19 1 20
REMARK H PARENT
REMARK Flexibility Score: inf
ROOT
ATOM      1  C   UNL     1     126.136 119.429 119.904  1.00  0.00     0.000 C 
ENDROOT
BRANCH   1   2
ATOM      2  C   UNL     1     126.729 119.529 118.487  1.00  0.00     0.000 C 
BRANCH   2   3
ATOM      3  C   UNL     1     126.323 120.824 117.768  1.00  0.00     0.000 C 
BRANCH   3   4
ATOM      4  C   UNL     1     124.831 120.849 117.392  1.00  0.00     0.000 C 
BRANCH   4   5
ATOM      5  C   UNL     1     124.350 122.245 116.960  1.00  0.00     0.000 C 
BRANCH   5   6
ATOM      6  C   UNL     1     123.216 122.839 117.821  1.00  0.00     0.000 C 
BRANCH   6   7
ATOM      7  C   UNL     1     123.371 122.629 119.341  1.00  0.00     0.006 C 
BRANCH   7   8
ATOM      8  C   UNL     1     122.167 121.952 120.014  1.00  0.00     0.053 C 
BRANCH   8   9
ATOM      9  C   UNL     1     122.217 122.080 121.504  1.00  0.00     0.041 C 
ATOM     10  O   UNL     1     121.258 121.668 122.209  1.00  0.00    -0.550 OA
ATOM     11  O   UNL     1     123.338 122.623 122.120  1.00  0.00    -0.550 OA
ENDBRANCH   8   9
ENDBRANCH   7   8
ENDBRANCH   6   7
ENDBRANCH   5   6
ENDBRANCH   4   5
ENDBRANCH   3   4
ENDBRANCH   2   3
ENDBRANCH   1   2
BRANCH   1  12
ATOM     12  C   UNL     1     126.542 120.626 120.789  1.00  0.00     0.000 C 
BRANCH  12  13
ATOM     13  C   UNL     1     128.046 120.671 121.112  1.00  0.00    -0.000 C 
BRANCH  13  14
ATOM     14  C   UNL     1     128.668 122.054 120.869  1.00  0.00    -0.000 C 
BRANCH  14  15
ATOM     15  C   UNL     1     130.061 121.928 120.241  1.00  0.00    -0.000 C 
BRANCH  15  16
ATOM     16  C   UNL     1     129.991 121.195 118.893  1.00  0.00    -0.000 C 
BRANCH  16  17
ATOM     17  C   UNL     1     130.966 120.009 118.812  1.00  0.00    -0.000 C 
BRANCH  17  18
ATOM     18  C   UNL     1     130.248 118.651 118.839  1.00  0.00    -0.000 C 
BRANCH  18  19
ATOM     19  C   UNL     1     130.363 117.999 120.222  1.00  0.00    -0.003 C 
ATOM     20  C   UNL     1     131.544 118.568 121.003  1.00  0.00     0.004 C 
ENDBRANCH  18  19
ENDBRANCH  17  18
ENDBRANCH  16  17
ENDBRANCH  15  16
ENDBRANCH  14  15
ENDBRANCH  13  14
ENDBRANCH  12  13
ENDBRANCH   1  12
TORSDOF 16
ENDMDL
MODEL 6
REMARK VINA RESULT:    -3.655      1.456      2.627
REMARK INTER + INTRA:          -9.367
REMARK INTER:                  -7.484
REMARK INTRA:                  -1.882
REMARK UNBOUND:                -2.293
REMARK SMILES CCCCCCCCCCCCCCCCCC(=O)[O-]
REMARK SMILES IDX 10 1 11 2 12 3 13 4 14 5 15 6 16 7 17 8 18 9 19 10 20 11
REMARK SMILES IDX 9 12 8 13 7 14 6 15 5 16 4 17 3 18 2 19 1 20
REMARK H PARENT
REMARK Flexibility Score: inf
ROOT
ATOM      1  C   UNL     1     126.526 120.744 117.756  1.00  0.00     0.000 C 
ENDROOT
BRANCH   1   2
ATOM      2  C   UNL     1     127.094 119.347 118.064  1.00  0.00     0.000 C 
BRANCH   2   3
ATOM      3  C   UNL     1     128.628 119.337 118.132  1.00  0.00     0.000 C 
BRANCH   3   4
ATOM      4  C   UNL     1     129.233 120.749 118.045  1.00  0.00     0.000 C 
BRANCH   4   5
ATOM      5  C   UNL     1     130.737 120.773 118.373  1.00  0.00     0.000 C 
BRANCH   5   6
ATOM      6  C   UNL     1     131.106 121.499 119.683  1.00  0.00     0.000 C 
BRANCH   6   7
ATOM      7  C   UNL     1     132.126 120.762 120.575  1.00  0.00     0.006 C 
BRANCH   7   8
ATOM      8  C   UNL     1     132.634 119.435 119.992  1.00  0.00     0.053 C 
BRANCH   8   9
ATOM      9  C   UNL     1     132.113 118.256 120.753  1.00  0.00     0.041 C 
ATOM     10  O   UNL     1     131.074 118.363 121.457  1.00  0.00    -0.550 OA
ATOM     11  O   UNL     1     132.755 117.027 120.658  1.00  0.00    -0.550 OA
ENDBRANCH   8   9
ENDBRANCH   7   8
ENDBRANCH   6   7
ENDBRANCH   5   6
ENDBRANCH   4   5
ENDBRANCH   3   4
ENDBRANCH   2   3
ENDBRANCH   1   2
BRANCH   1  12
ATOM     12  C   UNL     1     125.007 120.708 117.488  1.00  0.00     0.000 C 
BRANCH  12  13
ATOM     13  C   UNL     1     124.463 121.996 116.846  1.00  0.00    -0.000 C 
BRANCH  13  14
ATOM     14  C   UNL     1     123.495 122.758 117.763  1.00  0.00    -0.000 C 
BRANCH  14  15
ATOM     15  C   UNL     1     122.732 121.795 118.679  1.00  0.00    -0.000 C 
BRANCH  15  16
ATOM     16  C   UNL     1     122.837 122.234 120.148  1.00  0.00    -0.000 C 
BRANCH  16  17
ATOM     17  C   UNL     1     123.506 121.173 121.037  1.00  0.00    -0.000 C 
BRANCH  17  18
ATOM     18  C   UNL     1     124.808 121.675 121.680  1.00  0.00    -0.000 C 
BRANCH  18  19
ATOM     19  C   UNL     1     125.971 120.722 121.375  1.00  0.00    -0.003 C 
ATOM     20  C   UNL     1     127.264 121.493 121.125  1.00  0.00     0.004 C 
ENDBRANCH  18  19
ENDBRANCH  17  18
ENDBRANCH  16  17
ENDBRANCH  15  16
ENDBRANCH  14  15
ENDBRANCH  13  14
ENDBRANCH  12  13
ENDBRANCH   1  12
TORSDOF 16
ENDMDL
MODEL 7
REMARK VINA RESULT:    -3.621      1.794      3.033
REMARK INTER + INTRA:          -9.300
REMARK INTER:                  -7.188
REMARK INTRA:                  -2.112
REMARK UNBOUND:                -2.293
REMARK SMILES CCCCCCCCCCCCCCCCCC(=O)[O-]
REMARK SMILES IDX 10 1 11 2 12 3 13 4 14 5 15 6 16 7 17 8 18 9 19 10 20 11
REMARK SMILES IDX 9 12 8 13 7 14 6 15 5 16 4 17 3 18 2 19 1 20
REMARK H PARENT
REMARK Flexibility Score: inf
ROOT
ATOM      1  C   UNL     1     127.522 118.493 117.411  1.00  0.00     0.000 C 
ENDROOT
BRANCH   1   2
ATOM      2  C   UNL     1     128.795 118.932 118.155  1.00  0.00     0.000 C 
BRANCH   2   3
ATOM      3  C   UNL     1     128.863 120.454 118.360  1.00  0.00     0.000 C 
BRANCH   3   4
ATOM      4  C   UNL     1     128.535 120.870 119.805  1.00  0.00     0.000 C 
BRANCH   4   5
ATOM      5  C   UNL     1     129.545 121.881 120.375  1.00  0.00     0.000 C 
BRANCH   5   6
ATOM      6  C   UNL     1     130.950 121.828 119.739  1.00  0.00     0.000 C 
BRANCH   6   7
ATOM      7  C   UNL     1     132.014 121.075 120.562  1.00  0.00     0.006 C 
BRANCH   7   8
ATOM      8  C   UNL     1     132.503 119.768 119.921  1.00  0.00     0.053 C 
BRANCH   8   9
ATOM      9  C   UNL     1     132.009 118.564 120.661  1.00  0.00     0.041 C 
ATOM     10  O   UNL     1     130.914 118.605 121.281  1.00  0.00    -0.550 OA
ATOM     11  O   UNL     1     132.741 117.383 120.637  1.00  0.00    -0.550 OA
ENDBRANCH   8   9
ENDBRANCH   7   8
ENDBRANCH   6   7
ENDBRANCH   5   6
ENDBRANCH   4   5
ENDBRANCH   3   4
ENDBRANCH   2   3
ENDBRANCH   1   2
BRANCH   1  12
ATOM     12  C   UNL     1     126.422 118.006 118.378  1.00  0.00     0.000 C 
BRANCH  12  13
ATOM     13  C   UNL     1     125.356 119.072 118.685  1.00  0.00    -0.000 C 
BRANCH  13  14
ATOM     14  C   UNL     1     124.941 119.878 117.445  1.00  0.00    -0.000 C 
BRANCH  14  15
ATOM     15  C   UNL     1     125.312 121.357 117.601  1.00  0.00    -0.000 C 
BRANCH  15  16
ATOM     16  C   UNL     1     124.327 122.253 116.834  1.00  0.00    -0.000 C 
BRANCH  16  17
ATOM     17  C   UNL     1     123.088 122.620 117.667  1.00  0.00    -0.000 C 
BRANCH  17  18
ATOM     18  C   UNL     1     123.390 122.708 119.171  1.00  0.00    -0.000 C 
BRANCH  18  19
ATOM     19  C   UNL     1     122.244 122.108 119.995  1.00  0.00    -0.003 C 
ATOM     20  C   UNL     1     122.013 120.644 119.633  1.00  0.00     0.004 C 
ENDBRANCH  18  19
ENDBRANCH  17  18
ENDBRANCH  16  17
ENDBRANCH  15  16
ENDBRANCH  14  15
ENDBRANCH  13  14
ENDBRANCH  12  13
ENDBRANCH   1  12
TORSDOF 16
ENDMDL
MODEL 8
REMARK VINA RESULT:    -3.615      1.874      3.595
REMARK INTER + INTRA:          -9.288
REMARK INTER:                  -7.513
REMARK INTRA:                  -1.775
REMARK UNBOUND:                -2.293
REMARK SMILES CCCCCCCCCCCCCCCCCC(=O)[O-]
REMARK SMILES IDX 10 1 11 2 12 3 13 4 14 5 15 6 16 7 17 8 18 9 19 10 20 11
REMARK SMILES IDX 9 12 8 13 7 14 6 15 5 16 4 17 3 18 2 19 1 20
REMARK H PARENT
REMARK Flexibility Score: inf
ROOT
ATOM      1  C   UNL     1     128.610 120.395 119.576  1.00  0.00     0.000 C 
ENDROOT
BRANCH   1   2
ATOM      2  C   UNL     1     128.182 121.518 120.537  1.00  0.00     0.000 C 
BRANCH   2   3
ATOM      3  C   UNL     1     129.367 122.372 121.011  1.00  0.00     0.000 C 
BRANCH   3   4
ATOM      4  C   UNL     1     130.577 122.281 120.065  1.00  0.00     0.000 C 
BRANCH   4   5
ATOM      5  C   UNL     1     131.916 122.512 120.787  1.00  0.00     0.000 C 
BRANCH   5   6
ATOM      6  C   UNL     1     132.851 121.286 120.834  1.00  0.00     0.000 C 
BRANCH   6   7
ATOM      7  C   UNL     1     132.256 119.987 120.251  1.00  0.00     0.006 C 
BRANCH   7   8
ATOM      8  C   UNL     1     132.797 119.609 118.865  1.00  0.00     0.053 C 
BRANCH   8   9
ATOM      9  C   UNL     1     131.698 119.458 117.860  1.00  0.00     0.041 C 
ATOM     10  O   UNL     1     131.437 120.393 117.058  1.00  0.00    -0.550 OA
ATOM     11  O   UNL     1     130.982 118.269 117.785  1.00  0.00    -0.550 OA
ENDBRANCH   8   9
ENDBRANCH   7   8
ENDBRANCH   6   7
ENDBRANCH   5   6
ENDBRANCH   4   5
ENDBRANCH   3   4
ENDBRANCH   2   3
ENDBRANCH   1   2
BRANCH   1  12
ATOM     12  C   UNL     1     128.044 120.598 118.155  1.00  0.00     0.000 C 
BRANCH  12  13
ATOM     13  C   UNL     1     127.135 119.450 117.684  1.00  0.00    -0.000 C 
BRANCH  13  14
ATOM     14  C   UNL     1     125.750 119.475 118.347  1.00  0.00    -0.000 C 
BRANCH  14  15
ATOM     15  C   UNL     1     124.663 119.858 117.337  1.00  0.00    -0.000 C 
BRANCH  15  16
ATOM     16  C   UNL     1     124.512 121.384 117.244  1.00  0.00    -0.000 C 
BRANCH  16  17
ATOM     17  C   UNL     1     123.136 121.874 117.722  1.00  0.00    -0.000 C 
BRANCH  17  18
ATOM     18  C   UNL     1     123.237 122.957 118.807  1.00  0.00    -0.000 C 
BRANCH  18  19
ATOM     19  C   UNL     1     123.119 122.342 120.207  1.00  0.00    -0.003 C 
ATOM     20  C   UNL     1     124.491 121.982 120.768  1.00  0.00     0.004 C 
ENDBRANCH  18  19
ENDBRANCH  17  18
ENDBRANCH  16  17
ENDBRANCH  15  16
ENDBRANCH  14  15
ENDBRANCH  13  14
ENDBRANCH  12  13
ENDBRANCH   1  12
TORSDOF 16
ENDMDL
MODEL 9
REMARK VINA RESULT:    -3.592      9.026     11.317
REMARK INTER + INTRA:          -9.245
REMARK INTER:                  -6.336
REMARK INTRA:                  -2.910
REMARK UNBOUND:                -2.293
REMARK SMILES CCCCCCCCCCCCCCCCCC(=O)[O-]
REMARK SMILES IDX 10 1 11 2 12 3 13 4 14 5 15 6 16 7 17 8 18 9 19 10 20 11
REMARK SMILES IDX 9 12 8 13 7 14 6 15 5 16 4 17 3 18 2 19 1 20
REMARK H PARENT
REMARK Flexibility Score: inf
ROOT
ATOM      1  C   UNL     1     125.750 130.141 127.799  1.00  0.00     0.000 C 
ENDROOT
BRANCH   1   2
ATOM      2  C   UNL     1     124.809 130.620 126.680  1.00  0.00     0.000 C 
BRANCH   2   3
ATOM      3  C   UNL     1     123.408 130.976 127.200  1.00  0.00     0.000 C 
BRANCH   3   4
ATOM      4  C   UNL     1     122.411 131.263 126.063  1.00  0.00     0.000 C 
BRANCH   4   5
ATOM      5  C   UNL     1     121.635 130.009 125.623  1.00  0.00     0.000 C 
BRANCH   5   6
ATOM      6  C   UNL     1     122.026 129.454 124.238  1.00  0.00     0.000 C 
BRANCH   6   7
ATOM      7  C   UNL     1     123.028 130.317 123.446  1.00  0.00     0.006 C 
BRANCH   7   8
ATOM      8  C   UNL     1     123.305 129.820 122.019  1.00  0.00     0.053 C 
BRANCH   8   9
ATOM      9  C   UNL     1     123.895 130.893 121.159  1.00  0.00     0.041 C 
ATOM     10  O   UNL     1     125.136 131.106 121.170  1.00  0.00    -0.550 OA
ATOM     11  O   UNL     1     123.078 131.638 120.317  1.00  0.00    -0.550 OA
ENDBRANCH   8   9
ENDBRANCH   7   8
ENDBRANCH   6   7
ENDBRANCH   5   6
ENDBRANCH   4   5
ENDBRANCH   3   4
ENDBRANCH   2   3
ENDBRANCH   1   2
BRANCH   1  12
ATOM     12  C   UNL     1     126.716 129.039 127.314  1.00  0.00     0.000 C 
BRANCH  12  13
ATOM     13  C   UNL     1     126.757 128.885 125.784  1.00  0.00    -0.000 C 
BRANCH  13  14
ATOM     14  C   UNL     1     126.342 127.483 125.314  1.00  0.00    -0.000 C 
BRANCH  14  15
ATOM     15  C   UNL     1     124.820 127.384 125.155  1.00  0.00    -0.000 C 
BRANCH  15  16
ATOM     16  C   UNL     1     124.214 126.467 126.228  1.00  0.00    -0.000 C 
BRANCH  16  17
ATOM     17  C   UNL     1     123.355 127.235 127.247  1.00  0.00    -0.000 C 
BRANCH  17  18
ATOM     18  C   UNL     1     123.844 127.048 128.691  1.00  0.00    -0.000 C 
BRANCH  18  19
ATOM     19  C   UNL     1     124.971 126.011 128.757  1.00  0.00    -0.003 C 
ATOM     20  C   UNL     1     125.960 126.341 129.872  1.00  0.00     0.004 C 
ENDBRANCH  18  19
ENDBRANCH  17  18
ENDBRANCH  16  17
ENDBRANCH  15  16
ENDBRANCH  14  15
ENDBRANCH  13  14
ENDBRANCH  12  13
ENDBRANCH   1  12
TORSDOF 16
ENDMDL
