MODEL 1
REMARK VINA RESULT:    -5.174      0.000      0.000
REMARK INTER + INTRA:          -5.880
REMARK INTER:                  -5.628
REMARK INTRA:                  -0.252
REMARK UNBOUND:                -0.252
REMARK SMILES O=C([O-])c1ccccc1O
REMARK SMILES IDX 4 1 9 2 5 3 8 4 6 5 7 6 2 7 1 8 3 9 10 10
REMARK H PARENT 10 11
REMARK Flexibility Score: inf
ROOT
ATOM      1  C   UNL     1      10.575  10.498  14.300  1.00  0.00     0.039 A 
ATOM      2  C   UNL     1       9.305  10.529  14.934  1.00  0.00     0.124 A 
ATOM      3  C   UNL     1      10.734   9.727  13.134  1.00  0.00     0.014 A 
ATOM      4  C   UNL     1       8.259   9.747  14.426  1.00  0.00     0.047 A 
ATOM      5  C   UNL     1       9.674   8.970  12.629  1.00  0.00     0.001 A 
ATOM      6  C   UNL     1       8.441   8.972  13.280  1.00  0.00     0.004 A 
ENDROOT
BRANCH   1   7
ATOM      7  C   UNL     1      11.753  11.218  14.831  1.00  0.00     0.075 C 
ATOM      8  O   UNL     1      12.894  10.685  14.827  1.00  0.00    -0.545 OA
ATOM      9  O   UNL     1      11.623  12.528  15.279  1.00  0.00    -0.545 OA
ENDBRANCH   1   7
BRANCH   2  10
ATOM     10  O   UNL     1       9.032  11.340  16.038  1.00  0.00    -0.507 OA
ATOM     11  H   UNL     1       9.395  11.165  16.964  1.00  0.00     0.293 HD
ENDBRANCH   2  10
TORSDOF 2
ENDMDL
MODEL 2
REMARK VINA RESULT:    -5.063     16.877     17.708
REMARK INTER + INTRA:          -5.759
REMARK INTER:                  -5.519
REMARK INTRA:                  -0.241
REMARK UNBOUND:                -0.252
REMARK SMILES O=C([O-])c1ccccc1O
REMARK SMILES IDX 4 1 9 2 5 3 8 4 6 5 7 6 2 7 1 8 3 9 10 10
REMARK H PARENT 10 11
REMARK Flexibility Score: inf
ROOT
ATOM      1  C   UNL     1      15.798  -6.008  16.632  1.00  0.00     0.039 A 
ATOM      2  C   UNL     1      16.678  -5.050  17.203  1.00  0.00     0.124 A 
ATOM      3  C   UNL     1      16.314  -6.944  15.718  1.00  0.00     0.014 A 
ATOM      4  C   UNL     1      18.019  -5.017  16.802  1.00  0.00     0.047 A 
ATOM      5  C   UNL     1      17.659  -6.911  15.345  1.00  0.00     0.001 A 
ATOM      6  C   UNL     1      18.508  -5.942  15.878  1.00  0.00     0.004 A 
ENDROOT
BRANCH   1   7
ATOM      7  C   UNL     1      14.350  -6.044  16.932  1.00  0.00     0.075 C 
ATOM      8  O   UNL     1      13.704  -7.124  16.877  1.00  0.00    -0.545 OA
ATOM      9  O   UNL     1      13.696  -4.889  17.348  1.00  0.00    -0.545 OA
ENDBRANCH   1   7
BRANCH   2  10
ATOM     10  O   UNL     1      16.273  -4.147  18.188  1.00  0.00    -0.507 OA
ATOM     11  H   UNL     1      15.306  -3.921  18.377  1.00  0.00     0.293 HD
ENDBRANCH   2  10
TORSDOF 2
ENDMDL
MODEL 3
REMARK VINA RESULT:    -5.033      1.282      1.469
REMARK INTER + INTRA:          -5.727
REMARK INTER:                  -5.476
REMARK INTRA:                  -0.251
REMARK UNBOUND:                -0.252
REMARK SMILES O=C([O-])c1ccccc1O
REMARK SMILES IDX 4 1 9 2 5 3 8 4 6 5 7 6 2 7 1 8 3 9 10 10
REMARK H PARENT 10 11
REMARK Flexibility Score: inf
ROOT
ATOM      1  C   UNL     1      11.064   9.677  14.023  1.00  0.00     0.039 A 
ATOM      2  C   UNL     1      10.252   9.810  15.181  1.00  0.00     0.124 A 
ATOM      3  C   UNL     1      10.456   9.316  12.806  1.00  0.00     0.014 A 
ATOM      4  C   UNL     1       8.884   9.521  15.104  1.00  0.00     0.047 A 
ATOM      5  C   UNL     1       9.087   9.052  12.742  1.00  0.00     0.001 A 
ATOM      6  C   UNL     1       8.303   9.144  13.892  1.00  0.00     0.004 A 
ENDROOT
BRANCH   1   7
ATOM      7  C   UNL     1      12.530   9.870  14.045  1.00  0.00     0.075 C 
ATOM      8  O   UNL     1      13.287   9.162  13.330  1.00  0.00    -0.545 OA
ATOM      9  O   UNL     1      13.085  10.890  14.810  1.00  0.00    -0.545 OA
ENDBRANCH   1   7
BRANCH   2  10
ATOM     10  O   UNL     1      10.754  10.256  16.406  1.00  0.00    -0.507 OA
ATOM     11  H   UNL     1      10.572  11.175  16.783  1.00  0.00     0.293 HD
ENDBRANCH   2  10
TORSDOF 2
ENDMDL
MODEL 4
REMARK VINA RESULT:    -4.961      1.830      3.506
REMARK INTER + INTRA:          -5.648
REMARK INTER:                  -5.423
REMARK INTRA:                  -0.225
REMARK UNBOUND:                -0.252
REMARK SMILES O=C([O-])c1ccccc1O
REMARK SMILES IDX 4 1 9 2 5 3 8 4 6 5 7 6 2 7 1 8 3 9 10 10
REMARK H PARENT 10 11
REMARK Flexibility Score: inf
ROOT
ATOM      1  C   UNL     1       9.814   9.896  14.087  1.00  0.00     0.039 A 
ATOM      2  C   UNL     1       9.994  10.895  15.080  1.00  0.00     0.124 A 
ATOM      3  C   UNL     1      10.935   9.448  13.363  1.00  0.00     0.014 A 
ATOM      4  C   UNL     1      11.263  11.455  15.276  1.00  0.00     0.047 A 
ATOM      5  C   UNL     1      12.197  10.003  13.586  1.00  0.00     0.001 A 
ATOM      6  C   UNL     1      12.359  11.013  14.534  1.00  0.00     0.004 A 
ENDROOT
BRANCH   1   7
ATOM      7  C   UNL     1       8.491   9.325  13.754  1.00  0.00     0.075 C 
ATOM      8  O   UNL     1       7.532   9.397  14.568  1.00  0.00    -0.545 OA
ATOM      9  O   UNL     1       8.271   8.761  12.502  1.00  0.00    -0.545 OA
ENDBRANCH   1   7
BRANCH   2  10
ATOM     10  O   UNL     1       8.957  11.329  15.909  1.00  0.00    -0.507 OA
ATOM     11  H   UNL     1       8.461  12.198  15.775  1.00  0.00     0.293 HD
ENDBRANCH   2  10
TORSDOF 2
ENDMDL
MODEL 5
REMARK VINA RESULT:    -4.605      1.519      3.291
REMARK INTER + INTRA:          -5.261
REMARK INTER:                  -5.019
REMARK INTRA:                  -0.242
REMARK UNBOUND:                -0.252
REMARK SMILES O=C([O-])c1ccccc1O
REMARK SMILES IDX 4 1 9 2 5 3 8 4 6 5 7 6 2 7 1 8 3 9 10 10
REMARK H PARENT 10 11
REMARK Flexibility Score: inf
ROOT
ATOM      1  C   UNL     1      10.785   9.974  14.546  1.00  0.00     0.039 A 
ATOM      2  C   UNL     1      11.908  10.773  14.890  1.00  0.00     0.124 A 
ATOM      3  C   UNL     1      10.665   9.505  13.225  1.00  0.00     0.014 A 
ATOM      4  C   UNL     1      12.833  11.129  13.900  1.00  0.00     0.047 A 
ATOM      5  C   UNL     1      11.607   9.852  12.255  1.00  0.00     0.001 A 
ATOM      6  C   UNL     1      12.684  10.672  12.590  1.00  0.00     0.004 A 
ENDROOT
BRANCH   1   7
ATOM      7  C   UNL     1       9.716   9.636  15.511  1.00  0.00     0.075 C 
ATOM      8  O   UNL     1       8.538   9.420  15.123  1.00  0.00    -0.545 OA
ATOM      9  O   UNL     1      10.019   9.486  16.860  1.00  0.00    -0.545 OA
ENDBRANCH   1   7
BRANCH   2  10
ATOM     10  O   UNL     1      12.157  11.201  16.196  1.00  0.00    -0.507 OA
ATOM     11  H   UNL     1      11.926  10.659  17.016  1.00  0.00     0.293 HD
ENDBRANCH   2  10
TORSDOF 2
ENDMDL
MODEL 6
REMARK VINA RESULT:    -4.599      0.931      2.421
REMARK INTER + INTRA:          -5.254
REMARK INTER:                  -5.010
REMARK INTRA:                  -0.244
REMARK UNBOUND:                -0.252
REMARK SMILES O=C([O-])c1ccccc1O
REMARK SMILES IDX 4 1 9 2 5 3 8 4 6 5 7 6 2 7 1 8 3 9 10 10
REMARK H PARENT 10 11
REMARK Flexibility Score: inf
ROOT
ATOM      1  C   UNL     1      10.670  10.512  14.336  1.00  0.00     0.039 A 
ATOM      2  C   UNL     1      10.802   9.734  13.155  1.00  0.00     0.124 A 
ATOM      3  C   UNL     1       9.443  10.497  15.026  1.00  0.00     0.014 A 
ATOM      4  C   UNL     1       9.699   9.021  12.669  1.00  0.00     0.047 A 
ATOM      5  C   UNL     1       8.360   9.763  14.539  1.00  0.00     0.001 A 
ATOM      6  C   UNL     1       8.484   9.034  13.356  1.00  0.00     0.004 A 
ENDROOT
BRANCH   1   7
ATOM      7  C   UNL     1      11.758  11.367  14.858  1.00  0.00     0.075 C 
ATOM      8  O   UNL     1      11.537  12.559  15.201  1.00  0.00    -0.545 OA
ATOM      9  O   UNL     1      13.031  10.838  15.041  1.00  0.00    -0.545 OA
ENDBRANCH   1   7
BRANCH   2  10
ATOM     10  O   UNL     1      12.008   9.615  12.462  1.00  0.00    -0.507 OA
ATOM     11  H   UNL     1      12.068   9.416  11.473  1.00  0.00     0.293 HD
ENDBRANCH   2  10
TORSDOF 2
ENDMDL
MODEL 7
REMARK VINA RESULT:    -4.454     16.881     17.607
REMARK INTER + INTRA:          -5.096
REMARK INTER:                  -4.862
REMARK INTRA:                  -0.235
REMARK UNBOUND:                -0.252
REMARK SMILES O=C([O-])c1ccccc1O
REMARK SMILES IDX 4 1 9 2 5 3 8 4 6 5 7 6 2 7 1 8 3 9 10 10
REMARK H PARENT 10 11
REMARK Flexibility Score: inf
ROOT
ATOM      1  C   UNL     1      17.442  -5.634  16.685  1.00  0.00     0.039 A 
ATOM      2  C   UNL     1      16.274  -5.149  17.330  1.00  0.00     0.124 A 
ATOM      3  C   UNL     1      17.306  -6.610  15.680  1.00  0.00     0.014 A 
ATOM      4  C   UNL     1      15.025  -5.691  17.001  1.00  0.00     0.047 A 
ATOM      5  C   UNL     1      16.051  -7.125  15.349  1.00  0.00     0.001 A 
ATOM      6  C   UNL     1      14.913  -6.674  16.016  1.00  0.00     0.004 A 
ENDROOT
BRANCH   1   7
ATOM      7  C   UNL     1      18.803  -5.182  17.045  1.00  0.00     0.075 C 
ATOM      8  O   UNL     1      19.711  -6.012  17.315  1.00  0.00    -0.545 OA
ATOM      9  O   UNL     1      19.114  -3.827  17.022  1.00  0.00    -0.545 OA
ENDBRANCH   1   7
BRANCH   2  10
ATOM     10  O   UNL     1      16.305  -4.115  18.269  1.00  0.00    -0.507 OA
ATOM     11  H   UNL     1      16.659  -3.190  18.071  1.00  0.00     0.293 HD
ENDBRANCH   2  10
TORSDOF 2
ENDMDL
MODEL 8
REMARK VINA RESULT:    -4.427      2.458      3.869
REMARK INTER + INTRA:          -5.067
REMARK INTER:                  -4.818
REMARK INTRA:                  -0.249
REMARK UNBOUND:                -0.252
REMARK SMILES O=C([O-])c1ccccc1O
REMARK SMILES IDX 4 1 9 2 5 3 8 4 6 5 7 6 2 7 1 8 3 9 10 10
REMARK H PARENT 10 11
REMARK Flexibility Score: inf
ROOT
ATOM      1  C   UNL     1      12.547  10.765  13.821  1.00  0.00     0.039 A 
ATOM      2  C   UNL     1      13.754  10.204  14.316  1.00  0.00     0.124 A 
ATOM      3  C   UNL     1      12.162  10.489  12.496  1.00  0.00     0.014 A 
ATOM      4  C   UNL     1      14.564   9.443  13.463  1.00  0.00     0.047 A 
ATOM      5  C   UNL     1      12.971   9.711  11.665  1.00  0.00     0.001 A 
ATOM      6  C   UNL     1      14.176   9.197  12.145  1.00  0.00     0.004 A 
ENDROOT
BRANCH   1   7
ATOM      7  C   UNL     1      11.688  11.658  14.630  1.00  0.00     0.075 C 
ATOM      8  O   UNL     1      10.442  11.484  14.683  1.00  0.00    -0.545 OA
ATOM      9  O   UNL     1      12.261  12.664  15.400  1.00  0.00    -0.545 OA
ENDBRANCH   1   7
BRANCH   2  10
ATOM     10  O   UNL     1      14.164  10.347  15.643  1.00  0.00    -0.507 OA
ATOM     11  H   UNL     1      15.131  10.418  15.925  1.00  0.00     0.293 HD
ENDBRANCH   2  10
TORSDOF 2
ENDMDL
MODEL 9
REMARK VINA RESULT:    -4.312      2.168      3.616
REMARK INTER + INTRA:          -4.942
REMARK INTER:                  -4.702
REMARK INTRA:                  -0.240
REMARK UNBOUND:                -0.252
REMARK SMILES O=C([O-])c1ccccc1O
REMARK SMILES IDX 4 1 9 2 5 3 8 4 6 5 7 6 2 7 1 8 3 9 10 10
REMARK H PARENT 10 11
REMARK Flexibility Score: inf
ROOT
ATOM      1  C   UNL     1      10.723  10.026  14.657  1.00  0.00     0.039 A 
ATOM      2  C   UNL     1      10.768   9.623  13.296  1.00  0.00     0.124 A 
ATOM      3  C   UNL     1      11.752  10.845  15.157  1.00  0.00     0.014 A 
ATOM      4  C   UNL     1      11.860   9.994  12.500  1.00  0.00     0.047 A 
ATOM      5  C   UNL     1      12.822  11.223  14.344  1.00  0.00     0.001 A 
ATOM      6  C   UNL     1      12.882  10.790  13.020  1.00  0.00     0.004 A 
ENDROOT
BRANCH   1   7
ATOM      7  C   UNL     1       9.655   9.595  15.585  1.00  0.00     0.075 C 
ATOM      8  O   UNL     1       9.866   9.517  16.824  1.00  0.00    -0.545 OA
ATOM      9  O   UNL     1       8.377   9.337  15.102  1.00  0.00    -0.545 OA
ENDBRANCH   1   7
BRANCH   2  10
ATOM     10  O   UNL     1       9.743   8.892  12.691  1.00  0.00    -0.507 OA
ATOM     11  H   UNL     1       9.339   8.058  13.094  1.00  0.00     0.293 HD
ENDBRANCH   2  10
TORSDOF 2
ENDMDL
