MODEL 1
REMARK VINA RESULT:    -6.428      0.000      0.000
REMARK INTER + INTRA:          -7.379
REMARK INTER:                  -7.743
REMARK INTRA:                   0.364
REMARK UNBOUND:                 0.364
REMARK SMILES O=c1c(O)c(-c2ccc(O)c(O)c2)oc2cc(O)cc(O)c12
REMARK SMILES IDX 5 1 3 2 2 3 1 4 22 5 20 6 19 7 17 8 16 9 15 10 14 11 6 12
REMARK SMILES IDX 7 13 8 14 9 15 13 16 11 17 10 18 12 20 4 22 21 24 18 26
REMARK H PARENT 10 19 12 21 4 23 21 25 18 27
REMARK Flexibility Score: inf
ROOT
ATOM      1  C   UNL     1      23.575  50.885  -0.528  1.00  0.00     0.180 A 
ATOM      2  C   UNL     1      24.031  50.390   0.706  1.00  0.00     0.208 A 
ATOM      3  C   UNL     1      24.871  51.193   1.494  1.00  0.00     0.238 A 
ATOM      4  O   UNL     1      25.319  50.722   2.571  1.00  0.00    -0.285 OA
ATOM      5  C   UNL     1      25.232  52.486   1.046  1.00  0.00     0.111 A 
ATOM      6  C   UNL     1      26.045  53.401   1.780  1.00  0.00     0.134 A 
ATOM      7  C   UNL     1      26.445  54.602   1.183  1.00  0.00     0.093 A 
ATOM      8  C   UNL     1      26.009  54.951  -0.097  1.00  0.00     0.123 A 
ATOM      9  C   UNL     1      25.166  54.091  -0.798  1.00  0.00     0.094 A 
ATOM     10  C   UNL     1      24.779  52.870  -0.244  1.00  0.00     0.146 A 
ATOM     11  O   UNL     1      23.984  52.075  -0.950  1.00  0.00    -0.452 OA
ENDROOT
BRANCH   1  12
ATOM     12  C   UNL     1      22.666  50.108  -1.402  1.00  0.00     0.025 A 
ATOM     13  C   UNL     1      21.905  49.038  -0.899  1.00  0.00     0.016 A 
ATOM     14  C   UNL     1      21.036  48.334  -1.737  1.00  0.00     0.051 A 
ATOM     15  C   UNL     1      20.904  48.695  -3.082  1.00  0.00     0.157 A 
ATOM     16  C   UNL     1      22.515  50.481  -2.748  1.00  0.00     0.062 A 
ATOM     17  C   UNL     1      21.643  49.775  -3.591  1.00  0.00     0.158 A 
BRANCH  15  18
ATOM     18  O   UNL     1      20.029  47.973  -3.895  1.00  0.00    -0.504 OA
ATOM     19  H   UNL     1      20.089  47.999  -4.905  1.00  0.00     0.293 HD
ENDBRANCH  15  18
BRANCH  17  20
ATOM     20  O   UNL     1      21.511  50.145  -4.929  1.00  0.00    -0.504 OA
ATOM     21  H   UNL     1      20.796  49.741  -5.522  1.00  0.00     0.293 HD
ENDBRANCH  17  20
ENDBRANCH   1  12
BRANCH   2  22
ATOM     22  O   UNL     1      23.680  49.101   1.119  1.00  0.00    -0.502 OA
ATOM     23  H   UNL     1      24.366  48.372   1.267  1.00  0.00     0.293 HD
ENDBRANCH   2  22
BRANCH   6  24
ATOM     24  O   UNL     1      26.460  53.190   3.099  1.00  0.00    -0.507 OA
ATOM     25  H   UNL     1      27.381  53.403   3.452  1.00  0.00     0.293 HD
ENDBRANCH   6  24
BRANCH   8  26
ATOM     26  O   UNL     1      26.399  56.156  -0.678  1.00  0.00    -0.508 OA
ATOM     27  H   UNL     1      25.748  56.924  -0.792  1.00  0.00     0.293 HD
ENDBRANCH   8  26
TORSDOF 6
ENDMDL
MODEL 2
REMARK VINA RESULT:    -6.017      3.521      7.293
REMARK INTER + INTRA:          -6.884
REMARK INTER:                  -6.584
REMARK INTRA:                  -0.300
REMARK UNBOUND:                 0.364
REMARK SMILES O=c1c(O)c(-c2ccc(O)c(O)c2)oc2cc(O)cc(O)c12
REMARK SMILES IDX 5 1 3 2 2 3 1 4 22 5 20 6 19 7 17 8 16 9 15 10 14 11 6 12
REMARK SMILES IDX 7 13 8 14 9 15 13 16 11 17 10 18 12 20 4 22 21 24 18 26
REMARK H PARENT 10 19 12 21 4 23 21 25 18 27
REMARK Flexibility Score: inf
ROOT
ATOM      1  C   UNL     1      26.092  51.405   3.628  1.00  0.00     0.180 A 
ATOM      2  C   UNL     1      25.212  50.588   2.898  1.00  0.00     0.208 A 
ATOM      3  C   UNL     1      24.783  51.012   1.631  1.00  0.00     0.238 A 
ATOM      4  O   UNL     1      23.952  50.302   1.006  1.00  0.00    -0.285 OA
ATOM      5  C   UNL     1      25.250  52.239   1.102  1.00  0.00     0.111 A 
ATOM      6  C   UNL     1      24.912  52.747  -0.188  1.00  0.00     0.134 A 
ATOM      7  C   UNL     1      25.329  54.033  -0.554  1.00  0.00     0.093 A 
ATOM      8  C   UNL     1      26.125  54.802   0.298  1.00  0.00     0.123 A 
ATOM      9  C   UNL     1      26.510  54.290   1.534  1.00  0.00     0.094 A 
ATOM     10  C   UNL     1      26.081  53.026   1.943  1.00  0.00     0.146 A 
ATOM     11  O   UNL     1      26.461  52.580   3.134  1.00  0.00    -0.452 OA
ENDROOT
BRANCH   1  12
ATOM     12  C   UNL     1      26.609  51.014   4.961  1.00  0.00     0.025 A 
ATOM     13  C   UNL     1      25.845  51.201   6.126  1.00  0.00     0.016 A 
ATOM     14  C   UNL     1      26.345  50.803   7.369  1.00  0.00     0.051 A 
ATOM     15  C   UNL     1      27.603  50.200   7.466  1.00  0.00     0.157 A 
ATOM     16  C   UNL     1      27.864  50.389   5.059  1.00  0.00     0.062 A 
ATOM     17  C   UNL     1      28.365  49.988   6.306  1.00  0.00     0.158 A 
BRANCH  15  18
ATOM     18  O   UNL     1      28.075  49.813   8.720  1.00  0.00    -0.504 OA
ATOM     19  H   UNL     1      28.501  48.909   8.879  1.00  0.00     0.293 HD
ENDBRANCH  15  18
BRANCH  17  20
ATOM     20  O   UNL     1      29.618  49.381   6.394  1.00  0.00    -0.504 OA
ATOM     21  H   UNL     1      30.454  49.917   6.593  1.00  0.00     0.293 HD
ENDBRANCH  17  20
ENDBRANCH   1  12
BRANCH   2  22
ATOM     22  O   UNL     1      24.745  49.390   3.448  1.00  0.00    -0.502 OA
ATOM     23  H   UNL     1      24.391  49.328   4.395  1.00  0.00     0.293 HD
ENDBRANCH   2  22
BRANCH   6  24
ATOM     24  O   UNL     1      24.198  52.025  -1.149  1.00  0.00    -0.507 OA
ATOM     25  H   UNL     1      23.757  52.429  -1.961  1.00  0.00     0.293 HD
ENDBRANCH   6  24
BRANCH   8  26
ATOM     26  O   UNL     1      26.549  56.074  -0.082  1.00  0.00    -0.508 OA
ATOM     27  H   UNL     1      27.266  56.570   0.434  1.00  0.00     0.293 HD
ENDBRANCH   8  26
TORSDOF 6
ENDMDL
MODEL 3
REMARK VINA RESULT:    -5.999      2.354      6.778
REMARK INTER + INTRA:          -6.863
REMARK INTER:                  -6.862
REMARK INTRA:                  -0.001
REMARK UNBOUND:                 0.364
REMARK SMILES O=c1c(O)c(-c2ccc(O)c(O)c2)oc2cc(O)cc(O)c12
REMARK SMILES IDX 5 1 3 2 2 3 1 4 22 5 20 6 19 7 17 8 16 9 15 10 14 11 6 12
REMARK SMILES IDX 7 13 8 14 9 15 13 16 11 17 10 18 12 20 4 22 21 24 18 26
REMARK H PARENT 10 19 12 21 4 23 21 25 18 27
REMARK Flexibility Score: inf
ROOT
ATOM      1  C   UNL     1      23.579  51.562   0.400  1.00  0.00     0.180 A 
ATOM      2  C   UNL     1      23.525  50.645  -0.663  1.00  0.00     0.208 A 
ATOM      3  C   UNL     1      22.504  49.682  -0.681  1.00  0.00     0.238 A 
ATOM      4  O   UNL     1      22.494  48.828  -1.606  1.00  0.00    -0.285 OA
ATOM      5  C   UNL     1      21.540  49.658   0.355  1.00  0.00     0.111 A 
ATOM      6  C   UNL     1      20.439  48.752   0.418  1.00  0.00     0.134 A 
ATOM      7  C   UNL     1      19.623  48.734   1.555  1.00  0.00     0.093 A 
ATOM      8  C   UNL     1      19.830  49.634   2.604  1.00  0.00     0.123 A 
ATOM      9  C   UNL     1      20.865  50.561   2.526  1.00  0.00     0.094 A 
ATOM     10  C   UNL     1      21.718  50.580   1.420  1.00  0.00     0.146 A 
ATOM     11  O   UNL     1      22.699  51.474   1.390  1.00  0.00    -0.452 OA
ENDROOT
BRANCH   1  12
ATOM     12  C   UNL     1      24.610  52.623   0.474  1.00  0.00     0.025 A 
ATOM     13  C   UNL     1      25.426  52.772   1.609  1.00  0.00     0.016 A 
ATOM     14  C   UNL     1      26.408  53.765   1.647  1.00  0.00     0.051 A 
ATOM     15  C   UNL     1      26.601  54.612   0.551  1.00  0.00     0.157 A 
ATOM     16  C   UNL     1      24.820  53.462  -0.633  1.00  0.00     0.062 A 
ATOM     17  C   UNL     1      25.806  54.458  -0.597  1.00  0.00     0.158 A 
BRANCH  15  18
ATOM     18  O   UNL     1      27.589  55.595   0.618  1.00  0.00    -0.504 OA
ATOM     19  H   UNL     1      27.659  56.234   1.401  1.00  0.00     0.293 HD
ENDBRANCH  15  18
BRANCH  17  20
ATOM     20  O   UNL     1      25.997  55.295  -1.696  1.00  0.00    -0.504 OA
ATOM     21  H   UNL     1      25.848  56.295  -1.634  1.00  0.00     0.293 HD
ENDBRANCH  17  20
ENDBRANCH   1  12
BRANCH   2  22
ATOM     22  O   UNL     1      24.500  50.671  -1.665  1.00  0.00    -0.502 OA
ATOM     23  H   UNL     1      25.492  50.676  -1.459  1.00  0.00     0.293 HD
ENDBRANCH   2  22
BRANCH   6  24
ATOM     24  O   UNL     1      20.090  47.875  -0.614  1.00  0.00    -0.507 OA
ATOM     25  H   UNL     1      19.341  48.031  -1.272  1.00  0.00     0.293 HD
ENDBRANCH   6  24
BRANCH   8  26
ATOM     26  O   UNL     1      19.002  49.620   3.726  1.00  0.00    -0.508 OA
ATOM     27  H   UNL     1      19.178  50.222   4.521  1.00  0.00     0.293 HD
ENDBRANCH   8  26
TORSDOF 6
ENDMDL
MODEL 4
REMARK VINA RESULT:    -5.939      3.668      5.654
REMARK INTER + INTRA:          -6.790
REMARK INTER:                  -6.467
REMARK INTRA:                  -0.324
REMARK UNBOUND:                 0.364
REMARK SMILES O=c1c(O)c(-c2ccc(O)c(O)c2)oc2cc(O)cc(O)c12
REMARK SMILES IDX 5 1 3 2 2 3 1 4 22 5 20 6 19 7 17 8 16 9 15 10 14 11 6 12
REMARK SMILES IDX 7 13 8 14 9 15 13 16 11 17 10 18 12 20 4 22 21 24 18 26
REMARK H PARENT 10 19 12 21 4 23 21 25 18 27
REMARK Flexibility Score: inf
ROOT
ATOM      1  C   UNL     1      22.567  50.053   1.418  1.00  0.00     0.180 A 
ATOM      2  C   UNL     1      23.581  50.184   2.382  1.00  0.00     0.208 A 
ATOM      3  C   UNL     1      23.264  49.987   3.735  1.00  0.00     0.238 A 
ATOM      4  O   UNL     1      24.163  50.160   4.598  1.00  0.00    -0.285 OA
ATOM      5  C   UNL     1      21.940  49.647   4.106  1.00  0.00     0.111 A 
ATOM      6  C   UNL     1      21.515  49.386   5.443  1.00  0.00     0.134 A 
ATOM      7  C   UNL     1      20.154  49.186   5.708  1.00  0.00     0.093 A 
ATOM      8  C   UNL     1      19.214  49.174   4.675  1.00  0.00     0.123 A 
ATOM      9  C   UNL     1      19.628  49.368   3.360  1.00  0.00     0.094 A 
ATOM     10  C   UNL     1      20.973  49.606   3.068  1.00  0.00     0.146 A 
ATOM     11  O   UNL     1      21.323  49.797   1.802  1.00  0.00    -0.452 OA
ENDROOT
BRANCH   1  12
ATOM     12  C   UNL     1      22.831  50.220  -0.031  1.00  0.00     0.025 A 
ATOM     13  C   UNL     1      22.741  51.478  -0.651  1.00  0.00     0.016 A 
ATOM     14  C   UNL     1      23.017  51.614  -2.014  1.00  0.00     0.051 A 
ATOM     15  C   UNL     1      23.400  50.504  -2.773  1.00  0.00     0.157 A 
ATOM     16  C   UNL     1      23.237  49.110  -0.792  1.00  0.00     0.062 A 
ATOM     17  C   UNL     1      23.515  49.246  -2.160  1.00  0.00     0.158 A 
BRANCH  15  18
ATOM     18  O   UNL     1      23.669  50.671  -4.132  1.00  0.00    -0.504 OA
ATOM     19  H   UNL     1      24.378  51.313  -4.465  1.00  0.00     0.293 HD
ENDBRANCH  15  18
BRANCH  17  20
ATOM     20  O   UNL     1      23.904  48.136  -2.909  1.00  0.00    -0.504 OA
ATOM     21  H   UNL     1      24.658  47.530  -2.607  1.00  0.00     0.293 HD
ENDBRANCH  17  20
ENDBRANCH   1  12
BRANCH   2  22
ATOM     22  O   UNL     1      24.876  50.542   1.996  1.00  0.00    -0.502 OA
ATOM     23  H   UNL     1      25.202  50.460   1.041  1.00  0.00     0.293 HD
ENDBRANCH   2  22
BRANCH   6  24
ATOM     24  O   UNL     1      22.385  49.286   6.533  1.00  0.00    -0.507 OA
ATOM     25  H   UNL     1      22.376  49.901   7.334  1.00  0.00     0.293 HD
ENDBRANCH   6  24
BRANCH   8  26
ATOM     26  O   UNL     1      17.864  48.958   4.946  1.00  0.00    -0.508 OA
ATOM     27  H   UNL     1      17.261  48.481   4.287  1.00  0.00     0.293 HD
ENDBRANCH   8  26
TORSDOF 6
ENDMDL
MODEL 5
REMARK VINA RESULT:    -5.863      6.778      8.838
REMARK INTER + INTRA:          -6.699
REMARK INTER:                  -6.367
REMARK INTRA:                  -0.332
REMARK UNBOUND:                 0.364
REMARK SMILES O=c1c(O)c(-c2ccc(O)c(O)c2)oc2cc(O)cc(O)c12
REMARK SMILES IDX 5 1 3 2 2 3 1 4 22 5 20 6 19 7 17 8 16 9 15 10 14 11 6 12
REMARK SMILES IDX 7 13 8 14 9 15 13 16 11 17 10 18 12 20 4 22 21 24 18 26
REMARK H PARENT 10 19 12 21 4 23 21 25 18 27
REMARK Flexibility Score: inf
ROOT
ATOM      1  C   UNL     1      19.496  49.221   5.169  1.00  0.00     0.180 A 
ATOM      2  C   UNL     1      18.786  48.918   3.994  1.00  0.00     0.208 A 
ATOM      3  C   UNL     1      19.447  48.997   2.759  1.00  0.00     0.238 A 
ATOM      4  O   UNL     1      18.792  48.778   1.707  1.00  0.00    -0.285 OA
ATOM      5  C   UNL     1      20.814  49.362   2.713  1.00  0.00     0.111 A 
ATOM      6  C   UNL     1      21.595  49.436   1.521  1.00  0.00     0.134 A 
ATOM      7  C   UNL     1      22.902  49.934   1.581  1.00  0.00     0.093 A 
ATOM      8  C   UNL     1      23.478  50.301   2.800  1.00  0.00     0.123 A 
ATOM      9  C   UNL     1      22.744  50.176   3.977  1.00  0.00     0.094 A 
ATOM     10  C   UNL     1      21.426  49.716   3.945  1.00  0.00     0.146 A 
ATOM     11  O   UNL     1      20.758  49.623   5.089  1.00  0.00    -0.452 OA
ENDROOT
BRANCH   1  12
ATOM     12  C   UNL     1      18.874  49.134   6.511  1.00  0.00     0.025 A 
ATOM     13  C   UNL     1      18.850  47.927   7.229  1.00  0.00     0.016 A 
ATOM     14  C   UNL     1      18.277  47.875   8.503  1.00  0.00     0.051 A 
ATOM     15  C   UNL     1      17.736  49.027   9.083  1.00  0.00     0.157 A 
ATOM     16  C   UNL     1      18.348  50.294   7.104  1.00  0.00     0.062 A 
ATOM     17  C   UNL     1      17.774  50.244   8.383  1.00  0.00     0.158 A 
BRANCH  15  18
ATOM     18  O   UNL     1      17.171  48.944  10.356  1.00  0.00    -0.504 OA
ATOM     19  H   UNL     1      17.344  48.158  10.971  1.00  0.00     0.293 HD
ENDBRANCH  15  18
BRANCH  17  20
ATOM     20  O   UNL     1      17.242  51.398   8.957  1.00  0.00    -0.504 OA
ATOM     21  H   UNL     1      16.253  51.480   9.163  1.00  0.00     0.293 HD
ENDBRANCH  17  20
ENDBRANCH   1  12
BRANCH   2  22
ATOM     22  O   UNL     1      17.431  48.580   4.060  1.00  0.00    -0.502 OA
ATOM     23  H   UNL     1      16.704  49.169   3.672  1.00  0.00     0.293 HD
ENDBRANCH   2  22
BRANCH   6  24
ATOM     24  O   UNL     1      21.146  49.009   0.267  1.00  0.00    -0.507 OA
ATOM     25  H   UNL     1      21.315  49.497  -0.600  1.00  0.00     0.293 HD
ENDBRANCH   6  24
BRANCH   8  26
ATOM     26  O   UNL     1      24.785  50.781   2.852  1.00  0.00    -0.508 OA
ATOM     27  H   UNL     1      25.560  50.249   2.474  1.00  0.00     0.293 HD
ENDBRANCH   8  26
TORSDOF 6
ENDMDL
MODEL 6
REMARK VINA RESULT:    -5.846      8.745     10.459
REMARK INTER + INTRA:          -6.679
REMARK INTER:                  -6.354
REMARK INTRA:                  -0.325
REMARK UNBOUND:                 0.364
REMARK SMILES O=c1c(O)c(-c2ccc(O)c(O)c2)oc2cc(O)cc(O)c12
REMARK SMILES IDX 5 1 3 2 2 3 1 4 22 5 20 6 19 7 17 8 16 9 15 10 14 11 6 12
REMARK SMILES IDX 7 13 8 14 9 15 13 16 11 17 10 18 12 20 4 22 21 24 18 26
REMARK H PARENT 10 19 12 21 4 23 21 25 18 27
REMARK Flexibility Score: inf
ROOT
ATOM      1  C   UNL     1      30.336  49.535   5.941  1.00  0.00     0.180 A 
ATOM      2  C   UNL     1      30.743  48.966   7.160  1.00  0.00     0.208 A 
ATOM      3  C   UNL     1      29.842  48.946   8.237  1.00  0.00     0.238 A 
ATOM      4  O   UNL     1      30.231  48.486   9.342  1.00  0.00    -0.285 OA
ATOM      5  C   UNL     1      28.541  49.481   8.077  1.00  0.00     0.111 A 
ATOM      6  C   UNL     1      27.534  49.478   9.087  1.00  0.00     0.134 A 
ATOM      7  C   UNL     1      26.326  50.151   8.861  1.00  0.00     0.093 A 
ATOM      8  C   UNL     1      26.066  50.770   7.636  1.00  0.00     0.123 A 
ATOM      9  C   UNL     1      27.020  50.727   6.623  1.00  0.00     0.094 A 
ATOM     10  C   UNL     1      28.247  50.095   6.831  1.00  0.00     0.146 A 
ATOM     11  O   UNL     1      29.133  50.086   5.842  1.00  0.00    -0.452 OA
ENDROOT
BRANCH   1  12
ATOM     12  C   UNL     1      31.221  49.568   4.753  1.00  0.00     0.025 A 
ATOM     13  C   UNL     1      31.176  48.557   3.779  1.00  0.00     0.016 A 
ATOM     14  C   UNL     1      32.004  48.622   2.655  1.00  0.00     0.051 A 
ATOM     15  C   UNL     1      32.876  49.702   2.480  1.00  0.00     0.157 A 
ATOM     16  C   UNL     1      32.083  50.662   4.565  1.00  0.00     0.062 A 
ATOM     17  C   UNL     1      32.914  50.729   3.437  1.00  0.00     0.158 A 
BRANCH  15  18
ATOM     18  O   UNL     1      33.691  49.739   1.348  1.00  0.00    -0.504 OA
ATOM     19  H   UNL     1      33.359  49.450   0.437  1.00  0.00     0.293 HD
ENDBRANCH  15  18
BRANCH  17  20
ATOM     20  O   UNL     1      33.776  51.812   3.266  1.00  0.00    -0.504 OA
ATOM     21  H   UNL     1      34.759  51.749   3.502  1.00  0.00     0.293 HD
ENDBRANCH  17  20
ENDBRANCH   1  12
BRANCH   2  22
ATOM     22  O   UNL     1      32.040  48.464   7.304  1.00  0.00    -0.502 OA
ATOM     23  H   UNL     1      32.513  48.428   8.198  1.00  0.00     0.293 HD
ENDBRANCH   2  22
BRANCH   6  24
ATOM     24  O   UNL     1      27.657  48.812  10.311  1.00  0.00    -0.507 OA
ATOM     25  H   UNL     1      27.179  49.076  11.160  1.00  0.00     0.293 HD
ENDBRANCH   6  24
BRANCH   8  26
ATOM     26  O   UNL     1      24.855  51.424   7.414  1.00  0.00    -0.508 OA
ATOM     27  H   UNL     1      24.479  52.085   8.083  1.00  0.00     0.293 HD
ENDBRANCH   8  26
TORSDOF 6
ENDMDL
MODEL 7
REMARK VINA RESULT:    -5.720      3.561      5.424
REMARK INTER + INTRA:          -6.527
REMARK INTER:                  -6.470
REMARK INTRA:                  -0.057
REMARK UNBOUND:                 0.364
REMARK SMILES O=c1c(O)c(-c2ccc(O)c(O)c2)oc2cc(O)cc(O)c12
REMARK SMILES IDX 5 1 3 2 2 3 1 4 22 5 20 6 19 7 17 8 16 9 15 10 14 11 6 12
REMARK SMILES IDX 7 13 8 14 9 15 13 16 11 17 10 18 12 20 4 22 21 24 18 26
REMARK H PARENT 10 19 12 21 4 23 21 25 18 27
REMARK Flexibility Score: inf
ROOT
ATOM      1  C   UNL     1      24.156  50.498   2.914  1.00  0.00     0.180 A 
ATOM      2  C   UNL     1      23.079  50.125   3.737  1.00  0.00     0.208 A 
ATOM      3  C   UNL     1      23.304  49.940   5.110  1.00  0.00     0.238 A 
ATOM      4  O   UNL     1      22.348  49.553   5.832  1.00  0.00    -0.285 OA
ATOM      5  C   UNL     1      24.598  50.145   5.646  1.00  0.00     0.111 A 
ATOM      6  C   UNL     1      24.931  50.024   7.029  1.00  0.00     0.134 A 
ATOM      7  C   UNL     1      26.270  50.122   7.427  1.00  0.00     0.093 A 
ATOM      8  C   UNL     1      27.279  50.400   6.501  1.00  0.00     0.123 A 
ATOM      9  C   UNL     1      26.955  50.578   5.159  1.00  0.00     0.094 A 
ATOM     10  C   UNL     1      25.634  50.452   4.725  1.00  0.00     0.146 A 
ATOM     11  O   UNL     1      25.370  50.619   3.434  1.00  0.00    -0.452 OA
ENDROOT
BRANCH   1  12
ATOM     12  C   UNL     1      23.991  50.737   1.461  1.00  0.00     0.025 A 
ATOM     13  C   UNL     1      23.449  49.754   0.615  1.00  0.00     0.016 A 
ATOM     14  C   UNL     1      23.282  50.011  -0.749  1.00  0.00     0.051 A 
ATOM     15  C   UNL     1      23.638  51.253  -1.284  1.00  0.00     0.157 A 
ATOM     16  C   UNL     1      24.329  51.991   0.924  1.00  0.00     0.062 A 
ATOM     17  C   UNL     1      24.161  52.250  -0.444  1.00  0.00     0.158 A 
BRANCH  15  18
ATOM     18  O   UNL     1      23.460  51.480  -2.649  1.00  0.00    -0.504 OA
ATOM     19  H   UNL     1      23.908  50.906  -3.352  1.00  0.00     0.293 HD
ENDBRANCH  15  18
BRANCH  17  20
ATOM     20  O   UNL     1      24.512  53.493  -0.969  1.00  0.00    -0.504 OA
ATOM     21  H   UNL     1      23.810  54.164  -1.259  1.00  0.00     0.293 HD
ENDBRANCH  17  20
ENDBRANCH   1  12
BRANCH   2  22
ATOM     22  O   UNL     1      21.814  49.907   3.183  1.00  0.00    -0.502 OA
ATOM     23  H   UNL     1      21.649  49.220   2.458  1.00  0.00     0.293 HD
ENDBRANCH   2  22
BRANCH   6  24
ATOM     24  O   UNL     1      23.989  49.837   8.045  1.00  0.00    -0.507 OA
ATOM     25  H   UNL     1      23.735  50.535   8.729  1.00  0.00     0.293 HD
ENDBRANCH   6  24
BRANCH   8  26
ATOM     26  O   UNL     1      28.607  50.511   6.910  1.00  0.00    -0.508 OA
ATOM     27  H   UNL     1      29.364  50.123   6.360  1.00  0.00     0.293 HD
ENDBRANCH   8  26
TORSDOF 6
ENDMDL
MODEL 8
REMARK VINA RESULT:    -5.649      3.135      6.926
REMARK INTER + INTRA:          -6.441
REMARK INTER:                  -6.118
REMARK INTRA:                  -0.323
REMARK UNBOUND:                 0.364
REMARK SMILES O=c1c(O)c(-c2ccc(O)c(O)c2)oc2cc(O)cc(O)c12
REMARK SMILES IDX 5 1 3 2 2 3 1 4 22 5 20 6 19 7 17 8 16 9 15 10 14 11 6 12
REMARK SMILES IDX 7 13 8 14 9 15 13 16 11 17 10 18 12 20 4 22 21 24 18 26
REMARK H PARENT 10 19 12 21 4 23 21 25 18 27
REMARK Flexibility Score: inf
ROOT
ATOM      1  C   UNL     1      24.948  50.542   2.788  1.00  0.00     0.180 A 
ATOM      2  C   UNL     1      25.537  51.780   2.482  1.00  0.00     0.208 A 
ATOM      3  C   UNL     1      25.204  52.412   1.274  1.00  0.00     0.238 A 
ATOM      4  O   UNL     1      25.777  53.494   0.980  1.00  0.00    -0.285 OA
ATOM      5  C   UNL     1      24.275  51.807   0.395  1.00  0.00     0.111 A 
ATOM      6  C   UNL     1      23.833  52.377  -0.837  1.00  0.00     0.134 A 
ATOM      7  C   UNL     1      23.010  51.630  -1.689  1.00  0.00     0.093 A 
ATOM      8  C   UNL     1      22.561  50.359  -1.322  1.00  0.00     0.123 A 
ATOM      9  C   UNL     1      22.937  49.819  -0.096  1.00  0.00     0.094 A 
ATOM     10  C   UNL     1      23.786  50.525   0.759  1.00  0.00     0.146 A 
ATOM     11  O   UNL     1      24.130  49.968   1.915  1.00  0.00    -0.452 OA
ENDROOT
BRANCH   1  12
ATOM     12  C   UNL     1      25.230  49.827   4.055  1.00  0.00     0.025 A 
ATOM     13  C   UNL     1      26.285  48.904   4.155  1.00  0.00     0.016 A 
ATOM     14  C   UNL     1      26.547  48.259   5.367  1.00  0.00     0.051 A 
ATOM     15  C   UNL     1      25.771  48.535   6.498  1.00  0.00     0.157 A 
ATOM     16  C   UNL     1      24.465  50.118   5.198  1.00  0.00     0.062 A 
ATOM     17  C   UNL     1      24.727  49.472   6.415  1.00  0.00     0.158 A 
BRANCH  15  18
ATOM     18  O   UNL     1      26.055  47.875   7.693  1.00  0.00    -0.504 OA
ATOM     19  H   UNL     1      25.999  48.341   8.591  1.00  0.00     0.293 HD
ENDBRANCH  15  18
BRANCH  17  20
ATOM     20  O   UNL     1      23.953  49.757   7.539  1.00  0.00    -0.504 OA
ATOM     21  H   UNL     1      22.996  50.079   7.457  1.00  0.00     0.293 HD
ENDBRANCH  17  20
ENDBRANCH   1  12
BRANCH   2  22
ATOM     22  O   UNL     1      26.470  52.350   3.354  1.00  0.00    -0.502 OA
ATOM     23  H   UNL     1      26.283  53.201   3.869  1.00  0.00     0.293 HD
ENDBRANCH   2  22
BRANCH   6  24
ATOM     24  O   UNL     1      24.151  53.673  -1.255  1.00  0.00    -0.507 OA
ATOM     25  H   UNL     1      23.951  54.511  -0.730  1.00  0.00     0.293 HD
ENDBRANCH   6  24
BRANCH   8  26
ATOM     26  O   UNL     1      21.728  49.628  -2.169  1.00  0.00    -0.508 OA
ATOM     27  H   UNL     1      21.118  50.086  -2.835  1.00  0.00     0.293 HD
ENDBRANCH   8  26
TORSDOF 6
ENDMDL
MODEL 9
REMARK VINA RESULT:    -5.635      2.735      4.675
REMARK INTER + INTRA:          -6.425
REMARK INTER:                  -6.148
REMARK INTRA:                  -0.277
REMARK UNBOUND:                 0.364
REMARK SMILES O=c1c(O)c(-c2ccc(O)c(O)c2)oc2cc(O)cc(O)c12
REMARK SMILES IDX 5 1 3 2 2 3 1 4 22 5 20 6 19 7 17 8 16 9 15 10 14 11 6 12
REMARK SMILES IDX 7 13 8 14 9 15 13 16 11 17 10 18 12 20 4 22 21 24 18 26
REMARK H PARENT 10 19 12 21 4 23 21 25 18 27
REMARK Flexibility Score: inf
ROOT
ATOM      1  C   UNL     1      23.030  50.344  -0.798  1.00  0.00     0.180 A 
ATOM      2  C   UNL     1      24.091  50.851  -0.029  1.00  0.00     0.208 A 
ATOM      3  C   UNL     1      23.982  50.845   1.371  1.00  0.00     0.238 A 
ATOM      4  O   UNL     1      24.911  51.350   2.052  1.00  0.00    -0.285 OA
ATOM      5  C   UNL     1      22.820  50.318   1.984  1.00  0.00     0.111 A 
ATOM      6  C   UNL     1      22.618  50.225   3.394  1.00  0.00     0.134 A 
ATOM      7  C   UNL     1      21.376  49.806   3.888  1.00  0.00     0.093 A 
ATOM      8  C   UNL     1      20.352  49.416   3.022  1.00  0.00     0.123 A 
ATOM      9  C   UNL     1      20.559  49.446   1.646  1.00  0.00     0.094 A 
ATOM     10  C   UNL     1      21.775  49.893   1.122  1.00  0.00     0.146 A 
ATOM     11  O   UNL     1      21.927  49.916  -0.197  1.00  0.00    -0.452 OA
ENDROOT
BRANCH   1  12
ATOM     12  C   UNL     1      23.084  50.293  -2.278  1.00  0.00     0.025 A 
ATOM     13  C   UNL     1      22.415  51.244  -3.067  1.00  0.00     0.016 A 
ATOM     14  C   UNL     1      22.499  51.189  -4.461  1.00  0.00     0.051 A 
ATOM     15  C   UNL     1      23.261  50.197  -5.086  1.00  0.00     0.157 A 
ATOM     16  C   UNL     1      23.866  49.310  -2.907  1.00  0.00     0.062 A 
ATOM     17  C   UNL     1      23.952  49.254  -4.306  1.00  0.00     0.158 A 
BRANCH  15  18
ATOM     18  O   UNL     1      23.326  50.167  -6.479  1.00  0.00    -0.504 OA
ATOM     19  H   UNL     1      22.980  49.383  -7.017  1.00  0.00     0.293 HD
ENDBRANCH  15  18
BRANCH  17  20
ATOM     20  O   UNL     1      24.720  48.267  -4.922  1.00  0.00    -0.504 OA
ATOM     21  H   UNL     1      24.969  47.411  -4.440  1.00  0.00     0.293 HD
ENDBRANCH  17  20
ENDBRANCH   1  12
BRANCH   2  22
ATOM     22  O   UNL     1      25.221  51.387  -0.655  1.00  0.00    -0.502 OA
ATOM     23  H   UNL     1      26.163  51.156  -0.367  1.00  0.00     0.293 HD
ENDBRANCH   2  22
BRANCH   6  24
ATOM     24  O   UNL     1      23.606  50.504   4.343  1.00  0.00    -0.507 OA
ATOM     25  H   UNL     1      24.177  51.336   4.352  1.00  0.00     0.293 HD
ENDBRANCH   6  24
BRANCH   8  26
ATOM     26  O   UNL     1      19.124  48.985   3.523  1.00  0.00    -0.508 OA
ATOM     27  H   UNL     1      18.556  49.579   4.115  1.00  0.00     0.293 HD
ENDBRANCH   8  26
TORSDOF 6
ENDMDL
