MODEL 1
REMARK VINA RESULT:    -5.214      0.000      0.000
REMARK INTER + INTRA:         -11.140
REMARK INTER:                  -9.482
REMARK INTRA:                  -1.659
REMARK UNBOUND:                -1.659
REMARK SMILES CCCCCCCCCCCCCC[C@@H](C)C(=O)[O-]
REMARK SMILES IDX 9 1 10 2 11 3 12 4 13 5 14 6 15 7 16 8 17 9 18 10 19 11 8 12
REMARK SMILES IDX 7 13 6 14 5 15 4 16 3 17 2 18 1 19
REMARK H PARENT
REMARK Flexibility Score: inf
ROOT
ATOM      1  C   UNL     1      45.332  -7.434  26.767  1.00  0.00     0.000 C 
ENDROOT
BRANCH   1   2
ATOM      2  C   UNL     1      45.870  -6.067  27.219  1.00  0.00     0.000 C 
BRANCH   2   3
ATOM      3  C   UNL     1      44.959  -4.932  26.728  1.00  0.00     0.000 C 
BRANCH   3   4
ATOM      4  C   UNL     1      43.465  -5.239  26.927  1.00  0.00     0.000 C 
BRANCH   4   5
ATOM      5  C   UNL     1      42.916  -4.877  28.321  1.00  0.00     0.001 C 
BRANCH   5   6
ATOM      6  C   UNL     1      42.546  -3.382  28.472  1.00  0.00     0.009 C 
BRANCH   6   7
ATOM      7  C   UNL     1      43.470  -2.615  29.447  1.00  0.00     0.032 C 
ATOM      8  C   UNL     1      44.527  -1.785  28.702  1.00  0.00     0.014 C 
BRANCH   7   9
ATOM      9  C   UNL     1      42.656  -1.717  30.336  1.00  0.00     0.044 C 
ATOM     10  O   UNL     1      41.590  -1.195  29.915  1.00  0.00    -0.550 OA
ATOM     11  O   UNL     1      43.079  -1.458  31.634  1.00  0.00    -0.550 OA
ENDBRANCH   7   9
ENDBRANCH   6   7
ENDBRANCH   5   6
ENDBRANCH   4   5
ENDBRANCH   3   4
ENDBRANCH   2   3
ENDBRANCH   1   2
BRANCH   1  12
ATOM     12  C   UNL     1      46.051  -7.971  25.518  1.00  0.00     0.000 C 
BRANCH  12  13
ATOM     13  C   UNL     1      45.244  -7.744  24.229  1.00  0.00    -0.000 C 
BRANCH  13  14
ATOM     14  C   UNL     1      46.141  -7.643  22.984  1.00  0.00    -0.000 C 
BRANCH  14  15
ATOM     15  C   UNL     1      47.638  -7.585  23.334  1.00  0.00    -0.000 C 
BRANCH  15  16
ATOM     16  C   UNL     1      48.278  -6.226  22.997  1.00  0.00    -0.000 C 
BRANCH  16  17
ATOM     17  C   UNL     1      48.596  -5.340  24.216  1.00  0.00    -0.000 C 
BRANCH  17  18
ATOM     18  C   UNL     1      49.133  -6.140  25.412  1.00  0.00    -0.003 C 
ATOM     19  C   UNL     1      50.638  -6.361  25.294  1.00  0.00     0.004 C 
ENDBRANCH  17  18
ENDBRANCH  16  17
ENDBRANCH  15  16
ENDBRANCH  14  15
ENDBRANCH  13  14
ENDBRANCH  12  13
ENDBRANCH   1  12
TORSDOF 14
ENDMDL
MODEL 2
REMARK VINA RESULT:    -5.209      3.392      4.369
REMARK INTER + INTRA:         -11.132
REMARK INTER:                  -9.706
REMARK INTRA:                  -1.425
REMARK UNBOUND:                -1.659
REMARK SMILES CCCCCCCCCCCCCC[C@@H](C)C(=O)[O-]
REMARK SMILES IDX 9 1 10 2 11 3 12 4 13 5 14 6 15 7 16 8 17 9 18 10 19 11 8 12
REMARK SMILES IDX 7 13 6 14 5 15 4 16 3 17 2 18 1 19
REMARK H PARENT
REMARK Flexibility Score: inf
ROOT
ATOM      1  C   UNL     1      44.683  -5.803  26.634  1.00  0.00     0.000 C 
ENDROOT
BRANCH   1   2
ATOM      2  C   UNL     1      44.580  -4.866  27.847  1.00  0.00     0.000 C 
BRANCH   2   3
ATOM      3  C   UNL     1      43.208  -4.998  28.524  1.00  0.00     0.000 C 
BRANCH   3   4
ATOM      4  C   UNL     1      42.168  -4.015  27.960  1.00  0.00     0.000 C 
BRANCH   4   5
ATOM      5  C   UNL     1      41.258  -4.601  26.864  1.00  0.00     0.001 C 
BRANCH   5   6
ATOM      6  C   UNL     1      40.556  -5.916  27.278  1.00  0.00     0.009 C 
BRANCH   6   7
ATOM      7  C   UNL     1      39.021  -5.882  27.088  1.00  0.00     0.032 C 
ATOM      8  C   UNL     1      38.508  -4.457  26.834  1.00  0.00     0.014 C 
BRANCH   7   9
ATOM      9  C   UNL     1      38.619  -6.775  25.948  1.00  0.00     0.044 C 
ATOM     10  O   UNL     1      38.550  -8.024  26.107  1.00  0.00    -0.550 OA
ATOM     11  O   UNL     1      38.319  -6.226  24.708  1.00  0.00    -0.550 OA
ENDBRANCH   7   9
ENDBRANCH   6   7
ENDBRANCH   5   6
ENDBRANCH   4   5
ENDBRANCH   3   4
ENDBRANCH   2   3
ENDBRANCH   1   2
BRANCH   1  12
ATOM     12  C   UNL     1      45.681  -6.952  26.853  1.00  0.00     0.000 C 
BRANCH  12  13
ATOM     13  C   UNL     1      45.564  -8.049  25.782  1.00  0.00    -0.000 C 
BRANCH  13  14
ATOM     14  C   UNL     1      45.289  -7.476  24.381  1.00  0.00    -0.000 C 
BRANCH  14  15
ATOM     15  C   UNL     1      46.352  -7.896  23.350  1.00  0.00    -0.000 C 
BRANCH  15  16
ATOM     16  C   UNL     1      47.564  -6.947  23.323  1.00  0.00    -0.000 C 
BRANCH  16  17
ATOM     17  C   UNL     1      48.887  -7.573  23.802  1.00  0.00    -0.000 C 
BRANCH  17  18
ATOM     18  C   UNL     1      49.263  -7.154  25.231  1.00  0.00    -0.003 C 
ATOM     19  C   UNL     1      48.865  -5.707  25.502  1.00  0.00     0.004 C 
ENDBRANCH  17  18
ENDBRANCH  16  17
ENDBRANCH  15  16
ENDBRANCH  14  15
ENDBRANCH  13  14
ENDBRANCH  12  13
ENDBRANCH   1  12
TORSDOF 14
ENDMDL
MODEL 3
REMARK VINA RESULT:    -5.093      1.923      3.656
REMARK INTER + INTRA:         -10.921
REMARK INTER:                  -9.404
REMARK INTRA:                  -1.516
REMARK UNBOUND:                -1.659
REMARK SMILES CCCCCCCCCCCCCC[C@@H](C)C(=O)[O-]
REMARK SMILES IDX 9 1 10 2 11 3 12 4 13 5 14 6 15 7 16 8 17 9 18 10 19 11 8 12
REMARK SMILES IDX 7 13 6 14 5 15 4 16 3 17 2 18 1 19
REMARK H PARENT
REMARK Flexibility Score: inf
ROOT
ATOM      1  C   UNL     1      46.663  -3.625  26.175  1.00  0.00     0.000 C 
ENDROOT
BRANCH   1   2
ATOM      2  C   UNL     1      46.044  -3.173  27.508  1.00  0.00     0.000 C 
BRANCH   2   3
ATOM      3  C   UNL     1      46.095  -1.644  27.642  1.00  0.00     0.000 C 
BRANCH   3   4
ATOM      4  C   UNL     1      45.035  -1.095  28.612  1.00  0.00     0.000 C 
BRANCH   4   5
ATOM      5  C   UNL     1      43.738  -1.924  28.682  1.00  0.00     0.001 C 
BRANCH   5   6
ATOM      6  C   UNL     1      43.434  -2.482  30.093  1.00  0.00     0.009 C 
BRANCH   6   7
ATOM      7  C   UNL     1      42.182  -3.389  30.140  1.00  0.00     0.032 C 
ATOM      8  C   UNL     1      41.447  -3.420  28.792  1.00  0.00     0.014 C 
BRANCH   7   9
ATOM      9  C   UNL     1      42.567  -4.786  30.540  1.00  0.00     0.044 C 
ATOM     10  O   UNL     1      42.733  -5.679  29.666  1.00  0.00    -0.550 OA
ATOM     11  O   UNL     1      42.742  -5.100  31.881  1.00  0.00    -0.550 OA
ENDBRANCH   7   9
ENDBRANCH   6   7
ENDBRANCH   5   6
ENDBRANCH   4   5
ENDBRANCH   3   4
ENDBRANCH   2   3
ENDBRANCH   1   2
BRANCH   1  12
ATOM     12  C   UNL     1      47.852  -4.581  26.366  1.00  0.00     0.000 C 
BRANCH  12  13
ATOM     13  C   UNL     1      48.355  -5.170  25.037  1.00  0.00    -0.000 C 
BRANCH  13  14
ATOM     14  C   UNL     1      48.998  -6.555  25.214  1.00  0.00    -0.000 C 
BRANCH  14  15
ATOM     15  C   UNL     1      48.138  -7.688  24.627  1.00  0.00    -0.000 C 
BRANCH  15  16
ATOM     16  C   UNL     1      46.784  -7.191  24.089  1.00  0.00    -0.000 C 
BRANCH  16  17
ATOM     17  C   UNL     1      45.549  -7.778  24.799  1.00  0.00    -0.000 C 
BRANCH  17  18
ATOM     18  C   UNL     1      45.706  -7.830  26.326  1.00  0.00    -0.003 C 
ATOM     19  C   UNL     1      44.870  -6.747  27.000  1.00  0.00     0.004 C 
ENDBRANCH  17  18
ENDBRANCH  16  17
ENDBRANCH  15  16
ENDBRANCH  14  15
ENDBRANCH  13  14
ENDBRANCH  12  13
ENDBRANCH   1  12
TORSDOF 14
ENDMDL
MODEL 4
REMARK VINA RESULT:    -5.070      2.791      7.034
REMARK INTER + INTRA:         -10.879
REMARK INTER:                  -9.529
REMARK INTRA:                  -1.350
REMARK UNBOUND:                -1.659
REMARK SMILES CCCCCCCCCCCCCC[C@@H](C)C(=O)[O-]
REMARK SMILES IDX 9 1 10 2 11 3 12 4 13 5 14 6 15 7 16 8 17 9 18 10 19 11 8 12
REMARK SMILES IDX 7 13 6 14 5 15 4 16 3 17 2 18 1 19
REMARK H PARENT
REMARK Flexibility Score: inf
ROOT
ATOM      1  C   UNL     1      44.920  -6.893  26.971  1.00  0.00     0.000 C 
ENDROOT
BRANCH   1   2
ATOM      2  C   UNL     1      46.004  -7.665  26.202  1.00  0.00     0.000 C 
BRANCH   2   3
ATOM      3  C   UNL     1      45.841  -7.470  24.687  1.00  0.00     0.000 C 
BRANCH   3   4
ATOM      4  C   UNL     1      47.143  -7.728  23.910  1.00  0.00     0.000 C 
BRANCH   4   5
ATOM      5  C   UNL     1      47.599  -6.560  23.015  1.00  0.00     0.001 C 
BRANCH   5   6
ATOM      6  C   UNL     1      48.546  -5.565  23.728  1.00  0.00     0.009 C 
BRANCH   6   7
ATOM      7  C   UNL     1      48.958  -6.018  25.150  1.00  0.00     0.032 C 
ATOM      8  C   UNL     1      50.411  -6.512  25.194  1.00  0.00     0.014 C 
BRANCH   7   9
ATOM      9  C   UNL     1      48.776  -4.891  26.127  1.00  0.00     0.044 C 
ATOM     10  O   UNL     1      49.763  -4.420  26.753  1.00  0.00    -0.550 OA
ATOM     11  O   UNL     1      47.511  -4.360  26.346  1.00  0.00    -0.550 OA
ENDBRANCH   7   9
ENDBRANCH   6   7
ENDBRANCH   5   6
ENDBRANCH   4   5
ENDBRANCH   3   4
ENDBRANCH   2   3
ENDBRANCH   1   2
BRANCH   1  12
ATOM     12  C   UNL     1      44.330  -5.730  26.158  1.00  0.00     0.000 C 
BRANCH  12  13
ATOM     13  C   UNL     1      42.992  -5.229  26.729  1.00  0.00    -0.000 C 
BRANCH  13  14
ATOM     14  C   UNL     1      42.859  -5.497  28.237  1.00  0.00    -0.000 C 
BRANCH  14  15
ATOM     15  C   UNL     1      41.886  -4.526  28.929  1.00  0.00    -0.000 C 
BRANCH  15  16
ATOM     16  C   UNL     1      42.356  -4.111  30.335  1.00  0.00    -0.000 C 
BRANCH  16  17
ATOM     17  C   UNL     1      43.275  -2.876  30.371  1.00  0.00    -0.000 C 
BRANCH  17  18
ATOM     18  C   UNL     1      43.249  -2.072  29.062  1.00  0.00    -0.003 C 
ATOM     19  C   UNL     1      44.659  -1.685  28.628  1.00  0.00     0.004 C 
ENDBRANCH  17  18
ENDBRANCH  16  17
ENDBRANCH  15  16
ENDBRANCH  14  15
ENDBRANCH  13  14
ENDBRANCH  12  13
ENDBRANCH   1  12
TORSDOF 14
ENDMDL
MODEL 5
REMARK VINA RESULT:    -5.066      4.584      8.426
REMARK INTER + INTRA:         -10.872
REMARK INTER:                 -10.022
REMARK INTRA:                  -0.850
REMARK UNBOUND:                -1.659
REMARK SMILES CCCCCCCCCCCCCC[C@@H](C)C(=O)[O-]
REMARK SMILES IDX 9 1 10 2 11 3 12 4 13 5 14 6 15 7 16 8 17 9 18 10 19 11 8 12
REMARK SMILES IDX 7 13 6 14 5 15 4 16 3 17 2 18 1 19
REMARK H PARENT
REMARK Flexibility Score: inf
ROOT
ATOM      1  C   UNL     1      43.830  -5.134  28.290  1.00  0.00     0.000 C 
ENDROOT
BRANCH   1   2
ATOM      2  C   UNL     1      45.284  -5.066  27.796  1.00  0.00     0.000 C 
BRANCH   2   3
ATOM      3  C   UNL     1      45.411  -5.671  26.390  1.00  0.00     0.000 C 
BRANCH   3   4
ATOM      4  C   UNL     1      45.598  -7.198  26.413  1.00  0.00     0.000 C 
BRANCH   4   5
ATOM      5  C   UNL     1      45.855  -7.834  25.034  1.00  0.00     0.001 C 
BRANCH   5   6
ATOM      6  C   UNL     1      46.773  -6.987  24.121  1.00  0.00     0.009 C 
BRANCH   6   7
ATOM      7  C   UNL     1      48.227  -7.511  24.052  1.00  0.00     0.032 C 
ATOM      8  C   UNL     1      48.711  -7.667  22.603  1.00  0.00     0.014 C 
BRANCH   7   9
ATOM      9  C   UNL     1      49.149  -6.586  24.797  1.00  0.00     0.044 C 
ATOM     10  O   UNL     1      48.692  -5.588  25.415  1.00  0.00    -0.550 OA
ATOM     11  O   UNL     1      50.516  -6.831  24.808  1.00  0.00    -0.550 OA
ENDBRANCH   7   9
ENDBRANCH   6   7
ENDBRANCH   5   6
ENDBRANCH   4   5
ENDBRANCH   3   4
ENDBRANCH   2   3
ENDBRANCH   1   2
BRANCH   1  12
ATOM     12  C   UNL     1      42.809  -5.070  27.142  1.00  0.00     0.000 C 
BRANCH  12  13
ATOM     13  C   UNL     1      41.465  -4.464  27.580  1.00  0.00    -0.000 C 
BRANCH  13  14
ATOM     14  C   UNL     1      40.450  -4.389  26.428  1.00  0.00    -0.000 C 
BRANCH  14  15
ATOM     15  C   UNL     1      39.060  -3.920  26.891  1.00  0.00    -0.000 C 
BRANCH  15  16
ATOM     16  C   UNL     1      38.010  -5.046  26.866  1.00  0.00    -0.000 C 
BRANCH  16  17
ATOM     17  C   UNL     1      38.499  -6.372  26.254  1.00  0.00    -0.000 C 
BRANCH  17  18
ATOM     18  C   UNL     1      37.922  -6.634  24.855  1.00  0.00    -0.003 C 
ATOM     19  C   UNL     1      36.521  -7.230  24.941  1.00  0.00     0.004 C 
ENDBRANCH  17  18
ENDBRANCH  16  17
ENDBRANCH  15  16
ENDBRANCH  14  15
ENDBRANCH  13  14
ENDBRANCH  12  13
ENDBRANCH   1  12
TORSDOF 14
ENDMDL
MODEL 6
REMARK VINA RESULT:    -5.008      3.789      4.958
REMARK INTER + INTRA:         -10.765
REMARK INTER:                  -9.732
REMARK INTRA:                  -1.033
REMARK UNBOUND:                -1.659
REMARK SMILES CCCCCCCCCCCCCC[C@@H](C)C(=O)[O-]
REMARK SMILES IDX 9 1 10 2 11 3 12 4 13 5 14 6 15 7 16 8 17 9 18 10 19 11 8 12
REMARK SMILES IDX 7 13 6 14 5 15 4 16 3 17 2 18 1 19
REMARK H PARENT
REMARK Flexibility Score: inf
ROOT
ATOM      1  C   UNL     1      44.049  -5.812  26.729  1.00  0.00     0.000 C 
ENDROOT
BRANCH   1   2
ATOM      2  C   UNL     1      43.907  -4.775  27.854  1.00  0.00     0.000 C 
BRANCH   2   3
ATOM      3  C   UNL     1      42.463  -4.258  27.941  1.00  0.00     0.000 C 
BRANCH   3   4
ATOM      4  C   UNL     1      41.577  -4.771  26.793  1.00  0.00     0.000 C 
BRANCH   4   5
ATOM      5  C   UNL     1      40.166  -4.153  26.746  1.00  0.00     0.001 C 
BRANCH   5   6
ATOM      6  C   UNL     1      39.086  -5.115  26.196  1.00  0.00     0.009 C 
BRANCH   6   7
ATOM      7  C   UNL     1      39.108  -6.511  26.863  1.00  0.00     0.032 C 
ATOM      8  C   UNL     1      38.667  -6.451  28.333  1.00  0.00     0.014 C 
BRANCH   7   9
ATOM      9  C   UNL     1      38.221  -7.461  26.107  1.00  0.00     0.044 C 
ATOM     10  O   UNL     1      37.864  -7.202  24.927  1.00  0.00    -0.550 OA
ATOM     11  O   UNL     1      37.791  -8.636  26.710  1.00  0.00    -0.550 OA
ENDBRANCH   7   9
ENDBRANCH   6   7
ENDBRANCH   5   6
ENDBRANCH   4   5
ENDBRANCH   3   4
ENDBRANCH   2   3
ENDBRANCH   1   2
BRANCH   1  12
ATOM     12  C   UNL     1      45.059  -6.920  27.066  1.00  0.00     0.000 C 
BRANCH  12  13
ATOM     13  C   UNL     1      45.661  -7.573  25.811  1.00  0.00    -0.000 C 
BRANCH  13  14
ATOM     14  C   UNL     1      47.182  -7.366  25.712  1.00  0.00    -0.000 C 
BRANCH  14  15
ATOM     15  C   UNL     1      47.560  -5.934  25.294  1.00  0.00    -0.000 C 
BRANCH  15  16
ATOM     16  C   UNL     1      48.534  -5.898  24.102  1.00  0.00    -0.000 C 
BRANCH  16  17
ATOM     17  C   UNL     1      48.885  -7.277  23.511  1.00  0.00    -0.000 C 
BRANCH  17  18
ATOM     18  C   UNL     1      48.293  -7.495  22.111  1.00  0.00    -0.003 C 
ATOM     19  C   UNL     1      46.780  -7.675  22.177  1.00  0.00     0.004 C 
ENDBRANCH  17  18
ENDBRANCH  16  17
ENDBRANCH  15  16
ENDBRANCH  14  15
ENDBRANCH  13  14
ENDBRANCH  12  13
ENDBRANCH   1  12
TORSDOF 14
ENDMDL
MODEL 7
REMARK VINA RESULT:    -4.996      2.735      4.097
REMARK INTER + INTRA:         -10.744
REMARK INTER:                  -9.449
REMARK INTRA:                  -1.296
REMARK UNBOUND:                -1.659
REMARK SMILES CCCCCCCCCCCCCC[C@@H](C)C(=O)[O-]
REMARK SMILES IDX 9 1 10 2 11 3 12 4 13 5 14 6 15 7 16 8 17 9 18 10 19 11 8 12
REMARK SMILES IDX 7 13 6 14 5 15 4 16 3 17 2 18 1 19
REMARK H PARENT
REMARK Flexibility Score: inf
ROOT
ATOM      1  C   UNL     1      44.894  -4.897  27.629  1.00  0.00     0.000 C 
ENDROOT
BRANCH   1   2
ATOM      2  C   UNL     1      44.032  -3.899  28.419  1.00  0.00     0.000 C 
BRANCH   2   3
ATOM      3  C   UNL     1      43.078  -4.635  29.371  1.00  0.00     0.000 C 
BRANCH   3   4
ATOM      4  C   UNL     1      41.608  -4.227  29.175  1.00  0.00     0.000 C 
BRANCH   4   5
ATOM      5  C   UNL     1      40.837  -5.077  28.146  1.00  0.00     0.001 C 
BRANCH   5   6
ATOM      6  C   UNL     1      40.629  -4.366  26.788  1.00  0.00     0.009 C 
BRANCH   6   7
ATOM      7  C   UNL     1      39.162  -4.393  26.298  1.00  0.00     0.032 C 
ATOM      8  C   UNL     1      38.682  -5.823  26.006  1.00  0.00     0.014 C 
BRANCH   7   9
ATOM      9  C   UNL     1      38.261  -3.756  27.318  1.00  0.00     0.044 C 
ATOM     10  O   UNL     1      38.369  -2.530  27.591  1.00  0.00    -0.550 OA
ATOM     11  O   UNL     1      37.300  -4.519  27.969  1.00  0.00    -0.550 OA
ENDBRANCH   7   9
ENDBRANCH   6   7
ENDBRANCH   5   6
ENDBRANCH   4   5
ENDBRANCH   3   4
ENDBRANCH   2   3
ENDBRANCH   1   2
BRANCH   1  12
ATOM     12  C   UNL     1      44.066  -5.765  26.667  1.00  0.00     0.000 C 
BRANCH  12  13
ATOM     13  C   UNL     1      44.920  -6.391  25.552  1.00  0.00    -0.000 C 
BRANCH  13  14
ATOM     14  C   UNL     1      45.594  -7.701  25.993  1.00  0.00    -0.000 C 
BRANCH  14  15
ATOM     15  C   UNL     1      47.130  -7.633  25.917  1.00  0.00    -0.000 C 
BRANCH  15  16
ATOM     16  C   UNL     1      47.631  -6.660  24.835  1.00  0.00    -0.000 C 
BRANCH  16  17
ATOM     17  C   UNL     1      48.701  -7.237  23.890  1.00  0.00    -0.000 C 
BRANCH  17  18
ATOM     18  C   UNL     1      48.256  -7.252  22.420  1.00  0.00    -0.003 C 
ATOM     19  C   UNL     1      46.820  -7.750  22.287  1.00  0.00     0.004 C 
ENDBRANCH  17  18
ENDBRANCH  16  17
ENDBRANCH  15  16
ENDBRANCH  14  15
ENDBRANCH  13  14
ENDBRANCH  12  13
ENDBRANCH   1  12
TORSDOF 14
ENDMDL
MODEL 8
REMARK VINA RESULT:    -4.984      4.036      8.229
REMARK INTER + INTRA:         -10.721
REMARK INTER:                  -9.129
REMARK INTRA:                  -1.592
REMARK UNBOUND:                -1.659
REMARK SMILES CCCCCCCCCCCCCC[C@@H](C)C(=O)[O-]
REMARK SMILES IDX 9 1 10 2 11 3 12 4 13 5 14 6 15 7 16 8 17 9 18 10 19 11 8 12
REMARK SMILES IDX 7 13 6 14 5 15 4 16 3 17 2 18 1 19
REMARK H PARENT
REMARK Flexibility Score: inf
ROOT
ATOM      1  C   UNL     1      44.400  -3.732  28.465  1.00  0.00     0.000 C 
ENDROOT
BRANCH   1   2
ATOM      2  C   UNL     1      45.486  -4.226  27.496  1.00  0.00     0.000 C 
BRANCH   2   3
ATOM      3  C   UNL     1      45.463  -5.758  27.387  1.00  0.00     0.000 C 
BRANCH   3   4
ATOM      4  C   UNL     1      44.848  -6.252  26.067  1.00  0.00     0.000 C 
BRANCH   4   5
ATOM      5  C   UNL     1      45.445  -7.567  25.532  1.00  0.00     0.001 C 
BRANCH   5   6
ATOM      6  C   UNL     1      46.989  -7.551  25.431  1.00  0.00     0.009 C 
BRANCH   6   7
ATOM      7  C   UNL     1      47.524  -6.598  24.335  1.00  0.00     0.032 C 
ATOM      8  C   UNL     1      48.896  -6.016  24.703  1.00  0.00     0.014 C 
BRANCH   7   9
ATOM      9  C   UNL     1      47.617  -7.320  23.019  1.00  0.00     0.044 C 
ATOM     10  O   UNL     1      46.610  -7.413  22.268  1.00  0.00    -0.550 OA
ATOM     11  O   UNL     1      48.820  -7.890  22.625  1.00  0.00    -0.550 OA
ENDBRANCH   7   9
ENDBRANCH   6   7
ENDBRANCH   5   6
ENDBRANCH   4   5
ENDBRANCH   3   4
ENDBRANCH   2   3
ENDBRANCH   1   2
BRANCH   1  12
ATOM     12  C   UNL     1      44.411  -2.204  28.641  1.00  0.00     0.000 C 
BRANCH  12  13
ATOM     13  C   UNL     1      43.441  -1.729  29.736  1.00  0.00    -0.000 C 
BRANCH  13  14
ATOM     14  C   UNL     1      42.991  -2.873  30.660  1.00  0.00    -0.000 C 
BRANCH  14  15
ATOM     15  C   UNL     1      41.462  -3.041  30.693  1.00  0.00    -0.000 C 
BRANCH  15  16
ATOM     16  C   UNL     1      40.782  -2.578  29.391  1.00  0.00    -0.000 C 
BRANCH  16  17
ATOM     17  C   UNL     1      40.013  -3.678  28.636  1.00  0.00    -0.000 C 
BRANCH  17  18
ATOM     18  C   UNL     1      40.904  -4.863  28.234  1.00  0.00    -0.003 C 
ATOM     19  C   UNL     1      41.410  -4.710  26.803  1.00  0.00     0.004 C 
ENDBRANCH  17  18
ENDBRANCH  16  17
ENDBRANCH  15  16
ENDBRANCH  14  15
ENDBRANCH  13  14
ENDBRANCH  12  13
ENDBRANCH   1  12
TORSDOF 14
ENDMDL
MODEL 9
REMARK VINA RESULT:    -4.926      3.727      8.677
REMARK INTER + INTRA:         -10.616
REMARK INTER:                  -9.751
REMARK INTRA:                  -0.865
REMARK UNBOUND:                -1.659
REMARK SMILES CCCCCCCCCCCCCC[C@@H](C)C(=O)[O-]
REMARK SMILES IDX 9 1 10 2 11 3 12 4 13 5 14 6 15 7 16 8 17 9 18 10 19 11 8 12
REMARK SMILES IDX 7 13 6 14 5 15 4 16 3 17 2 18 1 19
REMARK H PARENT
REMARK Flexibility Score: inf
ROOT
ATOM      1  C   UNL     1      44.275  -4.308  28.142  1.00  0.00     0.000 C 
ENDROOT
BRANCH   1   2
ATOM      2  C   UNL     1      43.467  -5.162  27.152  1.00  0.00     0.000 C 
BRANCH   2   3
ATOM      3  C   UNL     1      44.401  -5.908  26.187  1.00  0.00     0.000 C 
BRANCH   3   4
ATOM      4  C   UNL     1      45.418  -6.803  26.915  1.00  0.00     0.000 C 
BRANCH   4   5
ATOM      5  C   UNL     1      46.092  -7.865  26.024  1.00  0.00     0.001 C 
BRANCH   5   6
ATOM      6  C   UNL     1      46.264  -7.420  24.552  1.00  0.00     0.009 C 
BRANCH   6   7
ATOM      7  C   UNL     1      47.739  -7.399  24.084  1.00  0.00     0.032 C 
ATOM      8  C   UNL     1      47.857  -7.144  22.574  1.00  0.00     0.014 C 
BRANCH   7   9
ATOM      9  C   UNL     1      48.508  -6.348  24.836  1.00  0.00     0.044 C 
ATOM     10  O   UNL     1      48.066  -5.171  24.925  1.00  0.00    -0.550 OA
ATOM     11  O   UNL     1      49.715  -6.672  25.441  1.00  0.00    -0.550 OA
ENDBRANCH   7   9
ENDBRANCH   6   7
ENDBRANCH   5   6
ENDBRANCH   4   5
ENDBRANCH   3   4
ENDBRANCH   2   3
ENDBRANCH   1   2
BRANCH   1  12
ATOM     12  C   UNL     1      43.381  -3.445  29.048  1.00  0.00     0.000 C 
BRANCH  12  13
ATOM     13  C   UNL     1      43.961  -2.039  29.283  1.00  0.00    -0.000 C 
BRANCH  13  14
ATOM     14  C   UNL     1      43.214  -1.271  30.386  1.00  0.00    -0.000 C 
BRANCH  14  15
ATOM     15  C   UNL     1      42.569  -2.205  31.426  1.00  0.00    -0.000 C 
BRANCH  15  16
ATOM     16  C   UNL     1      43.444  -2.397  32.678  1.00  0.00    -0.000 C 
BRANCH  16  17
ATOM     17  C   UNL     1      42.675  -2.391  34.013  1.00  0.00    -0.000 C 
BRANCH  17  18
ATOM     18  C   UNL     1      42.994  -1.165  34.881  1.00  0.00    -0.003 C 
ATOM     19  C   UNL     1      43.989  -0.242  34.184  1.00  0.00     0.004 C 
ENDBRANCH  17  18
ENDBRANCH  16  17
ENDBRANCH  15  16
ENDBRANCH  14  15
ENDBRANCH  13  14
ENDBRANCH  12  13
ENDBRANCH   1  12
TORSDOF 14
ENDMDL
