MODEL 1
REMARK VINA RESULT:    -5.086      0.000      0.000
REMARK INTER + INTRA:         -12.221
REMARK INTER:                  -9.843
REMARK INTRA:                  -2.379
REMARK UNBOUND:                -2.379
REMARK SMILES CCCCCC=CCC=CCCCCCCCCOC(C)=O
REMARK SMILES IDX 12 1 11 2 10 3 9 4 8 5 7 6 6 7 5 8 4 9 3 10 2 11 1 12 13 13
REMARK SMILES IDX 14 14 15 15 16 16 17 17 18 18 19 19 20 20 22 21 21 22
REMARK H PARENT
REMARK Flexibility Score: inf
ROOT
ATOM      1  C   UNL     1     136.791   1.284  94.317  1.00  0.00     0.004 C 
ENDROOT
BRANCH   1   2
ATOM      2  C   UNL     1     136.474  -0.046  95.015  1.00  0.00     0.027 C 
BRANCH   2   3
ATOM      3  C   UNL     1     135.257   0.071  95.899  1.00  0.00    -0.031 C 
ATOM      4  C   UNL     1     134.001  -0.131  95.455  1.00  0.00    -0.027 C 
BRANCH   4   5
ATOM      5  C   UNL     1     133.652  -0.467  94.029  1.00  0.00     0.054 C 
BRANCH   5   6
ATOM      6  C   UNL     1     132.610   0.481  93.505  1.00  0.00    -0.027 C 
ATOM      7  C   UNL     1     132.891   1.353  92.527  1.00  0.00    -0.031 C 
BRANCH   7   8
ATOM      8  C   UNL     1     131.842   2.263  91.946  1.00  0.00     0.027 C 
BRANCH   8   9
ATOM      9  C   UNL     1     131.276   1.652  90.658  1.00  0.00     0.004 C 
BRANCH   9  10
ATOM     10  C   UNL     1     132.327   0.864  89.862  1.00  0.00     0.000 C 
BRANCH  10  11
ATOM     11  C   UNL     1     131.748  -0.401  89.213  1.00  0.00    -0.003 C 
ATOM     12  C   UNL     1     131.871  -1.605  90.147  1.00  0.00     0.004 C 
ENDBRANCH  10  11
ENDBRANCH   9  10
ENDBRANCH   8   9
ENDBRANCH   7   8
ENDBRANCH   5   6
ENDBRANCH   4   5
ENDBRANCH   2   3
ENDBRANCH   1   2
BRANCH   1  13
ATOM     13  C   UNL     1     137.139   2.402  95.312  1.00  0.00     0.000 C 
BRANCH  13  14
ATOM     14  C   UNL     1     136.173   3.599  95.222  1.00  0.00     0.000 C 
BRANCH  14  15
ATOM     15  C   UNL     1     135.030   3.362  94.223  1.00  0.00     0.000 C 
BRANCH  15  16
ATOM     16  C   UNL     1     134.619   4.644  93.477  1.00  0.00     0.003 C 
BRANCH  16  17
ATOM     17  C   UNL     1     135.191   5.913  94.127  1.00  0.00     0.042 C 
BRANCH  17  18
ATOM     18  C   UNL     1     134.200   6.656  95.033  1.00  0.00     0.233 C 
BRANCH  18  19
ATOM     19  O   UNL     1     132.920   6.768  94.411  1.00  0.00    -0.466 OA
BRANCH  19  20
ATOM     20  C   UNL     1     131.741   6.252  94.956  1.00  0.00     0.302 C 
ATOM     21  O   UNL     1     131.098   6.888  95.833  1.00  0.00    -0.253 OA
ATOM     22  C   UNL     1     131.220   4.946  94.468  1.00  0.00     0.139 C 
ENDBRANCH  19  20
ENDBRANCH  18  19
ENDBRANCH  17  18
ENDBRANCH  16  17
ENDBRANCH  15  16
ENDBRANCH  14  15
ENDBRANCH  13  14
ENDBRANCH   1  13
TORSDOF 16
ENDMDL
MODEL 2
REMARK VINA RESULT:    -5.038      2.544      6.040
REMARK INTER + INTRA:         -12.129
REMARK INTER:                  -9.664
REMARK INTRA:                  -2.465
REMARK UNBOUND:                -2.379
REMARK SMILES CCCCCC=CCC=CCCCCCCCCOC(C)=O
REMARK SMILES IDX 12 1 11 2 10 3 9 4 8 5 7 6 6 7 5 8 4 9 3 10 2 11 1 12 13 13
REMARK SMILES IDX 14 14 15 15 16 16 17 17 18 18 19 19 20 20 22 21 21 22
REMARK H PARENT
REMARK Flexibility Score: inf
ROOT
ATOM      1  C   UNL     1     133.620  -0.074  93.946  1.00  0.00     0.004 C 
ENDROOT
BRANCH   1   2
ATOM      2  C   UNL     1     134.080   0.156  95.392  1.00  0.00     0.027 C 
BRANCH   2   3
ATOM      3  C   UNL     1     135.357  -0.592  95.690  1.00  0.00    -0.031 C 
ATOM      4  C   UNL     1     136.558  -0.221  95.206  1.00  0.00    -0.027 C 
BRANCH   4   5
ATOM      5  C   UNL     1     136.775   0.956  94.291  1.00  0.00     0.054 C 
BRANCH   5   6
ATOM      6  C   UNL     1     137.086   2.192  95.088  1.00  0.00    -0.027 C 
ATOM      7  C   UNL     1     136.229   3.222  95.137  1.00  0.00    -0.031 C 
BRANCH   7   8
ATOM      8  C   UNL     1     136.496   4.438  95.983  1.00  0.00     0.027 C 
BRANCH   8   9
ATOM      9  C   UNL     1     135.776   5.655  95.388  1.00  0.00     0.004 C 
BRANCH   9  10
ATOM     10  C   UNL     1     135.111   5.351  94.038  1.00  0.00     0.000 C 
BRANCH  10  11
ATOM     11  C   UNL     1     133.664   5.857  93.966  1.00  0.00    -0.003 C 
ATOM     12  C   UNL     1     133.031   5.915  95.356  1.00  0.00     0.004 C 
ENDBRANCH  10  11
ENDBRANCH   9  10
ENDBRANCH   8   9
ENDBRANCH   7   8
ENDBRANCH   5   6
ENDBRANCH   4   5
ENDBRANCH   2   3
ENDBRANCH   1   2
BRANCH   1  13
ATOM     13  C   UNL     1     133.261   1.235  93.227  1.00  0.00     0.000 C 
BRANCH  13  14
ATOM     14  C   UNL     1     132.784   2.334  94.196  1.00  0.00     0.000 C 
BRANCH  14  15
ATOM     15  C   UNL     1     131.392   2.876  93.836  1.00  0.00     0.000 C 
BRANCH  15  16
ATOM     16  C   UNL     1     131.256   3.216  92.342  1.00  0.00     0.003 C 
BRANCH  16  17
ATOM     17  C   UNL     1     130.123   2.433  91.660  1.00  0.00     0.042 C 
BRANCH  17  18
ATOM     18  C   UNL     1     130.403   2.069  90.196  1.00  0.00     0.233 C 
BRANCH  18  19
ATOM     19  O   UNL     1     131.705   1.504  90.048  1.00  0.00    -0.466 OA
BRANCH  19  20
ATOM     20  C   UNL     1     131.954   0.131  89.962  1.00  0.00     0.302 C 
ATOM     21  O   UNL     1     131.569  -0.657  90.867  1.00  0.00    -0.253 OA
ATOM     22  C   UNL     1     132.655  -0.412  88.767  1.00  0.00     0.139 C 
ENDBRANCH  19  20
ENDBRANCH  18  19
ENDBRANCH  17  18
ENDBRANCH  16  17
ENDBRANCH  15  16
ENDBRANCH  14  15
ENDBRANCH  13  14
ENDBRANCH   1  13
TORSDOF 16
ENDMDL
MODEL 3
REMARK VINA RESULT:    -5.037      2.753      6.513
REMARK INTER + INTRA:         -12.127
REMARK INTER:                 -10.146
REMARK INTRA:                  -1.981
REMARK UNBOUND:                -2.379
REMARK SMILES CCCCCC=CCC=CCCCCCCCCOC(C)=O
REMARK SMILES IDX 12 1 11 2 10 3 9 4 8 5 7 6 6 7 5 8 4 9 3 10 2 11 1 12 13 13
REMARK SMILES IDX 14 14 15 15 16 16 17 17 18 18 19 19 20 20 22 21 21 22
REMARK H PARENT
REMARK Flexibility Score: inf
ROOT
ATOM      1  C   UNL     1     137.102   2.512  95.074  1.00  0.00     0.004 C 
ENDROOT
BRANCH   1   2
ATOM      2  C   UNL     1     135.983   3.374  95.673  1.00  0.00     0.027 C 
BRANCH   2   3
ATOM      3  C   UNL     1     136.429   4.803  95.862  1.00  0.00    -0.031 C 
ATOM      4  C   UNL     1     135.984   5.821  95.101  1.00  0.00    -0.027 C 
BRANCH   4   5
ATOM      5  C   UNL     1     135.017   5.662  93.956  1.00  0.00     0.054 C 
BRANCH   5   6
ATOM      6  C   UNL     1     133.699   6.305  94.286  1.00  0.00    -0.027 C 
ATOM      7  C   UNL     1     132.851   5.744  95.160  1.00  0.00    -0.031 C 
BRANCH   7   8
ATOM      8  C   UNL     1     131.558   6.407  95.552  1.00  0.00     0.027 C 
BRANCH   8   9
ATOM      9  C   UNL     1     131.690   7.929  95.416  1.00  0.00     0.004 C 
BRANCH   9  10
ATOM     10  C   UNL     1     130.389   8.600  94.954  1.00  0.00     0.000 C 
BRANCH  10  11
ATOM     11  C   UNL     1     130.451  10.131  95.043  1.00  0.00    -0.003 C 
ATOM     12  C   UNL     1     130.817  10.748  93.693  1.00  0.00     0.004 C 
ENDBRANCH  10  11
ENDBRANCH   9  10
ENDBRANCH   8   9
ENDBRANCH   7   8
ENDBRANCH   5   6
ENDBRANCH   4   5
ENDBRANCH   2   3
ENDBRANCH   1   2
BRANCH   1  13
ATOM     13  C   UNL     1     136.607   1.122  94.644  1.00  0.00     0.000 C 
BRANCH  13  14
ATOM     14  C   UNL     1     135.367   0.661  95.434  1.00  0.00     0.000 C 
BRANCH  14  15
ATOM     15  C   UNL     1     134.152   0.403  94.530  1.00  0.00     0.000 C 
BRANCH  15  16
ATOM     16  C   UNL     1     133.107   1.529  94.606  1.00  0.00     0.003 C 
BRANCH  16  17
ATOM     17  C   UNL     1     133.214   2.514  93.431  1.00  0.00     0.042 C 
BRANCH  17  18
ATOM     18  C   UNL     1     131.893   2.754  92.690  1.00  0.00     0.233 C 
BRANCH  18  19
ATOM     19  O   UNL     1     131.813   1.954  91.510  1.00  0.00    -0.466 OA
BRANCH  19  20
ATOM     20  C   UNL     1     131.551   0.581  91.515  1.00  0.00     0.302 C 
ATOM     21  O   UNL     1     132.278  -0.222  90.871  1.00  0.00    -0.253 OA
ATOM     22  C   UNL     1     130.416   0.057  92.322  1.00  0.00     0.139 C 
ENDBRANCH  19  20
ENDBRANCH  18  19
ENDBRANCH  17  18
ENDBRANCH  16  17
ENDBRANCH  15  16
ENDBRANCH  14  15
ENDBRANCH  13  14
ENDBRANCH   1  13
TORSDOF 16
ENDMDL
MODEL 4
REMARK VINA RESULT:    -4.970      2.183      6.109
REMARK INTER + INTRA:         -11.997
REMARK INTER:                  -9.988
REMARK INTRA:                  -2.010
REMARK UNBOUND:                -2.379
REMARK SMILES CCCCCC=CCC=CCCCCCCCCOC(C)=O
REMARK SMILES IDX 12 1 11 2 10 3 9 4 8 5 7 6 6 7 5 8 4 9 3 10 2 11 1 12 13 13
REMARK SMILES IDX 14 14 15 15 16 16 17 17 18 18 19 19 20 20 22 21 21 22
REMARK H PARENT
REMARK Flexibility Score: inf
ROOT
ATOM      1  C   UNL     1     136.820   2.380  95.018  1.00  0.00     0.004 C 
ENDROOT
BRANCH   1   2
ATOM      2  C   UNL     1     135.819   3.301  95.730  1.00  0.00     0.027 C 
BRANCH   2   3
ATOM      3  C   UNL     1     136.327   4.721  95.797  1.00  0.00    -0.031 C 
ATOM      4  C   UNL     1     135.881   5.703  94.991  1.00  0.00    -0.027 C 
BRANCH   4   5
ATOM      5  C   UNL     1     134.851   5.506  93.909  1.00  0.00     0.054 C 
BRANCH   5   6
ATOM      6  C   UNL     1     133.597   6.270  94.231  1.00  0.00    -0.027 C 
ATOM      7  C   UNL     1     132.818   5.924  95.266  1.00  0.00    -0.031 C 
BRANCH   7   8
ATOM      8  C   UNL     1     131.596   6.718  95.642  1.00  0.00     0.027 C 
BRANCH   8   9
ATOM      9  C   UNL     1     131.808   8.197  95.298  1.00  0.00     0.004 C 
BRANCH   9  10
ATOM     10  C   UNL     1     130.488   8.970  95.159  1.00  0.00     0.000 C 
BRANCH  10  11
ATOM     11  C   UNL     1     130.686  10.372  94.566  1.00  0.00    -0.003 C 
ATOM     12  C   UNL     1     130.558  10.350  93.043  1.00  0.00     0.004 C 
ENDBRANCH  10  11
ENDBRANCH   9  10
ENDBRANCH   8   9
ENDBRANCH   7   8
ENDBRANCH   5   6
ENDBRANCH   4   5
ENDBRANCH   2   3
ENDBRANCH   1   2
BRANCH   1  13
ATOM     13  C   UNL     1     136.359   0.915  94.997  1.00  0.00     0.000 C 
BRANCH  13  14
ATOM     14  C   UNL     1     134.975   0.717  95.646  1.00  0.00     0.000 C 
BRANCH  14  15
ATOM     15  C   UNL     1     134.168  -0.411  94.985  1.00  0.00     0.000 C 
BRANCH  15  16
ATOM     16  C   UNL     1     133.382   0.066  93.751  1.00  0.00     0.003 C 
BRANCH  16  17
ATOM     17  C   UNL     1     133.104   1.578  93.778  1.00  0.00     0.042 C 
BRANCH  17  18
ATOM     18  C   UNL     1     132.287   2.087  92.584  1.00  0.00     0.233 C 
BRANCH  18  19
ATOM     19  O   UNL     1     132.015   3.483  92.706  1.00  0.00    -0.466 OA
BRANCH  19  20
ATOM     20  C   UNL     1     130.750   4.010  92.986  1.00  0.00     0.302 C 
ATOM     21  O   UNL     1     129.981   3.449  93.812  1.00  0.00    -0.253 OA
ATOM     22  C   UNL     1     130.321   5.271  92.324  1.00  0.00     0.139 C 
ENDBRANCH  19  20
ENDBRANCH  18  19
ENDBRANCH  17  18
ENDBRANCH  16  17
ENDBRANCH  15  16
ENDBRANCH  14  15
ENDBRANCH  13  14
ENDBRANCH   1  13
TORSDOF 16
ENDMDL
MODEL 5
REMARK VINA RESULT:    -4.927      1.308      2.675
REMARK INTER + INTRA:         -11.913
REMARK INTER:                  -9.591
REMARK INTRA:                  -2.322
REMARK UNBOUND:                -2.379
REMARK SMILES CCCCCC=CCC=CCCCCCCCCOC(C)=O
REMARK SMILES IDX 12 1 11 2 10 3 9 4 8 5 7 6 6 7 5 8 4 9 3 10 2 11 1 12 13 13
REMARK SMILES IDX 14 14 15 15 16 16 17 17 18 18 19 19 20 20 22 21 21 22
REMARK H PARENT
REMARK Flexibility Score: inf
ROOT
ATOM      1  C   UNL     1     136.491   1.482  94.307  1.00  0.00     0.004 C 
ENDROOT
BRANCH   1   2
ATOM      2  C   UNL     1     136.416   0.079  94.925  1.00  0.00     0.027 C 
BRANCH   2   3
ATOM      3  C   UNL     1     135.323  -0.009  95.962  1.00  0.00    -0.031 C 
ATOM      4  C   UNL     1     134.064  -0.390  95.675  1.00  0.00    -0.027 C 
BRANCH   4   5
ATOM      5  C   UNL     1     133.581  -0.745  94.292  1.00  0.00     0.054 C 
BRANCH   5   6
ATOM      6  C   UNL     1     133.000   0.463  93.612  1.00  0.00    -0.027 C 
ATOM      7  C   UNL     1     132.608   0.418  92.331  1.00  0.00    -0.031 C 
BRANCH   7   8
ATOM      8  C   UNL     1     131.964   1.599  91.655  1.00  0.00     0.027 C 
BRANCH   8   9
ATOM      9  C   UNL     1     132.028   2.825  92.573  1.00  0.00     0.004 C 
BRANCH   9  10
ATOM     10  C   UNL     1     130.640   3.298  93.031  1.00  0.00     0.000 C 
BRANCH  10  11
ATOM     11  C   UNL     1     130.629   4.774  93.451  1.00  0.00    -0.003 C 
ATOM     12  C   UNL     1     130.750   5.694  92.236  1.00  0.00     0.004 C 
ENDBRANCH  10  11
ENDBRANCH   9  10
ENDBRANCH   8   9
ENDBRANCH   7   8
ENDBRANCH   5   6
ENDBRANCH   4   5
ENDBRANCH   2   3
ENDBRANCH   1   2
BRANCH   1  13
ATOM     13  C   UNL     1     137.019   2.533  95.295  1.00  0.00     0.000 C 
BRANCH  13  14
ATOM     14  C   UNL     1     136.012   3.673  95.545  1.00  0.00     0.000 C 
BRANCH  14  15
ATOM     15  C   UNL     1     134.873   3.691  94.515  1.00  0.00     0.000 C 
BRANCH  15  16
ATOM     16  C   UNL     1     134.788   5.023  93.749  1.00  0.00     0.003 C 
BRANCH  16  17
ATOM     17  C   UNL     1     134.750   6.240  94.685  1.00  0.00     0.042 C 
BRANCH  17  18
ATOM     18  C   UNL     1     133.394   6.468  95.366  1.00  0.00     0.233 C 
BRANCH  18  19
ATOM     19  O   UNL     1     132.609   7.415  94.641  1.00  0.00    -0.466 OA
BRANCH  19  20
ATOM     20  C   UNL     1     131.756   8.344  95.243  1.00  0.00     0.302 C 
ATOM     21  O   UNL     1     132.211   9.373  95.811  1.00  0.00    -0.253 OA
ATOM     22  C   UNL     1     130.284   8.132  95.181  1.00  0.00     0.139 C 
ENDBRANCH  19  20
ENDBRANCH  18  19
ENDBRANCH  17  18
ENDBRANCH  16  17
ENDBRANCH  15  16
ENDBRANCH  14  15
ENDBRANCH  13  14
ENDBRANCH   1  13
TORSDOF 16
ENDMDL
MODEL 6
REMARK VINA RESULT:    -4.850      1.663      2.234
REMARK INTER + INTRA:         -11.765
REMARK INTER:                  -9.980
REMARK INTRA:                  -1.785
REMARK UNBOUND:                -2.379
REMARK SMILES CCCCCC=CCC=CCCCCCCCCOC(C)=O
REMARK SMILES IDX 12 1 11 2 10 3 9 4 8 5 7 6 6 7 5 8 4 9 3 10 2 11 1 12 13 13
REMARK SMILES IDX 14 14 15 15 16 16 17 17 18 18 19 19 20 20 22 21 21 22
REMARK H PARENT
REMARK Flexibility Score: inf
ROOT
ATOM      1  C   UNL     1     137.268   2.254  95.081  1.00  0.00     0.004 C 
ENDROOT
BRANCH   1   2
ATOM      2  C   UNL     1     136.710   1.091  94.249  1.00  0.00     0.027 C 
BRANCH   2   3
ATOM      3  C   UNL     1     136.445  -0.123  95.105  1.00  0.00    -0.031 C 
ATOM      4  C   UNL     1     135.206  -0.545  95.422  1.00  0.00    -0.027 C 
BRANCH   4   5
ATOM      5  C   UNL     1     133.940   0.149  94.991  1.00  0.00     0.054 C 
BRANCH   5   6
ATOM      6  C   UNL     1     133.251  -0.637  93.910  1.00  0.00    -0.027 C 
ATOM      7  C   UNL     1     132.328  -0.071  93.119  1.00  0.00    -0.031 C 
BRANCH   7   8
ATOM      8  C   UNL     1     131.677  -0.825  91.991  1.00  0.00     0.027 C 
BRANCH   8   9
ATOM      9  C   UNL     1     131.019   0.159  91.017  1.00  0.00     0.004 C 
BRANCH   9  10
ATOM     10  C   UNL     1     132.008   0.734  89.993  1.00  0.00     0.000 C 
BRANCH  10  11
ATOM     11  C   UNL     1     132.513  -0.324  89.002  1.00  0.00    -0.003 C 
ATOM     12  C   UNL     1     131.797  -0.204  87.657  1.00  0.00     0.004 C 
ENDBRANCH  10  11
ENDBRANCH   9  10
ENDBRANCH   8   9
ENDBRANCH   7   8
ENDBRANCH   5   6
ENDBRANCH   4   5
ENDBRANCH   2   3
ENDBRANCH   1   2
BRANCH   1  13
ATOM     13  C   UNL     1     136.162   3.069  95.769  1.00  0.00     0.000 C 
BRANCH  13  14
ATOM     14  C   UNL     1     136.488   4.573  95.839  1.00  0.00     0.000 C 
BRANCH  14  15
ATOM     15  C   UNL     1     135.282   5.456  95.485  1.00  0.00     0.000 C 
BRANCH  15  16
ATOM     16  C   UNL     1     135.196   5.768  93.980  1.00  0.00     0.003 C 
BRANCH  16  17
ATOM     17  C   UNL     1     134.198   4.859  93.246  1.00  0.00     0.042 C 
BRANCH  17  18
ATOM     18  C   UNL     1     132.757   4.963  93.763  1.00  0.00     0.233 C 
BRANCH  18  19
ATOM     19  O   UNL     1     132.160   3.672  93.884  1.00  0.00    -0.466 OA
BRANCH  19  20
ATOM     20  C   UNL     1     130.951   3.312  93.281  1.00  0.00     0.302 C 
ATOM     21  O   UNL     1     130.727   3.570  92.069  1.00  0.00    -0.253 OA
ATOM     22  C   UNL     1     129.927   2.583  94.077  1.00  0.00     0.139 C 
ENDBRANCH  19  20
ENDBRANCH  18  19
ENDBRANCH  17  18
ENDBRANCH  16  17
ENDBRANCH  15  16
ENDBRANCH  14  15
ENDBRANCH  13  14
ENDBRANCH   1  13
TORSDOF 16
ENDMDL
MODEL 7
REMARK VINA RESULT:    -4.730      1.373      2.089
REMARK INTER + INTRA:         -11.533
REMARK INTER:                  -9.339
REMARK INTRA:                  -2.193
REMARK UNBOUND:                -2.379
REMARK SMILES CCCCCC=CCC=CCCCCCCCCOC(C)=O
REMARK SMILES IDX 12 1 11 2 10 3 9 4 8 5 7 6 6 7 5 8 4 9 3 10 2 11 1 12 13 13
REMARK SMILES IDX 14 14 15 15 16 16 17 17 18 18 19 19 20 20 22 21 21 22
REMARK H PARENT
REMARK Flexibility Score: inf
ROOT
ATOM      1  C   UNL     1     136.772   2.619  95.056  1.00  0.00     0.004 C 
ENDROOT
BRANCH   1   2
ATOM      2  C   UNL     1     136.679   1.157  94.600  1.00  0.00     0.027 C 
BRANCH   2   3
ATOM      3  C   UNL     1     136.053   0.286  95.662  1.00  0.00    -0.031 C 
ATOM      4  C   UNL     1     134.896  -0.380  95.483  1.00  0.00    -0.027 C 
BRANCH   4   5
ATOM      5  C   UNL     1     134.071  -0.318  94.224  1.00  0.00     0.054 C 
BRANCH   5   6
ATOM      6  C   UNL     1     133.075   0.805  94.301  1.00  0.00    -0.027 C 
ATOM      7  C   UNL     1     133.173   1.878  93.503  1.00  0.00    -0.031 C 
BRANCH   7   8
ATOM      8  C   UNL     1     132.147   2.979  93.523  1.00  0.00     0.027 C 
BRANCH   8   9
ATOM      9  C   UNL     1     131.427   3.046  92.170  1.00  0.00     0.004 C 
BRANCH   9  10
ATOM     10  C   UNL     1     131.120   1.657  91.591  1.00  0.00     0.000 C 
BRANCH  10  11
ATOM     11  C   UNL     1     131.800   1.419  90.236  1.00  0.00    -0.003 C 
ATOM     12  C   UNL     1     132.225  -0.041  90.081  1.00  0.00     0.004 C 
ENDBRANCH  10  11
ENDBRANCH   9  10
ENDBRANCH   8   9
ENDBRANCH   7   8
ENDBRANCH   5   6
ENDBRANCH   4   5
ENDBRANCH   2   3
ENDBRANCH   1   2
BRANCH   1  13
ATOM     13  C   UNL     1     135.573   3.044  95.918  1.00  0.00     0.000 C 
BRANCH  13  14
ATOM     14  C   UNL     1     135.416   4.575  96.004  1.00  0.00     0.000 C 
BRANCH  14  15
ATOM     15  C   UNL     1     135.261   5.232  94.624  1.00  0.00     0.000 C 
BRANCH  15  16
ATOM     16  C   UNL     1     134.008   6.120  94.527  1.00  0.00     0.003 C 
BRANCH  16  17
ATOM     17  C   UNL     1     133.048   5.916  95.710  1.00  0.00     0.042 C 
BRANCH  17  18
ATOM     18  C   UNL     1     131.564   6.056  95.346  1.00  0.00     0.233 C 
BRANCH  18  19
ATOM     19  O   UNL     1     131.008   7.244  95.909  1.00  0.00    -0.466 OA
BRANCH  19  20
ATOM     20  C   UNL     1     130.726   8.398  95.172  1.00  0.00     0.302 C 
ATOM     21  O   UNL     1     129.836   8.398  94.280  1.00  0.00    -0.253 OA
ATOM     22  C   UNL     1     131.465   9.654  95.470  1.00  0.00     0.139 C 
ENDBRANCH  19  20
ENDBRANCH  18  19
ENDBRANCH  17  18
ENDBRANCH  16  17
ENDBRANCH  15  16
ENDBRANCH  14  15
ENDBRANCH  13  14
ENDBRANCH   1  13
TORSDOF 16
ENDMDL
MODEL 8
REMARK VINA RESULT:    -4.716      2.034      5.671
REMARK INTER + INTRA:         -11.506
REMARK INTER:                  -9.478
REMARK INTRA:                  -2.028
REMARK UNBOUND:                -2.379
REMARK SMILES CCCCCC=CCC=CCCCCCCCCOC(C)=O
REMARK SMILES IDX 12 1 11 2 10 3 9 4 8 5 7 6 6 7 5 8 4 9 3 10 2 11 1 12 13 13
REMARK SMILES IDX 14 14 15 15 16 16 17 17 18 18 19 19 20 20 22 21 21 22
REMARK H PARENT
REMARK Flexibility Score: inf
ROOT
ATOM      1  C   UNL     1     136.312  -0.215  95.314  1.00  0.00     0.004 C 
ENDROOT
BRANCH   1   2
ATOM      2  C   UNL     1     136.414   0.976  94.351  1.00  0.00     0.027 C 
BRANCH   2   3
ATOM      3  C   UNL     1     137.203   2.110  94.958  1.00  0.00    -0.031 C 
ATOM      4  C   UNL     1     136.631   3.229  95.443  1.00  0.00    -0.027 C 
BRANCH   4   5
ATOM      5  C   UNL     1     135.149   3.503  95.414  1.00  0.00     0.054 C 
BRANCH   5   6
ATOM      6  C   UNL     1     134.886   4.981  95.484  1.00  0.00    -0.027 C 
ATOM      7  C   UNL     1     133.815   5.526  94.888  1.00  0.00    -0.031 C 
BRANCH   7   8
ATOM      8  C   UNL     1     133.501   6.993  95.004  1.00  0.00     0.027 C 
BRANCH   8   9
ATOM      9  C   UNL     1     132.095   7.182  95.587  1.00  0.00     0.004 C 
BRANCH   9  10
ATOM     10  C   UNL     1     131.451   8.511  95.166  1.00  0.00     0.000 C 
BRANCH  10  11
ATOM     11  C   UNL     1     130.332   8.322  94.132  1.00  0.00    -0.003 C 
ATOM     12  C   UNL     1     130.774   8.795  92.748  1.00  0.00     0.004 C 
ENDBRANCH  10  11
ENDBRANCH   9  10
ENDBRANCH   8   9
ENDBRANCH   7   8
ENDBRANCH   5   6
ENDBRANCH   4   5
ENDBRANCH   2   3
ENDBRANCH   1   2
BRANCH   1  13
ATOM     13  C   UNL     1     134.919  -0.338  95.951  1.00  0.00     0.000 C 
BRANCH  13  14
ATOM     14  C   UNL     1     133.803   0.236  95.057  1.00  0.00     0.000 C 
BRANCH  14  15
ATOM     15  C   UNL     1     133.250  -0.798  94.066  1.00  0.00     0.000 C 
BRANCH  15  16
ATOM     16  C   UNL     1     132.661  -0.151  92.800  1.00  0.00     0.003 C 
BRANCH  16  17
ATOM     17  C   UNL     1     132.893   1.367  92.752  1.00  0.00     0.042 C 
BRANCH  17  18
ATOM     18  C   UNL     1     131.948   2.117  91.803  1.00  0.00     0.233 C 
BRANCH  18  19
ATOM     19  O   UNL     1     130.667   2.312  92.403  1.00  0.00    -0.466 OA
BRANCH  19  20
ATOM     20  C   UNL     1     130.449   3.099  93.538  1.00  0.00     0.302 C 
ATOM     21  O   UNL     1     130.182   2.573  94.651  1.00  0.00    -0.253 OA
ATOM     22  C   UNL     1     130.567   4.579  93.435  1.00  0.00     0.139 C 
ENDBRANCH  19  20
ENDBRANCH  18  19
ENDBRANCH  17  18
ENDBRANCH  16  17
ENDBRANCH  15  16
ENDBRANCH  14  15
ENDBRANCH  13  14
ENDBRANCH   1  13
TORSDOF 16
ENDMDL
MODEL 9
REMARK VINA RESULT:    -4.688      2.888      6.786
REMARK INTER + INTRA:         -11.452
REMARK INTER:                 -10.219
REMARK INTRA:                  -1.233
REMARK UNBOUND:                -2.379
REMARK SMILES CCCCCC=CCC=CCCCCCCCCOC(C)=O
REMARK SMILES IDX 12 1 11 2 10 3 9 4 8 5 7 6 6 7 5 8 4 9 3 10 2 11 1 12 13 13
REMARK SMILES IDX 14 14 15 15 16 16 17 17 18 18 19 19 20 20 22 21 21 22
REMARK H PARENT
REMARK Flexibility Score: inf
ROOT
ATOM      1  C   UNL     1     135.820   3.653  95.017  1.00  0.00     0.004 C 
ENDROOT
BRANCH   1   2
ATOM      2  C   UNL     1     136.174   4.965  95.732  1.00  0.00     0.027 C 
BRANCH   2   3
ATOM      3  C   UNL     1     135.675   6.164  94.963  1.00  0.00    -0.031 C 
ATOM      4  C   UNL     1     134.379   6.531  94.929  1.00  0.00    -0.027 C 
BRANCH   4   5
ATOM      5  C   UNL     1     133.269   5.783  95.621  1.00  0.00     0.054 C 
BRANCH   5   6
ATOM      6  C   UNL     1     132.025   6.623  95.680  1.00  0.00    -0.027 C 
ATOM      7  C   UNL     1     131.850   7.667  94.857  1.00  0.00    -0.031 C 
BRANCH   7   8
ATOM      8  C   UNL     1     130.582   8.478  94.858  1.00  0.00     0.027 C 
BRANCH   8   9
ATOM      9  C   UNL     1     130.904   9.950  95.142  1.00  0.00     0.004 C 
BRANCH   9  10
ATOM     10  C   UNL     1     130.856  10.823  93.879  1.00  0.00     0.000 C 
BRANCH  10  11
ATOM     11  C   UNL     1     130.401  10.042  92.639  1.00  0.00    -0.003 C 
ATOM     12  C   UNL     1     130.838  10.746  91.354  1.00  0.00     0.004 C 
ENDBRANCH  10  11
ENDBRANCH   9  10
ENDBRANCH   8   9
ENDBRANCH   7   8
ENDBRANCH   5   6
ENDBRANCH   4   5
ENDBRANCH   2   3
ENDBRANCH   1   2
BRANCH   1  13
ATOM     13  C   UNL     1     136.802   2.519  95.350  1.00  0.00     0.000 C 
BRANCH  13  14
ATOM     14  C   UNL     1     136.723   1.352  94.347  1.00  0.00     0.000 C 
BRANCH  14  15
ATOM     15  C   UNL     1     136.380   0.015  95.021  1.00  0.00     0.000 C 
BRANCH  15  16
ATOM     16  C   UNL     1     135.190   0.127  95.990  1.00  0.00     0.003 C 
BRANCH  16  17
ATOM     17  C   UNL     1     133.905   0.598  95.292  1.00  0.00     0.042 C 
BRANCH  17  18
ATOM     18  C   UNL     1     133.532  -0.216  94.045  1.00  0.00     0.233 C 
BRANCH  18  19
ATOM     19  O   UNL     1     133.115   0.638  92.980  1.00  0.00    -0.466 OA
BRANCH  19  20
ATOM     20  C   UNL     1     132.220   1.701  93.137  1.00  0.00     0.302 C 
ATOM     21  O   UNL     1     131.011   1.495  93.425  1.00  0.00    -0.253 OA
ATOM     22  C   UNL     1     132.713   3.098  92.996  1.00  0.00     0.139 C 
ENDBRANCH  19  20
ENDBRANCH  18  19
ENDBRANCH  17  18
ENDBRANCH  16  17
ENDBRANCH  15  16
ENDBRANCH  14  15
ENDBRANCH  13  14
ENDBRANCH   1  13
TORSDOF 16
ENDMDL
