MODEL 1
REMARK VINA RESULT:    -3.325      0.000      0.000
REMARK INTER + INTRA:          -4.731
REMARK INTER:                  -4.297
REMARK INTRA:                  -0.434
REMARK UNBOUND:                -0.434
REMARK SMILES CCO[C@@H]1O[C@@H](CO)[C@@H](O)[C@@H](O)[C@@H]1O
REMARK SMILES IDX 4 1 13 2 11 3 9 4 6 5 5 6 3 7 2 8 1 9 14 10 12 12 7 14 8 15
REMARK SMILES IDX 10 17
REMARK H PARENT 14 11 12 13 8 16 10 18
REMARK Flexibility Score: inf
ROOT
ATOM      1  C   UNL     1       7.610  35.071  33.630  1.00  0.00     0.281 C 
ATOM      2  C   UNL     1       9.041  34.495  33.705  1.00  0.00     0.202 C 
ATOM      3  C   UNL     1       9.042  33.122  34.398  1.00  0.00     0.179 C 
ATOM      4  C   UNL     1       7.966  32.199  33.790  1.00  0.00     0.177 C 
ATOM      5  C   UNL     1       6.610  32.945  33.730  1.00  0.00     0.178 C 
ATOM      6  O   UNL     1       6.721  34.156  32.997  1.00  0.00    -0.341 OA
ENDROOT
BRANCH   1   7
ATOM      7  O   UNL     1       7.156  35.426  34.927  1.00  0.00    -0.350 OA
BRANCH   7   8
ATOM      8  C   UNL     1       6.305  36.551  34.856  1.00  0.00     0.160 C 
ATOM      9  C   UNL     1       6.962  37.617  33.994  1.00  0.00     0.035 C 
ENDBRANCH   7   8
ENDBRANCH   1   7
BRANCH   2  10
ATOM     10  O   UNL     1       9.878  35.372  34.415  1.00  0.00    -0.385 OA
ATOM     11  H   UNL     1      10.343  34.830  35.105  1.00  0.00     0.211 HD
ENDBRANCH   2  10
BRANCH   3  12
ATOM     12  O   UNL     1      10.313  32.538  34.279  1.00  0.00    -0.387 OA
ATOM     13  H   UNL     1      10.707  32.524  35.190  1.00  0.00     0.211 HD
ENDBRANCH   3  12
BRANCH   5  14
ATOM     14  C   UNL     1       5.495  32.078  33.122  1.00  0.00     0.191 C 
BRANCH  14  15
ATOM     15  O   UNL     1       5.339  32.326  31.749  1.00  0.00    -0.394 OA
ATOM     16  H   UNL     1       4.581  32.960  31.657  1.00  0.00     0.210 HD
ENDBRANCH  14  15
ENDBRANCH   5  14
BRANCH   4  17
ATOM     17  O   UNL     1       8.364  31.714  32.528  1.00  0.00    -0.387 OA
ATOM     18  H   UNL     1       8.215  32.429  31.858  1.00  0.00     0.211 HD
ENDBRANCH   4  17
TORSDOF 7
ENDMDL
MODEL 2
REMARK VINA RESULT:    -3.195      9.592     11.567
REMARK INTER + INTRA:          -4.562
REMARK INTER:                  -4.212
REMARK INTRA:                  -0.350
REMARK UNBOUND:                -0.434
REMARK SMILES CCO[C@@H]1O[C@@H](CO)[C@@H](O)[C@@H](O)[C@@H]1O
REMARK SMILES IDX 4 1 13 2 11 3 9 4 6 5 5 6 3 7 2 8 1 9 14 10 12 12 7 14 8 15
REMARK SMILES IDX 10 17
REMARK H PARENT 14 11 12 13 8 16 10 18
REMARK Flexibility Score: inf
ROOT
ATOM      1  C   UNL     1      17.479  37.083  32.388  1.00  0.00     0.281 C 
ATOM      2  C   UNL     1      18.379  38.112  33.107  1.00  0.00     0.202 C 
ATOM      3  C   UNL     1      19.400  37.405  34.014  1.00  0.00     0.179 C 
ATOM      4  C   UNL     1      20.126  36.278  33.250  1.00  0.00     0.177 C 
ATOM      5  C   UNL     1      19.087  35.375  32.539  1.00  0.00     0.178 C 
ATOM      6  O   UNL     1      18.258  36.132  31.670  1.00  0.00    -0.341 OA
ENDROOT
BRANCH   1   7
ATOM      7  O   UNL     1      16.614  36.452  33.321  1.00  0.00    -0.350 OA
BRANCH   7   8
ATOM      8  C   UNL     1      15.277  36.526  32.875  1.00  0.00     0.160 C 
ATOM      9  C   UNL     1      14.389  35.750  33.835  1.00  0.00     0.035 C 
ENDBRANCH   7   8
ENDBRANCH   1   7
BRANCH   2  10
ATOM     10  O   UNL     1      17.594  38.982  33.882  1.00  0.00    -0.385 OA
ATOM     11  H   UNL     1      17.372  38.497  34.720  1.00  0.00     0.211 HD
ENDBRANCH   2  10
BRANCH   3  12
ATOM     12  O   UNL     1      20.325  38.344  34.498  1.00  0.00    -0.387 OA
ATOM     13  H   UNL     1      20.252  39.144  33.915  1.00  0.00     0.211 HD
ENDBRANCH   3  12
BRANCH   5  14
ATOM     14  C   UNL     1      19.753  34.235  31.750  1.00  0.00     0.191 C 
BRANCH  14  15
ATOM     15  O   UNL     1      20.500  34.724  30.668  1.00  0.00    -0.394 OA
ATOM     16  H   UNL     1      20.096  34.344  29.844  1.00  0.00     0.210 HD
ENDBRANCH  14  15
ENDBRANCH   5  14
BRANCH   4  17
ATOM     17  O   UNL     1      21.080  36.802  32.355  1.00  0.00    -0.387 OA
ATOM     18  H   UNL     1      20.667  36.854  31.456  1.00  0.00     0.211 HD
ENDBRANCH   4  17
TORSDOF 7
ENDMDL
MODEL 3
REMARK VINA RESULT:    -3.180      1.738      4.669
REMARK INTER + INTRA:          -4.543
REMARK INTER:                  -4.184
REMARK INTRA:                  -0.358
REMARK UNBOUND:                -0.434
REMARK SMILES CCO[C@@H]1O[C@@H](CO)[C@@H](O)[C@@H](O)[C@@H]1O
REMARK SMILES IDX 4 1 13 2 11 3 9 4 6 5 5 6 3 7 2 8 1 9 14 10 12 12 7 14 8 15
REMARK SMILES IDX 10 17
REMARK H PARENT 14 11 12 13 8 16 10 18
REMARK Flexibility Score: inf
ROOT
ATOM      1  C   UNL     1       7.790  31.678  33.631  1.00  0.00     0.281 C 
ATOM      2  C   UNL     1       7.170  32.823  32.798  1.00  0.00     0.202 C 
ATOM      3  C   UNL     1       7.375  34.178  33.494  1.00  0.00     0.179 C 
ATOM      4  C   UNL     1       8.848  34.361  33.916  1.00  0.00     0.177 C 
ATOM      5  C   UNL     1       9.331  33.106  34.685  1.00  0.00     0.178 C 
ATOM      6  O   UNL     1       9.163  31.930  33.907  1.00  0.00    -0.341 OA
ENDROOT
BRANCH   1   7
ATOM      7  O   UNL     1       7.045  31.482  34.823  1.00  0.00    -0.350 OA
BRANCH   7   8
ATOM      8  C   UNL     1       6.631  30.135  34.923  1.00  0.00     0.160 C 
ATOM      9  C   UNL     1       5.133  30.057  34.674  1.00  0.00     0.035 C 
ENDBRANCH   7   8
ENDBRANCH   1   7
BRANCH   2  10
ATOM     10  O   UNL     1       5.795  32.598  32.618  1.00  0.00    -0.385 OA
ATOM     11  H   UNL     1       5.584  31.736  33.062  1.00  0.00     0.211 HD
ENDBRANCH   2  10
BRANCH   3  12
ATOM     12  O   UNL     1       6.981  35.213  32.631  1.00  0.00    -0.387 OA
ATOM     13  H   UNL     1       7.406  35.029  31.753  1.00  0.00     0.211 HD
ENDBRANCH   3  12
BRANCH   5  14
ATOM     14  C   UNL     1      10.800  33.225  35.125  1.00  0.00     0.191 C 
BRANCH  14  15
ATOM     15  O   UNL     1      11.677  33.107  34.035  1.00  0.00    -0.394 OA
ATOM     16  H   UNL     1      12.508  33.590  34.282  1.00  0.00     0.210 HD
ENDBRANCH  14  15
ENDBRANCH   5  14
BRANCH   4  17
ATOM     17  O   UNL     1       9.664  34.655  32.806  1.00  0.00    -0.387 OA
ATOM     18  H   UNL     1       9.084  34.978  32.070  1.00  0.00     0.211 HD
ENDBRANCH   4  17
TORSDOF 7
ENDMDL
MODEL 4
REMARK VINA RESULT:    -3.152      8.879     10.565
REMARK INTER + INTRA:          -4.507
REMARK INTER:                  -4.167
REMARK INTRA:                  -0.340
REMARK UNBOUND:                -0.434
REMARK SMILES CCO[C@@H]1O[C@@H](CO)[C@@H](O)[C@@H](O)[C@@H]1O
REMARK SMILES IDX 4 1 13 2 11 3 9 4 6 5 5 6 3 7 2 8 1 9 14 10 12 12 7 14 8 15
REMARK SMILES IDX 10 17
REMARK H PARENT 14 11 12 13 8 16 10 18
REMARK Flexibility Score: inf
ROOT
ATOM      1  C   UNL     1      16.787  36.404  32.837  1.00  0.00     0.281 C 
ATOM      2  C   UNL     1      15.746  36.861  33.884  1.00  0.00     0.202 C 
ATOM      3  C   UNL     1      15.768  38.390  34.044  1.00  0.00     0.179 C 
ATOM      4  C   UNL     1      15.706  39.088  32.670  1.00  0.00     0.177 C 
ATOM      5  C   UNL     1      16.768  38.475  31.724  1.00  0.00     0.178 C 
ATOM      6  O   UNL     1      16.593  37.072  31.595  1.00  0.00    -0.341 OA
ENDROOT
BRANCH   1   7
ATOM      7  O   UNL     1      18.102  36.601  33.335  1.00  0.00    -0.350 OA
BRANCH   7   8
ATOM      8  C   UNL     1      19.012  35.764  32.654  1.00  0.00     0.160 C 
ATOM      9  C   UNL     1      20.424  36.082  33.121  1.00  0.00     0.035 C 
ENDBRANCH   7   8
ENDBRANCH   1   7
BRANCH   2  10
ATOM     10  O   UNL     1      16.015  36.261  35.125  1.00  0.00    -0.385 OA
ATOM     11  H   UNL     1      15.353  35.529  35.240  1.00  0.00     0.211 HD
ENDBRANCH   2  10
BRANCH   3  12
ATOM     12  O   UNL     1      14.689  38.792  34.848  1.00  0.00    -0.387 OA
ATOM     13  H   UNL     1      14.487  38.032  35.455  1.00  0.00     0.211 HD
ENDBRANCH   3  12
BRANCH   5  14
ATOM     14  C   UNL     1      16.748  39.125  30.330  1.00  0.00     0.191 C 
BRANCH  14  15
ATOM     15  O   UNL     1      15.580  38.797  29.624  1.00  0.00    -0.394 OA
ATOM     16  H   UNL     1      15.818  38.061  29.002  1.00  0.00     0.210 HD
ENDBRANCH  14  15
ENDBRANCH   5  14
BRANCH   4  17
ATOM     17  O   UNL     1      14.407  39.028  32.126  1.00  0.00    -0.387 OA
ATOM     18  H   UNL     1      13.760  38.954  32.874  1.00  0.00     0.211 HD
ENDBRANCH   4  17
TORSDOF 7
ENDMDL
MODEL 5
REMARK VINA RESULT:    -3.078     10.425     12.335
REMARK INTER + INTRA:          -4.412
REMARK INTER:                  -3.965
REMARK INTRA:                  -0.447
REMARK UNBOUND:                -0.434
REMARK SMILES CCO[C@@H]1O[C@@H](CO)[C@@H](O)[C@@H](O)[C@@H]1O
REMARK SMILES IDX 4 1 13 2 11 3 9 4 6 5 5 6 3 7 2 8 1 9 14 10 12 12 7 14 8 15
REMARK SMILES IDX 10 17
REMARK H PARENT 14 11 12 13 8 16 10 18
REMARK Flexibility Score: inf
ROOT
ATOM      1  C   UNL     1      20.303  37.519  33.139  1.00  0.00     0.281 C 
ATOM      2  C   UNL     1      20.300  36.154  32.415  1.00  0.00     0.202 C 
ATOM      3  C   UNL     1      18.997  35.388  32.700  1.00  0.00     0.179 C 
ATOM      4  C   UNL     1      17.767  36.289  32.464  1.00  0.00     0.177 C 
ATOM      5  C   UNL     1      17.956  37.636  33.205  1.00  0.00     0.178 C 
ATOM      6  O   UNL     1      19.152  38.284  32.798  1.00  0.00    -0.341 OA
ENDROOT
BRANCH   1   7
ATOM      7  O   UNL     1      20.406  37.329  34.542  1.00  0.00    -0.350 OA
BRANCH   7   8
ATOM      8  C   UNL     1      21.254  38.308  35.106  1.00  0.00     0.160 C 
ATOM      9  C   UNL     1      22.700  37.939  34.817  1.00  0.00     0.035 C 
ENDBRANCH   7   8
ENDBRANCH   1   7
BRANCH   2  10
ATOM     10  O   UNL     1      21.393  35.380  32.839  1.00  0.00    -0.385 OA
ATOM     11  H   UNL     1      21.861  35.072  32.019  1.00  0.00     0.211 HD
ENDBRANCH   2  10
BRANCH   3  12
ATOM     12  O   UNL     1      18.934  34.249  31.881  1.00  0.00    -0.387 OA
ATOM     13  H   UNL     1      19.418  34.474  31.044  1.00  0.00     0.211 HD
ENDBRANCH   3  12
BRANCH   5  14
ATOM     14  C   UNL     1      16.763  38.585  32.999  1.00  0.00     0.191 C 
BRANCH  14  15
ATOM     15  O   UNL     1      15.592  37.880  32.681  1.00  0.00    -0.394 OA
ATOM     16  H   UNL     1      14.886  38.203  33.299  1.00  0.00     0.210 HD
ENDBRANCH  14  15
ENDBRANCH   5  14
BRANCH   4  17
ATOM     17  O   UNL     1      17.522  36.467  31.088  1.00  0.00    -0.387 OA
ATOM     18  H   UNL     1      18.349  36.237  30.592  1.00  0.00     0.211 HD
ENDBRANCH   4  17
TORSDOF 7
ENDMDL
MODEL 6
REMARK VINA RESULT:    -3.030      3.379      5.144
REMARK INTER + INTRA:          -4.350
REMARK INTER:                  -3.884
REMARK INTRA:                  -0.465
REMARK UNBOUND:                -0.434
REMARK SMILES CCO[C@@H]1O[C@@H](CO)[C@@H](O)[C@@H](O)[C@@H]1O
REMARK SMILES IDX 4 1 13 2 11 3 9 4 6 5 5 6 3 7 2 8 1 9 14 10 12 12 7 14 8 15
REMARK SMILES IDX 10 17
REMARK H PARENT 14 11 12 13 8 16 10 18
REMARK Flexibility Score: inf
ROOT
ATOM      1  C   UNL     1      12.787  35.518  33.852  1.00  0.00     0.281 C 
ATOM      2  C   UNL     1      12.381  34.036  34.017  1.00  0.00     0.202 C 
ATOM      3  C   UNL     1      10.949  33.921  34.567  1.00  0.00     0.179 C 
ATOM      4  C   UNL     1       9.978  34.809  33.762  1.00  0.00     0.177 C 
ATOM      5  C   UNL     1      10.560  36.240  33.638  1.00  0.00     0.178 C 
ATOM      6  O   UNL     1      11.849  36.220  33.044  1.00  0.00    -0.341 OA
ENDROOT
BRANCH   1   7
ATOM      7  O   UNL     1      12.939  36.129  35.125  1.00  0.00    -0.350 OA
BRANCH   7   8
ATOM      8  C   UNL     1      13.997  37.064  35.094  1.00  0.00     0.160 C 
ATOM      9  C   UNL     1      15.238  36.391  34.530  1.00  0.00     0.035 C 
ENDBRANCH   7   8
ENDBRANCH   1   7
BRANCH   2  10
ATOM     10  O   UNL     1      13.267  33.388  34.894  1.00  0.00    -0.385 OA
ATOM     11  H   UNL     1      12.897  32.481  35.056  1.00  0.00     0.211 HD
ENDBRANCH   2  10
BRANCH   3  12
ATOM     12  O   UNL     1      10.537  32.579  34.522  1.00  0.00    -0.387 OA
ATOM     13  H   UNL     1       9.907  32.500  33.759  1.00  0.00     0.211 HD
ENDBRANCH   3  12
BRANCH   5  14
ATOM     14  C   UNL     1       9.639  37.173  32.834  1.00  0.00     0.191 C 
BRANCH  14  15
ATOM     15  O   UNL     1       8.325  36.682  32.781  1.00  0.00    -0.394 OA
ATOM     16  H   UNL     1       7.911  37.056  31.960  1.00  0.00     0.210 HD
ENDBRANCH  14  15
ENDBRANCH   5  14
BRANCH   4  17
ATOM     17  O   UNL     1       9.688  34.239  32.506  1.00  0.00    -0.387 OA
ATOM     18  H   UNL     1       8.940  33.599  32.621  1.00  0.00     0.211 HD
ENDBRANCH   4  17
TORSDOF 7
ENDMDL
MODEL 7
REMARK VINA RESULT:    -2.999      1.817      3.894
REMARK INTER + INTRA:          -4.309
REMARK INTER:                  -3.953
REMARK INTRA:                  -0.356
REMARK UNBOUND:                -0.434
REMARK SMILES CCO[C@@H]1O[C@@H](CO)[C@@H](O)[C@@H](O)[C@@H]1O
REMARK SMILES IDX 4 1 13 2 11 3 9 4 6 5 5 6 3 7 2 8 1 9 14 10 12 12 7 14 8 15
REMARK SMILES IDX 10 17
REMARK H PARENT 14 11 12 13 8 16 10 18
REMARK Flexibility Score: inf
ROOT
ATOM      1  C   UNL     1       6.169  33.023  35.003  1.00  0.00     0.281 C 
ATOM      2  C   UNL     1       7.079  31.895  34.466  1.00  0.00     0.202 C 
ATOM      3  C   UNL     1       7.601  32.237  33.061  1.00  0.00     0.179 C 
ATOM      4  C   UNL     1       8.189  33.663  33.026  1.00  0.00     0.177 C 
ATOM      5  C   UNL     1       7.182  34.659  33.653  1.00  0.00     0.178 C 
ATOM      6  O   UNL     1       6.839  34.278  34.977  1.00  0.00    -0.341 OA
ENDROOT
BRANCH   1   7
ATOM      7  O   UNL     1       4.955  33.063  34.269  1.00  0.00    -0.350 OA
BRANCH   7   8
ATOM      8  C   UNL     1       3.859  32.817  35.125  1.00  0.00     0.160 C 
ATOM      9  C   UNL     1       2.884  31.881  34.428  1.00  0.00     0.035 C 
ENDBRANCH   7   8
ENDBRANCH   1   7
BRANCH   2  10
ATOM     10  O   UNL     1       6.367  30.685  34.413  1.00  0.00    -0.385 OA
ATOM     11  H   UNL     1       7.039  29.955  34.437  1.00  0.00     0.211 HD
ENDBRANCH   2  10
BRANCH   3  12
ATOM     12  O   UNL     1       8.573  31.297  32.681  1.00  0.00    -0.387 OA
ATOM     13  H   UNL     1       8.236  30.408  32.965  1.00  0.00     0.211 HD
ENDBRANCH   3  12
BRANCH   5  14
ATOM     14  C   UNL     1       7.717  36.101  33.656  1.00  0.00     0.191 C 
BRANCH  14  15
ATOM     15  O   UNL     1       8.808  36.249  32.786  1.00  0.00    -0.394 OA
ATOM     16  H   UNL     1       9.465  36.834  33.246  1.00  0.00     0.210 HD
ENDBRANCH  14  15
ENDBRANCH   5  14
BRANCH   4  17
ATOM     17  O   UNL     1       9.449  33.711  33.654  1.00  0.00    -0.387 OA
ATOM     18  H   UNL     1       9.567  32.878  34.178  1.00  0.00     0.211 HD
ENDBRANCH   4  17
TORSDOF 7
ENDMDL
MODEL 8
REMARK VINA RESULT:    -2.951      1.563      3.303
REMARK INTER + INTRA:          -4.247
REMARK INTER:                  -3.866
REMARK INTRA:                  -0.382
REMARK UNBOUND:                -0.434
REMARK SMILES CCO[C@@H]1O[C@@H](CO)[C@@H](O)[C@@H](O)[C@@H]1O
REMARK SMILES IDX 4 1 13 2 11 3 9 4 6 5 5 6 3 7 2 8 1 9 14 10 12 12 7 14 8 15
REMARK SMILES IDX 10 17
REMARK H PARENT 14 11 12 13 8 16 10 18
REMARK Flexibility Score: inf
ROOT
ATOM      1  C   UNL     1       7.220  35.437  34.990  1.00  0.00     0.281 C 
ATOM      2  C   UNL     1       6.678  34.006  34.781  1.00  0.00     0.202 C 
ATOM      3  C   UNL     1       6.988  33.507  33.360  1.00  0.00     0.179 C 
ATOM      4  C   UNL     1       8.473  33.732  33.010  1.00  0.00     0.177 C 
ATOM      5  C   UNL     1       8.871  35.194  33.334  1.00  0.00     0.178 C 
ATOM      6  O   UNL     1       8.610  35.508  34.694  1.00  0.00    -0.341 OA
ENDROOT
BRANCH   1   7
ATOM      7  O   UNL     1       6.473  36.362  34.213  1.00  0.00    -0.350 OA
BRANCH   7   8
ATOM      8  C   UNL     1       6.536  37.649  34.792  1.00  0.00     0.160 C 
ATOM      9  C   UNL     1       6.698  38.683  33.689  1.00  0.00     0.035 C 
ENDBRANCH   7   8
ENDBRANCH   1   7
BRANCH   2  10
ATOM     10  O   UNL     1       5.288  33.981  34.987  1.00  0.00    -0.385 OA
ATOM     11  H   UNL     1       5.102  33.216  35.592  1.00  0.00     0.211 HD
ENDBRANCH   2  10
BRANCH   3  12
ATOM     12  O   UNL     1       6.662  32.144  33.260  1.00  0.00    -0.387 OA
ATOM     13  H   UNL     1       7.399  31.643  33.696  1.00  0.00     0.211 HD
ENDBRANCH   3  12
BRANCH   5  14
ATOM     14  C   UNL     1      10.348  35.478  33.015  1.00  0.00     0.191 C 
BRANCH  14  15
ATOM     15  O   UNL     1      10.749  34.852  31.825  1.00  0.00    -0.394 OA
ATOM     16  H   UNL     1      11.742  34.854  31.820  1.00  0.00     0.210 HD
ENDBRANCH  14  15
ENDBRANCH   5  14
BRANCH   4  17
ATOM     17  O   UNL     1       9.299  32.797  33.665  1.00  0.00    -0.387 OA
ATOM     18  H   UNL     1       8.722  32.086  34.046  1.00  0.00     0.211 HD
ENDBRANCH   4  17
TORSDOF 7
ENDMDL
