MODEL 1
REMARK VINA RESULT:    22.432      0.000      0.000
REMARK INTER + INTRA:          55.088
REMARK INTER:                  56.528
REMARK INTRA:                  -1.439
REMARK UNBOUND:                -1.439
REMARK SMILES CCCCCCCCCCCCCCCCCCCCCCCCCCCC(=O)[O-]
REMARK SMILES IDX 15 1 16 2 17 3 18 4 19 5 20 6 21 7 22 8 23 9 24 10 25 11
REMARK SMILES IDX 26 12 27 13 28 14 29 15 30 16 14 17 13 18 12 19 11 20 10 21
REMARK SMILES IDX 9 22 8 23 7 24 6 25 5 26 4 27 3 28 2 29 1 30
REMARK H PARENT
REMARK Flexibility Score: inf
ROOT
ATOM      1  C   UNL     1      -8.804 -17.797  27.759  1.00  0.00     0.000 C 
ENDROOT
BRANCH   1   2
ATOM      2  C   UNL     1      -7.642 -17.206  26.945  1.00  0.00     0.000 C 
BRANCH   2   3
ATOM      3  C   UNL     1      -6.264 -17.506  27.563  1.00  0.00     0.000 C 
BRANCH   3   4
ATOM      4  C   UNL     1      -5.243 -18.166  26.613  1.00  0.00     0.000 C 
BRANCH   4   5
ATOM      5  C   UNL     1      -5.856 -18.922  25.421  1.00  0.00     0.000 C 
BRANCH   5   6
ATOM      6  C   UNL     1      -5.579 -18.231  24.074  1.00  0.00     0.000 C 
BRANCH   6   7
ATOM      7  C   UNL     1      -5.111 -19.216  22.992  1.00  0.00     0.000 C 
BRANCH   7   8
ATOM      8  C   UNL     1      -4.101 -20.246  23.529  1.00  0.00     0.000 C 
BRANCH   8   9
ATOM      9  C   UNL     1      -3.496 -21.115  22.417  1.00  0.00     0.000 C 
BRANCH   9  10
ATOM     10  C   UNL     1      -2.110 -20.626  21.970  1.00  0.00     0.000 C 
BRANCH  10  11
ATOM     11  C   UNL     1      -1.649 -19.433  22.816  1.00  0.00     0.000 C 
BRANCH  11  12
ATOM     12  C   UNL     1      -0.425 -19.799  23.666  1.00  0.00     0.006 C 
BRANCH  12  13
ATOM     13  C   UNL     1      -0.545 -19.288  25.108  1.00  0.00     0.053 C 
BRANCH  13  14
ATOM     14  C   UNL     1      -0.948 -17.846  25.153  1.00  0.00     0.041 C 
ATOM     15  O   UNL     1      -1.813 -17.455  25.980  1.00  0.00    -0.550 OA
ATOM     16  O   UNL     1      -0.344 -16.928  24.304  1.00  0.00    -0.550 OA
ENDBRANCH  13  14
ENDBRANCH  12  13
ENDBRANCH  11  12
ENDBRANCH  10  11
ENDBRANCH   9  10
ENDBRANCH   8   9
ENDBRANCH   7   8
ENDBRANCH   6   7
ENDBRANCH   5   6
ENDBRANCH   4   5
ENDBRANCH   3   4
ENDBRANCH   2   3
ENDBRANCH   1   2
BRANCH   1  17
ATOM     17  C   UNL     1      -9.953 -16.796  27.985  1.00  0.00     0.000 C 
BRANCH  17  18
ATOM     18  C   UNL     1     -10.331 -15.934  26.766  1.00  0.00     0.000 C 
BRANCH  18  19
ATOM     19  C   UNL     1     -10.021 -14.440  26.964  1.00  0.00     0.000 C 
BRANCH  19  20
ATOM     20  C   UNL     1     -11.075 -13.521  26.320  1.00  0.00     0.000 C 
BRANCH  20  21
ATOM     21  C   UNL     1     -11.887 -12.657  27.306  1.00  0.00     0.000 C 
BRANCH  21  22
ATOM     22  C   UNL     1     -11.107 -11.496  27.954  1.00  0.00    -0.000 C 
BRANCH  22  23
ATOM     23  C   UNL     1     -10.200 -10.705  26.989  1.00  0.00    -0.000 C 
BRANCH  23  24
ATOM     24  C   UNL     1     -10.077  -9.199  27.294  1.00  0.00    -0.000 C 
BRANCH  24  25
ATOM     25  C   UNL     1      -8.722  -8.758  27.877  1.00  0.00    -0.000 C 
BRANCH  25  26
ATOM     26  C   UNL     1      -7.539  -9.571  27.321  1.00  0.00    -0.000 C 
BRANCH  26  27
ATOM     27  C   UNL     1      -6.344  -9.608  28.288  1.00  0.00    -0.000 C 
BRANCH  27  28
ATOM     28  C   UNL     1      -5.147 -10.392  27.717  1.00  0.00    -0.000 C 
BRANCH  28  29
ATOM     29  C   UNL     1      -5.525 -11.219  26.480  1.00  0.00    -0.003 C 
ATOM     30  C   UNL     1      -5.213 -10.502  25.166  1.00  0.00     0.004 C 
ENDBRANCH  28  29
ENDBRANCH  27  28
ENDBRANCH  26  27
ENDBRANCH  25  26
ENDBRANCH  24  25
ENDBRANCH  23  24
ENDBRANCH  22  23
ENDBRANCH  21  22
ENDBRANCH  20  21
ENDBRANCH  19  20
ENDBRANCH  18  19
ENDBRANCH  17  18
ENDBRANCH   1  17
TORSDOF 26
ENDMDL
MODEL 2
REMARK VINA RESULT:    22.549      2.063      9.874
REMARK INTER + INTRA:          55.383
REMARK INTER:                  55.618
REMARK INTRA:                  -0.234
REMARK UNBOUND:                -1.439
REMARK SMILES CCCCCCCCCCCCCCCCCCCCCCCCCCCC(=O)[O-]
REMARK SMILES IDX 15 1 16 2 17 3 18 4 19 5 20 6 21 7 22 8 23 9 24 10 25 11
REMARK SMILES IDX 26 12 27 13 28 14 29 15 30 16 14 17 13 18 12 19 11 20 10 21
REMARK SMILES IDX 9 22 8 23 7 24 6 25 5 26 4 27 3 28 2 29 1 30
REMARK H PARENT
REMARK Flexibility Score: inf
ROOT
ATOM      1  C   UNL     1      -8.335 -17.932  26.975  1.00  0.00     0.000 C 
ENDROOT
BRANCH   1   2
ATOM      2  C   UNL     1      -9.302 -17.917  28.170  1.00  0.00     0.000 C 
BRANCH   2   3
ATOM      3  C   UNL     1     -10.177 -16.651  28.218  1.00  0.00     0.000 C 
BRANCH   3   4
ATOM      4  C   UNL     1     -10.324 -15.898  26.880  1.00  0.00     0.000 C 
BRANCH   4   5
ATOM      5  C   UNL     1      -9.909 -14.416  26.917  1.00  0.00     0.000 C 
BRANCH   5   6
ATOM      6  C   UNL     1     -11.017 -13.477  26.410  1.00  0.00     0.000 C 
BRANCH   6   7
ATOM      7  C   UNL     1     -11.090 -12.167  27.210  1.00  0.00     0.000 C 
BRANCH   7   8
ATOM      8  C   UNL     1      -9.923 -11.214  26.890  1.00  0.00     0.000 C 
BRANCH   8   9
ATOM      9  C   UNL     1     -10.244  -9.753  27.235  1.00  0.00     0.000 C 
BRANCH   9  10
ATOM     10  C   UNL     1      -9.010  -8.972  27.712  1.00  0.00     0.000 C 
BRANCH  10  11
ATOM     11  C   UNL     1      -7.719  -9.614  27.191  1.00  0.00     0.000 C 
BRANCH  11  12
ATOM     12  C   UNL     1      -6.624  -9.606  28.267  1.00  0.00     0.006 C 
BRANCH  12  13
ATOM     13  C   UNL     1      -5.295 -10.170  27.747  1.00  0.00     0.053 C 
BRANCH  13  14
ATOM     14  C   UNL     1      -5.472 -10.898  26.450  1.00  0.00     0.041 C 
ATOM     15  O   UNL     1      -5.708 -12.135  26.443  1.00  0.00    -0.550 OA
ATOM     16  O   UNL     1      -5.410 -10.204  25.249  1.00  0.00    -0.550 OA
ENDBRANCH  13  14
ENDBRANCH  12  13
ENDBRANCH  11  12
ENDBRANCH  10  11
ENDBRANCH   9  10
ENDBRANCH   8   9
ENDBRANCH   7   8
ENDBRANCH   6   7
ENDBRANCH   5   6
ENDBRANCH   4   5
ENDBRANCH   3   4
ENDBRANCH   2   3
ENDBRANCH   1   2
BRANCH   1  17
ATOM     17  C   UNL     1      -6.982 -17.262  27.285  1.00  0.00     0.000 C 
BRANCH  17  18
ATOM     18  C   UNL     1      -5.754 -17.904  26.612  1.00  0.00     0.000 C 
BRANCH  18  19
ATOM     19  C   UNL     1      -6.124 -18.836  25.445  1.00  0.00     0.000 C 
BRANCH  19  20
ATOM     20  C   UNL     1      -4.890 -19.406  24.722  1.00  0.00     0.000 C 
BRANCH  20  21
ATOM     21  C   UNL     1      -4.906 -19.272  23.186  1.00  0.00     0.000 C 
BRANCH  21  22
ATOM     22  C   UNL     1      -4.726 -20.594  22.413  1.00  0.00    -0.000 C 
BRANCH  22  23
ATOM     23  C   UNL     1      -3.321 -21.221  22.519  1.00  0.00    -0.000 C 
BRANCH  23  24
ATOM     24  C   UNL     1      -2.166 -20.214  22.693  1.00  0.00    -0.000 C 
BRANCH  24  25
ATOM     25  C   UNL     1      -1.042 -20.666  23.642  1.00  0.00    -0.000 C 
BRANCH  25  26
ATOM     26  C   UNL     1      -0.339 -19.488  24.340  1.00  0.00    -0.000 C 
BRANCH  26  27
ATOM     27  C   UNL     1       0.023 -18.357  23.363  1.00  0.00    -0.000 C 
BRANCH  27  28
ATOM     28  C   UNL     1       0.027 -16.973  24.038  1.00  0.00    -0.000 C 
BRANCH  28  29
ATOM     29  C   UNL     1      -1.216 -16.742  24.910  1.00  0.00    -0.003 C 
ATOM     30  C   UNL     1      -1.479 -17.887  25.887  1.00  0.00     0.004 C 
ENDBRANCH  28  29
ENDBRANCH  27  28
ENDBRANCH  26  27
ENDBRANCH  25  26
ENDBRANCH  24  25
ENDBRANCH  23  24
ENDBRANCH  22  23
ENDBRANCH  21  22
ENDBRANCH  20  21
ENDBRANCH  19  20
ENDBRANCH  18  19
ENDBRANCH  17  18
ENDBRANCH   1  17
TORSDOF 26
ENDMDL
MODEL 3
REMARK VINA RESULT:    22.624      2.192     10.061
REMARK INTER + INTRA:          55.573
REMARK INTER:                  56.584
REMARK INTRA:                  -1.011
REMARK UNBOUND:                -1.439
REMARK SMILES CCCCCCCCCCCCCCCCCCCCCCCCCCCC(=O)[O-]
REMARK SMILES IDX 15 1 16 2 17 3 18 4 19 5 20 6 21 7 22 8 23 9 24 10 25 11
REMARK SMILES IDX 26 12 27 13 28 14 29 15 30 16 14 17 13 18 12 19 11 20 10 21
REMARK SMILES IDX 9 22 8 23 7 24 6 25 5 26 4 27 3 28 2 29 1 30
REMARK H PARENT
REMARK Flexibility Score: inf
ROOT
ATOM      1  C   UNL     1      -7.721 -16.929  26.885  1.00  0.00     0.000 C 
ENDROOT
BRANCH   1   2
ATOM      2  C   UNL     1      -8.510 -17.323  28.145  1.00  0.00     0.000 C 
BRANCH   2   3
ATOM      3  C   UNL     1      -9.993 -16.915  28.075  1.00  0.00     0.000 C 
BRANCH   3   4
ATOM      4  C   UNL     1     -10.366 -15.976  26.909  1.00  0.00     0.000 C 
BRANCH   4   5
ATOM      5  C   UNL     1      -9.939 -14.509  27.091  1.00  0.00     0.000 C 
BRANCH   5   6
ATOM      6  C   UNL     1     -10.803 -13.533  26.275  1.00  0.00     0.000 C 
BRANCH   6   7
ATOM      7  C   UNL     1     -11.776 -12.731  27.153  1.00  0.00     0.000 C 
BRANCH   7   8
ATOM      8  C   UNL     1     -11.086 -11.563  27.882  1.00  0.00     0.000 C 
BRANCH   8   9
ATOM      9  C   UNL     1      -9.893 -11.000  27.095  1.00  0.00     0.000 C 
BRANCH   9  10
ATOM     10  C   UNL     1      -9.961  -9.475  26.927  1.00  0.00     0.000 C 
BRANCH  10  11
ATOM     11  C   UNL     1      -9.036  -8.770  27.927  1.00  0.00     0.000 C 
BRANCH  11  12
ATOM     12  C   UNL     1      -7.638  -9.405  27.929  1.00  0.00     0.006 C 
BRANCH  12  13
ATOM     13  C   UNL     1      -7.242  -9.940  26.547  1.00  0.00     0.053 C 
BRANCH  13  14
ATOM     14  C   UNL     1      -5.815 -10.395  26.518  1.00  0.00     0.041 C 
ATOM     15  O   UNL     1      -5.146 -10.452  27.583  1.00  0.00    -0.550 OA
ATOM     16  O   UNL     1      -5.234 -10.789  25.320  1.00  0.00    -0.550 OA
ENDBRANCH  13  14
ENDBRANCH  12  13
ENDBRANCH  11  12
ENDBRANCH  10  11
ENDBRANCH   9  10
ENDBRANCH   8   9
ENDBRANCH   7   8
ENDBRANCH   6   7
ENDBRANCH   5   6
ENDBRANCH   4   5
ENDBRANCH   3   4
ENDBRANCH   2   3
ENDBRANCH   1   2
BRANCH   1  17
ATOM     17  C   UNL     1      -7.179 -18.144  26.108  1.00  0.00     0.000 C 
BRANCH  17  18
ATOM     18  C   UNL     1      -5.646 -18.294  26.094  1.00  0.00     0.000 C 
BRANCH  18  19
ATOM     19  C   UNL     1      -4.999 -17.994  27.457  1.00  0.00     0.000 C 
BRANCH  19  20
ATOM     20  C   UNL     1      -3.521 -17.578  27.337  1.00  0.00     0.000 C 
BRANCH  20  21
ATOM     21  C   UNL     1      -2.865 -17.863  25.971  1.00  0.00     0.000 C 
BRANCH  21  22
ATOM     22  C   UNL     1      -1.323 -17.861  25.974  1.00  0.00    -0.000 C 
BRANCH  22  23
ATOM     23  C   UNL     1      -0.674 -16.706  25.185  1.00  0.00    -0.000 C 
BRANCH  23  24
ATOM     24  C   UNL     1      -0.281 -17.046  23.733  1.00  0.00    -0.000 C 
BRANCH  24  25
ATOM     25  C   UNL     1       0.088 -18.519  23.483  1.00  0.00    -0.000 C 
BRANCH  25  26
ATOM     26  C   UNL     1      -0.796 -19.184  22.412  1.00  0.00    -0.000 C 
BRANCH  26  27
ATOM     27  C   UNL     1      -1.759 -20.224  23.009  1.00  0.00    -0.000 C 
BRANCH  27  28
ATOM     28  C   UNL     1      -2.851 -20.656  22.012  1.00  0.00    -0.000 C 
BRANCH  28  29
ATOM     29  C   UNL     1      -4.220 -20.837  22.684  1.00  0.00    -0.003 C 
ATOM     30  C   UNL     1      -4.790 -19.531  23.236  1.00  0.00     0.004 C 
ENDBRANCH  28  29
ENDBRANCH  27  28
ENDBRANCH  26  27
ENDBRANCH  25  26
ENDBRANCH  24  25
ENDBRANCH  23  24
ENDBRANCH  22  23
ENDBRANCH  21  22
ENDBRANCH  20  21
ENDBRANCH  19  20
ENDBRANCH  18  19
ENDBRANCH  17  18
ENDBRANCH   1  17
TORSDOF 26
ENDMDL
MODEL 4
REMARK VINA RESULT:    22.685      1.968      9.930
REMARK INTER + INTRA:          55.727
REMARK INTER:                  57.482
REMARK INTRA:                  -1.755
REMARK UNBOUND:                -1.439
REMARK SMILES CCCCCCCCCCCCCCCCCCCCCCCCCCCC(=O)[O-]
REMARK SMILES IDX 15 1 16 2 17 3 18 4 19 5 20 6 21 7 22 8 23 9 24 10 25 11
REMARK SMILES IDX 26 12 27 13 28 14 29 15 30 16 14 17 13 18 12 19 11 20 10 21
REMARK SMILES IDX 9 22 8 23 7 24 6 25 5 26 4 27 3 28 2 29 1 30
REMARK H PARENT
REMARK Flexibility Score: inf
ROOT
ATOM      1  C   UNL     1      -8.476 -17.708  27.849  1.00  0.00     0.000 C 
ENDROOT
BRANCH   1   2
ATOM      2  C   UNL     1      -9.667 -16.737  27.887  1.00  0.00     0.000 C 
BRANCH   2   3
ATOM      3  C   UNL     1      -9.513 -15.561  26.904  1.00  0.00     0.000 C 
BRANCH   3   4
ATOM      4  C   UNL     1     -10.827 -14.860  26.500  1.00  0.00     0.000 C 
BRANCH   4   5
ATOM      5  C   UNL     1     -10.750 -13.325  26.428  1.00  0.00     0.000 C 
BRANCH   5   6
ATOM      6  C   UNL     1     -11.669 -12.636  27.451  1.00  0.00     0.000 C 
BRANCH   6   7
ATOM      7  C   UNL     1     -11.105 -11.293  27.939  1.00  0.00     0.000 C 
BRANCH   7   8
ATOM      8  C   UNL     1     -10.228 -10.601  26.879  1.00  0.00     0.000 C 
BRANCH   8   9
ATOM      9  C   UNL     1     -10.030  -9.105  27.163  1.00  0.00     0.000 C 
BRANCH   9  10
ATOM     10  C   UNL     1      -8.711  -8.809  27.891  1.00  0.00     0.000 C 
BRANCH  10  11
ATOM     11  C   UNL     1      -7.546  -9.569  27.246  1.00  0.00     0.000 C 
BRANCH  11  12
ATOM     12  C   UNL     1      -6.342  -9.643  28.196  1.00  0.00     0.006 C 
BRANCH  12  13
ATOM     13  C   UNL     1      -5.072 -10.131  27.486  1.00  0.00     0.053 C 
BRANCH  13  14
ATOM     14  C   UNL     1      -5.395 -10.983  26.297  1.00  0.00     0.041 C 
ATOM     15  O   UNL     1      -5.370 -10.491  25.139  1.00  0.00    -0.550 OA
ATOM     16  O   UNL     1      -5.691 -12.330  26.465  1.00  0.00    -0.550 OA
ENDBRANCH  13  14
ENDBRANCH  12  13
ENDBRANCH  11  12
ENDBRANCH  10  11
ENDBRANCH   9  10
ENDBRANCH   8   9
ENDBRANCH   7   8
ENDBRANCH   6   7
ENDBRANCH   5   6
ENDBRANCH   4   5
ENDBRANCH   3   4
ENDBRANCH   2   3
ENDBRANCH   1   2
BRANCH   1  17
ATOM     17  C   UNL     1      -7.522 -17.448  26.667  1.00  0.00     0.000 C 
BRANCH  17  18
ATOM     18  C   UNL     1      -6.058 -17.873  26.890  1.00  0.00     0.000 C 
BRANCH  18  19
ATOM     19  C   UNL     1      -5.548 -18.858  25.824  1.00  0.00     0.000 C 
BRANCH  19  20
ATOM     20  C   UNL     1      -5.673 -18.305  24.392  1.00  0.00     0.000 C 
BRANCH  20  21
ATOM     21  C   UNL     1      -4.682 -18.896  23.369  1.00  0.00     0.000 C 
BRANCH  21  22
ATOM     22  C   UNL     1      -4.683 -20.435  23.272  1.00  0.00    -0.000 C 
BRANCH  22  23
ATOM     23  C   UNL     1      -3.902 -21.010  22.073  1.00  0.00    -0.000 C 
BRANCH  23  24
ATOM     24  C   UNL     1      -2.380 -20.761  22.104  1.00  0.00    -0.000 C 
BRANCH  24  25
ATOM     25  C   UNL     1      -1.787 -20.506  23.501  1.00  0.00    -0.000 C 
BRANCH  25  26
ATOM     26  C   UNL     1      -0.502 -19.659  23.460  1.00  0.00    -0.000 C 
BRANCH  26  27
ATOM     27  C   UNL     1      -0.289 -18.850  24.750  1.00  0.00    -0.000 C 
BRANCH  27  28
ATOM     28  C   UNL     1      -0.433 -17.334  24.527  1.00  0.00    -0.000 C 
BRANCH  28  29
ATOM     29  C   UNL     1      -1.601 -16.732  25.322  1.00  0.00    -0.003 C 
ATOM     30  C   UNL     1      -2.150 -17.683  26.386  1.00  0.00     0.004 C 
ENDBRANCH  28  29
ENDBRANCH  27  28
ENDBRANCH  26  27
ENDBRANCH  25  26
ENDBRANCH  24  25
ENDBRANCH  23  24
ENDBRANCH  22  23
ENDBRANCH  21  22
ENDBRANCH  20  21
ENDBRANCH  19  20
ENDBRANCH  18  19
ENDBRANCH  17  18
ENDBRANCH   1  17
TORSDOF 26
ENDMDL
MODEL 5
REMARK VINA RESULT:    22.738      2.181      9.920
REMARK INTER + INTRA:          55.860
REMARK INTER:                  57.070
REMARK INTRA:                  -1.210
REMARK UNBOUND:                -1.439
REMARK SMILES CCCCCCCCCCCCCCCCCCCCCCCCCCCC(=O)[O-]
REMARK SMILES IDX 15 1 16 2 17 3 18 4 19 5 20 6 21 7 22 8 23 9 24 10 25 11
REMARK SMILES IDX 26 12 27 13 28 14 29 15 30 16 14 17 13 18 12 19 11 20 10 21
REMARK SMILES IDX 9 22 8 23 7 24 6 25 5 26 4 27 3 28 2 29 1 30
REMARK H PARENT
REMARK Flexibility Score: inf
ROOT
ATOM      1  C   UNL     1      -7.538 -17.043  26.733  1.00  0.00     0.000 C 
ENDROOT
BRANCH   1   2
ATOM      2  C   UNL     1      -8.635 -18.088  26.997  1.00  0.00     0.000 C 
BRANCH   2   3
ATOM      3  C   UNL     1      -9.354 -17.875  28.342  1.00  0.00     0.000 C 
BRANCH   3   4
ATOM      4  C   UNL     1     -10.220 -16.602  28.435  1.00  0.00     0.000 C 
BRANCH   4   5
ATOM      5  C   UNL     1     -10.577 -15.957  27.084  1.00  0.00     0.000 C 
BRANCH   5   6
ATOM      6  C   UNL     1      -9.997 -14.541  26.930  1.00  0.00     0.000 C 
BRANCH   6   7
ATOM      7  C   UNL     1     -10.992 -13.564  26.283  1.00  0.00     0.000 C 
BRANCH   7   8
ATOM      8  C   UNL     1     -11.679 -12.652  27.316  1.00  0.00     0.000 C 
BRANCH   8   9
ATOM      9  C   UNL     1     -10.739 -11.568  27.863  1.00  0.00     0.000 C 
BRANCH   9  10
ATOM     10  C   UNL     1     -10.363 -10.520  26.805  1.00  0.00     0.000 C 
BRANCH  10  11
ATOM     11  C   UNL     1      -9.410  -9.469  27.387  1.00  0.00     0.000 C 
BRANCH  11  12
ATOM     12  C   UNL     1      -8.050  -9.503  26.676  1.00  0.00     0.006 C 
BRANCH  12  13
ATOM     13  C   UNL     1      -6.883  -9.639  27.663  1.00  0.00     0.053 C 
BRANCH  13  14
ATOM     14  C   UNL     1      -5.734 -10.388  27.061  1.00  0.00     0.041 C 
ATOM     15  O   UNL     1      -5.778 -10.755  25.857  1.00  0.00    -0.550 OA
ATOM     16  O   UNL     1      -4.600 -10.650  27.818  1.00  0.00    -0.550 OA
ENDBRANCH  13  14
ENDBRANCH  12  13
ENDBRANCH  11  12
ENDBRANCH  10  11
ENDBRANCH   9  10
ENDBRANCH   8   9
ENDBRANCH   7   8
ENDBRANCH   6   7
ENDBRANCH   5   6
ENDBRANCH   4   5
ENDBRANCH   3   4
ENDBRANCH   2   3
ENDBRANCH   1   2
BRANCH   1  17
ATOM     17  C   UNL     1      -6.208 -17.373  27.437  1.00  0.00     0.000 C 
BRANCH  17  18
ATOM     18  C   UNL     1      -5.171 -18.122  26.579  1.00  0.00     0.000 C 
BRANCH  18  19
ATOM     19  C   UNL     1      -5.725 -18.567  25.215  1.00  0.00     0.000 C 
BRANCH  19  20
ATOM     20  C   UNL     1      -4.901 -19.699  24.576  1.00  0.00     0.000 C 
BRANCH  20  21
ATOM     21  C   UNL     1      -4.639 -19.552  23.064  1.00  0.00     0.000 C 
BRANCH  21  22
ATOM     22  C   UNL     1      -4.230 -20.851  22.341  1.00  0.00    -0.000 C 
BRANCH  22  23
ATOM     23  C   UNL     1      -2.742 -21.230  22.480  1.00  0.00    -0.000 C 
BRANCH  23  24
ATOM     24  C   UNL     1      -1.753 -20.246  21.824  1.00  0.00    -0.000 C 
BRANCH  24  25
ATOM     25  C   UNL     1      -0.970 -19.355  22.805  1.00  0.00    -0.000 C 
BRANCH  25  26
ATOM     26  C   UNL     1      -0.700 -20.044  24.154  1.00  0.00    -0.000 C 
BRANCH  26  27
ATOM     27  C   UNL     1      -0.319 -19.045  25.259  1.00  0.00    -0.000 C 
BRANCH  27  28
ATOM     28  C   UNL     1      -1.409 -17.983  25.496  1.00  0.00    -0.000 C 
BRANCH  28  29
ATOM     29  C   UNL     1      -1.017 -16.607  24.937  1.00  0.00    -0.003 C 
ATOM     30  C   UNL     1       0.047 -16.689  23.843  1.00  0.00     0.004 C 
ENDBRANCH  28  29
ENDBRANCH  27  28
ENDBRANCH  26  27
ENDBRANCH  25  26
ENDBRANCH  24  25
ENDBRANCH  23  24
ENDBRANCH  22  23
ENDBRANCH  21  22
ENDBRANCH  20  21
ENDBRANCH  19  20
ENDBRANCH  18  19
ENDBRANCH  17  18
ENDBRANCH   1  17
TORSDOF 26
ENDMDL
MODEL 6
REMARK VINA RESULT:    22.930      1.641      2.702
REMARK INTER + INTRA:          56.343
REMARK INTER:                  58.284
REMARK INTRA:                  -1.941
REMARK UNBOUND:                -1.439
REMARK SMILES CCCCCCCCCCCCCCCCCCCCCCCCCCCC(=O)[O-]
REMARK SMILES IDX 15 1 16 2 17 3 18 4 19 5 20 6 21 7 22 8 23 9 24 10 25 11
REMARK SMILES IDX 26 12 27 13 28 14 29 15 30 16 14 17 13 18 12 19 11 20 10 21
REMARK SMILES IDX 9 22 8 23 7 24 6 25 5 26 4 27 3 28 2 29 1 30
REMARK H PARENT
REMARK Flexibility Score: inf
ROOT
ATOM      1  C   UNL     1      -8.669 -17.633  27.857  1.00  0.00     0.000 C 
ENDROOT
BRANCH   1   2
ATOM      2  C   UNL     1      -7.441 -17.058  27.132  1.00  0.00     0.000 C 
BRANCH   2   3
ATOM      3  C   UNL     1      -6.831 -18.040  26.115  1.00  0.00     0.000 C 
BRANCH   3   4
ATOM      4  C   UNL     1      -5.307 -18.251  26.231  1.00  0.00     0.000 C 
BRANCH   4   5
ATOM      5  C   UNL     1      -4.694 -17.841  27.581  1.00  0.00     0.000 C 
BRANCH   5   6
ATOM      6  C   UNL     1      -3.205 -17.468  27.468  1.00  0.00     0.000 C 
BRANCH   6   7
ATOM      7  C   UNL     1      -2.515 -18.153  26.279  1.00  0.00     0.000 C 
BRANCH   7   8
ATOM      8  C   UNL     1      -1.783 -17.152  25.366  1.00  0.00     0.000 C 
BRANCH   8   9
ATOM      9  C   UNL     1      -0.701 -17.821  24.505  1.00  0.00     0.000 C 
BRANCH   9  10
ATOM     10  C   UNL     1      -0.323 -19.221  25.011  1.00  0.00     0.000 C 
BRANCH  10  11
ATOM     11  C   UNL     1      -0.773 -20.303  24.023  1.00  0.00     0.000 C 
BRANCH  11  12
ATOM     12  C   UNL     1      -1.541 -19.688  22.843  1.00  0.00     0.006 C 
BRANCH  12  13
ATOM     13  C   UNL     1      -2.370 -20.732  22.084  1.00  0.00     0.053 C 
BRANCH  13  14
ATOM     14  C   UNL     1      -3.817 -20.674  22.466  1.00  0.00     0.041 C 
ATOM     15  O   UNL     1      -4.257 -19.705  23.139  1.00  0.00    -0.550 OA
ATOM     16  O   UNL     1      -4.687 -21.674  22.053  1.00  0.00    -0.550 OA
ENDBRANCH  13  14
ENDBRANCH  12  13
ENDBRANCH  11  12
ENDBRANCH  10  11
ENDBRANCH   9  10
ENDBRANCH   8   9
ENDBRANCH   7   8
ENDBRANCH   6   7
ENDBRANCH   5   6
ENDBRANCH   4   5
ENDBRANCH   3   4
ENDBRANCH   2   3
ENDBRANCH   1   2
BRANCH   1  17
ATOM     17  C   UNL     1      -9.931 -16.766  27.687  1.00  0.00     0.000 C 
BRANCH  17  18
ATOM     18  C   UNL     1      -9.689 -15.339  27.159  1.00  0.00     0.000 C 
BRANCH  18  19
ATOM     19  C   UNL     1     -10.720 -14.904  26.102  1.00  0.00     0.000 C 
BRANCH  19  20
ATOM     20  C   UNL     1     -11.065 -13.407  26.187  1.00  0.00     0.000 C 
BRANCH  20  21
ATOM     21  C   UNL     1     -11.620 -12.934  27.545  1.00  0.00     0.000 C 
BRANCH  21  22
ATOM     22  C   UNL     1     -11.198 -11.511  27.964  1.00  0.00    -0.000 C 
BRANCH  22  23
ATOM     23  C   UNL     1     -10.208 -10.820  27.006  1.00  0.00    -0.000 C 
BRANCH  23  24
ATOM     24  C   UNL     1     -10.049  -9.300  27.213  1.00  0.00    -0.000 C 
BRANCH  24  25
ATOM     25  C   UNL     1      -8.779  -8.872  27.971  1.00  0.00    -0.000 C 
BRANCH  25  26
ATOM     26  C   UNL     1      -7.485  -9.276  27.243  1.00  0.00    -0.000 C 
BRANCH  26  27
ATOM     27  C   UNL     1      -6.329  -9.568  28.215  1.00  0.00    -0.000 C 
BRANCH  27  28
ATOM     28  C   UNL     1      -5.091 -10.144  27.504  1.00  0.00    -0.000 C 
BRANCH  28  29
ATOM     29  C   UNL     1      -5.448 -10.862  26.194  1.00  0.00    -0.003 C 
ATOM     30  C   UNL     1      -5.530 -12.380  26.350  1.00  0.00     0.004 C 
ENDBRANCH  28  29
ENDBRANCH  27  28
ENDBRANCH  26  27
ENDBRANCH  25  26
ENDBRANCH  24  25
ENDBRANCH  23  24
ENDBRANCH  22  23
ENDBRANCH  21  22
ENDBRANCH  20  21
ENDBRANCH  19  20
ENDBRANCH  18  19
ENDBRANCH  17  18
ENDBRANCH   1  17
TORSDOF 26
ENDMDL
MODEL 7
REMARK VINA RESULT:    22.995      1.937      3.369
REMARK INTER + INTRA:          56.508
REMARK INTER:                  57.867
REMARK INTRA:                  -1.358
REMARK UNBOUND:                -1.439
REMARK SMILES CCCCCCCCCCCCCCCCCCCCCCCCCCCC(=O)[O-]
REMARK SMILES IDX 15 1 16 2 17 3 18 4 19 5 20 6 21 7 22 8 23 9 24 10 25 11
REMARK SMILES IDX 26 12 27 13 28 14 29 15 30 16 14 17 13 18 12 19 11 20 10 21
REMARK SMILES IDX 9 22 8 23 7 24 6 25 5 26 4 27 3 28 2 29 1 30
REMARK H PARENT
REMARK Flexibility Score: inf
ROOT
ATOM      1  C   UNL     1      -7.085 -17.755  25.963  1.00  0.00     0.000 C 
ENDROOT
BRANCH   1   2
ATOM      2  C   UNL     1      -5.735 -18.446  26.215  1.00  0.00     0.000 C 
BRANCH   2   3
ATOM      3  C   UNL     1      -4.906 -17.758  27.315  1.00  0.00     0.000 C 
BRANCH   3   4
ATOM      4  C   UNL     1      -3.379 -17.944  27.206  1.00  0.00     0.000 C 
BRANCH   4   5
ATOM      5  C   UNL     1      -2.785 -17.657  25.815  1.00  0.00     0.000 C 
BRANCH   5   6
ATOM      6  C   UNL     1      -1.247 -17.624  25.821  1.00  0.00     0.000 C 
BRANCH   6   7
ATOM      7  C   UNL     1      -0.677 -16.571  24.858  1.00  0.00     0.000 C 
BRANCH   7   8
ATOM      8  C   UNL     1       0.123 -17.201  23.703  1.00  0.00     0.000 C 
BRANCH   8   9
ATOM      9  C   UNL     1      -0.553 -18.456  23.133  1.00  0.00     0.000 C 
BRANCH   9  10
ATOM     10  C   UNL     1      -0.225 -19.723  23.937  1.00  0.00     0.000 C 
BRANCH  10  11
ATOM     11  C   UNL     1      -1.313 -20.788  23.751  1.00  0.00     0.000 C 
BRANCH  11  12
ATOM     12  C   UNL     1      -2.021 -20.625  22.399  1.00  0.00     0.006 C 
BRANCH  12  13
ATOM     13  C   UNL     1      -3.520 -20.340  22.559  1.00  0.00     0.053 C 
BRANCH  13  14
ATOM     14  C   UNL     1      -4.332 -21.597  22.493  1.00  0.00     0.041 C 
ATOM     15  O   UNL     1      -5.085 -21.814  21.507  1.00  0.00    -0.550 OA
ATOM     16  O   UNL     1      -4.232 -22.544  23.503  1.00  0.00    -0.550 OA
ENDBRANCH  13  14
ENDBRANCH  12  13
ENDBRANCH  11  12
ENDBRANCH  10  11
ENDBRANCH   9  10
ENDBRANCH   8   9
ENDBRANCH   7   8
ENDBRANCH   6   7
ENDBRANCH   5   6
ENDBRANCH   4   5
ENDBRANCH   3   4
ENDBRANCH   2   3
ENDBRANCH   1   2
BRANCH   1  17
ATOM     17  C   UNL     1      -7.593 -16.959  27.181  1.00  0.00     0.000 C 
BRANCH  17  18
ATOM     18  C   UNL     1      -8.828 -17.546  27.890  1.00  0.00     0.000 C 
BRANCH  18  19
ATOM     19  C   UNL     1      -9.997 -16.551  27.988  1.00  0.00     0.000 C 
BRANCH  19  20
ATOM     20  C   UNL     1     -10.203 -15.743  26.694  1.00  0.00     0.000 C 
BRANCH  20  21
ATOM     21  C   UNL     1      -9.992 -14.221  26.826  1.00  0.00     0.000 C 
BRANCH  21  22
ATOM     22  C   UNL     1     -11.281 -13.376  26.778  1.00  0.00    -0.000 C 
BRANCH  22  23
ATOM     23  C   UNL     1     -11.162 -11.975  27.410  1.00  0.00    -0.000 C 
BRANCH  23  24
ATOM     24  C   UNL     1     -10.093 -11.061  26.779  1.00  0.00    -0.000 C 
BRANCH  24  25
ATOM     25  C   UNL     1     -10.149  -9.587  27.220  1.00  0.00    -0.000 C 
BRANCH  25  26
ATOM     26  C   UNL     1      -8.784  -9.052  27.689  1.00  0.00    -0.000 C 
BRANCH  26  27
ATOM     27  C   UNL     1      -7.629 -10.010  27.352  1.00  0.00    -0.000 C 
BRANCH  27  28
ATOM     28  C   UNL     1      -6.265  -9.484  27.838  1.00  0.00    -0.000 C 
BRANCH  28  29
ATOM     29  C   UNL     1      -5.091 -10.317  27.304  1.00  0.00    -0.003 C 
ATOM     30  C   UNL     1      -5.393 -10.981  25.961  1.00  0.00     0.004 C 
ENDBRANCH  28  29
ENDBRANCH  27  28
ENDBRANCH  26  27
ENDBRANCH  25  26
ENDBRANCH  24  25
ENDBRANCH  23  24
ENDBRANCH  22  23
ENDBRANCH  21  22
ENDBRANCH  20  21
ENDBRANCH  19  20
ENDBRANCH  18  19
ENDBRANCH  17  18
ENDBRANCH   1  17
TORSDOF 26
ENDMDL
MODEL 8
REMARK VINA RESULT:    23.134      0.873      1.388
REMARK INTER + INTRA:          56.858
REMARK INTER:                  57.184
REMARK INTRA:                  -0.327
REMARK UNBOUND:                -1.439
REMARK SMILES CCCCCCCCCCCCCCCCCCCCCCCCCCCC(=O)[O-]
REMARK SMILES IDX 15 1 16 2 17 3 18 4 19 5 20 6 21 7 22 8 23 9 24 10 25 11
REMARK SMILES IDX 26 12 27 13 28 14 29 15 30 16 14 17 13 18 12 19 11 20 10 21
REMARK SMILES IDX 9 22 8 23 7 24 6 25 5 26 4 27 3 28 2 29 1 30
REMARK H PARENT
REMARK Flexibility Score: inf
ROOT
ATOM      1  C   UNL     1      -9.297 -19.001  27.530  1.00  0.00     0.000 C 
ENDROOT
BRANCH   1   2
ATOM      2  C   UNL     1      -8.674 -18.571  26.192  1.00  0.00     0.000 C 
BRANCH   2   3
ATOM      3  C   UNL     1      -7.500 -17.590  26.365  1.00  0.00     0.000 C 
BRANCH   3   4
ATOM      4  C   UNL     1      -6.198 -18.208  26.916  1.00  0.00     0.000 C 
BRANCH   4   5
ATOM      5  C   UNL     1      -5.034 -18.278  25.911  1.00  0.00     0.000 C 
BRANCH   5   6
ATOM      6  C   UNL     1      -5.496 -18.651  24.492  1.00  0.00     0.000 C 
BRANCH   6   7
ATOM      7  C   UNL     1      -4.338 -19.126  23.601  1.00  0.00     0.000 C 
BRANCH   7   8
ATOM      8  C   UNL     1      -4.741 -20.296  22.685  1.00  0.00     0.000 C 
BRANCH   8   9
ATOM      9  C   UNL     1      -3.533 -21.121  22.217  1.00  0.00     0.000 C 
BRANCH   9  10
ATOM     10  C   UNL     1      -2.382 -21.116  23.234  1.00  0.00     0.000 C 
BRANCH  10  11
ATOM     11  C   UNL     1      -1.403 -19.970  22.949  1.00  0.00     0.000 C 
BRANCH  11  12
ATOM     12  C   UNL     1      -0.542 -19.660  24.183  1.00  0.00     0.006 C 
BRANCH  12  13
ATOM     13  C   UNL     1      -0.873 -18.292  24.792  1.00  0.00     0.053 C 
BRANCH  13  14
ATOM     14  C   UNL     1      -0.255 -17.174  24.011  1.00  0.00     0.041 C 
ATOM     15  O   UNL     1      -0.255 -16.002  24.472  1.00  0.00    -0.550 OA
ATOM     16  O   UNL     1       0.351 -17.431  22.788  1.00  0.00    -0.550 OA
ENDBRANCH  13  14
ENDBRANCH  12  13
ENDBRANCH  11  12
ENDBRANCH  10  11
ENDBRANCH   9  10
ENDBRANCH   8   9
ENDBRANCH   7   8
ENDBRANCH   6   7
ENDBRANCH   5   6
ENDBRANCH   4   5
ENDBRANCH   3   4
ENDBRANCH   2   3
ENDBRANCH   1   2
BRANCH   1  17
ATOM     17  C   UNL     1      -9.238 -17.900  28.605  1.00  0.00     0.000 C 
BRANCH  17  18
ATOM     18  C   UNL     1     -10.158 -16.688  28.365  1.00  0.00     0.000 C 
BRANCH  18  19
ATOM     19  C   UNL     1      -9.617 -15.723  27.295  1.00  0.00     0.000 C 
BRANCH  19  20
ATOM     20  C   UNL     1     -10.737 -15.019  26.506  1.00  0.00     0.000 C 
BRANCH  20  21
ATOM     21  C   UNL     1     -10.613 -13.485  26.415  1.00  0.00     0.000 C 
BRANCH  21  22
ATOM     22  C   UNL     1     -11.614 -12.696  27.284  1.00  0.00    -0.000 C 
BRANCH  22  23
ATOM     23  C   UNL     1     -11.058 -11.391  27.889  1.00  0.00    -0.000 C 
BRANCH  23  24
ATOM     24  C   UNL     1     -10.236 -10.518  26.920  1.00  0.00    -0.000 C 
BRANCH  24  25
ATOM     25  C   UNL     1     -10.026  -9.061  27.370  1.00  0.00    -0.000 C 
BRANCH  25  26
ATOM     26  C   UNL     1      -8.591  -8.786  27.852  1.00  0.00    -0.000 C 
BRANCH  26  27
ATOM     27  C   UNL     1      -7.572  -9.776  27.262  1.00  0.00    -0.000 C 
BRANCH  27  28
ATOM     28  C   UNL     1      -6.172  -9.623  27.885  1.00  0.00    -0.000 C 
BRANCH  28  29
ATOM     29  C   UNL     1      -5.126 -10.519  27.205  1.00  0.00    -0.003 C 
ATOM     30  C   UNL     1      -5.511 -10.905  25.777  1.00  0.00     0.004 C 
ENDBRANCH  28  29
ENDBRANCH  27  28
ENDBRANCH  26  27
ENDBRANCH  25  26
ENDBRANCH  24  25
ENDBRANCH  23  24
ENDBRANCH  22  23
ENDBRANCH  21  22
ENDBRANCH  20  21
ENDBRANCH  19  20
ENDBRANCH  18  19
ENDBRANCH  17  18
ENDBRANCH   1  17
TORSDOF 26
ENDMDL
MODEL 9
REMARK VINA RESULT:    24.224      1.057      2.747
REMARK INTER + INTRA:          59.604
REMARK INTER:                  60.988
REMARK INTRA:                  -1.384
REMARK UNBOUND:                -1.439
REMARK SMILES CCCCCCCCCCCCCCCCCCCCCCCCCCCC(=O)[O-]
REMARK SMILES IDX 15 1 16 2 17 3 18 4 19 5 20 6 21 7 22 8 23 9 24 10 25 11
REMARK SMILES IDX 26 12 27 13 28 14 29 15 30 16 14 17 13 18 12 19 11 20 10 21
REMARK SMILES IDX 9 22 8 23 7 24 6 25 5 26 4 27 3 28 2 29 1 30
REMARK H PARENT
REMARK Flexibility Score: inf
ROOT
ATOM      1  C   UNL     1      -6.873 -17.468  25.976  1.00  0.00     0.000 C 
ENDROOT
BRANCH   1   2
ATOM      2  C   UNL     1      -6.045 -18.729  25.679  1.00  0.00     0.000 C 
BRANCH   2   3
ATOM      3  C   UNL     1      -4.929 -18.484  24.647  1.00  0.00     0.000 C 
BRANCH   3   4
ATOM      4  C   UNL     1      -5.059 -19.278  23.331  1.00  0.00     0.000 C 
BRANCH   4   5
ATOM      5  C   UNL     1      -4.312 -20.623  23.305  1.00  0.00     0.000 C 
BRANCH   5   6
ATOM      6  C   UNL     1      -3.729 -20.952  21.919  1.00  0.00     0.000 C 
BRANCH   6   7
ATOM      7  C   UNL     1      -2.193 -20.918  21.903  1.00  0.00     0.000 C 
BRANCH   7   8
ATOM      8  C   UNL     1      -1.616 -19.868  22.871  1.00  0.00     0.000 C 
BRANCH   8   9
ATOM      9  C   UNL     1      -0.850 -20.503  24.041  1.00  0.00     0.000 C 
BRANCH   9  10
ATOM     10  C   UNL     1      -0.201 -19.459  24.961  1.00  0.00     0.000 C 
BRANCH  10  11
ATOM     11  C   UNL     1      -1.212 -18.920  25.980  1.00  0.00     0.000 C 
BRANCH  11  12
ATOM     12  C   UNL     1      -1.131 -17.391  26.084  1.00  0.00     0.006 C 
BRANCH  12  13
ATOM     13  C   UNL     1      -1.350 -16.704  24.730  1.00  0.00     0.053 C 
BRANCH  13  14
ATOM     14  C   UNL     1      -0.052 -16.380  24.057  1.00  0.00     0.041 C 
ATOM     15  O   UNL     1       0.626 -15.387  24.432  1.00  0.00    -0.550 OA
ATOM     16  O   UNL     1       0.426 -17.192  23.037  1.00  0.00    -0.550 OA
ENDBRANCH  13  14
ENDBRANCH  12  13
ENDBRANCH  11  12
ENDBRANCH  10  11
ENDBRANCH   9  10
ENDBRANCH   8   9
ENDBRANCH   7   8
ENDBRANCH   6   7
ENDBRANCH   5   6
ENDBRANCH   4   5
ENDBRANCH   3   4
ENDBRANCH   2   3
ENDBRANCH   1   2
BRANCH   1  17
ATOM     17  C   UNL     1      -7.464 -17.456  27.399  1.00  0.00     0.000 C 
BRANCH  17  18
ATOM     18  C   UNL     1      -8.934 -17.902  27.511  1.00  0.00     0.000 C 
BRANCH  18  19
ATOM     19  C   UNL     1      -9.879 -16.765  27.936  1.00  0.00     0.000 C 
BRANCH  19  20
ATOM     20  C   UNL     1      -9.578 -15.438  27.215  1.00  0.00     0.000 C 
BRANCH  20  21
ATOM     21  C   UNL     1     -10.763 -14.824  26.443  1.00  0.00     0.000 C 
BRANCH  21  22
ATOM     22  C   UNL     1     -10.785 -13.283  26.398  1.00  0.00    -0.000 C 
BRANCH  22  23
ATOM     23  C   UNL     1     -11.521 -12.610  27.573  1.00  0.00    -0.000 C 
BRANCH  23  24
ATOM     24  C   UNL     1     -11.003 -11.208  27.954  1.00  0.00    -0.000 C 
BRANCH  24  25
ATOM     25  C   UNL     1     -10.171 -10.502  26.869  1.00  0.00    -0.000 C 
BRANCH  25  26
ATOM     26  C   UNL     1      -9.524  -9.197  27.367  1.00  0.00    -0.000 C 
BRANCH  26  27
ATOM     27  C   UNL     1      -8.002  -9.328  27.551  1.00  0.00    -0.000 C 
BRANCH  27  28
ATOM     28  C   UNL     1      -7.314  -9.973  26.334  1.00  0.00    -0.000 C 
BRANCH  28  29
ATOM     29  C   UNL     1      -6.031 -10.725  26.716  1.00  0.00    -0.003 C 
ATOM     30  C   UNL     1      -4.787 -10.172  26.020  1.00  0.00     0.004 C 
ENDBRANCH  28  29
ENDBRANCH  27  28
ENDBRANCH  26  27
ENDBRANCH  25  26
ENDBRANCH  24  25
ENDBRANCH  23  24
ENDBRANCH  22  23
ENDBRANCH  21  22
ENDBRANCH  20  21
ENDBRANCH  19  20
ENDBRANCH  18  19
ENDBRANCH  17  18
ENDBRANCH   1  17
TORSDOF 26
ENDMDL
