MODEL 1
REMARK VINA RESULT:    18.714      0.000      0.000
REMARK INTER + INTRA:          28.682
REMARK INTER:                  26.372
REMARK INTRA:                   2.310
REMARK UNBOUND:                 2.310
REMARK SMILES CC1=CCCC(C)=CCC(C)(C)C=CC1
REMARK SMILES IDX 2 1 3 2 1 3 4 4 5 5 6 6 7 7 8 8 15 10 14 11 13 12 10 13
REMARK SMILES IDX 11 14 12 15 9 16
REMARK H PARENT
REMARK Flexibility Score: 60.00
ROOT
ATOM      1  C   UNL     1      12.067  14.122  26.782  1.00  0.00    -0.074 C 
ATOM      2  C   UNL     1      13.124  14.954  26.950  1.00  0.00    -0.027 C 
ATOM      3  C   UNL     1      11.094  14.458  25.677  1.00  0.00     0.039 C 
ENDROOT
BRANCH   2   4
ATOM      4  C   UNL     1      14.200  14.839  28.008  1.00  0.00     0.032 C 
BRANCH   4   5
ATOM      5  C   UNL     1      13.973  13.669  28.987  1.00  0.00     0.034 C 
BRANCH   5   6
ATOM      6  C   UNL     1      13.309  14.059  30.301  1.00  0.00    -0.077 C 
ATOM      7  C   UNL     1      13.432  15.482  30.783  1.00  0.00     0.039 C 
ATOM      8  C   UNL     1      12.595  13.195  31.055  1.00  0.00    -0.027 CG0
ATOM      9  G   UNL     1      12.379  11.732  30.730  1.00  0.00     0.000 G0
ENDBRANCH   5   6
ENDBRANCH   4   5
ENDBRANCH   2   4
BRANCH   1  10
ATOM     10  C   UNL     1      11.772  12.910  27.656  1.00  0.00     0.057 C 
BRANCH  10  11
ATOM     11  C   UNL     1      10.522  13.123  28.477  1.00  0.00    -0.026 C 
ATOM     12  C   UNL     1      10.161  12.499  29.621  1.00  0.00    -0.024 C 
BRANCH  12  13
ATOM     13  C   UNL     1      10.895  11.388  30.389  1.00  0.00    -0.014 C 
ATOM     14  C   UNL     1      10.886  10.118  29.504  1.00  0.00     0.016 C 
ATOM     15  C   UNL     1      10.120  11.046  31.681  1.00  0.00     0.016 C 
BRANCH  13  16
ATOM     16  C   UNL     1      12.380  11.738  30.722  1.00  0.00     0.038 CG0
ATOM     17  G   UNL     1      12.581  13.203  31.051  1.00  0.00     0.000 G0
ENDBRANCH  13  16
ENDBRANCH  12  13
ENDBRANCH  10  11
ENDBRANCH   1  10
TORSDOF 0
ENDMDL
MODEL 2
REMARK VINA RESULT:    18.894      1.569      3.115
REMARK INTER + INTRA:          28.936
REMARK INTER:                  26.645
REMARK INTRA:                   2.291
REMARK UNBOUND:                 2.310
REMARK SMILES CC1=CCCC(C)=CCC(C)(C)C=CC1
REMARK SMILES IDX 2 1 3 2 1 3 4 4 5 5 6 6 7 7 8 8 15 10 14 11 13 12 10 13
REMARK SMILES IDX 11 14 12 15 9 16
REMARK H PARENT
REMARK Flexibility Score: 60.00
ROOT
ATOM      1  C   UNL     1      15.042  12.388  28.924  1.00  0.00    -0.074 C 
ATOM      2  C   UNL     1      15.141  13.539  28.214  1.00  0.00    -0.027 C 
ATOM      3  C   UNL     1      16.074  11.320  28.654  1.00  0.00     0.039 C 
ENDROOT
BRANCH   2   4
ATOM      4  C   UNL     1      14.205  14.725  28.288  1.00  0.00     0.032 C 
BRANCH   4   5
ATOM      5  C   UNL     1      12.890  14.422  29.035  1.00  0.00     0.034 C 
BRANCH   5   6
ATOM      6  C   UNL     1      11.818  13.750  28.188  1.00  0.00    -0.077 C 
ATOM      7  C   UNL     1      11.881  13.892  26.688  1.00  0.00     0.039 C 
ATOM      8  C   UNL     1      10.815  13.012  28.712  1.00  0.00    -0.027 CG0
ATOM      9  G   UNL     1      10.593  12.774  30.190  1.00  0.00     0.000 G0
ENDBRANCH   5   6
ENDBRANCH   4   5
ENDBRANCH   2   4
BRANCH   1  10
ATOM     10  C   UNL     1      13.940  12.085  29.931  1.00  0.00     0.057 C 
BRANCH  10  11
ATOM     11  C   UNL     1      13.131  10.883  29.506  1.00  0.00    -0.026 C 
ATOM     12  C   UNL     1      11.853  10.583  29.830  1.00  0.00    -0.024 C 
BRANCH  12  13
ATOM     13  C   UNL     1      10.878  11.356  30.732  1.00  0.00    -0.014 C 
ATOM     14  C   UNL     1      11.540  11.501  32.125  1.00  0.00     0.016 C 
ATOM     15  C   UNL     1       9.584  10.534  30.929  1.00  0.00     0.016 C 
BRANCH  13  16
ATOM     16  C   UNL     1      10.539  12.785  30.204  1.00  0.00     0.038 CG0
ATOM     17  G   UNL     1      10.816  12.947  28.724  1.00  0.00     0.000 G0
ENDBRANCH  13  16
ENDBRANCH  12  13
ENDBRANCH  10  11
ENDBRANCH   1  10
TORSDOF 0
ENDMDL
MODEL 3
REMARK VINA RESULT:    19.898      1.768      3.037
REMARK INTER + INTRA:          30.351
REMARK INTER:                  28.089
REMARK INTRA:                   2.262
REMARK UNBOUND:                 2.310
REMARK SMILES CC1=CCCC(C)=CCC(C)(C)C=CC1
REMARK SMILES IDX 2 1 3 2 1 3 4 4 5 5 6 6 7 7 8 8 15 10 14 11 13 12 10 13
REMARK SMILES IDX 11 14 12 15 9 16
REMARK H PARENT
REMARK Flexibility Score: 60.00
ROOT
ATOM      1  C   UNL     1      13.356  15.483  31.003  1.00  0.00    -0.074 C 
ATOM      2  C   UNL     1      13.981  15.793  29.840  1.00  0.00    -0.027 C 
ATOM      3  C   UNL     1      13.229  16.581  32.031  1.00  0.00     0.039 C 
ENDROOT
BRANCH   2   4
ATOM      4  C   UNL     1      14.256  14.852  28.688  1.00  0.00     0.032 C 
BRANCH   4   5
ATOM      5  C   UNL     1      13.314  13.631  28.656  1.00  0.00     0.034 C 
BRANCH   5   6
ATOM      6  C   UNL     1      13.963  12.316  29.065  1.00  0.00    -0.077 C 
ATOM      7  C   UNL     1      15.468  12.234  29.118  1.00  0.00     0.039 C 
ATOM      8  C   UNL     1      13.258  11.215  29.402  1.00  0.00    -0.027 CG0
ATOM      9  G   UNL     1      11.747  11.115  29.394  1.00  0.00     0.000 G0
ENDBRANCH   5   6
ENDBRANCH   4   5
ENDBRANCH   2   4
BRANCH   1  10
ATOM     10  C   UNL     1      12.823  14.101  31.357  1.00  0.00     0.057 C 
BRANCH  10  11
ATOM     11  C   UNL     1      11.339  14.006  31.092  1.00  0.00    -0.026 C 
ATOM     12  C   UNL     1      10.605  12.896  30.852  1.00  0.00    -0.024 C 
BRANCH  12  13
ATOM     13  C   UNL     1      11.069  11.434  30.753  1.00  0.00    -0.014 C 
ATOM     14  C   UNL     1       9.820  10.532  30.914  1.00  0.00     0.016 C 
ATOM     15  C   UNL     1      12.019  11.106  31.925  1.00  0.00     0.016 C 
BRANCH  13  16
ATOM     16  C   UNL     1      11.746  11.086  29.389  1.00  0.00     0.038 CG0
ATOM     17  G   UNL     1      13.255  11.210  29.433  1.00  0.00     0.000 G0
ENDBRANCH  13  16
ENDBRANCH  12  13
ENDBRANCH  10  11
ENDBRANCH   1  10
TORSDOF 0
ENDMDL
MODEL 4
REMARK VINA RESULT:    20.303      1.573      2.139
REMARK INTER + INTRA:          30.921
REMARK INTER:                  28.917
REMARK INTRA:                   2.004
REMARK UNBOUND:                 2.310
REMARK SMILES CC1=CCCC(C)=CCC(C)(C)C=CC1
REMARK SMILES IDX 2 1 3 2 1 3 4 4 5 5 6 6 7 7 8 8 15 10 14 11 13 12 10 13
REMARK SMILES IDX 11 14 12 15 9 16
REMARK H PARENT
REMARK Flexibility Score: 60.00
ROOT
ATOM      1  C   UNL     1      12.364  14.251  27.174  1.00  0.00    -0.074 C 
ATOM      2  C   UNL     1      13.693  14.212  27.441  1.00  0.00    -0.027 C 
ATOM      3  C   UNL     1      11.956  14.521  25.746  1.00  0.00     0.039 C 
ENDROOT
BRANCH   2   4
ATOM      4  C   UNL     1      14.332  13.996  28.795  1.00  0.00     0.032 C 
BRANCH   4   5
ATOM      5  C   UNL     1      15.512  13.003  28.765  1.00  0.00     0.034 C 
BRANCH   5   6
ATOM      6  C   UNL     1      15.146  11.570  29.125  1.00  0.00    -0.077 C 
ATOM      7  C   UNL     1      16.125  10.468  28.804  1.00  0.00     0.039 C 
ATOM      8  C   UNL     1      13.992  11.231  29.738  1.00  0.00    -0.027 CG0
ATOM      9  G   UNL     1      12.895  12.202  30.122  1.00  0.00     0.000 G0
ENDBRANCH   5   6
ENDBRANCH   4   5
ENDBRANCH   2   4
BRANCH   1  10
ATOM     10  C   UNL     1      11.267  14.091  28.218  1.00  0.00     0.057 C 
BRANCH  10  11
ATOM     11  C   UNL     1      10.601  12.740  28.104  1.00  0.00    -0.026 C 
ATOM     12  C   UNL     1      10.678  11.699  28.963  1.00  0.00    -0.024 C 
BRANCH  12  13
ATOM     13  C   UNL     1      11.475  11.582  30.271  1.00  0.00    -0.014 C 
ATOM     14  C   UNL     1      11.627  10.076  30.598  1.00  0.00     0.016 C 
ATOM     15  C   UNL     1      10.675  12.219  31.429  1.00  0.00     0.016 C 
BRANCH  13  16
ATOM     16  C   UNL     1      12.904  12.208  30.188  1.00  0.00     0.038 CG0
ATOM     17  G   UNL     1      13.958  11.212  29.754  1.00  0.00     0.000 G0
ENDBRANCH  13  16
ENDBRANCH  12  13
ENDBRANCH  10  11
ENDBRANCH   1  10
TORSDOF 0
ENDMDL
MODEL 5
REMARK VINA RESULT:    21.664      1.496      3.624
REMARK INTER + INTRA:          32.840
REMARK INTER:                  29.611
REMARK INTRA:                   3.229
REMARK UNBOUND:                 2.310
REMARK SMILES CC1=CCCC(C)=CCC(C)(C)C=CC1
REMARK SMILES IDX 2 1 3 2 1 3 4 4 5 5 6 6 7 7 8 8 15 10 14 11 13 12 10 13
REMARK SMILES IDX 11 14 12 15 9 16
REMARK H PARENT
REMARK Flexibility Score: 60.00
ROOT
ATOM      1  C   UNL     1      14.239  13.803  28.735  1.00  0.00    -0.074 C 
ATOM      2  C   UNL     1      14.086  14.046  27.410  1.00  0.00    -0.027 C 
ATOM      3  C   UNL     1      15.228  12.733  29.130  1.00  0.00     0.039 C 
ENDROOT
BRANCH   2   4
ATOM      4  C   UNL     1      13.133  15.038  26.781  1.00  0.00     0.032 C 
BRANCH   4   5
ATOM      5  C   UNL     1      12.234  14.419  25.692  1.00  0.00     0.034 C 
BRANCH   5   6
ATOM      6  C   UNL     1      10.832  14.050  26.157  1.00  0.00    -0.077 C 
ATOM      7  C   UNL     1       9.652  14.481  25.322  1.00  0.00     0.039 C 
ATOM      8  C   UNL     1      10.586  13.337  27.277  1.00  0.00    -0.027 CG0
ATOM      9  G   UNL     1      11.645  12.834  28.236  1.00  0.00     0.000 G0
ENDBRANCH   5   6
ENDBRANCH   4   5
ENDBRANCH   2   4
BRANCH   1  10
ATOM     10  C   UNL     1      13.452  14.497  29.839  1.00  0.00     0.057 C 
BRANCH  10  11
ATOM     11  C   UNL     1      13.003  13.511  30.891  1.00  0.00    -0.026 C 
ATOM     12  C   UNL     1      12.040  12.568  30.791  1.00  0.00    -0.024 C 
BRANCH  12  13
ATOM     13  C   UNL     1      11.118  12.250  29.603  1.00  0.00    -0.014 C 
ATOM     14  C   UNL     1       9.745  12.908  29.884  1.00  0.00     0.016 C 
ATOM     15  C   UNL     1      10.881  10.726  29.518  1.00  0.00     0.016 C 
BRANCH  13  16
ATOM     16  C   UNL     1      11.648  12.795  28.239  1.00  0.00     0.038 CG0
ATOM     17  G   UNL     1      10.544  13.318  27.345  1.00  0.00     0.000 G0
ENDBRANCH  13  16
ENDBRANCH  12  13
ENDBRANCH  10  11
ENDBRANCH   1  10
TORSDOF 0
ENDMDL
