MODEL 1
REMARK VINA RESULT:    -6.560      0.000      0.000
REMARK INTER + INTRA:          -7.826
REMARK INTER:                  -7.518
REMARK INTRA:                  -0.308
REMARK UNBOUND:                -0.308
REMARK SMILES O=C1C[C@H](c2ccc(O)cc2)Oc2cc(O)cc(O)c21
REMARK SMILES IDX 3 1 4 2 12 3 13 4 14 5 15 6 17 7 18 8 20 9 2 10 1 11 5 12
REMARK SMILES IDX 6 13 11 14 7 15 10 16 8 17 9 18 19 20 16 22
REMARK H PARENT 9 19 19 21 16 23
REMARK Flexibility Score: inf
ROOT
ATOM      1  C   UNL     1       9.749  13.878  24.889  1.00  0.00     0.131 C 
ATOM      2  C   UNL     1       8.944  13.015  23.907  1.00  0.00     0.211 C 
ATOM      3  O   UNL     1       9.526  13.063  22.602  1.00  0.00    -0.484 OA
ATOM      4  C   UNL     1      10.061  14.237  22.055  1.00  0.00     0.138 A 
ATOM      5  C   UNL     1      10.355  14.275  20.690  1.00  0.00     0.093 A 
ATOM      6  C   UNL     1      10.874  15.438  20.113  1.00  0.00     0.123 A 
ATOM      7  C   UNL     1      11.129  16.555  20.911  1.00  0.00     0.093 A 
ATOM      8  C   UNL     1      10.880  16.526  22.289  1.00  0.00     0.133 A 
ATOM      9  C   UNL     1      10.307  15.364  22.870  1.00  0.00     0.102 A 
ATOM     10  C   UNL     1       9.936  15.245  24.302  1.00  0.00     0.174 C 
ATOM     11  O   UNL     1       9.724  16.259  25.018  1.00  0.00    -0.294 OA
ENDROOT
BRANCH   2  12
ATOM     12  C   UNL     1       8.870  11.587  24.388  1.00  0.00    -0.007 A 
ATOM     13  C   UNL     1       7.930  11.218  25.366  1.00  0.00     0.011 A 
ATOM     14  C   UNL     1       9.774  10.622  23.909  1.00  0.00     0.011 A 
ATOM     15  C   UNL     1       7.879   9.902  25.836  1.00  0.00     0.046 A 
ATOM     16  C   UNL     1       9.722   9.308  24.382  1.00  0.00     0.046 A 
ATOM     17  C   UNL     1       8.775   8.943  25.343  1.00  0.00     0.115 A 
BRANCH  17  18
ATOM     18  O   UNL     1       8.732   7.629  25.804  1.00  0.00    -0.508 OA
ATOM     19  H   UNL     1       8.112   6.942  25.390  1.00  0.00     0.293 HD
ENDBRANCH  17  18
ENDBRANCH   2  12
BRANCH   8  20
ATOM     20  O   UNL     1      11.248  17.649  23.032  1.00  0.00    -0.507 OA
ATOM     21  H   UNL     1      10.776  17.949  23.873  1.00  0.00     0.293 HD
ENDBRANCH   8  20
BRANCH   6  22
ATOM     22  O   UNL     1      11.150  15.492  18.748  1.00  0.00    -0.508 OA
ATOM     23  H   UNL     1      10.427  15.700  18.070  1.00  0.00     0.293 HD
ENDBRANCH   6  22
TORSDOF 4
ENDMDL
MODEL 2
REMARK VINA RESULT:    -6.414      1.629      6.602
REMARK INTER + INTRA:          -7.659
REMARK INTER:                  -7.345
REMARK INTRA:                  -0.315
REMARK UNBOUND:                -0.308
REMARK SMILES O=C1C[C@H](c2ccc(O)cc2)Oc2cc(O)cc(O)c21
REMARK SMILES IDX 3 1 4 2 12 3 13 4 14 5 15 6 17 7 18 8 20 9 2 10 1 11 5 12
REMARK SMILES IDX 6 13 11 14 7 15 10 16 8 17 9 18 19 20 16 22
REMARK H PARENT 9 19 19 21 16 23
REMARK Flexibility Score: inf
ROOT
ATOM      1  C   UNL     1       9.346  13.870  24.334  1.00  0.00     0.131 C 
ATOM      2  C   UNL     1      10.482  13.210  23.541  1.00  0.00     0.211 C 
ATOM      3  O   UNL     1      10.250  11.806  23.404  1.00  0.00    -0.484 OA
ATOM      4  C   UNL     1       9.719  11.023  24.438  1.00  0.00     0.138 A 
ATOM      5  C   UNL     1       9.780   9.631  24.334  1.00  0.00     0.093 A 
ATOM      6  C   UNL     1       9.273   8.824  25.357  1.00  0.00     0.123 A 
ATOM      7  C   UNL     1       8.676   9.413  26.473  1.00  0.00     0.093 A 
ATOM      8  C   UNL     1       8.568  10.805  26.581  1.00  0.00     0.133 A 
ATOM      9  C   UNL     1       9.125  11.628  25.567  1.00  0.00     0.102 A 
ATOM     10  C   UNL     1       9.132  13.112  25.609  1.00  0.00     0.174 C 
ATOM     11  O   UNL     1       9.017  13.744  26.692  1.00  0.00    -0.294 OA
ENDROOT
BRANCH   2  12
ATOM     12  C   UNL     1      10.623  13.845  22.180  1.00  0.00    -0.007 A 
ATOM     13  C   UNL     1      10.968  15.203  22.066  1.00  0.00     0.011 A 
ATOM     14  C   UNL     1      10.357  13.105  21.013  1.00  0.00     0.011 A 
ATOM     15  C   UNL     1      11.069  15.802  20.806  1.00  0.00     0.046 A 
ATOM     16  C   UNL     1      10.458  13.708  19.756  1.00  0.00     0.046 A 
ATOM     17  C   UNL     1      10.816  15.056  19.648  1.00  0.00     0.115 A 
BRANCH  17  18
ATOM     18  O   UNL     1      10.915  15.643  18.388  1.00  0.00    -0.508 OA
ATOM     19  H   UNL     1      11.699  15.452  17.775  1.00  0.00     0.293 HD
ENDBRANCH  17  18
ENDBRANCH   2  12
BRANCH   8  20
ATOM     20  O   UNL     1       7.875  11.312  27.681  1.00  0.00    -0.507 OA
ATOM     21  H   UNL     1       8.191  12.094  28.236  1.00  0.00     0.293 HD
ENDBRANCH   8  20
BRANCH   6  22
ATOM     22  O   UNL     1       9.349   7.435  25.270  1.00  0.00    -0.508 OA
ATOM     23  H   UNL     1      10.145   6.975  24.845  1.00  0.00     0.293 HD
ENDBRANCH   6  22
TORSDOF 4
ENDMDL
MODEL 3
REMARK VINA RESULT:    -6.303      2.065      7.236
REMARK INTER + INTRA:          -7.532
REMARK INTER:                  -7.225
REMARK INTRA:                  -0.306
REMARK UNBOUND:                -0.308
REMARK SMILES O=C1C[C@H](c2ccc(O)cc2)Oc2cc(O)cc(O)c21
REMARK SMILES IDX 3 1 4 2 12 3 13 4 14 5 15 6 17 7 18 8 20 9 2 10 1 11 5 12
REMARK SMILES IDX 6 13 11 14 7 15 10 16 8 17 9 18 19 20 16 22
REMARK H PARENT 9 19 19 21 16 23
REMARK Flexibility Score: inf
ROOT
ATOM      1  C   UNL     1      10.748  14.339  22.510  1.00  0.00     0.131 C 
ATOM      2  C   UNL     1       9.638  15.223  23.097  1.00  0.00     0.211 C 
ATOM      3  O   UNL     1       9.292  14.785  24.414  1.00  0.00    -0.484 OA
ATOM      4  C   UNL     1       9.216  13.430  24.765  1.00  0.00     0.138 A 
ATOM      5  C   UNL     1       8.608  13.077  25.972  1.00  0.00     0.093 A 
ATOM      6  C   UNL     1       8.504  11.732  26.342  1.00  0.00     0.123 A 
ATOM      7  C   UNL     1       9.037  10.742  25.514  1.00  0.00     0.093 A 
ATOM      8  C   UNL     1       9.686  11.076  24.319  1.00  0.00     0.133 A 
ATOM      9  C   UNL     1       9.751  12.436  23.916  1.00  0.00     0.102 A 
ATOM     10  C   UNL     1      10.350  12.899  22.640  1.00  0.00     0.174 C 
ATOM     11  O   UNL     1      10.482  12.130  21.652  1.00  0.00    -0.294 OA
ENDROOT
BRANCH   2  12
ATOM     12  C   UNL     1      10.068  16.668  23.129  1.00  0.00    -0.007 A 
ATOM     13  C   UNL     1      11.254  17.068  22.489  1.00  0.00     0.011 A 
ATOM     14  C   UNL     1       9.321  17.622  23.845  1.00  0.00     0.011 A 
ATOM     15  C   UNL     1      11.670  18.401  22.543  1.00  0.00     0.046 A 
ATOM     16  C   UNL     1       9.741  18.954  23.898  1.00  0.00     0.046 A 
ATOM     17  C   UNL     1      10.914  19.348  23.247  1.00  0.00     0.115 A 
BRANCH  17  18
ATOM     18  O   UNL     1      11.320  20.680  23.306  1.00  0.00    -0.508 OA
ATOM     19  H   UNL     1      11.192  21.308  22.521  1.00  0.00     0.293 HD
ENDBRANCH  17  18
ENDBRANCH   2  12
BRANCH   8  20
ATOM     20  O   UNL     1      10.273  10.037  23.595  1.00  0.00    -0.507 OA
ATOM     21  H   UNL     1      11.207  10.073  23.211  1.00  0.00     0.293 HD
ENDBRANCH   8  20
BRANCH   6  22
ATOM     22  O   UNL     1       7.881  11.370  27.534  1.00  0.00    -0.508 OA
ATOM     23  H   UNL     1       8.108  10.504  28.008  1.00  0.00     0.293 HD
ENDBRANCH   6  22
TORSDOF 4
ENDMDL
MODEL 4
REMARK VINA RESULT:    -6.206      2.788      6.017
REMARK INTER + INTRA:          -7.420
REMARK INTER:                  -7.109
REMARK INTRA:                  -0.312
REMARK UNBOUND:                -0.308
REMARK SMILES O=C1C[C@H](c2ccc(O)cc2)Oc2cc(O)cc(O)c21
REMARK SMILES IDX 3 1 4 2 12 3 13 4 14 5 15 6 17 7 18 8 20 9 2 10 1 11 5 12
REMARK SMILES IDX 6 13 11 14 7 15 10 16 8 17 9 18 19 20 16 22
REMARK H PARENT 9 19 19 21 16 23
REMARK Flexibility Score: inf
ROOT
ATOM      1  C   UNL     1       9.553  15.001  24.630  1.00  0.00     0.131 C 
ATOM      2  C   UNL     1      10.539  16.170  24.495  1.00  0.00     0.211 C 
ATOM      3  O   UNL     1      10.611  16.613  23.137  1.00  0.00    -0.484 OA
ATOM      4  C   UNL     1      10.592  15.727  22.051  1.00  0.00     0.138 A 
ATOM      5  C   UNL     1      10.942  16.201  20.784  1.00  0.00     0.093 A 
ATOM      6  C   UNL     1      10.947  15.338  19.685  1.00  0.00     0.123 A 
ATOM      7  C   UNL     1      10.572  14.003  19.849  1.00  0.00     0.093 A 
ATOM      8  C   UNL     1      10.179  13.515  21.102  1.00  0.00     0.133 A 
ATOM      9  C   UNL     1      10.219  14.377  22.230  1.00  0.00     0.102 A 
ATOM     10  C   UNL     1       9.893  13.952  23.614  1.00  0.00     0.174 C 
ATOM     11  O   UNL     1       9.946  12.745  23.967  1.00  0.00    -0.294 OA
ENDROOT
BRANCH   2  12
ATOM     12  C   UNL     1      10.137  17.315  25.391  1.00  0.00    -0.007 A 
ATOM     13  C   UNL     1       9.841  18.574  24.841  1.00  0.00     0.011 A 
ATOM     14  C   UNL     1      10.106  17.153  26.788  1.00  0.00     0.011 A 
ATOM     15  C   UNL     1       9.497  19.644  25.672  1.00  0.00     0.046 A 
ATOM     16  C   UNL     1       9.762  18.226  27.616  1.00  0.00     0.046 A 
ATOM     17  C   UNL     1       9.456  19.472  27.062  1.00  0.00     0.115 A 
BRANCH  17  18
ATOM     18  O   UNL     1       9.113  20.532  27.899  1.00  0.00    -0.508 OA
ATOM     19  H   UNL     1       8.148  20.812  28.033  1.00  0.00     0.293 HD
ENDBRANCH  17  18
ENDBRANCH   2  12
BRANCH   8  20
ATOM     20  O   UNL     1       9.729  12.195  21.165  1.00  0.00    -0.507 OA
ATOM     21  H   UNL     1       9.328  11.698  20.383  1.00  0.00     0.293 HD
ENDBRANCH   8  20
BRANCH   6  22
ATOM     22  O   UNL     1      11.315  15.798  18.422  1.00  0.00    -0.508 OA
ATOM     23  H   UNL     1      10.796  16.530  17.954  1.00  0.00     0.293 HD
ENDBRANCH   6  22
TORSDOF 4
ENDMDL
MODEL 5
REMARK VINA RESULT:    -6.182      1.628      2.128
REMARK INTER + INTRA:          -7.393
REMARK INTER:                  -7.082
REMARK INTRA:                  -0.312
REMARK UNBOUND:                -0.308
REMARK SMILES O=C1C[C@H](c2ccc(O)cc2)Oc2cc(O)cc(O)c21
REMARK SMILES IDX 3 1 4 2 12 3 13 4 14 5 15 6 17 7 18 8 20 9 2 10 1 11 5 12
REMARK SMILES IDX 6 13 11 14 7 15 10 16 8 17 9 18 19 20 16 22
REMARK H PARENT 9 19 19 21 16 23
REMARK Flexibility Score: inf
ROOT
ATOM      1  C   UNL     1       9.458  15.157  24.852  1.00  0.00     0.131 C 
ATOM      2  C   UNL     1       8.761  13.858  24.422  1.00  0.00     0.211 C 
ATOM      3  O   UNL     1       9.404  13.300  23.273  1.00  0.00    -0.484 OA
ATOM      4  C   UNL     1       9.888  14.088  22.220  1.00  0.00     0.138 A 
ATOM      5  C   UNL     1      10.246  13.468  21.020  1.00  0.00     0.093 A 
ATOM      6  C   UNL     1      10.717  14.230  19.947  1.00  0.00     0.123 A 
ATOM      7  C   UNL     1      10.858  15.612  20.086  1.00  0.00     0.093 A 
ATOM      8  C   UNL     1      10.543  16.249  21.292  1.00  0.00     0.133 A 
ATOM      9  C   UNL     1      10.018  15.486  22.368  1.00  0.00     0.102 A 
ATOM     10  C   UNL     1       9.585  16.063  23.665  1.00  0.00     0.174 C 
ATOM     11  O   UNL     1       9.271  17.277  23.778  1.00  0.00    -0.294 OA
ENDROOT
BRANCH   2  12
ATOM     12  C   UNL     1       8.756  12.856  25.550  1.00  0.00    -0.007 A 
ATOM     13  C   UNL     1       9.391  11.612  25.393  1.00  0.00     0.011 A 
ATOM     14  C   UNL     1       8.070  13.130  26.747  1.00  0.00     0.011 A 
ATOM     15  C   UNL     1       9.361  10.669  26.425  1.00  0.00     0.046 A 
ATOM     16  C   UNL     1       8.042  12.184  27.777  1.00  0.00     0.046 A 
ATOM     17  C   UNL     1       8.688  10.954  27.621  1.00  0.00     0.115 A 
BRANCH  17  18
ATOM     18  O   UNL     1       8.654  10.023  28.656  1.00  0.00    -0.508 OA
ATOM     19  H   UNL     1       9.021   9.085  28.538  1.00  0.00     0.293 HD
ENDBRANCH  17  18
ENDBRANCH   2  12
BRANCH   8  20
ATOM     20  O   UNL     1      10.800  17.618  21.381  1.00  0.00    -0.507 OA
ATOM     21  H   UNL     1      11.214  18.064  22.187  1.00  0.00     0.293 HD
ENDBRANCH   8  20
BRANCH   6  22
ATOM     22  O   UNL     1      11.057  13.622  18.740  1.00  0.00    -0.508 OA
ATOM     23  H   UNL     1      10.727  13.985  17.853  1.00  0.00     0.293 HD
ENDBRANCH   6  22
TORSDOF 4
ENDMDL
MODEL 6
REMARK VINA RESULT:    -6.078      1.503      3.049
REMARK INTER + INTRA:          -7.275
REMARK INTER:                  -6.959
REMARK INTRA:                  -0.315
REMARK UNBOUND:                -0.308
REMARK SMILES O=C1C[C@H](c2ccc(O)cc2)Oc2cc(O)cc(O)c21
REMARK SMILES IDX 3 1 4 2 12 3 13 4 14 5 15 6 17 7 18 8 20 9 2 10 1 11 5 12
REMARK SMILES IDX 6 13 11 14 7 15 10 16 8 17 9 18 19 20 16 22
REMARK H PARENT 9 19 19 21 16 23
REMARK Flexibility Score: inf
ROOT
ATOM      1  C   UNL     1       9.392  12.567  22.592  1.00  0.00     0.131 C 
ATOM      2  C   UNL     1      10.136  12.483  23.933  1.00  0.00     0.211 C 
ATOM      3  O   UNL     1       9.997  13.704  24.662  1.00  0.00    -0.484 OA
ATOM      4  C   UNL     1      10.034  14.962  24.045  1.00  0.00     0.138 A 
ATOM      5  C   UNL     1      10.171  16.103  24.840  1.00  0.00     0.093 A 
ATOM      6  C   UNL     1      10.226  17.370  24.251  1.00  0.00     0.123 A 
ATOM      7  C   UNL     1      10.113  17.497  22.866  1.00  0.00     0.093 A 
ATOM      8  C   UNL     1       9.934  16.370  22.053  1.00  0.00     0.133 A 
ATOM      9  C   UNL     1       9.927  15.079  22.642  1.00  0.00     0.102 A 
ATOM     10  C   UNL     1       9.815  13.813  21.874  1.00  0.00     0.174 C 
ATOM     11  O   UNL     1      10.116  13.751  20.653  1.00  0.00    -0.294 OA
ENDROOT
BRANCH   2  12
ATOM     12  C   UNL     1       9.622  11.327  24.756  1.00  0.00    -0.007 A 
ATOM     13  C   UNL     1       9.708  10.014  24.263  1.00  0.00     0.011 A 
ATOM     14  C   UNL     1       9.002  11.554  25.998  1.00  0.00     0.011 A 
ATOM     15  C   UNL     1       9.205   8.945  25.011  1.00  0.00     0.046 A 
ATOM     16  C   UNL     1       8.499  10.483  26.742  1.00  0.00     0.046 A 
ATOM     17  C   UNL     1       8.601   9.177  26.253  1.00  0.00     0.115 A 
BRANCH  17  18
ATOM     18  O   UNL     1       8.097   8.118  27.007  1.00  0.00    -0.508 OA
ATOM     19  H   UNL     1       7.164   8.147  27.403  1.00  0.00     0.293 HD
ENDBRANCH  17  18
ENDBRANCH   2  12
BRANCH   8  20
ATOM     20  O   UNL     1       9.735  16.589  20.688  1.00  0.00    -0.507 OA
ATOM     21  H   UNL     1      10.328  17.174  20.118  1.00  0.00     0.293 HD
ENDBRANCH   8  20
BRANCH   6  22
ATOM     22  O   UNL     1      10.384  18.511  25.035  1.00  0.00    -0.508 OA
ATOM     23  H   UNL     1      11.286  18.961  25.138  1.00  0.00     0.293 HD
ENDBRANCH   6  22
TORSDOF 4
ENDMDL
MODEL 7
REMARK VINA RESULT:    -5.827      1.922      7.538
REMARK INTER + INTRA:          -6.987
REMARK INTER:                  -6.672
REMARK INTRA:                  -0.315
REMARK UNBOUND:                -0.308
REMARK SMILES O=C1C[C@H](c2ccc(O)cc2)Oc2cc(O)cc(O)c21
REMARK SMILES IDX 3 1 4 2 12 3 13 4 14 5 15 6 17 7 18 8 20 9 2 10 1 11 5 12
REMARK SMILES IDX 6 13 11 14 7 15 10 16 8 17 9 18 19 20 16 22
REMARK H PARENT 9 19 19 21 16 23
REMARK Flexibility Score: inf
ROOT
ATOM      1  C   UNL     1      10.106  11.303  23.853  1.00  0.00     0.131 C 
ATOM      2  C   UNL     1       9.285  12.489  24.380  1.00  0.00     0.211 C 
ATOM      3  O   UNL     1       9.145  12.410  25.801  1.00  0.00    -0.484 OA
ATOM      4  C   UNL     1       8.933  11.199  26.475  1.00  0.00     0.138 A 
ATOM      5  C   UNL     1       8.532  11.230  27.813  1.00  0.00     0.093 A 
ATOM      6  C   UNL     1       8.298  10.039  28.505  1.00  0.00     0.123 A 
ATOM      7  C   UNL     1       8.496   8.813  27.866  1.00  0.00     0.093 A 
ATOM      8  C   UNL     1       8.937   8.758  26.538  1.00  0.00     0.133 A 
ATOM      9  C   UNL     1       9.129   9.966  25.816  1.00  0.00     0.102 A 
ATOM     10  C   UNL     1       9.525  10.028  24.387  1.00  0.00     0.174 C 
ATOM     11  O   UNL     1       9.337   9.059  23.605  1.00  0.00    -0.294 OA
ENDROOT
BRANCH   2  12
ATOM     12  C   UNL     1       9.931  13.797  23.996  1.00  0.00    -0.007 A 
ATOM     13  C   UNL     1      10.816  13.856  22.906  1.00  0.00     0.011 A 
ATOM     14  C   UNL     1       9.700  14.959  24.755  1.00  0.00     0.011 A 
ATOM     15  C   UNL     1      11.439  15.060  22.566  1.00  0.00     0.046 A 
ATOM     16  C   UNL     1      10.326  16.162  24.413  1.00  0.00     0.046 A 
ATOM     17  C   UNL     1      11.194  16.217  23.318  1.00  0.00     0.115 A 
BRANCH  17  18
ATOM     18  O   UNL     1      11.808  17.423  22.988  1.00  0.00    -0.508 OA
ATOM     19  H   UNL     1      12.391  17.921  23.652  1.00  0.00     0.293 HD
ENDBRANCH  17  18
ENDBRANCH   2  12
BRANCH   8  20
ATOM     20  O   UNL     1       9.201   7.497  26.001  1.00  0.00    -0.507 OA
ATOM     21  H   UNL     1      10.013   7.281  25.441  1.00  0.00     0.293 HD
ENDBRANCH   8  20
BRANCH   6  22
ATOM     22  O   UNL     1       7.876  10.060  29.833  1.00  0.00    -0.508 OA
ATOM     23  H   UNL     1       8.536  10.153  30.596  1.00  0.00     0.293 HD
ENDBRANCH   6  22
TORSDOF 4
ENDMDL
MODEL 8
REMARK VINA RESULT:    -5.256      3.325      5.963
REMARK INTER + INTRA:          -6.332
REMARK INTER:                  -6.015
REMARK INTRA:                  -0.317
REMARK UNBOUND:                -0.308
REMARK SMILES O=C1C[C@H](c2ccc(O)cc2)Oc2cc(O)cc(O)c21
REMARK SMILES IDX 3 1 4 2 12 3 13 4 14 5 15 6 17 7 18 8 20 9 2 10 1 11 5 12
REMARK SMILES IDX 6 13 11 14 7 15 10 16 8 17 9 18 19 20 16 22
REMARK H PARENT 9 19 19 21 16 23
REMARK Flexibility Score: inf
ROOT
ATOM      1  C   UNL     1       9.433  14.892  24.828  1.00  0.00     0.131 C 
ATOM      2  C   UNL     1       9.138  15.839  23.656  1.00  0.00     0.211 C 
ATOM      3  O   UNL     1       9.757  17.110  23.869  1.00  0.00    -0.484 OA
ATOM      4  C   UNL     1       9.806  17.725  25.127  1.00  0.00     0.138 A 
ATOM      5  C   UNL     1      10.171  19.072  25.209  1.00  0.00     0.093 A 
ATOM      6  C   UNL     1      10.214  19.716  26.449  1.00  0.00     0.123 A 
ATOM      7  C   UNL     1       9.920  19.003  27.612  1.00  0.00     0.093 A 
ATOM      8  C   UNL     1       9.590  17.643  27.558  1.00  0.00     0.133 A 
ATOM      9  C   UNL     1       9.498  16.997  26.297  1.00  0.00     0.102 A 
ATOM     10  C   UNL     1       9.090  15.582  26.114  1.00  0.00     0.174 C 
ATOM     11  O   UNL     1       8.422  14.967  26.986  1.00  0.00    -0.294 OA
ENDROOT
BRANCH   2  12
ATOM     12  C   UNL     1       9.617  15.242  22.355  1.00  0.00    -0.007 A 
ATOM     13  C   UNL     1       9.711  13.848  22.208  1.00  0.00     0.011 A 
ATOM     14  C   UNL     1      10.027  16.072  21.296  1.00  0.00     0.011 A 
ATOM     15  C   UNL     1      10.183  13.294  21.015  1.00  0.00     0.046 A 
ATOM     16  C   UNL     1      10.500  15.515  20.104  1.00  0.00     0.046 A 
ATOM     17  C   UNL     1      10.577  14.126  19.959  1.00  0.00     0.115 A 
BRANCH  17  18
ATOM     18  O   UNL     1      11.048  13.584  18.765  1.00  0.00    -0.508 OA
ATOM     19  H   UNL     1      10.528  12.872  18.264  1.00  0.00     0.293 HD
ENDBRANCH  17  18
ENDBRANCH   2  12
BRANCH   8  20
ATOM     20  O   UNL     1       9.402  16.980  28.772  1.00  0.00    -0.507 OA
ATOM     21  H   UNL     1       8.544  17.008  29.304  1.00  0.00     0.293 HD
ENDBRANCH   8  20
BRANCH   6  22
ATOM     22  O   UNL     1      10.556  21.064  26.537  1.00  0.00    -0.508 OA
ATOM     23  H   UNL     1      10.782  21.607  25.712  1.00  0.00     0.293 HD
ENDBRANCH   6  22
TORSDOF 4
ENDMDL
MODEL 9
REMARK VINA RESULT:    -5.255      3.254      6.539
REMARK INTER + INTRA:          -6.331
REMARK INTER:                  -6.016
REMARK INTRA:                  -0.315
REMARK UNBOUND:                -0.308
REMARK SMILES O=C1C[C@H](c2ccc(O)cc2)Oc2cc(O)cc(O)c21
REMARK SMILES IDX 3 1 4 2 12 3 13 4 14 5 15 6 17 7 18 8 20 9 2 10 1 11 5 12
REMARK SMILES IDX 6 13 11 14 7 15 10 16 8 17 9 18 19 20 16 22
REMARK H PARENT 9 19 19 21 16 23
REMARK Flexibility Score: inf
ROOT
ATOM      1  C   UNL     1       9.876  18.380  23.421  1.00  0.00     0.131 C 
ATOM      2  C   UNL     1       9.482  17.549  24.650  1.00  0.00     0.211 C 
ATOM      3  O   UNL     1      10.097  16.260  24.603  1.00  0.00    -0.484 OA
ATOM      4  C   UNL     1      10.231  15.529  23.414  1.00  0.00     0.138 A 
ATOM      5  C   UNL     1      10.583  14.178  23.486  1.00  0.00     0.093 A 
ATOM      6  C   UNL     1      10.709  13.420  22.318  1.00  0.00     0.123 A 
ATOM      7  C   UNL     1      10.512  14.024  21.074  1.00  0.00     0.093 A 
ATOM      8  C   UNL     1      10.198  15.385  20.977  1.00  0.00     0.133 A 
ATOM      9  C   UNL     1      10.022  16.147  22.162  1.00  0.00     0.102 A 
ATOM     10  C   UNL     1       9.621  17.576  22.182  1.00  0.00     0.174 C 
ATOM     11  O   UNL     1       9.027  18.111  21.209  1.00  0.00    -0.294 OA
ENDROOT
BRANCH   2  12
ATOM     12  C   UNL     1       9.871  18.261  25.923  1.00  0.00    -0.007 A 
ATOM     13  C   UNL     1      10.057  19.654  25.925  1.00  0.00     0.011 A 
ATOM     14  C   UNL     1      10.107  17.536  27.105  1.00  0.00     0.011 A 
ATOM     15  C   UNL     1      10.447  20.313  27.095  1.00  0.00     0.046 A 
ATOM     16  C   UNL     1      10.498  18.198  28.273  1.00  0.00     0.046 A 
ATOM     17  C   UNL     1      10.667  19.586  28.273  1.00  0.00     0.115 A 
BRANCH  17  18
ATOM     18  O   UNL     1      11.055  20.232  29.445  1.00  0.00    -0.508 OA
ATOM     19  H   UNL     1      12.013  20.528  29.594  1.00  0.00     0.293 HD
ENDBRANCH  17  18
ENDBRANCH   2  12
BRANCH   8  20
ATOM     20  O   UNL     1      10.109  15.933  19.697  1.00  0.00    -0.507 OA
ATOM     21  H   UNL     1      10.723  16.655  19.348  1.00  0.00     0.293 HD
ENDBRANCH   8  20
BRANCH   6  22
ATOM     22  O   UNL     1      11.039  12.068  22.381  1.00  0.00    -0.508 OA
ATOM     23  H   UNL     1      10.937  11.538  23.239  1.00  0.00     0.293 HD
ENDBRANCH   6  22
TORSDOF 4
ENDMDL
