MODEL 1
REMARK VINA RESULT:    -3.823      0.000      0.000
REMARK INTER + INTRA:          -4.309
REMARK INTER:                  -4.270
REMARK INTRA:                  -0.040
REMARK UNBOUND:                -0.040
REMARK SMILES O=C([O-])c1ccc(O)c(O)c1
REMARK SMILES IDX 4 1 11 2 5 3 9 4 6 5 7 6 2 7 1 8 3 9 10 10 8 12
REMARK H PARENT 10 11 8 13
REMARK Flexibility Score: inf
ROOT
ATOM      1  C   UNL     1      -5.146   2.627  16.382  1.00  0.00     0.001 A 
ATOM      2  C   UNL     1      -4.928   3.240  17.630  1.00  0.00     0.060 A 
ATOM      3  C   UNL     1      -4.627   1.342  16.155  1.00  0.00     0.014 A 
ATOM      4  C   UNL     1      -4.205   2.578  18.633  1.00  0.00     0.158 A 
ATOM      5  C   UNL     1      -3.906   0.682  17.154  1.00  0.00     0.051 A 
ATOM      6  C   UNL     1      -3.691   1.294  18.393  1.00  0.00     0.157 A 
ENDROOT
BRANCH   1   7
ATOM      7  C   UNL     1      -5.909   3.323  15.322  1.00  0.00     0.072 C 
ATOM      8  O   UNL     1      -6.989   3.913  15.592  1.00  0.00    -0.545 OA
ATOM      9  O   UNL     1      -5.446   3.332  14.012  1.00  0.00    -0.545 OA
ENDBRANCH   1   7
BRANCH   4  10
ATOM     10  O   UNL     1      -3.995   3.195  19.867  1.00  0.00    -0.504 OA
ATOM     11  H   UNL     1      -3.634   4.140  19.934  1.00  0.00     0.293 HD
ENDBRANCH   4  10
BRANCH   6  12
ATOM     12  O   UNL     1      -2.968   0.610  19.369  1.00  0.00    -0.504 OA
ATOM     13  H   UNL     1      -2.741   1.030  20.263  1.00  0.00     0.293 HD
ENDBRANCH   6  12
TORSDOF 3
ENDMDL
MODEL 2
REMARK VINA RESULT:    -3.513      1.061      4.608
REMARK INTER + INTRA:          -3.963
REMARK INTER:                  -3.919
REMARK INTRA:                  -0.044
REMARK UNBOUND:                -0.040
REMARK SMILES O=C([O-])c1ccc(O)c(O)c1
REMARK SMILES IDX 4 1 11 2 5 3 9 4 6 5 7 6 2 7 1 8 3 9 10 10 8 12
REMARK H PARENT 10 11 8 13
REMARK Flexibility Score: inf
ROOT
ATOM      1  C   UNL     1      -4.154   1.873  17.997  1.00  0.00     0.001 A 
ATOM      2  C   UNL     1      -4.439   1.227  16.780  1.00  0.00     0.060 A 
ATOM      3  C   UNL     1      -4.714   3.136  18.246  1.00  0.00     0.014 A 
ATOM      4  C   UNL     1      -5.273   1.835  15.829  1.00  0.00     0.158 A 
ATOM      5  C   UNL     1      -5.544   3.742  17.299  1.00  0.00     0.051 A 
ATOM      6  C   UNL     1      -5.827   3.098  16.091  1.00  0.00     0.157 A 
ENDROOT
BRANCH   1   7
ATOM      7  C   UNL     1      -3.275   1.234  19.002  1.00  0.00     0.072 C 
ATOM      8  O   UNL     1      -2.875   1.881  20.007  1.00  0.00    -0.545 OA
ATOM      9  O   UNL     1      -2.877  -0.089  18.850  1.00  0.00    -0.545 OA
ENDBRANCH   1   7
BRANCH   4  10
ATOM     10  O   UNL     1      -5.550   1.187  14.625  1.00  0.00    -0.504 OA
ATOM     11  H   UNL     1      -4.819   0.750  14.076  1.00  0.00     0.293 HD
ENDBRANCH   4  10
BRANCH   6  12
ATOM     12  O   UNL     1      -6.658   3.728  15.166  1.00  0.00    -0.504 OA
ATOM     13  H   UNL     1      -7.442   3.252  14.735  1.00  0.00     0.293 HD
ENDBRANCH   6  12
TORSDOF 3
ENDMDL
MODEL 3
REMARK VINA RESULT:    -2.543      2.505      5.017
REMARK INTER + INTRA:          -2.880
REMARK INTER:                  -2.836
REMARK INTRA:                  -0.044
REMARK UNBOUND:                -0.040
REMARK SMILES O=C([O-])c1ccc(O)c(O)c1
REMARK SMILES IDX 4 1 11 2 5 3 9 4 6 5 7 6 2 7 1 8 3 9 10 10 8 12
REMARK H PARENT 10 11 8 13
REMARK Flexibility Score: inf
ROOT
ATOM      1  C   UNL     1      -2.972   0.506  19.776  1.00  0.00     0.001 A 
ATOM      2  C   UNL     1      -2.938   1.906  19.918  1.00  0.00     0.060 A 
ATOM      3  C   UNL     1      -3.070  -0.045  18.488  1.00  0.00     0.014 A 
ATOM      4  C   UNL     1      -2.999   2.739  18.791  1.00  0.00     0.158 A 
ATOM      5  C   UNL     1      -3.131   0.784  17.365  1.00  0.00     0.051 A 
ATOM      6  C   UNL     1      -3.096   2.175  17.509  1.00  0.00     0.157 A 
ENDROOT
BRANCH   1   7
ATOM      7  C   UNL     1      -2.907  -0.375  20.963  1.00  0.00     0.072 C 
ATOM      8  O   UNL     1      -2.880  -1.628  20.830  1.00  0.00    -0.545 OA
ATOM      9  O   UNL     1      -2.879   0.167  22.242  1.00  0.00    -0.545 OA
ENDBRANCH   1   7
BRANCH   4  10
ATOM     10  O   UNL     1      -2.964   4.125  18.943  1.00  0.00    -0.504 OA
ATOM     11  H   UNL     1      -2.100   4.648  18.853  1.00  0.00     0.293 HD
ENDBRANCH   4  10
BRANCH   6  12
ATOM     12  O   UNL     1      -3.159   2.975  16.370  1.00  0.00    -0.504 OA
ATOM     13  H   UNL     1      -3.737   3.806  16.328  1.00  0.00     0.293 HD
ENDBRANCH   6  12
TORSDOF 3
ENDMDL
MODEL 4
REMARK VINA RESULT:    -2.381      2.326      3.238
REMARK INTER + INTRA:          -2.700
REMARK INTER:                  -2.657
REMARK INTRA:                  -0.042
REMARK UNBOUND:                -0.040
REMARK SMILES O=C([O-])c1ccc(O)c(O)c1
REMARK SMILES IDX 4 1 11 2 5 3 9 4 6 5 7 6 2 7 1 8 3 9 10 10 8 12
REMARK H PARENT 10 11 8 13
REMARK Flexibility Score: inf
ROOT
ATOM      1  C   UNL     1      -3.212   2.032  17.886  1.00  0.00     0.001 A 
ATOM      2  C   UNL     1      -3.155   0.683  18.284  1.00  0.00     0.060 A 
ATOM      3  C   UNL     1      -3.157   3.035  18.868  1.00  0.00     0.014 A 
ATOM      4  C   UNL     1      -3.042   0.344  19.640  1.00  0.00     0.158 A 
ATOM      5  C   UNL     1      -3.045   2.697  20.220  1.00  0.00     0.051 A 
ATOM      6  C   UNL     1      -2.987   1.356  20.612  1.00  0.00     0.157 A 
ENDROOT
BRANCH   1   7
ATOM      7  C   UNL     1      -3.331   2.393  16.456  1.00  0.00     0.072 C 
ATOM      8  O   UNL     1      -2.881   3.491  16.033  1.00  0.00    -0.545 OA
ATOM      9  O   UNL     1      -3.945   1.526  15.559  1.00  0.00    -0.545 OA
ENDBRANCH   1   7
BRANCH   4  10
ATOM     10  O   UNL     1      -2.985  -0.996  20.024  1.00  0.00    -0.504 OA
ATOM     11  H   UNL     1      -3.067  -1.275  20.995  1.00  0.00     0.293 HD
ENDBRANCH   4  10
BRANCH   6  12
ATOM     12  O   UNL     1      -2.875   1.051  21.967  1.00  0.00    -0.504 OA
ATOM     13  H   UNL     1      -3.647   1.174  22.612  1.00  0.00     0.293 HD
ENDBRANCH   6  12
TORSDOF 3
ENDMDL
MODEL 5
REMARK VINA RESULT:    -1.700      1.736      4.306
REMARK INTER + INTRA:          -1.938
REMARK INTER:                  -1.896
REMARK INTRA:                  -0.042
REMARK UNBOUND:                -0.040
REMARK SMILES O=C([O-])c1ccc(O)c(O)c1
REMARK SMILES IDX 4 1 11 2 5 3 9 4 6 5 7 6 2 7 1 8 3 9 10 10 8 12
REMARK H PARENT 10 11 8 13
REMARK Flexibility Score: inf
ROOT
ATOM      1  C   UNL     1      -3.940   2.158  17.731  1.00  0.00     0.001 A 
ATOM      2  C   UNL     1      -4.252   0.807  17.490  1.00  0.00     0.060 A 
ATOM      3  C   UNL     1      -4.021   3.075  16.671  1.00  0.00     0.014 A 
ATOM      4  C   UNL     1      -4.640   0.382  16.211  1.00  0.00     0.158 A 
ATOM      5  C   UNL     1      -4.407   2.652  15.396  1.00  0.00     0.051 A 
ATOM      6  C   UNL     1      -4.718   1.310  15.159  1.00  0.00     0.157 A 
ENDROOT
BRANCH   1   7
ATOM      7  C   UNL     1      -3.529   2.609  19.080  1.00  0.00     0.072 C 
ATOM      8  O   UNL     1      -2.875   1.845  19.839  1.00  0.00    -0.545 OA
ATOM      9  O   UNL     1      -3.863   3.881  19.528  1.00  0.00    -0.545 OA
ENDBRANCH   1   7
BRANCH   4  10
ATOM     10  O   UNL     1      -4.948  -0.959  15.982  1.00  0.00    -0.504 OA
ATOM     11  H   UNL     1      -4.774  -1.399  15.086  1.00  0.00     0.293 HD
ENDBRANCH   4  10
BRANCH   6  12
ATOM     12  O   UNL     1      -5.100   0.919  13.877  1.00  0.00    -0.504 OA
ATOM     13  H   UNL     1      -6.055   0.666  13.654  1.00  0.00     0.293 HD
ENDBRANCH   6  12
TORSDOF 3
ENDMDL
