MODEL 1
REMARK VINA RESULT:    -4.583      0.000      0.000
REMARK INTER + INTRA:          -7.451
REMARK INTER:                  -6.994
REMARK INTRA:                  -0.456
REMARK UNBOUND:                -0.456
REMARK SMILES O=C([O-])CCCCCCCCC(=O)[O-]
REMARK SMILES IDX 7 1 6 2 5 3 4 4 2 5 1 6 3 7 8 8 9 9 10 10 11 11 12 12 13 13
REMARK SMILES IDX 14 14
REMARK H PARENT
REMARK Flexibility Score: inf
ROOT
ATOM      1  C   UNL     1      10.008   3.118   0.759  1.00  0.00     0.000 C 
ENDROOT
BRANCH   1   2
ATOM      2  C   UNL     1       8.610   3.752   0.840  1.00  0.00     0.000 C 
BRANCH   2   3
ATOM      3  C   UNL     1       8.648   5.290   0.779  1.00  0.00     0.006 C 
BRANCH   3   4
ATOM      4  C   UNL     1       9.966   5.910   1.273  1.00  0.00     0.053 C 
BRANCH   4   5
ATOM      5  C   UNL     1       9.906   6.276   2.725  1.00  0.00     0.041 C 
ATOM      6  O   UNL     1       8.821   6.658   3.237  1.00  0.00    -0.550 OA
ATOM      7  O   UNL     1      11.039   6.162   3.519  1.00  0.00    -0.550 OA
ENDBRANCH   4   5
ENDBRANCH   3   4
ENDBRANCH   2   3
ENDBRANCH   1   2
BRANCH   1   8
ATOM      8  C   UNL     1      10.132   2.219  -0.477  1.00  0.00     0.000 C 
BRANCH   8   9
ATOM      9  C   UNL     1      11.547   1.641  -0.599  1.00  0.00     0.000 C 
BRANCH   9  10
ATOM     10  C   UNL     1      12.241   2.146  -1.869  1.00  0.00     0.006 C 
BRANCH  10  11
ATOM     11  C   UNL     1      11.653   1.482  -3.117  1.00  0.00     0.053 C 
BRANCH  11  12
ATOM     12  C   UNL     1      11.320   2.512  -4.151  1.00  0.00     0.041 C 
ATOM     13  O   UNL     1      11.527   2.275  -5.370  1.00  0.00    -0.550 OA
ATOM     14  O   UNL     1      10.828   3.752  -3.763  1.00  0.00    -0.550 OA
ENDBRANCH  11  12
ENDBRANCH  10  11
ENDBRANCH   9  10
ENDBRANCH   8   9
ENDBRANCH   1   8
TORSDOF 9
ENDMDL
MODEL 2
REMARK VINA RESULT:    -4.577      2.062      6.218
REMARK INTER + INTRA:          -7.442
REMARK INTER:                  -6.720
REMARK INTRA:                  -0.722
REMARK UNBOUND:                -0.456
REMARK SMILES O=C([O-])CCCCCCCCC(=O)[O-]
REMARK SMILES IDX 7 1 6 2 5 3 4 4 2 5 1 6 3 7 8 8 9 9 10 10 11 11 12 12 13 13
REMARK SMILES IDX 14 14
REMARK H PARENT
REMARK Flexibility Score: inf
ROOT
ATOM      1  C   UNL     1      11.585   1.614  -0.558  1.00  0.00     0.000 C 
ENDROOT
BRANCH   1   2
ATOM      2  C   UNL     1      12.295   2.154  -1.808  1.00  0.00     0.000 C 
BRANCH   2   3
ATOM      3  C   UNL     1      11.354   2.280  -3.021  1.00  0.00     0.006 C 
BRANCH   3   4
ATOM      4  C   UNL     1      11.203   0.988  -3.841  1.00  0.00     0.053 C 
BRANCH   4   5
ATOM      5  C   UNL     1      11.527   1.200  -5.288  1.00  0.00     0.041 C 
ATOM      6  O   UNL     1      11.851   0.223  -6.014  1.00  0.00    -0.550 OA
ATOM      7  O   UNL     1      11.438   2.470  -5.843  1.00  0.00    -0.550 OA
ENDBRANCH   4   5
ENDBRANCH   3   4
ENDBRANCH   2   3
ENDBRANCH   1   2
BRANCH   1   8
ATOM      8  C   UNL     1      10.161   2.172  -0.450  1.00  0.00     0.000 C 
BRANCH   8   9
ATOM      9  C   UNL     1       9.998   3.027   0.812  1.00  0.00     0.000 C 
BRANCH   9  10
ATOM     10  C   UNL     1       9.415   4.404   0.474  1.00  0.00     0.006 C 
BRANCH  10  11
ATOM     11  C   UNL     1       9.186   4.549  -1.034  1.00  0.00     0.053 C 
BRANCH  11  12
ATOM     12  C   UNL     1      10.066   5.620  -1.596  1.00  0.00     0.041 C 
ATOM     13  O   UNL     1      10.335   5.637  -2.826  1.00  0.00    -0.550 OA
ATOM     14  O   UNL     1      10.628   6.571  -0.754  1.00  0.00    -0.550 OA
ENDBRANCH  11  12
ENDBRANCH  10  11
ENDBRANCH   9  10
ENDBRANCH   8   9
ENDBRANCH   1   8
TORSDOF 9
ENDMDL
MODEL 3
REMARK VINA RESULT:    -4.563      0.310      6.716
REMARK INTER + INTRA:          -7.420
REMARK INTER:                  -6.994
REMARK INTRA:                  -0.426
REMARK UNBOUND:                -0.456
REMARK SMILES O=C([O-])CCCCCCCCC(=O)[O-]
REMARK SMILES IDX 7 1 6 2 5 3 4 4 2 5 1 6 3 7 8 8 9 9 10 10 11 11 12 12 13 13
REMARK SMILES IDX 14 14
REMARK H PARENT
REMARK Flexibility Score: inf
ROOT
ATOM      1  C   UNL     1      10.161   2.354  -0.532  1.00  0.00     0.000 C 
ENDROOT
BRANCH   1   2
ATOM      2  C   UNL     1      11.536   1.669  -0.567  1.00  0.00     0.000 C 
BRANCH   2   3
ATOM      3  C   UNL     1      12.288   1.905  -1.890  1.00  0.00     0.006 C 
BRANCH   3   4
ATOM      4  C   UNL     1      11.533   1.423  -3.140  1.00  0.00     0.053 C 
BRANCH   4   5
ATOM      5  C   UNL     1      11.322   2.528  -4.130  1.00  0.00     0.041 C 
ATOM      6  O   UNL     1      10.959   3.668  -3.739  1.00  0.00    -0.550 OA
ATOM      7  O   UNL     1      11.560   2.307  -5.480  1.00  0.00    -0.550 OA
ENDBRANCH   4   5
ENDBRANCH   3   4
ENDBRANCH   2   3
ENDBRANCH   1   2
BRANCH   1   8
ATOM      8  C   UNL     1       9.961   3.116   0.784  1.00  0.00     0.000 C 
BRANCH   8   9
ATOM      9  C   UNL     1       8.536   3.672   0.888  1.00  0.00     0.000 C 
BRANCH   9  10
ATOM     10  C   UNL     1       8.547   5.134   1.348  1.00  0.00     0.006 C 
BRANCH  10  11
ATOM     11  C   UNL     1       9.979   5.631   1.566  1.00  0.00     0.053 C 
BRANCH  11  12
ATOM     12  C   UNL     1      10.072   6.419   2.835  1.00  0.00     0.041 C 
ATOM     13  O   UNL     1      11.006   6.200   3.650  1.00  0.00    -0.550 OA
ATOM     14  O   UNL     1       9.098   7.362   3.140  1.00  0.00    -0.550 OA
ENDBRANCH  11  12
ENDBRANCH  10  11
ENDBRANCH   9  10
ENDBRANCH   8   9
ENDBRANCH   1   8
TORSDOF 9
ENDMDL
MODEL 4
REMARK VINA RESULT:    -4.469      2.357      3.062
REMARK INTER + INTRA:          -7.277
REMARK INTER:                  -6.374
REMARK INTRA:                  -0.904
REMARK UNBOUND:                -0.456
REMARK SMILES O=C([O-])CCCCCCCCC(=O)[O-]
REMARK SMILES IDX 7 1 6 2 5 3 4 4 2 5 1 6 3 7 8 8 9 9 10 10 11 11 12 12 13 13
REMARK SMILES IDX 14 14
REMARK H PARENT
REMARK Flexibility Score: inf
ROOT
ATOM      1  C   UNL     1      10.032   3.071   0.898  1.00  0.00     0.000 C 
ENDROOT
BRANCH   1   2
ATOM      2  C   UNL     1       9.068   4.237   0.630  1.00  0.00     0.000 C 
BRANCH   2   3
ATOM      3  C   UNL     1       8.575   4.281  -0.828  1.00  0.00     0.006 C 
BRANCH   3   4
ATOM      4  C   UNL     1       8.818   5.623  -1.538  1.00  0.00     0.053 C 
BRANCH   4   5
ATOM      5  C   UNL     1      10.117   5.638  -2.284  1.00  0.00     0.041 C 
ATOM      6  O   UNL     1      11.204   5.761  -1.660  1.00  0.00    -0.550 OA
ATOM      7  O   UNL     1      10.129   5.481  -3.663  1.00  0.00    -0.550 OA
ENDBRANCH   4   5
ENDBRANCH   3   4
ENDBRANCH   2   3
ENDBRANCH   1   2
BRANCH   1   8
ATOM      8  C   UNL     1      10.174   2.180  -0.342  1.00  0.00     0.000 C 
BRANCH   8   9
ATOM      9  C   UNL     1      11.614   1.675  -0.495  1.00  0.00     0.000 C 
BRANCH   9  10
ATOM     10  C   UNL     1      12.157   1.974  -1.897  1.00  0.00     0.006 C 
BRANCH  10  11
ATOM     11  C   UNL     1      11.019   2.086  -2.915  1.00  0.00     0.053 C 
BRANCH  11  12
ATOM     12  C   UNL     1      11.512   1.758  -4.289  1.00  0.00     0.041 C 
ATOM     13  O   UNL     1      11.941   0.604  -4.550  1.00  0.00    -0.550 OA
ATOM     14  O   UNL     1      11.545   2.743  -5.269  1.00  0.00    -0.550 OA
ENDBRANCH  11  12
ENDBRANCH  10  11
ENDBRANCH   9  10
ENDBRANCH   8   9
ENDBRANCH   1   8
TORSDOF 9
ENDMDL
MODEL 5
REMARK VINA RESULT:    -4.401      2.923      3.488
REMARK INTER + INTRA:          -7.174
REMARK INTER:                  -6.537
REMARK INTRA:                  -0.637
REMARK UNBOUND:                -0.456
REMARK SMILES O=C([O-])CCCCCCCCC(=O)[O-]
REMARK SMILES IDX 7 1 6 2 5 3 4 4 2 5 1 6 3 7 8 8 9 9 10 10 11 11 12 12 13 13
REMARK SMILES IDX 14 14
REMARK H PARENT
REMARK Flexibility Score: inf
ROOT
ATOM      1  C   UNL     1       9.963   3.183   0.862  1.00  0.00     0.000 C 
ENDROOT
BRANCH   1   2
ATOM      2  C   UNL     1       8.534   3.747   0.851  1.00  0.00     0.000 C 
BRANCH   2   3
ATOM      3  C   UNL     1       8.323   4.818  -0.235  1.00  0.00     0.006 C 
BRANCH   3   4
ATOM      4  C   UNL     1       7.038   4.636  -1.060  1.00  0.00     0.053 C 
BRANCH   4   5
ATOM      5  C   UNL     1       7.330   4.228  -2.472  1.00  0.00     0.041 C 
ATOM      6  O   UNL     1       6.390   3.907  -3.246  1.00  0.00    -0.550 OA
ATOM      7  O   UNL     1       8.636   4.235  -2.942  1.00  0.00    -0.550 OA
ENDBRANCH   4   5
ENDBRANCH   3   4
ENDBRANCH   2   3
ENDBRANCH   1   2
BRANCH   1   8
ATOM      8  C   UNL     1      10.228   2.335  -0.388  1.00  0.00     0.000 C 
BRANCH   8   9
ATOM      9  C   UNL     1      11.547   1.565  -0.262  1.00  0.00     0.000 C 
BRANCH   9  10
ATOM     10  C   UNL     1      12.292   1.524  -1.602  1.00  0.00     0.006 C 
BRANCH  10  11
ATOM     11  C   UNL     1      11.797   2.628  -2.540  1.00  0.00     0.053 C 
BRANCH  11  12
ATOM     12  C   UNL     1      11.559   2.082  -3.912  1.00  0.00     0.041 C 
ATOM     13  O   UNL     1      11.559   0.838  -4.107  1.00  0.00    -0.550 OA
ATOM     14  O   UNL     1      11.388   2.947  -4.985  1.00  0.00    -0.550 OA
ENDBRANCH  11  12
ENDBRANCH  10  11
ENDBRANCH   9  10
ENDBRANCH   8   9
ENDBRANCH   1   8
TORSDOF 9
ENDMDL
MODEL 6
REMARK VINA RESULT:    -4.256      1.440      2.353
REMARK INTER + INTRA:          -6.951
REMARK INTER:                  -6.363
REMARK INTRA:                  -0.588
REMARK UNBOUND:                -0.456
REMARK SMILES O=C([O-])CCCCCCCCC(=O)[O-]
REMARK SMILES IDX 7 1 6 2 5 3 4 4 2 5 1 6 3 7 8 8 9 9 10 10 11 11 12 12 13 13
REMARK SMILES IDX 14 14
REMARK H PARENT
REMARK Flexibility Score: inf
ROOT
ATOM      1  C   UNL     1      11.522   1.629  -0.410  1.00  0.00     0.000 C 
ENDROOT
BRANCH   1   2
ATOM      2  C   UNL     1      10.082   2.165  -0.430  1.00  0.00     0.000 C 
BRANCH   2   3
ATOM      3  C   UNL     1       9.807   3.182   0.693  1.00  0.00     0.006 C 
BRANCH   3   4
ATOM      4  C   UNL     1       9.441   4.590   0.195  1.00  0.00     0.053 C 
BRANCH   4   5
ATOM      5  C   UNL     1       9.905   5.658   1.137  1.00  0.00     0.041 C 
ATOM      6  O   UNL     1      10.398   5.347   2.253  1.00  0.00    -0.550 OA
ATOM      7  O   UNL     1       9.825   6.994   0.768  1.00  0.00    -0.550 OA
ENDBRANCH   4   5
ENDBRANCH   3   4
ENDBRANCH   2   3
ENDBRANCH   1   2
BRANCH   1   8
ATOM      8  C   UNL     1      12.250   1.958  -1.719  1.00  0.00     0.000 C 
BRANCH   8   9
ATOM      9  C   UNL     1      11.500   1.382  -2.926  1.00  0.00     0.000 C 
BRANCH   9  10
ATOM     10  C   UNL     1      11.505   2.367  -4.100  1.00  0.00     0.006 C 
BRANCH  10  11
ATOM     11  C   UNL     1      10.830   3.686  -3.713  1.00  0.00     0.053 C 
BRANCH  11  12
ATOM     12  C   UNL     1      10.427   4.447  -4.937  1.00  0.00     0.041 C 
ATOM     13  O   UNL     1      10.956   4.183  -6.049  1.00  0.00    -0.550 OA
ATOM     14  O   UNL     1       9.503   5.480  -4.841  1.00  0.00    -0.550 OA
ENDBRANCH  11  12
ENDBRANCH  10  11
ENDBRANCH   9  10
ENDBRANCH   8   9
ENDBRANCH   1   8
TORSDOF 9
ENDMDL
MODEL 7
REMARK VINA RESULT:    -4.201      3.095      6.377
REMARK INTER + INTRA:          -6.868
REMARK INTER:                  -6.459
REMARK INTRA:                  -0.409
REMARK UNBOUND:                -0.456
REMARK SMILES O=C([O-])CCCCCCCCC(=O)[O-]
REMARK SMILES IDX 7 1 6 2 5 3 4 4 2 5 1 6 3 7 8 8 9 9 10 10 11 11 12 12 13 13
REMARK SMILES IDX 14 14
REMARK H PARENT
REMARK Flexibility Score: inf
ROOT
ATOM      1  C   UNL     1      11.339   2.822  -1.955  1.00  0.00     0.000 C 
ENDROOT
BRANCH   1   2
ATOM      2  C   UNL     1      12.243   1.602  -1.716  1.00  0.00     0.000 C 
BRANCH   2   3
ATOM      3  C   UNL     1      12.139   1.054  -0.280  1.00  0.00     0.006 C 
BRANCH   3   4
ATOM      4  C   UNL     1      13.300   0.134   0.130  1.00  0.00     0.053 C 
BRANCH   4   5
ATOM      5  C   UNL     1      13.037  -0.555   1.435  1.00  0.00     0.041 C 
ATOM      6  O   UNL     1      12.175  -1.470   1.505  1.00  0.00    -0.550 OA
ATOM      7  O   UNL     1      13.769  -0.210   2.563  1.00  0.00    -0.550 OA
ENDBRANCH   4   5
ENDBRANCH   3   4
ENDBRANCH   2   3
ENDBRANCH   1   2
BRANCH   1   8
ATOM      8  C   UNL     1      10.170   2.842  -0.962  1.00  0.00     0.000 C 
BRANCH   8   9
ATOM      9  C   UNL     1       9.893   4.266  -0.466  1.00  0.00     0.000 C 
BRANCH   9  10
ATOM     10  C   UNL     1       9.550   4.272   1.029  1.00  0.00     0.006 C 
BRANCH  10  11
ATOM     11  C   UNL     1       9.011   5.638   1.463  1.00  0.00     0.053 C 
BRANCH  11  12
ATOM     12  C   UNL     1      10.002   6.338   2.339  1.00  0.00     0.041 C 
ATOM     13  O   UNL     1      10.898   5.681   2.931  1.00  0.00    -0.550 OA
ATOM     14  O   UNL     1       9.905   7.709   2.540  1.00  0.00    -0.550 OA
ENDBRANCH  11  12
ENDBRANCH  10  11
ENDBRANCH   9  10
ENDBRANCH   8   9
ENDBRANCH   1   8
TORSDOF 9
ENDMDL
MODEL 8
REMARK VINA RESULT:    -4.149      2.286      3.638
REMARK INTER + INTRA:          -6.788
REMARK INTER:                  -5.811
REMARK INTRA:                  -0.976
REMARK UNBOUND:                -0.456
REMARK SMILES O=C([O-])CCCCCCCCC(=O)[O-]
REMARK SMILES IDX 7 1 6 2 5 3 4 4 2 5 1 6 3 7 8 8 9 9 10 10 11 11 12 12 13 13
REMARK SMILES IDX 14 14
REMARK H PARENT
REMARK Flexibility Score: inf
ROOT
ATOM      1  C   UNL     1      11.949   1.618  -1.898  1.00  0.00     0.000 C 
ENDROOT
BRANCH   1   2
ATOM      2  C   UNL     1      11.407   1.601  -0.461  1.00  0.00     0.000 C 
BRANCH   2   3
ATOM      3  C   UNL     1      10.099   2.398  -0.306  1.00  0.00     0.006 C 
BRANCH   3   4
ATOM      4  C   UNL     1       9.998   3.199   1.002  1.00  0.00     0.053 C 
BRANCH   4   5
ATOM      5  C   UNL     1       9.244   4.481   0.820  1.00  0.00     0.041 C 
ATOM      6  O   UNL     1       7.985   4.477   0.786  1.00  0.00    -0.550 OA
ATOM      7  O   UNL     1       9.931   5.684   0.722  1.00  0.00    -0.550 OA
ENDBRANCH   4   5
ENDBRANCH   3   4
ENDBRANCH   2   3
ENDBRANCH   1   2
BRANCH   1   8
ATOM      8  C   UNL     1      11.835   3.019  -2.512  1.00  0.00     0.000 C 
BRANCH   8   9
ATOM      9  C   UNL     1      11.174   2.964  -3.893  1.00  0.00     0.000 C 
BRANCH   9  10
ATOM     10  C   UNL     1      10.443   4.275  -4.208  1.00  0.00     0.006 C 
BRANCH  10  11
ATOM     11  C   UNL     1      10.236   5.107  -2.939  1.00  0.00     0.053 C 
BRANCH  11  12
ATOM     12  C   UNL     1       8.777   5.264  -2.648  1.00  0.00     0.041 C 
ATOM     13  O   UNL     1       8.287   6.409  -2.467  1.00  0.00    -0.550 OA
ATOM     14  O   UNL     1       7.967   4.141  -2.528  1.00  0.00    -0.550 OA
ENDBRANCH  11  12
ENDBRANCH  10  11
ENDBRANCH   9  10
ENDBRANCH   8   9
ENDBRANCH   1   8
TORSDOF 9
ENDMDL
MODEL 9
REMARK VINA RESULT:    -4.134      1.625      5.688
REMARK INTER + INTRA:          -6.765
REMARK INTER:                  -5.955
REMARK INTRA:                  -0.810
REMARK UNBOUND:                -0.456
REMARK SMILES O=C([O-])CCCCCCCCC(=O)[O-]
REMARK SMILES IDX 7 1 6 2 5 3 4 4 2 5 1 6 3 7 8 8 9 9 10 10 11 11 12 12 13 13
REMARK SMILES IDX 14 14
REMARK H PARENT
REMARK Flexibility Score: inf
ROOT
ATOM      1  C   UNL     1      12.228   2.252  -1.930  1.00  0.00     0.000 C 
ENDROOT
BRANCH   1   2
ATOM      2  C   UNL     1      11.530   1.768  -3.210  1.00  0.00     0.000 C 
BRANCH   2   3
ATOM      3  C   UNL     1      11.125   2.924  -4.144  1.00  0.00     0.006 C 
BRANCH   3   4
ATOM      4  C   UNL     1      10.755   4.225  -3.414  1.00  0.00     0.053 C 
BRANCH   4   5
ATOM      5  C   UNL     1       9.330   4.619  -3.654  1.00  0.00     0.041 C 
ATOM      6  O   UNL     1       9.036   5.381  -4.612  1.00  0.00    -0.550 OA
ATOM      7  O   UNL     1       8.323   4.115  -2.841  1.00  0.00    -0.550 OA
ENDBRANCH   4   5
ENDBRANCH   3   4
ENDBRANCH   2   3
ENDBRANCH   1   2
BRANCH   1   8
ATOM      8  C   UNL     1      11.569   1.649  -0.683  1.00  0.00     0.000 C 
BRANCH   8   9
ATOM      9  C   UNL     1      10.084   2.022  -0.609  1.00  0.00     0.000 C 
BRANCH   9  10
ATOM     10  C   UNL     1       9.799   2.908   0.610  1.00  0.00     0.006 C 
BRANCH  10  11
ATOM     11  C   UNL     1       9.960   4.390   0.261  1.00  0.00     0.053 C 
BRANCH  11  12
ATOM     12  C   UNL     1       9.451   5.248   1.377  1.00  0.00     0.041 C 
ATOM     13  O   UNL     1       8.219   5.289   1.633  1.00  0.00    -0.550 OA
ATOM     14  O   UNL     1      10.332   6.041   2.102  1.00  0.00    -0.550 OA
ENDBRANCH  11  12
ENDBRANCH  10  11
ENDBRANCH   9  10
ENDBRANCH   8   9
ENDBRANCH   1   8
TORSDOF 9
ENDMDL
