MODEL 1
REMARK VINA RESULT:    -5.869      0.000      0.000
REMARK INTER + INTRA:          -7.515
REMARK INTER:                  -7.242
REMARK INTRA:                  -0.273
REMARK UNBOUND:                -0.273
REMARK SMILES COc1cc(-c2oc3cc(O)cc(O)c3c(=O)c2O)ccc1O
REMARK SMILES IDX 6 1 18 2 16 3 17 4 15 5 13 6 12 7 10 8 9 9 8 10 7 11 5 12
REMARK SMILES IDX 3 13 22 14 4 15 21 16 20 17 2 18 1 19 23 20 19 22 14 24
REMARK SMILES IDX 11 26
REMARK H PARENT 23 21 19 23 14 25 11 27
REMARK Flexibility Score: inf
ROOT
ATOM      1  C   UNL     1      -1.845   8.971 -10.501  1.00  0.00     0.180 A 
ATOM      2  C   UNL     1      -1.633   7.814  -9.732  1.00  0.00     0.208 A 
ATOM      3  C   UNL     1      -0.316   7.428  -9.432  1.00  0.00     0.238 A 
ATOM      4  O   UNL     1      -0.131   6.361  -8.790  1.00  0.00    -0.285 OA
ATOM      5  C   UNL     1       0.769   8.212  -9.891  1.00  0.00     0.111 A 
ATOM      6  C   UNL     1       2.142   7.937  -9.611  1.00  0.00     0.134 A 
ATOM      7  C   UNL     1       3.139   8.707 -10.224  1.00  0.00     0.093 A 
ATOM      8  C   UNL     1       2.813   9.779 -11.054  1.00  0.00     0.123 A 
ATOM      9  C   UNL     1       1.473  10.093 -11.286  1.00  0.00     0.094 A 
ATOM     10  C   UNL     1       0.457   9.323 -10.717  1.00  0.00     0.146 A 
ATOM     11  O   UNL     1      -0.805   9.648 -10.972  1.00  0.00    -0.452 OA
ENDROOT
BRANCH   1  12
ATOM     12  C   UNL     1      -3.204   9.454 -10.837  1.00  0.00     0.025 A 
ATOM     13  C   UNL     1      -5.004  11.097 -10.629  1.00  0.00     0.161 A 
ATOM     14  C   UNL     1      -5.769  10.363 -11.547  1.00  0.00     0.157 A 
ATOM     15  C   UNL     1      -3.716  10.641 -10.284  1.00  0.00     0.062 A 
ATOM     16  C   UNL     1      -5.251   9.194 -12.117  1.00  0.00     0.051 A 
ATOM     17  C   UNL     1      -3.976   8.746 -11.770  1.00  0.00     0.016 A 
BRANCH  13  18
ATOM     18  O   UNL     1      -5.553  12.271 -10.089  1.00  0.00    -0.493 OA
ATOM     19  C   UNL     1      -4.804  13.269  -9.403  1.00  0.00     0.278 C 
ENDBRANCH  13  18
BRANCH  14  20
ATOM     20  O   UNL     1      -7.044  10.808 -11.892  1.00  0.00    -0.504 OA
ATOM     21  H   UNL     1      -7.255  11.144 -12.825  1.00  0.00     0.293 HD
ENDBRANCH  14  20
ENDBRANCH   1  12
BRANCH   2  22
ATOM     22  O   UNL     1      -2.719   7.042  -9.309  1.00  0.00    -0.502 OA
ATOM     23  H   UNL     1      -3.290   7.297  -8.513  1.00  0.00     0.293 HD
ENDBRANCH   2  22
BRANCH   6  24
ATOM     24  O   UNL     1       2.575   6.948  -8.725  1.00  0.00    -0.507 OA
ATOM     25  H   UNL     1       3.008   6.079  -9.000  1.00  0.00     0.293 HD
ENDBRANCH   6  24
BRANCH   8  26
ATOM     26  O   UNL     1       3.830  10.532 -11.635  1.00  0.00    -0.508 OA
ATOM     27  H   UNL     1       3.928  10.605 -12.641  1.00  0.00     0.293 HD
ENDBRANCH   8  26
TORSDOF 6
ENDMDL
MODEL 2
REMARK VINA RESULT:    -5.326      2.056      6.921
REMARK INTER + INTRA:          -6.845
REMARK INTER:                  -6.557
REMARK INTRA:                  -0.288
REMARK UNBOUND:                -0.273
REMARK SMILES COc1cc(-c2oc3cc(O)cc(O)c3c(=O)c2O)ccc1O
REMARK SMILES IDX 6 1 18 2 16 3 17 4 15 5 13 6 12 7 10 8 9 9 8 10 7 11 5 12
REMARK SMILES IDX 3 13 22 14 4 15 21 16 20 17 2 18 1 19 23 20 19 22 14 24
REMARK SMILES IDX 11 26
REMARK H PARENT 23 21 19 23 14 25 11 27
REMARK Flexibility Score: inf
ROOT
ATOM      1  C   UNL     1       1.594   9.526 -10.649  1.00  0.00     0.180 A 
ATOM      2  C   UNL     1       1.619   8.341  -9.891  1.00  0.00     0.208 A 
ATOM      3  C   UNL     1       0.416   7.656  -9.658  1.00  0.00     0.238 A 
ATOM      4  O   UNL     1       0.438   6.627  -8.933  1.00  0.00    -0.285 OA
ATOM      5  C   UNL     1      -0.794   8.154 -10.197  1.00  0.00     0.111 A 
ATOM      6  C   UNL     1      -2.065   7.519 -10.057  1.00  0.00     0.134 A 
ATOM      7  C   UNL     1      -3.216   8.168 -10.522  1.00  0.00     0.093 A 
ATOM      8  C   UNL     1      -3.135   9.397 -11.177  1.00  0.00     0.123 A 
ATOM      9  C   UNL     1      -1.891   9.997 -11.372  1.00  0.00     0.094 A 
ATOM     10  C   UNL     1      -0.729   9.391 -10.889  1.00  0.00     0.146 A 
ATOM     11  O   UNL     1       0.434  10.002 -11.085  1.00  0.00    -0.452 OA
ENDROOT
BRANCH   1  12
ATOM     12  C   UNL     1       2.824  10.289 -10.957  1.00  0.00     0.025 A 
ATOM     13  C   UNL     1       4.278  12.230 -10.632  1.00  0.00     0.161 A 
ATOM     14  C   UNL     1       5.202  11.677 -11.530  1.00  0.00     0.157 A 
ATOM     15  C   UNL     1       3.092  11.525 -10.343  1.00  0.00     0.062 A 
ATOM     16  C   UNL     1       4.949  10.435 -12.125  1.00  0.00     0.051 A 
ATOM     17  C   UNL     1       3.772   9.743 -11.836  1.00  0.00     0.016 A 
BRANCH  13  18
ATOM     18  O   UNL     1       4.573  13.471 -10.047  1.00  0.00    -0.493 OA
ATOM     19  C   UNL     1       5.027  13.643  -8.709  1.00  0.00     0.278 C 
ENDBRANCH  13  18
BRANCH  14  20
ATOM     20  O   UNL     1       6.376  12.370 -11.823  1.00  0.00    -0.504 OA
ATOM     21  H   UNL     1       7.099  12.508 -11.125  1.00  0.00     0.293 HD
ENDBRANCH  14  20
ENDBRANCH   1  12
BRANCH   2  22
ATOM     22  O   UNL     1       2.823   7.880  -9.349  1.00  0.00    -0.502 OA
ATOM     23  H   UNL     1       3.035   6.894  -9.257  1.00  0.00     0.293 HD
ENDBRANCH   2  22
BRANCH   6  24
ATOM     24  O   UNL     1      -2.246   6.250  -9.501  1.00  0.00    -0.507 OA
ATOM     25  H   UNL     1      -3.098   5.930  -9.065  1.00  0.00     0.293 HD
ENDBRANCH   6  24
BRANCH   8  26
ATOM     26  O   UNL     1      -4.299  10.006 -11.639  1.00  0.00    -0.508 OA
ATOM     27  H   UNL     1      -5.212   9.738 -11.292  1.00  0.00     0.293 HD
ENDBRANCH   8  26
TORSDOF 6
ENDMDL
MODEL 3
REMARK VINA RESULT:    -4.903      2.048      7.070
REMARK INTER + INTRA:          -6.323
REMARK INTER:                  -5.931
REMARK INTRA:                  -0.392
REMARK UNBOUND:                -0.273
REMARK SMILES COc1cc(-c2oc3cc(O)cc(O)c3c(=O)c2O)ccc1O
REMARK SMILES IDX 6 1 18 2 16 3 17 4 15 5 13 6 12 7 10 8 9 9 8 10 7 11 5 12
REMARK SMILES IDX 3 13 22 14 4 15 21 16 20 17 2 18 1 19 23 20 19 22 14 24
REMARK SMILES IDX 11 26
REMARK H PARENT 23 21 19 23 14 25 11 27
REMARK Flexibility Score: inf
ROOT
ATOM      1  C   UNL     1       1.124   9.943 -10.316  1.00  0.00     0.180 A 
ATOM      2  C   UNL     1       1.171   8.617  -9.849  1.00  0.00     0.208 A 
ATOM      3  C   UNL     1       0.025   7.814  -9.964  1.00  0.00     0.238 A 
ATOM      4  O   UNL     1       0.055   6.646  -9.495  1.00  0.00    -0.285 OA
ATOM      5  C   UNL     1      -1.147   8.340 -10.558  1.00  0.00     0.111 A 
ATOM      6  C   UNL     1      -2.353   7.603 -10.763  1.00  0.00     0.134 A 
ATOM      7  C   UNL     1      -3.492   8.262 -11.242  1.00  0.00     0.093 A 
ATOM      8  C   UNL     1      -3.452   9.613 -11.584  1.00  0.00     0.123 A 
ATOM      9  C   UNL     1      -2.262  10.328 -11.444  1.00  0.00     0.094 A 
ATOM     10  C   UNL     1      -1.119   9.708 -10.936  1.00  0.00     0.146 A 
ATOM     11  O   UNL     1      -0.010  10.427 -10.808  1.00  0.00    -0.452 OA
ENDROOT
BRANCH   1  12
ATOM     12  C   UNL     1       2.299  10.841 -10.251  1.00  0.00     0.025 A 
ATOM     13  C   UNL     1       4.406  11.680 -11.169  1.00  0.00     0.161 A 
ATOM     14  C   UNL     1       4.485  12.606 -10.119  1.00  0.00     0.157 A 
ATOM     15  C   UNL     1       3.304  10.803 -11.234  1.00  0.00     0.062 A 
ATOM     16  C   UNL     1       3.473  12.661  -9.153  1.00  0.00     0.051 A 
ATOM     17  C   UNL     1       2.385  11.790  -9.221  1.00  0.00     0.016 A 
BRANCH  13  18
ATOM     18  O   UNL     1       5.433  11.664 -12.125  1.00  0.00    -0.493 OA
ATOM     19  C   UNL     1       6.522  10.746 -12.122  1.00  0.00     0.278 C 
ENDBRANCH  13  18
BRANCH  14  20
ATOM     20  O   UNL     1       5.573  13.474 -10.047  1.00  0.00    -0.504 OA
ATOM     21  H   UNL     1       5.938  13.795  -9.157  1.00  0.00     0.293 HD
ENDBRANCH  14  20
ENDBRANCH   1  12
BRANCH   2  22
ATOM     22  O   UNL     1       2.332   8.125  -9.245  1.00  0.00    -0.502 OA
ATOM     23  H   UNL     1       2.377   7.897  -8.260  1.00  0.00     0.293 HD
ENDBRANCH   2  22
BRANCH   6  24
ATOM     24  O   UNL     1      -2.475   6.229 -10.540  1.00  0.00    -0.507 OA
ATOM     25  H   UNL     1      -3.056   5.608 -11.082  1.00  0.00     0.293 HD
ENDBRANCH   6  24
BRANCH   8  26
ATOM     26  O   UNL     1      -4.600  10.233 -12.072  1.00  0.00    -0.508 OA
ATOM     27  H   UNL     1      -4.553  10.954 -12.783  1.00  0.00     0.293 HD
ENDBRANCH   8  26
TORSDOF 6
ENDMDL
MODEL 4
REMARK VINA RESULT:    -4.863     14.573     16.258
REMARK INTER + INTRA:          -6.274
REMARK INTER:                  -6.550
REMARK INTRA:                   0.276
REMARK UNBOUND:                -0.273
REMARK SMILES COc1cc(-c2oc3cc(O)cc(O)c3c(=O)c2O)ccc1O
REMARK SMILES IDX 6 1 18 2 16 3 17 4 15 5 13 6 12 7 10 8 9 9 8 10 7 11 5 12
REMARK SMILES IDX 3 13 22 14 4 15 21 16 20 17 2 18 1 19 23 20 19 22 14 24
REMARK SMILES IDX 11 26
REMARK H PARENT 23 21 19 23 14 25 11 27
REMARK Flexibility Score: inf
ROOT
ATOM      1  C   UNL     1      -4.235  -5.058  -6.033  1.00  0.00     0.180 A 
ATOM      2  C   UNL     1      -5.571  -4.743  -6.338  1.00  0.00     0.208 A 
ATOM      3  C   UNL     1      -5.940  -4.573  -7.682  1.00  0.00     0.238 A 
ATOM      4  O   UNL     1      -7.124  -4.238  -7.946  1.00  0.00    -0.285 OA
ATOM      5  C   UNL     1      -4.973  -4.735  -8.704  1.00  0.00     0.111 A 
ATOM      6  C   UNL     1      -5.246  -4.625 -10.101  1.00  0.00     0.134 A 
ATOM      7  C   UNL     1      -4.187  -4.676 -11.017  1.00  0.00     0.093 A 
ATOM      8  C   UNL     1      -2.877  -4.896 -10.592  1.00  0.00     0.123 A 
ATOM      9  C   UNL     1      -2.608  -5.065  -9.233  1.00  0.00     0.094 A 
ATOM     10  C   UNL     1      -3.638  -4.983  -8.293  1.00  0.00     0.146 A 
ATOM     11  O   UNL     1      -3.339  -5.138  -7.008  1.00  0.00    -0.452 OA
ENDROOT
BRANCH   1  12
ATOM     12  C   UNL     1      -3.777  -5.276  -4.642  1.00  0.00     0.025 A 
ATOM     13  C   UNL     1      -2.041  -5.187  -2.921  1.00  0.00     0.161 A 
ATOM     14  C   UNL     1      -2.966  -5.653  -1.975  1.00  0.00     0.157 A 
ATOM     15  C   UNL     1      -2.456  -4.993  -4.253  1.00  0.00     0.062 A 
ATOM     16  C   UNL     1      -4.289  -5.914  -2.355  1.00  0.00     0.051 A 
ATOM     17  C   UNL     1      -4.693  -5.721  -3.676  1.00  0.00     0.016 A 
BRANCH  13  18
ATOM     18  O   UNL     1      -0.728  -4.926  -2.498  1.00  0.00    -0.493 OA
ATOM     19  C   UNL     1       0.382  -5.785  -2.739  1.00  0.00     0.278 C 
ENDBRANCH  13  18
BRANCH  14  20
ATOM     20  O   UNL     1      -2.562  -5.850  -0.656  1.00  0.00    -0.504 OA
ATOM     21  H   UNL     1      -3.058  -6.483  -0.038  1.00  0.00     0.293 HD
ENDBRANCH  14  20
ENDBRANCH   1  12
BRANCH   2  22
ATOM     22  O   UNL     1      -6.504  -4.566  -5.312  1.00  0.00    -0.502 OA
ATOM     23  H   UNL     1      -6.371  -4.948  -4.384  1.00  0.00     0.293 HD
ENDBRANCH   2  22
BRANCH   6  24
ATOM     24  O   UNL     1      -6.529  -4.495 -10.638  1.00  0.00    -0.507 OA
ATOM     25  H   UNL     1      -6.803  -4.812 -11.556  1.00  0.00     0.293 HD
ENDBRANCH   6  24
BRANCH   8  26
ATOM     26  O   UNL     1      -1.851  -4.956 -11.532  1.00  0.00    -0.508 OA
ATOM     27  H   UNL     1      -1.870  -5.622 -12.296  1.00  0.00     0.293 HD
ENDBRANCH   8  26
TORSDOF 6
ENDMDL
MODEL 5
REMARK VINA RESULT:    -4.858     15.920     17.835
REMARK INTER + INTRA:          -6.267
REMARK INTER:                  -6.341
REMARK INTRA:                   0.074
REMARK UNBOUND:                -0.273
REMARK SMILES COc1cc(-c2oc3cc(O)cc(O)c3c(=O)c2O)ccc1O
REMARK SMILES IDX 6 1 18 2 16 3 17 4 15 5 13 6 12 7 10 8 9 9 8 10 7 11 5 12
REMARK SMILES IDX 3 13 22 14 4 15 21 16 20 17 2 18 1 19 23 20 19 22 14 24
REMARK SMILES IDX 11 26
REMARK H PARENT 23 21 19 23 14 25 11 27
REMARK Flexibility Score: inf
ROOT
ATOM      1  C   UNL     1      -1.297  11.495   5.646  1.00  0.00     0.180 A 
ATOM      2  C   UNL     1      -2.437  12.202   5.225  1.00  0.00     0.208 A 
ATOM      3  C   UNL     1      -3.690  11.571   5.284  1.00  0.00     0.238 A 
ATOM      4  O   UNL     1      -4.699  12.189   4.855  1.00  0.00    -0.285 OA
ATOM      5  C   UNL     1      -3.790  10.248   5.778  1.00  0.00     0.111 A 
ATOM      6  C   UNL     1      -5.014   9.527   5.920  1.00  0.00     0.134 A 
ATOM      7  C   UNL     1      -4.980   8.178   6.297  1.00  0.00     0.093 A 
ATOM      8  C   UNL     1      -3.776   7.544   6.599  1.00  0.00     0.123 A 
ATOM      9  C   UNL     1      -2.579   8.258   6.521  1.00  0.00     0.094 A 
ATOM     10  C   UNL     1      -2.577   9.593   6.114  1.00  0.00     0.146 A 
ATOM     11  O   UNL     1      -1.415  10.233   6.042  1.00  0.00    -0.452 OA
ENDROOT
BRANCH   1  12
ATOM     12  C   UNL     1       0.053  12.102   5.636  1.00  0.00     0.025 A 
ATOM     13  C   UNL     1       2.247  12.459   6.657  1.00  0.00     0.161 A 
ATOM     14  C   UNL     1       2.629  13.228   5.549  1.00  0.00     0.157 A 
ATOM     15  C   UNL     1       0.958  11.891   6.692  1.00  0.00     0.062 A 
ATOM     16  C   UNL     1       1.738  13.420   4.486  1.00  0.00     0.051 A 
ATOM     17  C   UNL     1       0.462  12.856   4.526  1.00  0.00     0.016 A 
BRANCH  13  18
ATOM     18  O   UNL     1       3.173  12.279   7.697  1.00  0.00    -0.493 OA
ATOM     19  C   UNL     1       3.805  11.042   8.008  1.00  0.00     0.278 C 
ENDBRANCH  13  18
BRANCH  14  20
ATOM     20  O   UNL     1       3.901  13.795   5.509  1.00  0.00    -0.504 OA
ATOM     21  H   UNL     1       4.206  14.361   4.725  1.00  0.00     0.293 HD
ENDBRANCH  14  20
ENDBRANCH   1  12
BRANCH   2  22
ATOM     22  O   UNL     1      -2.313  13.500   4.720  1.00  0.00    -0.502 OA
ATOM     23  H   UNL     1      -1.415  13.951   4.597  1.00  0.00     0.293 HD
ENDBRANCH   2  22
BRANCH   6  24
ATOM     24  O   UNL     1      -6.278  10.091   5.732  1.00  0.00    -0.507 OA
ATOM     25  H   UNL     1      -6.697  10.779   6.339  1.00  0.00     0.293 HD
ENDBRANCH   6  24
BRANCH   8  26
ATOM     26  O   UNL     1      -3.782   6.206   6.985  1.00  0.00    -0.508 OA
ATOM     27  H   UNL     1      -2.925   5.669   7.048  1.00  0.00     0.293 HD
ENDBRANCH   8  26
TORSDOF 6
ENDMDL
MODEL 6
REMARK VINA RESULT:    -4.830      2.036      2.854
REMARK INTER + INTRA:          -6.232
REMARK INTER:                  -6.222
REMARK INTRA:                  -0.010
REMARK UNBOUND:                -0.273
REMARK SMILES COc1cc(-c2oc3cc(O)cc(O)c3c(=O)c2O)ccc1O
REMARK SMILES IDX 6 1 18 2 16 3 17 4 15 5 13 6 12 7 10 8 9 9 8 10 7 11 5 12
REMARK SMILES IDX 3 13 22 14 4 15 21 16 20 17 2 18 1 19 23 20 19 22 14 24
REMARK SMILES IDX 11 26
REMARK H PARENT 23 21 19 23 14 25 11 27
REMARK Flexibility Score: inf
ROOT
ATOM      1  C   UNL     1       0.228   9.312 -11.226  1.00  0.00     0.180 A 
ATOM      2  C   UNL     1       0.832   8.071 -11.492  1.00  0.00     0.208 A 
ATOM      3  C   UNL     1       2.219   8.021 -11.707  1.00  0.00     0.238 A 
ATOM      4  O   UNL     1       2.746   6.916 -11.999  1.00  0.00    -0.285 OA
ATOM      5  C   UNL     1       2.985   9.209 -11.638  1.00  0.00     0.111 A 
ATOM      6  C   UNL     1       4.403   9.269 -11.799  1.00  0.00     0.134 A 
ATOM      7  C   UNL     1       5.041  10.515 -11.840  1.00  0.00     0.093 A 
ATOM      8  C   UNL     1       4.324  11.698 -11.661  1.00  0.00     0.123 A 
ATOM      9  C   UNL     1       2.946  11.647 -11.442  1.00  0.00     0.094 A 
ATOM     10  C   UNL     1       2.277  10.421 -11.432  1.00  0.00     0.146 A 
ATOM     11  O   UNL     1       0.964  10.417 -11.232  1.00  0.00    -0.452 OA
ENDROOT
BRANCH   1  12
ATOM     12  C   UNL     1      -1.224   9.440 -10.964  1.00  0.00     0.025 A 
ATOM     13  C   UNL     1      -3.391  10.493 -11.387  1.00  0.00     0.161 A 
ATOM     14  C   UNL     1      -3.989   9.610 -10.478  1.00  0.00     0.157 A 
ATOM     15  C   UNL     1      -2.006  10.398 -11.633  1.00  0.00     0.062 A 
ATOM     16  C   UNL     1      -3.216   8.640  -9.828  1.00  0.00     0.051 A 
ATOM     17  C   UNL     1      -1.845   8.551 -10.074  1.00  0.00     0.016 A 
BRANCH  13  18
ATOM     18  O   UNL     1      -4.202  11.444 -12.028  1.00  0.00    -0.493 OA
ATOM     19  C   UNL     1      -4.094  12.851 -11.841  1.00  0.00     0.278 C 
ENDBRANCH  13  18
BRANCH  14  20
ATOM     20  O   UNL     1      -5.357   9.700 -10.228  1.00  0.00    -0.504 OA
ATOM     21  H   UNL     1      -6.041   9.573 -10.966  1.00  0.00     0.293 HD
ENDBRANCH  14  20
ENDBRANCH   1  12
BRANCH   2  22
ATOM     22  O   UNL     1       0.053   6.914 -11.578  1.00  0.00    -0.502 OA
ATOM     23  H   UNL     1      -0.920   6.933 -11.857  1.00  0.00     0.293 HD
ENDBRANCH   2  22
BRANCH   6  24
ATOM     24  O   UNL     1       5.226   8.144 -11.895  1.00  0.00    -0.507 OA
ATOM     25  H   UNL     1       6.162   8.083 -11.524  1.00  0.00     0.293 HD
ENDBRANCH   6  24
BRANCH   8  26
ATOM     26  O   UNL     1       4.993  12.919 -11.692  1.00  0.00    -0.508 OA
ATOM     27  H   UNL     1       4.675  13.712 -11.147  1.00  0.00     0.293 HD
ENDBRANCH   8  26
TORSDOF 6
ENDMDL
MODEL 7
REMARK VINA RESULT:    -4.649      1.279      2.962
REMARK INTER + INTRA:          -6.009
REMARK INTER:                  -5.890
REMARK INTRA:                  -0.119
REMARK UNBOUND:                -0.273
REMARK SMILES COc1cc(-c2oc3cc(O)cc(O)c3c(=O)c2O)ccc1O
REMARK SMILES IDX 6 1 18 2 16 3 17 4 15 5 13 6 12 7 10 8 9 9 8 10 7 11 5 12
REMARK SMILES IDX 3 13 22 14 4 15 21 16 20 17 2 18 1 19 23 20 19 22 14 24
REMARK SMILES IDX 11 26
REMARK H PARENT 23 21 19 23 14 25 11 27
REMARK Flexibility Score: inf
ROOT
ATOM      1  C   UNL     1      -1.484  10.348 -10.995  1.00  0.00     0.180 A 
ATOM      2  C   UNL     1      -0.606  11.325 -11.496  1.00  0.00     0.208 A 
ATOM      3  C   UNL     1       0.777  11.147 -11.333  1.00  0.00     0.238 A 
ATOM      4  O   UNL     1       1.555  12.051 -11.735  1.00  0.00    -0.285 OA
ATOM      5  C   UNL     1       1.265   9.986 -10.686  1.00  0.00     0.111 A 
ATOM      6  C   UNL     1       2.649   9.683 -10.502  1.00  0.00     0.134 A 
ATOM      7  C   UNL     1       3.015   8.571  -9.733  1.00  0.00     0.093 A 
ATOM      8  C   UNL     1       2.052   7.717  -9.196  1.00  0.00     0.123 A 
ATOM      9  C   UNL     1       0.698   7.972  -9.421  1.00  0.00     0.094 A 
ATOM     10  C   UNL     1       0.301   9.092 -10.154  1.00  0.00     0.146 A 
ATOM     11  O   UNL     1      -0.998   9.304 -10.335  1.00  0.00    -0.452 OA
ENDROOT
BRANCH   1  12
ATOM     12  C   UNL     1      -2.952  10.456 -11.151  1.00  0.00     0.025 A 
ATOM     13  C   UNL     1      -5.070  11.609 -10.740  1.00  0.00     0.161 A 
ATOM     14  C   UNL     1      -5.733  10.652 -11.521  1.00  0.00     0.157 A 
ATOM     15  C   UNL     1      -3.675  11.510 -10.565  1.00  0.00     0.062 A 
ATOM     16  C   UNL     1      -5.012   9.615 -12.125  1.00  0.00     0.051 A 
ATOM     17  C   UNL     1      -3.631   9.521 -11.947  1.00  0.00     0.016 A 
BRANCH  13  18
ATOM     18  O   UNL     1      -5.826  12.640 -10.162  1.00  0.00    -0.493 OA
ATOM     19  C   UNL     1      -6.247  13.814 -10.850  1.00  0.00     0.278 C 
ENDBRANCH  13  18
BRANCH  14  20
ATOM     20  O   UNL     1      -7.113  10.742 -11.696  1.00  0.00    -0.504 OA
ATOM     21  H   UNL     1      -7.531  11.486 -12.245  1.00  0.00     0.293 HD
ENDBRANCH  14  20
ENDBRANCH   1  12
BRANCH   2  22
ATOM     22  O   UNL     1      -1.111  12.475 -12.112  1.00  0.00    -0.502 OA
ATOM     23  H   UNL     1      -1.351  12.504 -13.096  1.00  0.00     0.293 HD
ENDBRANCH   2  22
BRANCH   6  24
ATOM     24  O   UNL     1       3.691  10.418 -11.071  1.00  0.00    -0.507 OA
ATOM     25  H   UNL     1       4.039  10.291 -12.009  1.00  0.00     0.293 HD
ENDBRANCH   6  24
BRANCH   8  26
ATOM     26  O   UNL     1       2.453   6.612  -8.449  1.00  0.00    -0.508 OA
ATOM     27  H   UNL     1       2.607   5.708  -8.881  1.00  0.00     0.293 HD
ENDBRANCH   8  26
TORSDOF 6
ENDMDL
MODEL 8
REMARK VINA RESULT:    -4.605     11.932     13.317
REMARK INTER + INTRA:          -5.956
REMARK INTER:                  -5.556
REMARK INTRA:                  -0.400
REMARK UNBOUND:                -0.273
REMARK SMILES COc1cc(-c2oc3cc(O)cc(O)c3c(=O)c2O)ccc1O
REMARK SMILES IDX 6 1 18 2 16 3 17 4 15 5 13 6 12 7 10 8 9 9 8 10 7 11 5 12
REMARK SMILES IDX 3 13 22 14 4 15 21 16 20 17 2 18 1 19 23 20 19 22 14 24
REMARK SMILES IDX 11 26
REMARK H PARENT 23 21 19 23 14 25 11 27
REMARK Flexibility Score: inf
ROOT
ATOM      1  C   UNL     1      10.332  10.866  -6.565  1.00  0.00     0.180 A 
ATOM      2  C   UNL     1      10.669   9.527  -6.299  1.00  0.00     0.208 A 
ATOM      3  C   UNL     1      11.386   8.801  -7.264  1.00  0.00     0.238 A 
ATOM      4  O   UNL     1      11.637   7.587  -7.043  1.00  0.00    -0.285 OA
ATOM      5  C   UNL     1      11.770   9.427  -8.474  1.00  0.00     0.111 A 
ATOM      6  C   UNL     1      12.534   8.798  -9.504  1.00  0.00     0.134 A 
ATOM      7  C   UNL     1      12.745   9.470 -10.714  1.00  0.00     0.093 A 
ATOM      8  C   UNL     1      12.278  10.770 -10.908  1.00  0.00     0.123 A 
ATOM      9  C   UNL     1      11.582  11.415  -9.885  1.00  0.00     0.094 A 
ATOM     10  C   UNL     1      11.325  10.758  -8.680  1.00  0.00     0.146 A 
ATOM     11  O   UNL     1      10.649  11.404  -7.737  1.00  0.00    -0.452 OA
ENDROOT
BRANCH   1  12
ATOM     12  C   UNL     1       9.599  11.701  -5.587  1.00  0.00     0.025 A 
ATOM     13  C   UNL     1       9.567  13.314  -3.748  1.00  0.00     0.161 A 
ATOM     14  C   UNL     1       8.166  13.316  -3.785  1.00  0.00     0.157 A 
ATOM     15  C   UNL     1      10.280  12.509  -4.659  1.00  0.00     0.062 A 
ATOM     16  C   UNL     1       7.486  12.531  -4.723  1.00  0.00     0.051 A 
ATOM     17  C   UNL     1       8.197  11.734  -5.622  1.00  0.00     0.016 A 
BRANCH  13  18
ATOM     18  O   UNL     1      10.213  14.125  -2.801  1.00  0.00    -0.493 OA
ATOM     19  C   UNL     1      10.743  13.654  -1.566  1.00  0.00     0.278 C 
ENDBRANCH  13  18
BRANCH  14  20
ATOM     20  O   UNL     1       7.455  14.109  -2.885  1.00  0.00    -0.504 OA
ATOM     21  H   UNL     1       6.478  13.930  -2.678  1.00  0.00     0.293 HD
ENDBRANCH  14  20
ENDBRANCH   1  12
BRANCH   2  22
ATOM     22  O   UNL     1      10.260   8.922  -5.107  1.00  0.00    -0.502 OA
ATOM     23  H   UNL     1       9.973   9.457  -4.296  1.00  0.00     0.293 HD
ENDBRANCH   2  22
BRANCH   6  24
ATOM     24  O   UNL     1      13.125   7.538  -9.379  1.00  0.00    -0.507 OA
ATOM     25  H   UNL     1      13.183   6.854 -10.118  1.00  0.00     0.293 HD
ENDBRANCH   6  24
BRANCH   8  26
ATOM     26  O   UNL     1      12.520  11.413 -12.119  1.00  0.00    -0.508 OA
ATOM     27  H   UNL     1      12.148  12.336 -12.313  1.00  0.00     0.293 HD
ENDBRANCH   8  26
TORSDOF 6
ENDMDL
MODEL 9
REMARK VINA RESULT:    -2.963      2.414      5.366
REMARK INTER + INTRA:          -3.929
REMARK INTER:                  -3.745
REMARK INTRA:                  -0.184
REMARK UNBOUND:                -0.273
REMARK SMILES COc1cc(-c2oc3cc(O)cc(O)c3c(=O)c2O)ccc1O
REMARK SMILES IDX 6 1 18 2 16 3 17 4 15 5 13 6 12 7 10 8 9 9 8 10 7 11 5 12
REMARK SMILES IDX 3 13 22 14 4 15 21 16 20 17 2 18 1 19 23 20 19 22 14 24
REMARK SMILES IDX 11 26
REMARK H PARENT 23 21 19 23 14 25 11 27
REMARK Flexibility Score: inf
ROOT
ATOM      1  C   UNL     1       2.043   9.782 -10.636  1.00  0.00     0.180 A 
ATOM      2  C   UNL     1       1.898  11.180 -10.667  1.00  0.00     0.208 A 
ATOM      3  C   UNL     1       2.995  11.969 -11.048  1.00  0.00     0.238 A 
ATOM      4  O   UNL     1       2.877  13.222 -11.020  1.00  0.00    -0.285 OA
ATOM      5  C   UNL     1       4.217  11.351 -11.407  1.00  0.00     0.111 A 
ATOM      6  C   UNL     1       5.380  12.052 -11.848  1.00  0.00     0.134 A 
ATOM      7  C   UNL     1       6.573  11.348 -12.053  1.00  0.00     0.093 A 
ATOM      8  C   UNL     1       6.629   9.963 -11.897  1.00  0.00     0.123 A 
ATOM      9  C   UNL     1       5.481   9.261 -11.525  1.00  0.00     0.094 A 
ATOM     10  C   UNL     1       4.286   9.940 -11.279  1.00  0.00     0.146 A 
ATOM     11  O   UNL     1       3.220   9.236 -10.916  1.00  0.00    -0.452 OA
ENDROOT
BRANCH   1  12
ATOM     12  C   UNL     1       0.924   8.883 -10.270  1.00  0.00     0.025 A 
ATOM     13  C   UNL     1      -1.339   8.028 -10.626  1.00  0.00     0.161 A 
ATOM     14  C   UNL     1      -1.153   7.119  -9.574  1.00  0.00     0.157 A 
ATOM     15  C   UNL     1      -0.292   8.904 -10.975  1.00  0.00     0.062 A 
ATOM     16  C   UNL     1       0.066   7.081  -8.886  1.00  0.00     0.051 A 
ATOM     17  C   UNL     1       1.099   7.952  -9.235  1.00  0.00     0.016 A 
BRANCH  13  18
ATOM     18  O   UNL     1      -2.571   8.026 -11.300  1.00  0.00    -0.493 OA
ATOM     19  C   UNL     1      -3.494   9.111 -11.294  1.00  0.00     0.278 C 
ENDBRANCH  13  18
BRANCH  14  20
ATOM     20  O   UNL     1      -2.186   6.252  -9.222  1.00  0.00    -0.504 OA
ATOM     21  H   UNL     1      -2.122   5.654  -8.406  1.00  0.00     0.293 HD
ENDBRANCH  14  20
ENDBRANCH   1  12
BRANCH   2  22
ATOM     22  O   UNL     1       0.690  11.770 -10.286  1.00  0.00    -0.502 OA
ATOM     23  H   UNL     1      -0.104  11.837 -10.911  1.00  0.00     0.293 HD
ENDBRANCH   2  22
BRANCH   6  24
ATOM     24  O   UNL     1       5.409  13.421 -12.123  1.00  0.00    -0.507 OA
ATOM     25  H   UNL     1       6.171  14.039 -11.887  1.00  0.00     0.293 HD
ENDBRANCH   6  24
BRANCH   8  26
ATOM     26  O   UNL     1       7.829   9.293 -12.125  1.00  0.00    -0.508 OA
ATOM     27  H   UNL     1       8.443   9.032 -11.362  1.00  0.00     0.293 HD
ENDBRANCH   8  26
TORSDOF 6
ENDMDL
