MODEL 1
REMARK VINA RESULT:    -1.833      0.000      0.000
REMARK INTER + INTRA:          -6.267
REMARK INTER:                  -4.834
REMARK INTRA:                  -1.433
REMARK UNBOUND:                -1.433
REMARK SMILES CCCCCCCCCCCCCCCCCCCCCCCCCCCCCC(=O)[O-]
REMARK SMILES IDX 16 1 17 2 18 3 19 4 20 5 21 6 22 7 23 8 24 9 25 10 26 11
REMARK SMILES IDX 27 12 28 13 29 14 30 15 31 16 32 17 15 18 14 19 13 20 12 21
REMARK SMILES IDX 11 22 10 23 9 24 8 25 7 26 6 27 5 28 4 29 3 30 2 31 1 32
REMARK H PARENT
REMARK Flexibility Score: inf
ROOT
ATOM      1  C   UNL     1      -2.092 -21.469  15.286  1.00  0.00     0.000 C 
ENDROOT
BRANCH   1   2
ATOM      2  C   UNL     1      -0.994 -21.974  16.244  1.00  0.00     0.000 C 
BRANCH   2   3
ATOM      3  C   UNL     1      -0.021 -23.014  15.655  1.00  0.00     0.000 C 
BRANCH   3   4
ATOM      4  C   UNL     1       1.413 -22.507  15.407  1.00  0.00     0.000 C 
BRANCH   4   5
ATOM      5  C   UNL     1       1.894 -22.753  13.970  1.00  0.00     0.000 C 
BRANCH   5   6
ATOM      6  C   UNL     1       3.427 -22.830  13.916  1.00  0.00     0.000 C 
BRANCH   6   7
ATOM      7  C   UNL     1       4.092 -22.444  15.250  1.00  0.00     0.000 C 
BRANCH   7   8
ATOM      8  C   UNL     1       5.632 -22.518  15.256  1.00  0.00     0.000 C 
BRANCH   8   9
ATOM      9  C   UNL     1       6.327 -21.575  16.259  1.00  0.00     0.000 C 
BRANCH   9  10
ATOM     10  C   UNL     1       7.850 -21.782  16.397  1.00  0.00     0.000 C 
BRANCH  10  11
ATOM     11  C   UNL     1       8.641 -21.708  15.076  1.00  0.00     0.000 C 
BRANCH  11  12
ATOM     12  C   UNL     1       8.126 -20.667  14.066  1.00  0.00     0.000 C 
BRANCH  12  13
ATOM     13  C   UNL     1       7.596 -21.303  12.769  1.00  0.00     0.006 C 
BRANCH  13  14
ATOM     14  C   UNL     1       8.681 -22.092  12.022  1.00  0.00     0.053 C 
BRANCH  14  15
ATOM     15  C   UNL     1       8.260 -22.451  10.628  1.00  0.00     0.041 C 
ATOM     16  O   UNL     1       9.124 -22.608   9.723  1.00  0.00    -0.550 OA
ATOM     17  O   UNL     1       6.912 -22.605  10.328  1.00  0.00    -0.550 OA
ENDBRANCH  14  15
ENDBRANCH  13  14
ENDBRANCH  12  13
ENDBRANCH  11  12
ENDBRANCH  10  11
ENDBRANCH   9  10
ENDBRANCH   8   9
ENDBRANCH   7   8
ENDBRANCH   6   7
ENDBRANCH   5   6
ENDBRANCH   4   5
ENDBRANCH   3   4
ENDBRANCH   2   3
ENDBRANCH   1   2
BRANCH   1  18
ATOM     18  C   UNL     1      -3.449 -22.191  15.434  1.00  0.00     0.000 C 
BRANCH  18  19
ATOM     19  C   UNL     1      -3.915 -22.301  16.897  1.00  0.00     0.000 C 
BRANCH  19  20
ATOM     20  C   UNL     1      -5.389 -22.732  17.019  1.00  0.00     0.000 C 
BRANCH  20  21
ATOM     21  C   UNL     1      -5.900 -22.859  18.467  1.00  0.00     0.000 C 
BRANCH  21  22
ATOM     22  C   UNL     1      -7.427 -23.015  18.549  1.00  0.00     0.000 C 
BRANCH  22  23
ATOM     23  C   UNL     1      -8.139 -21.689  18.245  1.00  0.00     0.000 C 
BRANCH  23  24
ATOM     24  C   UNL     1      -9.430 -21.883  17.429  1.00  0.00    -0.000 C 
BRANCH  24  25
ATOM     25  C   UNL     1     -10.677 -21.197  18.021  1.00  0.00    -0.000 C 
BRANCH  25  26
ATOM     26  C   UNL     1     -10.907 -19.747  17.548  1.00  0.00    -0.000 C 
BRANCH  26  27
ATOM     27  C   UNL     1     -11.121 -18.720  18.678  1.00  0.00    -0.000 C 
BRANCH  27  28
ATOM     28  C   UNL     1     -10.884 -19.255  20.103  1.00  0.00    -0.000 C 
BRANCH  28  29
ATOM     29  C   UNL     1      -9.956 -18.352  20.934  1.00  0.00    -0.000 C 
BRANCH  29  30
ATOM     30  C   UNL     1      -9.598 -18.962  22.302  1.00  0.00    -0.000 C 
BRANCH  30  31
ATOM     31  C   UNL     1     -10.001 -20.446  22.444  1.00  0.00    -0.003 C 
ATOM     32  C   UNL     1      -8.858 -21.305  22.985  1.00  0.00     0.004 C 
ENDBRANCH  30  31
ENDBRANCH  29  30
ENDBRANCH  28  29
ENDBRANCH  27  28
ENDBRANCH  26  27
ENDBRANCH  25  26
ENDBRANCH  24  25
ENDBRANCH  23  24
ENDBRANCH  22  23
ENDBRANCH  21  22
ENDBRANCH  20  21
ENDBRANCH  19  20
ENDBRANCH  18  19
ENDBRANCH   1  18
TORSDOF 28
ENDMDL
MODEL 2
REMARK VINA RESULT:    -1.647      5.426     16.344
REMARK INTER + INTRA:          -5.775
REMARK INTER:                  -4.327
REMARK INTRA:                  -1.448
REMARK UNBOUND:                -1.433
REMARK SMILES CCCCCCCCCCCCCCCCCCCCCCCCCCCCCC(=O)[O-]
REMARK SMILES IDX 16 1 17 2 18 3 19 4 20 5 21 6 22 7 23 8 24 9 25 10 26 11
REMARK SMILES IDX 27 12 28 13 29 14 30 15 31 16 32 17 15 18 14 19 13 20 12 21
REMARK SMILES IDX 11 22 10 23 9 24 8 25 7 26 6 27 5 28 4 29 3 30 2 31 1 32
REMARK H PARENT
REMARK Flexibility Score: inf
ROOT
ATOM      1  C   UNL     1      -2.304 -22.224  16.295  1.00  0.00     0.000 C 
ENDROOT
BRANCH   1   2
ATOM      2  C   UNL     1      -3.314 -21.764  15.224  1.00  0.00     0.000 C 
BRANCH   2   3
ATOM      3  C   UNL     1      -4.680 -21.288  15.755  1.00  0.00     0.000 C 
BRANCH   3   4
ATOM      4  C   UNL     1      -5.383 -22.256  16.726  1.00  0.00     0.000 C 
BRANCH   4   5
ATOM      5  C   UNL     1      -6.862 -22.480  16.381  1.00  0.00     0.000 C 
BRANCH   5   6
ATOM      6  C   UNL     1      -7.729 -22.423  17.648  1.00  0.00     0.000 C 
BRANCH   6   7
ATOM      7  C   UNL     1      -9.119 -21.810  17.394  1.00  0.00     0.000 C 
BRANCH   7   8
ATOM      8  C   UNL     1      -9.883 -21.380  18.662  1.00  0.00     0.000 C 
BRANCH   8   9
ATOM      9  C   UNL     1     -11.010 -20.354  18.429  1.00  0.00     0.000 C 
BRANCH   9  10
ATOM     10  C   UNL     1     -10.802 -18.991  19.122  1.00  0.00     0.000 C 
BRANCH  10  11
ATOM     11  C   UNL     1      -9.819 -19.006  20.310  1.00  0.00     0.000 C 
BRANCH  11  12
ATOM     12  C   UNL     1     -10.336 -18.325  21.590  1.00  0.00     0.000 C 
BRANCH  12  13
ATOM     13  C   UNL     1     -11.002 -19.313  22.565  1.00  0.00     0.006 C 
BRANCH  13  14
ATOM     14  C   UNL     1     -10.767 -20.776  22.161  1.00  0.00     0.053 C 
BRANCH  14  15
ATOM     15  C   UNL     1      -9.786 -21.461  23.065  1.00  0.00     0.041 C 
ATOM     16  O   UNL     1      -8.575 -21.107  23.075  1.00  0.00    -0.550 OA
ATOM     17  O   UNL     1     -10.208 -22.496  23.891  1.00  0.00    -0.550 OA
ENDBRANCH  14  15
ENDBRANCH  13  14
ENDBRANCH  12  13
ENDBRANCH  11  12
ENDBRANCH  10  11
ENDBRANCH   9  10
ENDBRANCH   8   9
ENDBRANCH   7   8
ENDBRANCH   6   7
ENDBRANCH   5   6
ENDBRANCH   4   5
ENDBRANCH   3   4
ENDBRANCH   2   3
ENDBRANCH   1   2
BRANCH   1  18
ATOM     18  C   UNL     1      -0.853 -21.759  16.044  1.00  0.00     0.000 C 
BRANCH  18  19
ATOM     19  C   UNL     1       0.054 -22.883  15.511  1.00  0.00     0.000 C 
BRANCH  19  20
ATOM     20  C   UNL     1       1.532 -22.460  15.421  1.00  0.00     0.000 C 
BRANCH  20  21
ATOM     21  C   UNL     1       2.027 -21.611  16.608  1.00  0.00     0.000 C 
BRANCH  21  22
ATOM     22  C   UNL     1       3.431 -21.029  16.380  1.00  0.00     0.000 C 
BRANCH  22  23
ATOM     23  C   UNL     1       4.514 -22.105  16.548  1.00  0.00     0.000 C 
BRANCH  23  24
ATOM     24  C   UNL     1       5.732 -21.602  17.345  1.00  0.00    -0.000 C 
BRANCH  24  25
ATOM     25  C   UNL     1       7.085 -21.752  16.621  1.00  0.00    -0.000 C 
BRANCH  25  26
ATOM     26  C   UNL     1       7.000 -21.748  15.081  1.00  0.00    -0.000 C 
BRANCH  26  27
ATOM     27  C   UNL     1       8.345 -21.535  14.356  1.00  0.00    -0.000 C 
BRANCH  27  28
ATOM     28  C   UNL     1       8.847 -20.079  14.322  1.00  0.00    -0.000 C 
BRANCH  28  29
ATOM     29  C   UNL     1       8.828 -19.472  12.908  1.00  0.00    -0.000 C 
BRANCH  29  30
ATOM     30  C   UNL     1       8.866 -20.540  11.800  1.00  0.00    -0.000 C 
BRANCH  30  31
ATOM     31  C   UNL     1       8.203 -20.088  10.481  1.00  0.00    -0.003 C 
ATOM     32  C   UNL     1       8.695 -20.897   9.281  1.00  0.00     0.004 C 
ENDBRANCH  30  31
ENDBRANCH  29  30
ENDBRANCH  28  29
ENDBRANCH  27  28
ENDBRANCH  26  27
ENDBRANCH  25  26
ENDBRANCH  24  25
ENDBRANCH  23  24
ENDBRANCH  22  23
ENDBRANCH  21  22
ENDBRANCH  20  21
ENDBRANCH  19  20
ENDBRANCH  18  19
ENDBRANCH   1  18
TORSDOF 28
ENDMDL
MODEL 3
REMARK VINA RESULT:    -1.485      1.531      2.146
REMARK INTER + INTRA:          -5.349
REMARK INTER:                  -4.180
REMARK INTRA:                  -1.169
REMARK UNBOUND:                -1.433
REMARK SMILES CCCCCCCCCCCCCCCCCCCCCCCCCCCCCC(=O)[O-]
REMARK SMILES IDX 16 1 17 2 18 3 19 4 20 5 21 6 22 7 23 8 24 9 25 10 26 11
REMARK SMILES IDX 27 12 28 13 29 14 30 15 31 16 32 17 15 18 14 19 13 20 12 21
REMARK SMILES IDX 11 22 10 23 9 24 8 25 7 26 6 27 5 28 4 29 3 30 2 31 1 32
REMARK H PARENT
REMARK Flexibility Score: inf
ROOT
ATOM      1  C   UNL     1      -0.836 -22.315  15.869  1.00  0.00     0.000 C 
ENDROOT
BRANCH   1   2
ATOM      2  C   UNL     1      -0.061 -21.321  16.757  1.00  0.00     0.000 C 
BRANCH   2   3
ATOM      3  C   UNL     1       1.437 -21.161  16.432  1.00  0.00     0.000 C 
BRANCH   3   4
ATOM      4  C   UNL     1       1.971 -22.089  15.323  1.00  0.00     0.000 C 
BRANCH   4   5
ATOM      5  C   UNL     1       3.005 -23.100  15.837  1.00  0.00     0.000 C 
BRANCH   5   6
ATOM      6  C   UNL     1       4.431 -22.637  15.503  1.00  0.00     0.000 C 
BRANCH   6   7
ATOM      7  C   UNL     1       4.880 -21.429  16.346  1.00  0.00     0.000 C 
BRANCH   7   8
ATOM      8  C   UNL     1       6.004 -21.724  17.360  1.00  0.00     0.000 C 
BRANCH   8   9
ATOM      9  C   UNL     1       7.428 -21.738  16.769  1.00  0.00     0.000 C 
BRANCH   9  10
ATOM     10  C   UNL     1       7.740 -22.940  15.854  1.00  0.00     0.000 C 
BRANCH  10  11
ATOM     11  C   UNL     1       9.124 -22.903  15.175  1.00  0.00     0.000 C 
BRANCH  11  12
ATOM     12  C   UNL     1       9.092 -22.841  13.637  1.00  0.00     0.000 C 
BRANCH  12  13
ATOM     13  C   UNL     1       8.139 -21.759  13.102  1.00  0.00     0.006 C 
BRANCH  13  14
ATOM     14  C   UNL     1       8.871 -20.451  12.771  1.00  0.00     0.053 C 
BRANCH  14  15
ATOM     15  C   UNL     1       8.271 -19.752  11.587  1.00  0.00     0.041 C 
ATOM     16  O   UNL     1       7.563 -18.721  11.749  1.00  0.00    -0.550 OA
ATOM     17  O   UNL     1       8.488 -20.245  10.306  1.00  0.00    -0.550 OA
ENDBRANCH  14  15
ENDBRANCH  13  14
ENDBRANCH  12  13
ENDBRANCH  11  12
ENDBRANCH  10  11
ENDBRANCH   9  10
ENDBRANCH   8   9
ENDBRANCH   7   8
ENDBRANCH   6   7
ENDBRANCH   5   6
ENDBRANCH   4   5
ENDBRANCH   3   4
ENDBRANCH   2   3
ENDBRANCH   1   2
BRANCH   1  18
ATOM     18  C   UNL     1      -2.161 -22.818  16.482  1.00  0.00     0.000 C 
BRANCH  18  19
ATOM     19  C   UNL     1      -3.402 -22.153  15.860  1.00  0.00     0.000 C 
BRANCH  19  20
ATOM     20  C   UNL     1      -4.671 -23.015  16.001  1.00  0.00     0.000 C 
BRANCH  20  21
ATOM     21  C   UNL     1      -5.855 -22.303  16.684  1.00  0.00     0.000 C 
BRANCH  21  22
ATOM     22  C   UNL     1      -6.163 -22.864  18.081  1.00  0.00     0.000 C 
BRANCH  22  23
ATOM     23  C   UNL     1      -7.616 -22.577  18.488  1.00  0.00     0.000 C 
BRANCH  23  24
ATOM     24  C   UNL     1      -8.315 -21.591  17.534  1.00  0.00    -0.000 C 
BRANCH  24  25
ATOM     25  C   UNL     1      -9.851 -21.552  17.657  1.00  0.00    -0.000 C 
BRANCH  25  26
ATOM     26  C   UNL     1     -10.502 -22.884  18.082  1.00  0.00    -0.000 C 
BRANCH  26  27
ATOM     27  C   UNL     1     -10.567 -23.120  19.605  1.00  0.00    -0.000 C 
BRANCH  27  28
ATOM     28  C   UNL     1     -11.119 -21.940  20.428  1.00  0.00    -0.000 C 
BRANCH  28  29
ATOM     29  C   UNL     1     -10.024 -20.949  20.861  1.00  0.00    -0.000 C 
BRANCH  29  30
ATOM     30  C   UNL     1     -10.060 -20.643  22.369  1.00  0.00    -0.000 C 
BRANCH  30  31
ATOM     31  C   UNL     1      -8.888 -21.268  23.158  1.00  0.00    -0.003 C 
ATOM     32  C   UNL     1      -8.932 -22.795  23.143  1.00  0.00     0.004 C 
ENDBRANCH  30  31
ENDBRANCH  29  30
ENDBRANCH  28  29
ENDBRANCH  27  28
ENDBRANCH  26  27
ENDBRANCH  25  26
ENDBRANCH  24  25
ENDBRANCH  23  24
ENDBRANCH  22  23
ENDBRANCH  21  22
ENDBRANCH  20  21
ENDBRANCH  19  20
ENDBRANCH  18  19
ENDBRANCH   1  18
TORSDOF 28
ENDMDL
MODEL 4
REMARK VINA RESULT:    -1.345      5.495     16.065
REMARK INTER + INTRA:          -4.979
REMARK INTER:                  -3.868
REMARK INTRA:                  -1.111
REMARK UNBOUND:                -1.433
REMARK SMILES CCCCCCCCCCCCCCCCCCCCCCCCCCCCCC(=O)[O-]
REMARK SMILES IDX 16 1 17 2 18 3 19 4 20 5 21 6 22 7 23 8 24 9 25 10 26 11
REMARK SMILES IDX 27 12 28 13 29 14 30 15 31 16 32 17 15 18 14 19 13 20 12 21
REMARK SMILES IDX 11 22 10 23 9 24 8 25 7 26 6 27 5 28 4 29 3 30 2 31 1 32
REMARK H PARENT
REMARK Flexibility Score: inf
ROOT
ATOM      1  C   UNL     1       0.430 -22.239  15.775  1.00  0.00     0.000 C 
ENDROOT
BRANCH   1   2
ATOM      2  C   UNL     1      -0.970 -22.332  16.416  1.00  0.00     0.000 C 
BRANCH   2   3
ATOM      3  C   UNL     1      -2.152 -21.977  15.494  1.00  0.00     0.000 C 
BRANCH   3   4
ATOM      4  C   UNL     1      -3.540 -22.006  16.163  1.00  0.00     0.000 C 
BRANCH   4   5
ATOM      5  C   UNL     1      -4.587 -21.178  15.403  1.00  0.00     0.000 C 
BRANCH   5   6
ATOM      6  C   UNL     1      -5.973 -21.332  16.048  1.00  0.00     0.000 C 
BRANCH   6   7
ATOM      7  C   UNL     1      -5.933 -22.126  17.367  1.00  0.00     0.000 C 
BRANCH   7   8
ATOM      8  C   UNL     1      -7.293 -22.683  17.833  1.00  0.00     0.000 C 
BRANCH   8   9
ATOM      9  C   UNL     1      -8.524 -22.071  17.134  1.00  0.00     0.000 C 
BRANCH   9  10
ATOM     10  C   UNL     1      -9.729 -21.803  18.059  1.00  0.00     0.000 C 
BRANCH  10  11
ATOM     11  C   UNL     1     -10.712 -20.727  17.555  1.00  0.00     0.000 C 
BRANCH  11  12
ATOM     12  C   UNL     1     -11.062 -19.634  18.580  1.00  0.00     0.000 C 
BRANCH  12  13
ATOM     13  C   UNL     1     -10.186 -19.698  19.844  1.00  0.00     0.006 C 
BRANCH  13  14
ATOM     14  C   UNL     1     -10.354 -18.456  20.731  1.00  0.00     0.053 C 
BRANCH  14  15
ATOM     15  C   UNL     1      -9.709 -18.631  22.075  1.00  0.00     0.041 C 
ATOM     16  O   UNL     1      -8.883 -17.778  22.499  1.00  0.00    -0.550 OA
ATOM     17  O   UNL     1     -10.016 -19.740  22.853  1.00  0.00    -0.550 OA
ENDBRANCH  14  15
ENDBRANCH  13  14
ENDBRANCH  12  13
ENDBRANCH  11  12
ENDBRANCH  10  11
ENDBRANCH   9  10
ENDBRANCH   8   9
ENDBRANCH   7   8
ENDBRANCH   6   7
ENDBRANCH   5   6
ENDBRANCH   4   5
ENDBRANCH   3   4
ENDBRANCH   2   3
ENDBRANCH   1   2
BRANCH   1  18
ATOM     18  C   UNL     1       0.618 -23.123  14.523  1.00  0.00     0.000 C 
BRANCH  18  19
ATOM     19  C   UNL     1       1.962 -22.880  13.813  1.00  0.00     0.000 C 
BRANCH  19  20
ATOM     20  C   UNL     1       3.172 -23.121  14.734  1.00  0.00     0.000 C 
BRANCH  20  21
ATOM     21  C   UNL     1       3.911 -21.840  15.168  1.00  0.00     0.000 C 
BRANCH  21  22
ATOM     22  C   UNL     1       5.375 -22.099  15.556  1.00  0.00     0.000 C 
BRANCH  22  23
ATOM     23  C   UNL     1       5.645 -21.694  17.012  1.00  0.00     0.000 C 
BRANCH  23  24
ATOM     24  C   UNL     1       7.149 -21.592  17.331  1.00  0.00    -0.000 C 
BRANCH  24  25
ATOM     25  C   UNL     1       7.976 -22.834  16.942  1.00  0.00    -0.000 C 
BRANCH  25  26
ATOM     26  C   UNL     1       9.027 -22.594  15.840  1.00  0.00    -0.000 C 
BRANCH  26  27
ATOM     27  C   UNL     1       8.486 -22.669  14.397  1.00  0.00    -0.000 C 
BRANCH  27  28
ATOM     28  C   UNL     1       7.868 -21.362  13.862  1.00  0.00    -0.000 C 
BRANCH  28  29
ATOM     29  C   UNL     1       7.673 -21.374  12.336  1.00  0.00    -0.000 C 
BRANCH  29  30
ATOM     30  C   UNL     1       7.944 -20.004  11.689  1.00  0.00    -0.000 C 
BRANCH  30  31
ATOM     31  C   UNL     1       8.183 -20.074  10.165  1.00  0.00    -0.003 C 
ATOM     32  C   UNL     1       8.693 -21.445   9.722  1.00  0.00     0.004 C 
ENDBRANCH  30  31
ENDBRANCH  29  30
ENDBRANCH  28  29
ENDBRANCH  27  28
ENDBRANCH  26  27
ENDBRANCH  25  26
ENDBRANCH  24  25
ENDBRANCH  23  24
ENDBRANCH  22  23
ENDBRANCH  21  22
ENDBRANCH  20  21
ENDBRANCH  19  20
ENDBRANCH  18  19
ENDBRANCH   1  18
TORSDOF 28
ENDMDL
MODEL 5
REMARK VINA RESULT:    -1.232      5.606     16.179
REMARK INTER + INTRA:          -4.681
REMARK INTER:                  -3.174
REMARK INTRA:                  -1.507
REMARK UNBOUND:                -1.433
REMARK SMILES CCCCCCCCCCCCCCCCCCCCCCCCCCCCCC(=O)[O-]
REMARK SMILES IDX 16 1 17 2 18 3 19 4 20 5 21 6 22 7 23 8 24 9 25 10 26 11
REMARK SMILES IDX 27 12 28 13 29 14 30 15 31 16 32 17 15 18 14 19 13 20 12 21
REMARK SMILES IDX 11 22 10 23 9 24 8 25 7 26 6 27 5 28 4 29 3 30 2 31 1 32
REMARK H PARENT
REMARK Flexibility Score: inf
ROOT
ATOM      1  C   UNL     1       1.269 -22.638  14.372  1.00  0.00     0.000 C 
ENDROOT
BRANCH   1   2
ATOM      2  C   UNL     1       0.506 -22.384  15.688  1.00  0.00     0.000 C 
BRANCH   2   3
ATOM      3  C   UNL     1      -0.888 -23.034  15.788  1.00  0.00     0.000 C 
BRANCH   3   4
ATOM      4  C   UNL     1      -1.981 -22.152  16.422  1.00  0.00     0.000 C 
BRANCH   4   5
ATOM      5  C   UNL     1      -2.848 -21.432  15.380  1.00  0.00     0.000 C 
BRANCH   5   6
ATOM      6  C   UNL     1      -4.286 -21.972  15.403  1.00  0.00     0.000 C 
BRANCH   6   7
ATOM      7  C   UNL     1      -4.779 -22.299  16.824  1.00  0.00     0.000 C 
BRANCH   7   8
ATOM      8  C   UNL     1      -6.103 -23.086  16.889  1.00  0.00     0.000 C 
BRANCH   8   9
ATOM      9  C   UNL     1      -7.084 -22.623  17.985  1.00  0.00     0.000 C 
BRANCH   9  10
ATOM     10  C   UNL     1      -8.376 -21.960  17.464  1.00  0.00     0.000 C 
BRANCH  10  11
ATOM     11  C   UNL     1      -9.192 -21.196  18.525  1.00  0.00     0.000 C 
BRANCH  11  12
ATOM     12  C   UNL     1     -10.397 -21.966  19.097  1.00  0.00     0.000 C 
BRANCH  12  13
ATOM     13  C   UNL     1     -10.713 -21.582  20.553  1.00  0.00     0.006 C 
BRANCH  13  14
ATOM     14  C   UNL     1      -9.898 -22.405  21.562  1.00  0.00     0.053 C 
BRANCH  14  15
ATOM     15  C   UNL     1      -9.472 -21.586  22.745  1.00  0.00     0.041 C 
ATOM     16  O   UNL     1      -9.816 -20.376  22.837  1.00  0.00    -0.550 OA
ATOM     17  O   UNL     1      -8.689 -22.158  23.740  1.00  0.00    -0.550 OA
ENDBRANCH  14  15
ENDBRANCH  13  14
ENDBRANCH  12  13
ENDBRANCH  11  12
ENDBRANCH  10  11
ENDBRANCH   9  10
ENDBRANCH   8   9
ENDBRANCH   7   8
ENDBRANCH   6   7
ENDBRANCH   5   6
ENDBRANCH   4   5
ENDBRANCH   3   4
ENDBRANCH   2   3
ENDBRANCH   1   2
BRANCH   1  18
ATOM     18  C   UNL     1       2.796 -22.432  14.471  1.00  0.00     0.000 C 
BRANCH  18  19
ATOM     19  C   UNL     1       3.380 -22.900  15.816  1.00  0.00     0.000 C 
BRANCH  19  20
ATOM     20  C   UNL     1       3.857 -21.729  16.696  1.00  0.00     0.000 C 
BRANCH  20  21
ATOM     21  C   UNL     1       5.311 -21.288  16.439  1.00  0.00     0.000 C 
BRANCH  21  22
ATOM     22  C   UNL     1       6.338 -22.365  16.822  1.00  0.00     0.000 C 
BRANCH  22  23
ATOM     23  C   UNL     1       7.728 -21.754  17.050  1.00  0.00     0.000 C 
BRANCH  23  24
ATOM     24  C   UNL     1       8.834 -22.488  16.269  1.00  0.00    -0.000 C 
BRANCH  24  25
ATOM     25  C   UNL     1       9.045 -21.989  14.825  1.00  0.00    -0.000 C 
BRANCH  25  26
ATOM     26  C   UNL     1       8.008 -22.500  13.804  1.00  0.00    -0.000 C 
BRANCH  26  27
ATOM     27  C   UNL     1       8.114 -21.873  12.399  1.00  0.00    -0.000 C 
BRANCH  27  28
ATOM     28  C   UNL     1       7.519 -20.458  12.268  1.00  0.00    -0.000 C 
BRANCH  28  29
ATOM     29  C   UNL     1       7.927 -19.756  10.961  1.00  0.00    -0.000 C 
BRANCH  29  30
ATOM     30  C   UNL     1       8.968 -20.554  10.155  1.00  0.00    -0.000 C 
BRANCH  30  31
ATOM     31  C   UNL     1       8.503 -20.919   8.729  1.00  0.00    -0.003 C 
ATOM     32  C   UNL     1       8.029 -22.368   8.629  1.00  0.00     0.004 C 
ENDBRANCH  30  31
ENDBRANCH  29  30
ENDBRANCH  28  29
ENDBRANCH  27  28
ENDBRANCH  26  27
ENDBRANCH  25  26
ENDBRANCH  24  25
ENDBRANCH  23  24
ENDBRANCH  22  23
ENDBRANCH  21  22
ENDBRANCH  20  21
ENDBRANCH  19  20
ENDBRANCH  18  19
ENDBRANCH   1  18
TORSDOF 28
ENDMDL
MODEL 6
REMARK VINA RESULT:    -0.960      1.375      2.463
REMARK INTER + INTRA:          -3.965
REMARK INTER:                  -4.281
REMARK INTRA:                   0.316
REMARK UNBOUND:                -1.433
REMARK SMILES CCCCCCCCCCCCCCCCCCCCCCCCCCCCCC(=O)[O-]
REMARK SMILES IDX 16 1 17 2 18 3 19 4 20 5 21 6 22 7 23 8 24 9 25 10 26 11
REMARK SMILES IDX 27 12 28 13 29 14 30 15 31 16 32 17 15 18 14 19 13 20 12 21
REMARK SMILES IDX 11 22 10 23 9 24 8 25 7 26 6 27 5 28 4 29 3 30 2 31 1 32
REMARK H PARENT
REMARK Flexibility Score: inf
ROOT
ATOM      1  C   UNL     1       0.262 -21.809  15.748  1.00  0.00     0.000 C 
ENDROOT
BRANCH   1   2
ATOM      2  C   UNL     1       0.894 -23.057  15.100  1.00  0.00     0.000 C 
BRANCH   2   3
ATOM      3  C   UNL     1       1.444 -22.863  13.673  1.00  0.00     0.000 C 
BRANCH   3   4
ATOM      4  C   UNL     1       2.949 -22.547  13.585  1.00  0.00     0.000 C 
BRANCH   4   5
ATOM      5  C   UNL     1       3.752 -23.124  14.759  1.00  0.00     0.000 C 
BRANCH   5   6
ATOM      6  C   UNL     1       3.306 -22.490  16.085  1.00  0.00     0.000 C 
BRANCH   6   7
ATOM      7  C   UNL     1       4.302 -21.440  16.610  1.00  0.00     0.000 C 
BRANCH   7   8
ATOM      8  C   UNL     1       5.737 -21.570  16.059  1.00  0.00     0.000 C 
BRANCH   8   9
ATOM      9  C   UNL     1       6.839 -21.692  17.130  1.00  0.00     0.000 C 
BRANCH   9  10
ATOM     10  C   UNL     1       7.784 -22.899  16.955  1.00  0.00     0.000 C 
BRANCH  10  11
ATOM     11  C   UNL     1       9.125 -22.583  16.263  1.00  0.00     0.000 C 
BRANCH  11  12
ATOM     12  C   UNL     1       9.108 -22.703  14.728  1.00  0.00     0.000 C 
BRANCH  12  13
ATOM     13  C   UNL     1       7.927 -21.957  14.084  1.00  0.00     0.006 C 
BRANCH  13  14
ATOM     14  C   UNL     1       8.318 -20.551  13.605  1.00  0.00     0.053 C 
BRANCH  14  15
ATOM     15  C   UNL     1       8.052 -20.360  12.141  1.00  0.00     0.041 C 
ATOM     16  O   UNL     1       7.653 -19.244  11.708  1.00  0.00    -0.550 OA
ATOM     17  O   UNL     1       8.237 -21.415  11.257  1.00  0.00    -0.550 OA
ENDBRANCH  14  15
ENDBRANCH  13  14
ENDBRANCH  12  13
ENDBRANCH  11  12
ENDBRANCH  10  11
ENDBRANCH   9  10
ENDBRANCH   8   9
ENDBRANCH   7   8
ENDBRANCH   6   7
ENDBRANCH   5   6
ENDBRANCH   4   5
ENDBRANCH   3   4
ENDBRANCH   2   3
ENDBRANCH   1   2
BRANCH   1  18
ATOM     18  C   UNL     1      -0.979 -22.102  16.618  1.00  0.00     0.000 C 
BRANCH  18  19
ATOM     19  C   UNL     1      -2.294 -21.642  15.963  1.00  0.00     0.000 C 
BRANCH  19  20
ATOM     20  C   UNL     1      -3.232 -22.817  15.628  1.00  0.00     0.000 C 
BRANCH  20  21
ATOM     21  C   UNL     1      -4.336 -23.072  16.673  1.00  0.00     0.000 C 
BRANCH  21  22
ATOM     22  C   UNL     1      -5.642 -22.328  16.355  1.00  0.00     0.000 C 
BRANCH  22  23
ATOM     23  C   UNL     1      -6.848 -23.014  17.013  1.00  0.00     0.000 C 
BRANCH  23  24
ATOM     24  C   UNL     1      -7.006 -22.640  18.498  1.00  0.00    -0.000 C 
BRANCH  24  25
ATOM     25  C   UNL     1      -8.337 -23.085  19.138  1.00  0.00    -0.000 C 
BRANCH  25  26
ATOM     26  C   UNL     1      -9.603 -22.604  18.401  1.00  0.00    -0.000 C 
BRANCH  26  27
ATOM     27  C   UNL     1      -9.493 -21.205  17.763  1.00  0.00    -0.000 C 
BRANCH  27  28
ATOM     28  C   UNL     1     -10.725 -20.299  17.955  1.00  0.00    -0.000 C 
BRANCH  28  29
ATOM     29  C   UNL     1     -11.018 -19.994  19.434  1.00  0.00    -0.000 C 
BRANCH  29  30
ATOM     30  C   UNL     1      -9.922 -19.140  20.096  1.00  0.00    -0.000 C 
BRANCH  30  31
ATOM     31  C   UNL     1     -10.442 -18.237  21.235  1.00  0.00    -0.003 C 
ATOM     32  C   UNL     1      -9.355 -17.917  22.261  1.00  0.00     0.004 C 
ENDBRANCH  30  31
ENDBRANCH  29  30
ENDBRANCH  28  29
ENDBRANCH  27  28
ENDBRANCH  26  27
ENDBRANCH  25  26
ENDBRANCH  24  25
ENDBRANCH  23  24
ENDBRANCH  22  23
ENDBRANCH  21  22
ENDBRANCH  20  21
ENDBRANCH  19  20
ENDBRANCH  18  19
ENDBRANCH   1  18
TORSDOF 28
ENDMDL
MODEL 7
REMARK VINA RESULT:    -0.671      1.240      1.870
REMARK INTER + INTRA:          -3.203
REMARK INTER:                  -1.683
REMARK INTRA:                  -1.521
REMARK UNBOUND:                -1.433
REMARK SMILES CCCCCCCCCCCCCCCCCCCCCCCCCCCCCC(=O)[O-]
REMARK SMILES IDX 16 1 17 2 18 3 19 4 20 5 21 6 22 7 23 8 24 9 25 10 26 11
REMARK SMILES IDX 27 12 28 13 29 14 30 15 31 16 32 17 15 18 14 19 13 20 12 21
REMARK SMILES IDX 11 22 10 23 9 24 8 25 7 26 6 27 5 28 4 29 3 30 2 31 1 32
REMARK H PARENT
REMARK Flexibility Score: inf
ROOT
ATOM      1  C   UNL     1      -1.563 -21.389  15.083  1.00  0.00     0.000 C 
ENDROOT
BRANCH   1   2
ATOM      2  C   UNL     1      -0.571 -22.167  15.973  1.00  0.00     0.000 C 
BRANCH   2   3
ATOM      3  C   UNL     1       0.381 -23.125  15.231  1.00  0.00     0.000 C 
BRANCH   3   4
ATOM      4  C   UNL     1       1.860 -22.693  15.205  1.00  0.00     0.000 C 
BRANCH   4   5
ATOM      5  C   UNL     1       2.356 -22.346  13.794  1.00  0.00     0.000 C 
BRANCH   5   6
ATOM      6  C   UNL     1       3.838 -22.718  13.633  1.00  0.00     0.000 C 
BRANCH   6   7
ATOM      7  C   UNL     1       4.681 -22.367  14.872  1.00  0.00     0.000 C 
BRANCH   7   8
ATOM      8  C   UNL     1       6.145 -22.848  14.822  1.00  0.00     0.000 C 
BRANCH   8   9
ATOM      9  C   UNL     1       7.196 -21.728  14.687  1.00  0.00     0.000 C 
BRANCH   9  10
ATOM     10  C   UNL     1       8.512 -22.152  14.002  1.00  0.00     0.000 C 
BRANCH  10  11
ATOM     11  C   UNL     1       8.347 -23.125  12.817  1.00  0.00     0.000 C 
BRANCH  11  12
ATOM     12  C   UNL     1       8.567 -22.500  11.427  1.00  0.00     0.000 C 
BRANCH  12  13
ATOM     13  C   UNL     1       8.847 -20.989  11.489  1.00  0.00     0.006 C 
BRANCH  13  14
ATOM     14  C   UNL     1       8.033 -20.203  10.451  1.00  0.00     0.053 C 
BRANCH  14  15
ATOM     15  C   UNL     1       8.149 -20.794   9.077  1.00  0.00     0.041 C 
ATOM     16  O   UNL     1       8.895 -20.254   8.215  1.00  0.00    -0.550 OA
ATOM     17  O   UNL     1       7.428 -21.934   8.747  1.00  0.00    -0.550 OA
ENDBRANCH  14  15
ENDBRANCH  13  14
ENDBRANCH  12  13
ENDBRANCH  11  12
ENDBRANCH  10  11
ENDBRANCH   9  10
ENDBRANCH   8   9
ENDBRANCH   7   8
ENDBRANCH   6   7
ENDBRANCH   5   6
ENDBRANCH   4   5
ENDBRANCH   3   4
ENDBRANCH   2   3
ENDBRANCH   1   2
BRANCH   1  18
ATOM     18  C   UNL     1      -3.041 -21.790  15.276  1.00  0.00     0.000 C 
BRANCH  18  19
ATOM     19  C   UNL     1      -3.414 -22.024  16.751  1.00  0.00     0.000 C 
BRANCH  19  20
ATOM     20  C   UNL     1      -4.706 -22.847  16.913  1.00  0.00     0.000 C 
BRANCH  20  21
ATOM     21  C   UNL     1      -5.188 -22.998  18.369  1.00  0.00     0.000 C 
BRANCH  21  22
ATOM     22  C   UNL     1      -6.718 -23.103  18.482  1.00  0.00     0.000 C 
BRANCH  22  23
ATOM     23  C   UNL     1      -7.415 -22.151  17.499  1.00  0.00     0.000 C 
BRANCH  23  24
ATOM     24  C   UNL     1      -8.781 -22.682  17.027  1.00  0.00    -0.000 C 
BRANCH  24  25
ATOM     25  C   UNL     1      -9.885 -22.670  18.103  1.00  0.00    -0.000 C 
BRANCH  25  26
ATOM     26  C   UNL     1     -10.474 -21.280  18.414  1.00  0.00    -0.000 C 
BRANCH  26  27
ATOM     27  C   UNL     1     -10.296 -20.808  19.872  1.00  0.00    -0.000 C 
BRANCH  27  28
ATOM     28  C   UNL     1      -9.816 -21.892  20.857  1.00  0.00    -0.000 C 
BRANCH  28  29
ATOM     29  C   UNL     1      -9.964 -21.471  22.329  1.00  0.00    -0.000 C 
BRANCH  29  30
ATOM     30  C   UNL     1     -10.328 -19.984  22.490  1.00  0.00    -0.000 C 
BRANCH  30  31
ATOM     31  C   UNL     1      -9.122 -19.084  22.838  1.00  0.00    -0.003 C 
ATOM     32  C   UNL     1      -9.199 -17.723  22.148  1.00  0.00     0.004 C 
ENDBRANCH  30  31
ENDBRANCH  29  30
ENDBRANCH  28  29
ENDBRANCH  27  28
ENDBRANCH  26  27
ENDBRANCH  25  26
ENDBRANCH  24  25
ENDBRANCH  23  24
ENDBRANCH  22  23
ENDBRANCH  21  22
ENDBRANCH  20  21
ENDBRANCH  19  20
ENDBRANCH  18  19
ENDBRANCH   1  18
TORSDOF 28
ENDMDL
MODEL 8
REMARK VINA RESULT:    -0.644      4.546     15.351
REMARK INTER + INTRA:          -3.130
REMARK INTER:                  -2.181
REMARK INTRA:                  -0.949
REMARK UNBOUND:                -1.433
REMARK SMILES CCCCCCCCCCCCCCCCCCCCCCCCCCCCCC(=O)[O-]
REMARK SMILES IDX 16 1 17 2 18 3 19 4 20 5 21 6 22 7 23 8 24 9 25 10 26 11
REMARK SMILES IDX 27 12 28 13 29 14 30 15 31 16 32 17 15 18 14 19 13 20 12 21
REMARK SMILES IDX 11 22 10 23 9 24 8 25 7 26 6 27 5 28 4 29 3 30 2 31 1 32
REMARK H PARENT
REMARK Flexibility Score: inf
ROOT
ATOM      1  C   UNL     1      -3.764 -21.503  15.260  1.00  0.00     0.000 C 
ENDROOT
BRANCH   1   2
ATOM      2  C   UNL     1      -4.937 -21.778  16.222  1.00  0.00     0.000 C 
BRANCH   2   3
ATOM      3  C   UNL     1      -6.136 -22.533  15.615  1.00  0.00     0.000 C 
BRANCH   3   4
ATOM      4  C   UNL     1      -7.127 -23.124  16.636  1.00  0.00     0.000 C 
BRANCH   4   5
ATOM      5  C   UNL     1      -7.317 -22.231  17.871  1.00  0.00     0.000 C 
BRANCH   5   6
ATOM      6  C   UNL     1      -7.693 -23.074  19.098  1.00  0.00     0.000 C 
BRANCH   6   7
ATOM      7  C   UNL     1      -8.132 -22.218  20.300  1.00  0.00     0.000 C 
BRANCH   7   8
ATOM      8  C   UNL     1      -9.621 -21.820  20.308  1.00  0.00     0.000 C 
BRANCH   8   9
ATOM      9  C   UNL     1      -9.933 -20.472  20.989  1.00  0.00     0.000 C 
BRANCH   9  10
ATOM     10  C   UNL     1     -10.058 -19.272  20.027  1.00  0.00     0.000 C 
BRANCH  10  11
ATOM     11  C   UNL     1     -10.918 -19.526  18.773  1.00  0.00     0.000 C 
BRANCH  11  12
ATOM     12  C   UNL     1     -11.034 -21.002  18.352  1.00  0.00     0.000 C 
BRANCH  12  13
ATOM     13  C   UNL     1     -11.079 -21.186  16.826  1.00  0.00     0.006 C 
BRANCH  13  14
ATOM     14  C   UNL     1     -10.418 -20.019  16.079  1.00  0.00     0.053 C 
BRANCH  14  15
ATOM     15  C   UNL     1     -10.126 -20.358  14.647  1.00  0.00     0.041 C 
ATOM     16  O   UNL     1     -11.065 -20.655  13.859  1.00  0.00    -0.550 OA
ATOM     17  O   UNL     1      -8.815 -20.353  14.185  1.00  0.00    -0.550 OA
ENDBRANCH  14  15
ENDBRANCH  13  14
ENDBRANCH  12  13
ENDBRANCH  11  12
ENDBRANCH  10  11
ENDBRANCH   9  10
ENDBRANCH   8   9
ENDBRANCH   7   8
ENDBRANCH   6   7
ENDBRANCH   5   6
ENDBRANCH   4   5
ENDBRANCH   3   4
ENDBRANCH   2   3
ENDBRANCH   1   2
BRANCH   1  18
ATOM     18  C   UNL     1      -2.455 -22.235  15.625  1.00  0.00     0.000 C 
BRANCH  18  19
ATOM     19  C   UNL     1      -1.259 -21.280  15.796  1.00  0.00     0.000 C 
BRANCH  19  20
ATOM     20  C   UNL     1      -0.184 -21.839  16.747  1.00  0.00     0.000 C 
BRANCH  20  21
ATOM     21  C   UNL     1       1.237 -21.874  16.154  1.00  0.00     0.000 C 
BRANCH  21  22
ATOM     22  C   UNL     1       1.309 -22.640  14.823  1.00  0.00     0.000 C 
BRANCH  22  23
ATOM     23  C   UNL     1       2.604 -22.316  14.064  1.00  0.00     0.000 C 
BRANCH  23  24
ATOM     24  C   UNL     1       3.810 -23.125  14.575  1.00  0.00    -0.000 C 
BRANCH  24  25
ATOM     25  C   UNL     1       5.166 -22.396  14.476  1.00  0.00    -0.000 C 
BRANCH  25  26
ATOM     26  C   UNL     1       5.587 -21.635  15.749  1.00  0.00    -0.000 C 
BRANCH  26  27
ATOM     27  C   UNL     1       7.029 -21.908  16.223  1.00  0.00    -0.000 C 
BRANCH  27  28
ATOM     28  C   UNL     1       8.030 -22.263  15.107  1.00  0.00    -0.000 C 
BRANCH  28  29
ATOM     29  C   UNL     1       8.552 -21.026  14.356  1.00  0.00    -0.000 C 
BRANCH  29  30
ATOM     30  C   UNL     1       9.029 -21.351  12.929  1.00  0.00    -0.000 C 
BRANCH  30  31
ATOM     31  C   UNL     1       7.979 -21.047  11.838  1.00  0.00    -0.003 C 
ATOM     32  C   UNL     1       8.491 -20.040  10.809  1.00  0.00     0.004 C 
ENDBRANCH  30  31
ENDBRANCH  29  30
ENDBRANCH  28  29
ENDBRANCH  27  28
ENDBRANCH  26  27
ENDBRANCH  25  26
ENDBRANCH  24  25
ENDBRANCH  23  24
ENDBRANCH  22  23
ENDBRANCH  21  22
ENDBRANCH  20  21
ENDBRANCH  19  20
ENDBRANCH  18  19
ENDBRANCH   1  18
TORSDOF 28
ENDMDL
MODEL 9
REMARK VINA RESULT:    -0.360      5.429     15.959
REMARK INTER + INTRA:          -2.383
REMARK INTER:                  -0.601
REMARK INTRA:                  -1.782
REMARK UNBOUND:                -1.433
REMARK SMILES CCCCCCCCCCCCCCCCCCCCCCCCCCCCCC(=O)[O-]
REMARK SMILES IDX 16 1 17 2 18 3 19 4 20 5 21 6 22 7 23 8 24 9 25 10 26 11
REMARK SMILES IDX 27 12 28 13 29 14 30 15 31 16 32 17 15 18 14 19 13 20 12 21
REMARK SMILES IDX 11 22 10 23 9 24 8 25 7 26 6 27 5 28 4 29 3 30 2 31 1 32
REMARK H PARENT
REMARK Flexibility Score: inf
ROOT
ATOM      1  C   UNL     1      -2.455 -21.164  15.521  1.00  0.00     0.000 C 
ENDROOT
BRANCH   1   2
ATOM      2  C   UNL     1      -3.895 -20.958  15.007  1.00  0.00     0.000 C 
BRANCH   2   3
ATOM      3  C   UNL     1      -4.964 -21.879  15.627  1.00  0.00     0.000 C 
BRANCH   3   4
ATOM      4  C   UNL     1      -5.409 -21.503  17.054  1.00  0.00     0.000 C 
BRANCH   4   5
ATOM      5  C   UNL     1      -5.968 -22.698  17.840  1.00  0.00     0.000 C 
BRANCH   5   6
ATOM      6  C   UNL     1      -7.343 -23.111  17.295  1.00  0.00     0.000 C 
BRANCH   6   7
ATOM      7  C   UNL     1      -8.488 -22.828  18.286  1.00  0.00     0.000 C 
BRANCH   7   8
ATOM      8  C   UNL     1      -9.906 -22.961  17.697  1.00  0.00     0.000 C 
BRANCH   8   9
ATOM      9  C   UNL     1     -10.676 -21.634  17.542  1.00  0.00     0.000 C 
BRANCH   9  10
ATOM     10  C   UNL     1     -10.270 -20.528  18.539  1.00  0.00     0.000 C 
BRANCH  10  11
ATOM     11  C   UNL     1     -11.125 -20.458  19.821  1.00  0.00     0.000 C 
BRANCH  11  12
ATOM     12  C   UNL     1     -10.419 -20.943  21.100  1.00  0.00     0.000 C 
BRANCH  12  13
ATOM     13  C   UNL     1      -9.145 -20.142  21.419  1.00  0.00     0.006 C 
BRANCH  13  14
ATOM     14  C   UNL     1      -9.247 -19.396  22.758  1.00  0.00     0.053 C 
BRANCH  14  15
ATOM     15  C   UNL     1      -9.194 -17.907  22.580  1.00  0.00     0.041 C 
ATOM     16  O   UNL     1      -9.241 -17.145  23.585  1.00  0.00    -0.550 OA
ATOM     17  O   UNL     1      -9.102 -17.362  21.306  1.00  0.00    -0.550 OA
ENDBRANCH  14  15
ENDBRANCH  13  14
ENDBRANCH  12  13
ENDBRANCH  11  12
ENDBRANCH  10  11
ENDBRANCH   9  10
ENDBRANCH   8   9
ENDBRANCH   7   8
ENDBRANCH   6   7
ENDBRANCH   5   6
ENDBRANCH   4   5
ENDBRANCH   3   4
ENDBRANCH   2   3
ENDBRANCH   1   2
BRANCH   1  18
ATOM     18  C   UNL     1      -2.159 -22.591  16.032  1.00  0.00     0.000 C 
BRANCH  18  19
ATOM     19  C   UNL     1      -0.791 -23.123  15.570  1.00  0.00     0.000 C 
BRANCH  19  20
ATOM     20  C   UNL     1       0.296 -22.032  15.554  1.00  0.00     0.000 C 
BRANCH  20  21
ATOM     21  C   UNL     1       1.740 -22.569  15.555  1.00  0.00     0.000 C 
BRANCH  21  22
ATOM     22  C   UNL     1       2.413 -22.472  14.176  1.00  0.00     0.000 C 
BRANCH  22  23
ATOM     23  C   UNL     1       3.824 -23.077  14.202  1.00  0.00     0.000 C 
BRANCH  23  24
ATOM     24  C   UNL     1       4.929 -22.006  14.263  1.00  0.00    -0.000 C 
BRANCH  24  25
ATOM     25  C   UNL     1       5.480 -21.727  15.675  1.00  0.00    -0.000 C 
BRANCH  25  26
ATOM     26  C   UNL     1       7.006 -21.893  15.821  1.00  0.00    -0.000 C 
BRANCH  26  27
ATOM     27  C   UNL     1       7.848 -20.786  15.155  1.00  0.00    -0.000 C 
BRANCH  27  28
ATOM     28  C   UNL     1       8.892 -21.281  14.135  1.00  0.00    -0.000 C 
BRANCH  28  29
ATOM     29  C   UNL     1       8.447 -21.079  12.676  1.00  0.00    -0.000 C 
BRANCH  29  30
ATOM     30  C   UNL     1       8.463 -19.601  12.247  1.00  0.00    -0.000 C 
BRANCH  30  31
ATOM     31  C   UNL     1       7.871 -19.356  10.842  1.00  0.00    -0.003 C 
ATOM     32  C   UNL     1       8.300 -20.426   9.840  1.00  0.00     0.004 C 
ENDBRANCH  30  31
ENDBRANCH  29  30
ENDBRANCH  28  29
ENDBRANCH  27  28
ENDBRANCH  26  27
ENDBRANCH  25  26
ENDBRANCH  24  25
ENDBRANCH  23  24
ENDBRANCH  22  23
ENDBRANCH  21  22
ENDBRANCH  20  21
ENDBRANCH  19  20
ENDBRANCH  18  19
ENDBRANCH   1  18
TORSDOF 28
ENDMDL
