MODEL 1
REMARK VINA RESULT:    -3.556      0.000      0.000
REMARK INTER + INTRA:          -4.277
REMARK INTER:                  -4.908
REMARK INTRA:                   0.630
REMARK UNBOUND:                 0.630
REMARK SMILES O=C([O-])[C@H]1O[C@@H](Oc2cc3oc(-c4ccccc4)cc(=O)c3c(O)c2O)[C@@H](O)[C@H](O)[C@H]1O
REMARK SMILES IDX 7 1 6 2 4 3 31 4 5 5 29 6 27 7 2 8 1 9 3 10 32 11 30 13
REMARK SMILES IDX 28 15 8 17 25 18 9 19 23 20 10 21 22 22 11 23 20 24 12 25
REMARK SMILES IDX 19 26 21 27 26 28 24 30 13 32 14 33 18 34 15 35 17 36 16 37
REMARK H PARENT 32 12 30 14 28 16 26 29 24 31
REMARK Flexibility Score: inf
ROOT
ATOM      1  O   UNL     1     -15.041 -15.091 -16.058  1.00  0.00    -0.458 OA
ENDROOT
BRANCH   1   2
ATOM      2  C   UNL     1     -13.869 -15.209 -16.868  1.00  0.00     0.339 C 
ATOM      3  C   UNL     1     -13.742 -17.593 -16.825  1.00  0.00     0.199 C 
ATOM      4  C   UNL     1     -12.487 -17.561 -15.914  1.00  0.00     0.180 C 
ATOM      5  O   UNL     1     -13.874 -16.419 -17.619  1.00  0.00    -0.328 OA
ATOM      6  C   UNL     1     -12.418 -16.266 -15.080  1.00  0.00     0.181 C 
ATOM      7  C   UNL     1     -12.591 -15.058 -16.017  1.00  0.00     0.214 C 
BRANCH   3   8
ATOM      8  C   UNL     1     -15.043 -17.957 -16.145  1.00  0.00     0.073 C 
ATOM      9  O   UNL     1     -16.104 -18.002 -16.822  1.00  0.00    -0.547 OA
ATOM     10  O   UNL     1     -15.109 -18.183 -14.775  1.00  0.00    -0.547 OA
ENDBRANCH   3   8
BRANCH   4  11
ATOM     11  O   UNL     1     -12.391 -18.718 -15.117  1.00  0.00    -0.387 OA
ATOM     12  H   UNL     1     -12.808 -19.471 -15.606  1.00  0.00     0.211 HD
ENDBRANCH   4  11
BRANCH   6  13
ATOM     13  O   UNL     1     -11.203 -16.186 -14.375  1.00  0.00    -0.387 OA
ATOM     14  H   UNL     1     -10.985 -15.225 -14.252  1.00  0.00     0.211 HD
ENDBRANCH   6  13
BRANCH   7  15
ATOM     15  O   UNL     1     -12.599 -13.849 -15.299  1.00  0.00    -0.384 OA
ATOM     16  H   UNL     1     -11.763 -13.360 -15.514  1.00  0.00     0.211 HD
ENDBRANCH   7  15
ENDBRANCH   1   2
BRANCH   1  17
ATOM     17  C   UNL     1     -15.116 -14.407 -14.832  1.00  0.00     0.172 A 
ATOM     18  C   UNL     1     -15.032 -13.011 -14.847  1.00  0.00     0.201 A 
ATOM     19  C   UNL     1     -15.271 -15.077 -13.610  1.00  0.00     0.098 A 
ATOM     20  C   UNL     1     -15.098 -12.270 -13.651  1.00  0.00     0.176 A 
ATOM     21  C   UNL     1     -15.298 -14.367 -12.409  1.00  0.00     0.146 A 
ATOM     22  C   UNL     1     -15.183 -12.955 -12.403  1.00  0.00     0.111 A 
ATOM     23  O   UNL     1     -15.423 -15.047 -11.274  1.00  0.00    -0.456 OA
ATOM     24  C   UNL     1     -15.121 -12.326 -11.136  1.00  0.00     0.197 A 
ATOM     25  C   UNL     1     -15.431 -14.475 -10.075  1.00  0.00     0.138 A 
ATOM     26  C   UNL     1     -15.265 -13.088  -9.976  1.00  0.00     0.100 A 
ATOM     27  O   UNL     1     -14.902 -11.093 -11.013  1.00  0.00    -0.289 OA
BRANCH  18  28
ATOM     28  O   UNL     1     -14.896 -12.366 -16.078  1.00  0.00    -0.502 OA
ATOM     29  H   UNL     1     -14.034 -12.379 -16.610  1.00  0.00     0.293 HD
ENDBRANCH  18  28
BRANCH  20  30
ATOM     30  O   UNL     1     -15.106 -10.876 -13.761  1.00  0.00    -0.504 OA
ATOM     31  H   UNL     1     -14.304 -10.284 -13.604  1.00  0.00     0.293 HD
ENDBRANCH  20  30
BRANCH  25  32
ATOM     32  C   UNL     1     -15.589 -15.334  -8.875  1.00  0.00     0.017 A 
ATOM     33  C   UNL     1     -15.406 -14.829  -7.572  1.00  0.00     0.012 A 
ATOM     34  C   UNL     1     -15.961 -16.683  -9.031  1.00  0.00     0.012 A 
ATOM     35  C   UNL     1     -15.571 -15.660  -6.460  1.00  0.00     0.001 A 
ATOM     36  C   UNL     1     -16.125 -17.509  -7.915  1.00  0.00     0.001 A 
ATOM     37  C   UNL     1     -15.927 -16.999  -6.631  1.00  0.00     0.000 A 
ENDBRANCH  25  32
ENDBRANCH   1  17
TORSDOF 9
ENDMDL
