MODEL 1
REMARK VINA RESULT:    -4.697      0.000      0.000
REMARK INTER + INTRA:          -4.835
REMARK INTER:                  -4.835
REMARK INTRA:                   0.000
REMARK UNBOUND:                 0.000
REMARK SMILES Nc1ncnc2nc[nH]c12
REMARK SMILES IDX 8 1 7 2 6 3 5 4 4 5 3 6 2 7 10 8 9 9 1 11
REMARK H PARENT 9 10 1 12 1 13
REMARK Flexibility Score: inf
ROOT
ATOM      1  C   UNL     1      44.068 -48.174  19.875  1.00  0.00     0.199 A 
ATOM      2  N   UNL     1      43.751 -49.279  20.604  1.00  0.00    -0.217 NA
ATOM      3  C   UNL     1      42.535 -48.967  21.081  1.00  0.00     0.182 A 
ATOM      4  N   UNL     1      41.759 -49.738  21.880  1.00  0.00    -0.215 NA
ATOM      5  C   UNL     1      40.543 -49.247  22.266  1.00  0.00     0.226 A 
ATOM      6  N   UNL     1      40.129 -48.006  21.851  1.00  0.00    -0.217 NA
ATOM      7  C   UNL     1      40.912 -47.227  21.045  1.00  0.00     0.152 A 
ATOM      8  C   UNL     1      42.146 -47.741  20.661  1.00  0.00     0.127 A 
ATOM      9  N   UNL     1      43.107 -47.216  19.890  1.00  0.00    -0.340 N 
ATOM     10  H   UNL     1      43.124 -46.290  19.410  1.00  0.00     0.168 HD
ENDROOT
BRANCH   7  11
ATOM     11  N   UNL     1      40.460 -45.938  20.625  1.00  0.00    -0.382 N 
ATOM     12  H   UNL     1      40.202 -45.776  19.627  1.00  0.00     0.158 HD
ATOM     13  H   UNL     1      40.379 -45.145  21.298  1.00  0.00     0.158 HD
ENDBRANCH   7  11
TORSDOF 1
ENDMDL
MODEL 2
REMARK VINA RESULT:    -4.374      0.891      2.981
REMARK INTER + INTRA:          -4.501
REMARK INTER:                  -4.501
REMARK INTRA:                   0.000
REMARK UNBOUND:                 0.000
REMARK SMILES Nc1ncnc2nc[nH]c12
REMARK SMILES IDX 8 1 7 2 6 3 5 4 4 5 3 6 2 7 10 8 9 9 1 11
REMARK H PARENT 9 10 1 12 1 13
REMARK Flexibility Score: inf
ROOT
ATOM      1  C   UNL     1      39.696 -46.796  21.185  1.00  0.00     0.199 A 
ATOM      2  N   UNL     1      39.555 -47.996  21.812  1.00  0.00    -0.217 NA
ATOM      3  C   UNL     1      40.759 -48.561  21.623  1.00  0.00     0.182 A 
ATOM      4  N   UNL     1      41.156 -49.782  22.055  1.00  0.00    -0.215 NA
ATOM      5  C   UNL     1      42.428 -50.187  21.764  1.00  0.00     0.226 A 
ATOM      6  N   UNL     1      43.273 -49.372  21.052  1.00  0.00    -0.217 NA
ATOM      7  C   UNL     1      42.874 -48.140  20.615  1.00  0.00     0.152 A 
ATOM      8  C   UNL     1      41.576 -47.742  20.920  1.00  0.00     0.127 A 
ATOM      9  N   UNL     1      40.921 -46.611  20.630  1.00  0.00    -0.340 N 
ATOM     10  H   UNL     1      41.261 -45.778  20.103  1.00  0.00     0.168 HD
ENDROOT
BRANCH   7  11
ATOM     11  N   UNL     1      43.771 -47.310  19.877  1.00  0.00    -0.382 N 
ATOM     12  H   UNL     1      43.801 -47.371  18.835  1.00  0.00     0.158 HD
ATOM     13  H   UNL     1      44.405 -46.634  20.356  1.00  0.00     0.158 HD
ENDBRANCH   7  11
TORSDOF 1
ENDMDL
MODEL 3
REMARK VINA RESULT:    -4.285      1.019      2.958
REMARK INTER + INTRA:          -4.411
REMARK INTER:                  -4.411
REMARK INTRA:                   0.000
REMARK UNBOUND:                 0.000
REMARK SMILES Nc1ncnc2nc[nH]c12
REMARK SMILES IDX 8 1 7 2 6 3 5 4 4 5 3 6 2 7 10 8 9 9 1 11
REMARK H PARENT 9 10 1 12 1 13
REMARK Flexibility Score: inf
ROOT
ATOM      1  C   UNL     1      40.493 -49.632  23.399  1.00  0.00     0.199 A 
ATOM      2  N   UNL     1      41.603 -50.333  23.040  1.00  0.00    -0.217 NA
ATOM      3  C   UNL     1      42.128 -49.562  22.073  1.00  0.00     0.182 A 
ATOM      4  N   UNL     1      43.258 -49.807  21.368  1.00  0.00    -0.215 NA
ATOM      5  C   UNL     1      43.635 -48.899  20.418  1.00  0.00     0.226 A 
ATOM      6  N   UNL     1      42.883 -47.774  20.192  1.00  0.00    -0.217 NA
ATOM      7  C   UNL     1      41.742 -47.526  20.902  1.00  0.00     0.152 A 
ATOM      8  C   UNL     1      41.372 -48.459  21.865  1.00  0.00     0.127 A 
ATOM      9  N   UNL     1      40.324 -48.480  22.699  1.00  0.00    -0.340 N 
ATOM     10  H   UNL     1      39.554 -47.784  22.797  1.00  0.00     0.168 HD
ENDROOT
BRANCH   7  11
ATOM     11  N   UNL     1      40.975 -46.347  20.649  1.00  0.00    -0.382 N 
ATOM     12  H   UNL     1      41.361 -45.596  20.035  1.00  0.00     0.158 HD
ATOM     13  H   UNL     1      40.029 -46.215  21.067  1.00  0.00     0.158 HD
ENDBRANCH   7  11
TORSDOF 1
ENDMDL
MODEL 4
REMARK VINA RESULT:    -4.224     15.311     16.822
REMARK INTER + INTRA:          -4.348
REMARK INTER:                  -4.348
REMARK INTRA:                   0.000
REMARK UNBOUND:                 0.000
REMARK SMILES Nc1ncnc2nc[nH]c12
REMARK SMILES IDX 8 1 7 2 6 3 5 4 4 5 3 6 2 7 10 8 9 9 1 11
REMARK H PARENT 9 10 1 12 1 13
REMARK Flexibility Score: inf
ROOT
ATOM      1  C   UNL     1      28.205 -39.749  28.953  1.00  0.00     0.199 A 
ATOM      2  N   UNL     1      29.415 -39.341  28.480  1.00  0.00    -0.217 NA
ATOM      3  C   UNL     1      29.353 -39.702  27.187  1.00  0.00     0.182 A 
ATOM      4  N   UNL     1      30.315 -39.523  26.251  1.00  0.00    -0.215 NA
ATOM      5  C   UNL     1      30.067 -39.960  24.980  1.00  0.00     0.226 A 
ATOM      6  N   UNL     1      28.874 -40.562  24.670  1.00  0.00    -0.217 NA
ATOM      7  C   UNL     1      27.902 -40.744  25.614  1.00  0.00     0.152 A 
ATOM      8  C   UNL     1      28.169 -40.294  26.903  1.00  0.00     0.127 A 
ATOM      9  N   UNL     1      27.421 -40.335  28.012  1.00  0.00    -0.340 N 
ATOM     10  H   UNL     1      26.461 -40.723  28.137  1.00  0.00     0.168 HD
ENDROOT
BRANCH   7  11
ATOM     11  N   UNL     1      26.667 -41.374  25.268  1.00  0.00    -0.382 N 
ATOM     12  H   UNL     1      26.667 -42.342  24.878  1.00  0.00     0.158 HD
ATOM     13  H   UNL     1      25.754 -40.886  25.397  1.00  0.00     0.158 HD
ENDBRANCH   7  11
TORSDOF 1
ENDMDL
MODEL 5
REMARK VINA RESULT:    -4.220     17.261     18.324
REMARK INTER + INTRA:          -4.343
REMARK INTER:                  -4.343
REMARK INTRA:                   0.000
REMARK UNBOUND:                 0.000
REMARK SMILES Nc1ncnc2nc[nH]c12
REMARK SMILES IDX 8 1 7 2 6 3 5 4 4 5 3 6 2 7 10 8 9 9 1 11
REMARK H PARENT 9 10 1 12 1 13
REMARK Flexibility Score: inf
ROOT
ATOM      1  C   UNL     1      42.175 -54.764  38.253  1.00  0.00     0.199 A 
ATOM      2  N   UNL     1      41.470 -53.682  37.821  1.00  0.00    -0.217 NA
ATOM      3  C   UNL     1      42.340 -52.678  38.016  1.00  0.00     0.182 A 
ATOM      4  N   UNL     1      42.134 -51.367  37.745  1.00  0.00    -0.215 NA
ATOM      5  C   UNL     1      43.145 -50.486  38.013  1.00  0.00     0.226 A 
ATOM      6  N   UNL     1      44.332 -50.928  38.540  1.00  0.00    -0.217 NA
ATOM      7  C   UNL     1      44.542 -52.251  38.814  1.00  0.00     0.152 A 
ATOM      8  C   UNL     1      43.503 -53.134  38.536  1.00  0.00     0.127 A 
ATOM      9  N   UNL     1      43.422 -54.461  38.696  1.00  0.00    -0.340 N 
ATOM     10  H   UNL     1      44.140 -55.118  39.072  1.00  0.00     0.168 HD
ENDROOT
BRANCH   7  11
ATOM     11  N   UNL     1      45.786 -52.688  39.363  1.00  0.00    -0.382 N 
ATOM     12  H   UNL     1      46.608 -52.044  39.371  1.00  0.00     0.158 HD
ATOM     13  H   UNL     1      45.897 -53.645  39.763  1.00  0.00     0.158 HD
ENDBRANCH   7  11
TORSDOF 1
ENDMDL
MODEL 6
REMARK VINA RESULT:    -4.179     15.672     16.736
REMARK INTER + INTRA:          -4.301
REMARK INTER:                  -4.301
REMARK INTRA:                   0.000
REMARK UNBOUND:                 0.000
REMARK SMILES Nc1ncnc2nc[nH]c12
REMARK SMILES IDX 8 1 7 2 6 3 5 4 4 5 3 6 2 7 10 8 9 9 1 11
REMARK H PARENT 9 10 1 12 1 13
REMARK Flexibility Score: inf
ROOT
ATOM      1  C   UNL     1      27.675 -41.624  25.023  1.00  0.00     0.199 A 
ATOM      2  N   UNL     1      28.617 -42.314  25.723  1.00  0.00    -0.217 NA
ATOM      3  C   UNL     1      28.830 -41.514  26.781  1.00  0.00     0.182 A 
ATOM      4  N   UNL     1      29.690 -41.737  27.803  1.00  0.00    -0.215 NA
ATOM      5  C   UNL     1      29.767 -40.802  28.797  1.00  0.00     0.226 A 
ATOM      6  N   UNL     1      28.991 -39.671  28.751  1.00  0.00    -0.217 NA
ATOM      7  C   UNL     1      28.123 -39.444  27.720  1.00  0.00     0.152 A 
ATOM      8  C   UNL     1      28.056 -40.406  26.717  1.00  0.00     0.127 A 
ATOM      9  N   UNL     1      27.311 -40.453  25.606  1.00  0.00    -0.340 N 
ATOM     10  H   UNL     1      26.613 -39.761  25.258  1.00  0.00     0.168 HD
ENDROOT
BRANCH   7  11
ATOM     11  N   UNL     1      27.325 -38.259  27.694  1.00  0.00    -0.382 N 
ATOM     12  H   UNL     1      27.325 -37.649  26.847  1.00  0.00     0.158 HD
ATOM     13  H   UNL     1      26.735 -37.984  28.509  1.00  0.00     0.158 HD
ENDBRANCH   7  11
TORSDOF 1
ENDMDL
MODEL 7
REMARK VINA RESULT:    -4.174     14.319     14.913
REMARK INTER + INTRA:          -4.296
REMARK INTER:                  -4.296
REMARK INTRA:                   0.000
REMARK UNBOUND:                 0.000
REMARK SMILES Nc1ncnc2nc[nH]c12
REMARK SMILES IDX 8 1 7 2 6 3 5 4 4 5 3 6 2 7 10 8 9 9 1 11
REMARK H PARENT 9 10 1 12 1 13
REMARK Flexibility Score: inf
ROOT
ATOM      1  C   UNL     1      43.513 -40.811  31.251  1.00  0.00     0.199 A 
ATOM      2  N   UNL     1      42.392 -40.192  31.713  1.00  0.00    -0.217 NA
ATOM      3  C   UNL     1      42.495 -40.368  33.041  1.00  0.00     0.182 A 
ATOM      4  N   UNL     1      41.622 -39.937  33.983  1.00  0.00    -0.215 NA
ATOM      5  C   UNL     1      41.899 -40.213  35.293  1.00  0.00     0.226 A 
ATOM      6  N   UNL     1      43.032 -40.908  35.634  1.00  0.00    -0.217 NA
ATOM      7  C   UNL     1      43.913 -41.344  34.684  1.00  0.00     0.152 A 
ATOM      8  C   UNL     1      43.617 -41.055  33.356  1.00  0.00     0.127 A 
ATOM      9  N   UNL     1      44.283 -41.348  32.232  1.00  0.00    -0.340 N 
ATOM     10  H   UNL     1      45.181 -41.867  32.122  1.00  0.00     0.168 HD
ENDROOT
BRANCH   7  11
ATOM     11  N   UNL     1      45.085 -42.066  35.063  1.00  0.00    -0.382 N 
ATOM     12  H   UNL     1      45.027 -42.811  35.793  1.00  0.00     0.158 HD
ATOM     13  H   UNL     1      46.011 -41.867  34.625  1.00  0.00     0.158 HD
ENDBRANCH   7  11
TORSDOF 1
ENDMDL
MODEL 8
REMARK VINA RESULT:    -4.115      1.653      2.707
REMARK INTER + INTRA:          -4.236
REMARK INTER:                  -4.236
REMARK INTRA:                   0.000
REMARK UNBOUND:                 0.000
REMARK SMILES Nc1ncnc2nc[nH]c12
REMARK SMILES IDX 8 1 7 2 6 3 5 4 4 5 3 6 2 7 10 8 9 9 1 11
REMARK H PARENT 9 10 1 12 1 13
REMARK Flexibility Score: inf
ROOT
ATOM      1  C   UNL     1      43.851 -48.925  21.043  1.00  0.00     0.199 A 
ATOM      2  N   UNL     1      43.159 -47.768  21.235  1.00  0.00    -0.217 NA
ATOM      3  C   UNL     1      41.901 -48.136  20.942  1.00  0.00     0.182 A 
ATOM      4  N   UNL     1      40.800 -47.348  20.974  1.00  0.00    -0.215 NA
ATOM      5  C   UNL     1      39.597 -47.905  20.641  1.00  0.00     0.226 A 
ATOM      6  N   UNL     1      39.518 -49.228  20.283  1.00  0.00    -0.217 NA
ATOM      7  C   UNL     1      40.627 -50.025  20.250  1.00  0.00     0.152 A 
ATOM      8  C   UNL     1      41.844 -49.442  20.592  1.00  0.00     0.127 A 
ATOM      9  N   UNL     1      43.074 -49.967  20.650  1.00  0.00    -0.340 N 
ATOM     10  H   UNL     1      43.378 -50.943  20.443  1.00  0.00     0.168 HD
ENDROOT
BRANCH   7  11
ATOM     11  N   UNL     1      40.520 -51.399  19.875  1.00  0.00    -0.382 N 
ATOM     12  H   UNL     1      40.842 -51.709  18.932  1.00  0.00     0.158 HD
ATOM     13  H   UNL     1      40.123 -52.110  20.527  1.00  0.00     0.158 HD
ENDBRANCH   7  11
TORSDOF 1
ENDMDL
MODEL 9
REMARK VINA RESULT:    -4.095     13.687     14.280
REMARK INTER + INTRA:          -4.215
REMARK INTER:                  -4.215
REMARK INTRA:                   0.000
REMARK UNBOUND:                 0.000
REMARK SMILES Nc1ncnc2nc[nH]c12
REMARK SMILES IDX 8 1 7 2 6 3 5 4 4 5 3 6 2 7 10 8 9 9 1 11
REMARK H PARENT 9 10 1 12 1 13
REMARK Flexibility Score: inf
ROOT
ATOM      1  C   UNL     1      43.895 -41.834  35.246  1.00  0.00     0.199 A 
ATOM      2  N   UNL     1      43.068 -42.623  34.506  1.00  0.00    -0.217 NA
ATOM      3  C   UNL     1      42.989 -41.946  33.348  1.00  0.00     0.182 A 
ATOM      4  N   UNL     1      42.280 -42.303  32.250  1.00  0.00    -0.215 NA
ATOM      5  C   UNL     1      42.323 -41.481  31.159  1.00  0.00     0.226 A 
ATOM      6  N   UNL     1      43.067 -40.328  31.185  1.00  0.00    -0.217 NA
ATOM      7  C   UNL     1      43.782 -39.967  32.291  1.00  0.00     0.152 A 
ATOM      8  C   UNL     1      43.728 -40.814  33.394  1.00  0.00     0.127 A 
ATOM      9  N   UNL     1      44.316 -40.721  34.593  1.00  0.00    -0.340 N 
ATOM     10  H   UNL     1      44.949 -39.974  34.953  1.00  0.00     0.168 HD
ENDROOT
BRANCH   7  11
ATOM     11  N   UNL     1      44.550 -38.762  32.294  1.00  0.00    -0.382 N 
ATOM     12  H   UNL     1      44.731 -38.261  33.192  1.00  0.00     0.158 HD
ATOM     13  H   UNL     1      44.940 -38.364  31.412  1.00  0.00     0.158 HD
ENDBRANCH   7  11
TORSDOF 1
ENDMDL
