MODEL 1
REMARK VINA RESULT:    -6.049      0.000      0.000
REMARK INTER + INTRA:          -7.284
REMARK INTER:                  -7.110
REMARK INTRA:                  -0.174
REMARK UNBOUND:                -0.174
REMARK SMILES CCC=Cc1oc(O)c2c(O)cccc12
REMARK SMILES IDX 7 1 6 2 5 3 15 4 14 5 13 6 12 7 10 8 9 9 8 10 4 12 3 13 2 14
REMARK SMILES IDX 1 15 11 16
REMARK H PARENT 8 11 11 17
REMARK Flexibility Score: inf
ROOT
ATOM      1  C   UNL     1      47.569 113.051  50.019  1.00  0.00     0.294 A 
ATOM      2  O   UNL     1      48.452 113.262  49.063  1.00  0.00    -0.425 OA
ATOM      3  C   UNL     1      47.816 113.650  47.973  1.00  0.00     0.138 A 
ATOM      4  C   UNL     1      46.449 113.671  48.233  1.00  0.00     0.035 A 
ATOM      5  C   UNL     1      45.339 113.921  47.422  1.00  0.00     0.013 A 
ATOM      6  C   UNL     1      44.061 113.823  48.002  1.00  0.00     0.005 A 
ATOM      7  C   UNL     1      43.915 113.464  49.359  1.00  0.00     0.047 A 
ATOM      8  C   UNL     1      45.049 113.184  50.149  1.00  0.00     0.130 A 
ATOM      9  C   UNL     1      46.301 113.297  49.545  1.00  0.00     0.108 A 
ENDROOT
BRANCH   1  10
ATOM     10  O   UNL     1      47.891 112.633  51.305  1.00  0.00    -0.480 OA
ATOM     11  H   UNL     1      47.205 112.155  51.876  1.00  0.00     0.297 HD
ENDBRANCH   1  10
BRANCH   3  12
ATOM     12  C   UNL     1      48.515 113.970  46.717  1.00  0.00     0.043 C 
ATOM     13  C   UNL     1      49.835 113.829  46.568  1.00  0.00    -0.023 C 
BRANCH  13  14
ATOM     14  C   UNL     1      50.513 114.124  45.261  1.00  0.00     0.024 C 
ATOM     15  C   UNL     1      51.904 113.498  45.205  1.00  0.00     0.008 C 
ENDBRANCH  13  14
ENDBRANCH   3  12
BRANCH   8  16
ATOM     16  O   UNL     1      44.928 112.805  51.484  1.00  0.00    -0.507 OA
ATOM     17  H   UNL     1      45.088 111.848  51.776  1.00  0.00     0.293 HD
ENDBRANCH   8  16
TORSDOF 4
ENDMDL
MODEL 2
REMARK VINA RESULT:    -5.691      6.783      9.464
REMARK INTER + INTRA:          -6.863
REMARK INTER:                  -6.646
REMARK INTRA:                  -0.217
REMARK UNBOUND:                -0.174
REMARK SMILES CCC=Cc1oc(O)c2c(O)cccc12
REMARK SMILES IDX 7 1 6 2 5 3 15 4 14 5 13 6 12 7 10 8 9 9 8 10 4 12 3 13 2 14
REMARK SMILES IDX 1 15 11 16
REMARK H PARENT 8 11 11 17
REMARK Flexibility Score: inf
ROOT
ATOM      1  C   UNL     1      54.101 110.699  45.196  1.00  0.00     0.294 A 
ATOM      2  O   UNL     1      53.745 110.801  46.461  1.00  0.00    -0.425 OA
ATOM      3  C   UNL     1      54.222 111.932  46.950  1.00  0.00     0.138 A 
ATOM      4  C   UNL     1      54.940 112.584  45.953  1.00  0.00     0.035 A 
ATOM      5  C   UNL     1      55.706 113.754  45.955  1.00  0.00     0.013 A 
ATOM      6  C   UNL     1      56.347 114.125  44.759  1.00  0.00     0.005 A 
ATOM      7  C   UNL     1      56.230 113.324  43.602  1.00  0.00     0.047 A 
ATOM      8  C   UNL     1      55.478 112.132  43.635  1.00  0.00     0.130 A 
ATOM      9  C   UNL     1      54.850 111.796  44.834  1.00  0.00     0.108 A 
ENDROOT
BRANCH   1  10
ATOM     10  O   UNL     1      53.768 109.631  44.372  1.00  0.00    -0.480 OA
ATOM     11  H   UNL     1      52.847 109.214  44.420  1.00  0.00     0.297 HD
ENDBRANCH   1  10
BRANCH   3  12
ATOM     12  C   UNL     1      53.999 112.351  48.344  1.00  0.00     0.043 C 
ATOM     13  C   UNL     1      52.784 112.408  48.897  1.00  0.00    -0.023 C 
BRANCH  13  14
ATOM     14  C   UNL     1      52.595 112.800  50.334  1.00  0.00     0.024 C 
ATOM     15  C   UNL     1      53.782 113.611  50.847  1.00  0.00     0.008 C 
ENDBRANCH  13  14
ENDBRANCH   3  12
BRANCH   8  16
ATOM     16  O   UNL     1      55.367 111.313  42.513  1.00  0.00    -0.507 OA
ATOM     17  H   UNL     1      54.645 110.605  42.447  1.00  0.00     0.293 HD
ENDBRANCH   8  16
TORSDOF 4
ENDMDL
MODEL 3
REMARK VINA RESULT:    -5.538      7.164      9.144
REMARK INTER + INTRA:          -6.683
REMARK INTER:                  -6.507
REMARK INTRA:                  -0.176
REMARK UNBOUND:                -0.174
REMARK SMILES CCC=Cc1oc(O)c2c(O)cccc12
REMARK SMILES IDX 7 1 6 2 5 3 15 4 14 5 13 6 12 7 10 8 9 9 8 10 4 12 3 13 2 14
REMARK SMILES IDX 1 15 11 16
REMARK H PARENT 8 11 11 17
REMARK Flexibility Score: inf
ROOT
ATOM      1  C   UNL     1      49.617 107.684  53.386  1.00  0.00     0.294 A 
ATOM      2  O   UNL     1      48.673 108.531  53.744  1.00  0.00    -0.425 OA
ATOM      3  C   UNL     1      47.495 107.974  53.531  1.00  0.00     0.138 A 
ATOM      4  C   UNL     1      47.689 106.708  52.988  1.00  0.00     0.035 A 
ATOM      5  C   UNL     1      46.799 105.743  52.506  1.00  0.00     0.013 A 
ATOM      6  C   UNL     1      47.336 104.556  51.976  1.00  0.00     0.005 A 
ATOM      7  C   UNL     1      48.734 104.362  51.920  1.00  0.00     0.047 A 
ATOM      8  C   UNL     1      49.611 105.364  52.382  1.00  0.00     0.130 A 
ATOM      9  C   UNL     1      49.046 106.526  52.907  1.00  0.00     0.108 A 
ENDROOT
BRANCH   1  10
ATOM     10  O   UNL     1      50.980 107.943  53.476  1.00  0.00    -0.480 OA
ATOM     11  H   UNL     1      51.329 108.887  53.369  1.00  0.00     0.297 HD
ENDBRANCH   1  10
BRANCH   3  12
ATOM     12  C   UNL     1      46.226 108.660  53.830  1.00  0.00     0.043 C 
ATOM     13  C   UNL     1      46.136 109.985  53.969  1.00  0.00    -0.023 C 
BRANCH  13  14
ATOM     14  C   UNL     1      44.820 110.658  54.232  1.00  0.00     0.024 C 
ATOM     15  C   UNL     1      44.996 112.162  54.424  1.00  0.00     0.008 C 
ENDBRANCH  13  14
ENDBRANCH   3  12
BRANCH   8  16
ATOM     16  O   UNL     1      50.993 105.206  52.315  1.00  0.00    -0.507 OA
ATOM     17  H   UNL     1      51.600 105.977  52.060  1.00  0.00     0.293 HD
ENDBRANCH   8  16
TORSDOF 4
ENDMDL
MODEL 4
REMARK VINA RESULT:    -5.447      7.874      9.459
REMARK INTER + INTRA:          -6.576
REMARK INTER:                  -6.397
REMARK INTRA:                  -0.179
REMARK UNBOUND:                -0.174
REMARK SMILES CCC=Cc1oc(O)c2c(O)cccc12
REMARK SMILES IDX 7 1 6 2 5 3 15 4 14 5 13 6 12 7 10 8 9 9 8 10 4 12 3 13 2 14
REMARK SMILES IDX 1 15 11 16
REMARK H PARENT 8 11 11 17
REMARK Flexibility Score: inf
ROOT
ATOM      1  C   UNL     1      46.827 106.179  53.350  1.00  0.00     0.294 A 
ATOM      2  O   UNL     1      47.124 107.349  53.879  1.00  0.00    -0.425 OA
ATOM      3  C   UNL     1      48.390 107.627  53.620  1.00  0.00     0.138 A 
ATOM      4  C   UNL     1      48.943 106.571  52.902  1.00  0.00     0.035 A 
ATOM      5  C   UNL     1      50.242 106.315  52.454  1.00  0.00     0.013 A 
ATOM      6  C   UNL     1      50.479 105.107  51.773  1.00  0.00     0.005 A 
ATOM      7  C   UNL     1      49.434 104.179  51.569  1.00  0.00     0.047 A 
ATOM      8  C   UNL     1      48.139 104.447  52.060  1.00  0.00     0.130 A 
ATOM      9  C   UNL     1      47.936 105.656  52.725  1.00  0.00     0.108 A 
ENDROOT
BRANCH   1  10
ATOM     10  O   UNL     1      45.577 105.577  53.430  1.00  0.00    -0.480 OA
ATOM     11  H   UNL     1      45.492 104.605  53.699  1.00  0.00     0.297 HD
ENDBRANCH   1  10
BRANCH   3  12
ATOM     12  C   UNL     1      49.039 108.869  54.072  1.00  0.00     0.043 C 
ATOM     13  C   UNL     1      48.350 109.946  54.457  1.00  0.00    -0.023 C 
BRANCH  13  14
ATOM     14  C   UNL     1      49.042 111.183  54.953  1.00  0.00     0.024 C 
ATOM     15  C   UNL     1      49.001 111.267  56.476  1.00  0.00     0.008 C 
ENDBRANCH  13  14
ENDBRANCH   3  12
BRANCH   8  16
ATOM     16  O   UNL     1      47.098 103.537  51.893  1.00  0.00    -0.507 OA
ATOM     17  H   UNL     1      46.130 103.836  51.906  1.00  0.00     0.293 HD
ENDBRANCH   8  16
TORSDOF 4
ENDMDL
MODEL 5
REMARK VINA RESULT:    -5.269      2.588      5.487
REMARK INTER + INTRA:          -6.368
REMARK INTER:                  -6.193
REMARK INTRA:                  -0.175
REMARK UNBOUND:                -0.174
REMARK SMILES CCC=Cc1oc(O)c2c(O)cccc12
REMARK SMILES IDX 7 1 6 2 5 3 15 4 14 5 13 6 12 7 10 8 9 9 8 10 4 12 3 13 2 14
REMARK SMILES IDX 1 15 11 16
REMARK H PARENT 8 11 11 17
REMARK Flexibility Score: inf
ROOT
ATOM      1  C   UNL     1      47.782 113.234  49.834  1.00  0.00     0.294 A 
ATOM      2  O   UNL     1      47.604 112.860  51.085  1.00  0.00    -0.425 OA
ATOM      3  C   UNL     1      46.308 112.793  51.331  1.00  0.00     0.138 A 
ATOM      4  C   UNL     1      45.614 113.162  50.184  1.00  0.00     0.035 A 
ATOM      5  C   UNL     1      44.252 113.342  49.924  1.00  0.00     0.013 A 
ATOM      6  C   UNL     1      43.876 113.767  48.636  1.00  0.00     0.005 A 
ATOM      7  C   UNL     1      44.854 114.018  47.649  1.00  0.00     0.047 A 
ATOM      8  C   UNL     1      46.223 113.860  47.946  1.00  0.00     0.130 A 
ATOM      9  C   UNL     1      46.561 113.433  49.230  1.00  0.00     0.108 A 
ENDROOT
BRANCH   1  10
ATOM     10  O   UNL     1      49.025 113.405  49.236  1.00  0.00    -0.480 OA
ATOM     11  H   UNL     1      49.778 112.755  49.423  1.00  0.00     0.297 HD
ENDBRANCH   1  10
BRANCH   3  12
ATOM     12  C   UNL     1      45.769 112.400  52.644  1.00  0.00     0.043 C 
ATOM     13  C   UNL     1      46.500 111.771  53.568  1.00  0.00    -0.023 C 
BRANCH  13  14
ATOM     14  C   UNL     1      45.932 111.422  54.913  1.00  0.00     0.024 C 
ATOM     15  C   UNL     1      47.035 111.042  55.898  1.00  0.00     0.008 C 
ENDBRANCH  13  14
ENDBRANCH   3  12
BRANCH   8  16
ATOM     16  O   UNL     1      47.207 114.125  46.996  1.00  0.00    -0.507 OA
ATOM     17  H   UNL     1      47.965 113.474  46.828  1.00  0.00     0.293 HD
ENDBRANCH   8  16
TORSDOF 4
ENDMDL
MODEL 6
REMARK VINA RESULT:    -5.220      3.855      7.440
REMARK INTER + INTRA:          -6.310
REMARK INTER:                  -6.285
REMARK INTRA:                  -0.025
REMARK UNBOUND:                -0.174
REMARK SMILES CCC=Cc1oc(O)c2c(O)cccc12
REMARK SMILES IDX 7 1 6 2 5 3 15 4 14 5 13 6 12 7 10 8 9 9 8 10 4 12 3 13 2 14
REMARK SMILES IDX 1 15 11 16
REMARK H PARENT 8 11 11 17
REMARK Flexibility Score: inf
ROOT
ATOM      1  C   UNL     1      53.261 113.868  45.392  1.00  0.00     0.294 A 
ATOM      2  O   UNL     1      51.978 114.125  45.232  1.00  0.00    -0.425 OA
ATOM      3  C   UNL     1      51.356 113.924  46.380  1.00  0.00     0.138 A 
ATOM      4  C   UNL     1      52.284 113.496  47.325  1.00  0.00     0.035 A 
ATOM      5  C   UNL     1      52.152 113.071  48.650  1.00  0.00     0.013 A 
ATOM      6  C   UNL     1      53.312 112.661  49.330  1.00  0.00     0.005 A 
ATOM      7  C   UNL     1      54.566 112.664  48.680  1.00  0.00     0.047 A 
ATOM      8  C   UNL     1      54.667 113.066  47.333  1.00  0.00     0.130 A 
ATOM      9  C   UNL     1      53.499 113.473  46.689  1.00  0.00     0.108 A 
ENDROOT
BRANCH   1  10
ATOM     10  O   UNL     1      54.213 113.977  44.385  1.00  0.00    -0.480 OA
ATOM     11  H   UNL     1      54.668 114.863  44.204  1.00  0.00     0.297 HD
ENDBRANCH   1  10
BRANCH   3  12
ATOM     12  C   UNL     1      49.906 114.125  46.544  1.00  0.00     0.043 C 
ATOM     13  C   UNL     1      49.169 113.408  47.397  1.00  0.00    -0.023 C 
BRANCH  13  14
ATOM     14  C   UNL     1      47.700 113.666  47.570  1.00  0.00     0.024 C 
ATOM     15  C   UNL     1      47.342 113.861  49.041  1.00  0.00     0.008 C 
ENDBRANCH  13  14
ENDBRANCH   3  12
BRANCH   8  16
ATOM     16  O   UNL     1      55.888 113.055  46.662  1.00  0.00    -0.507 OA
ATOM     17  H   UNL     1      56.364 112.185  46.449  1.00  0.00     0.293 HD
ENDBRANCH   8  16
TORSDOF 4
ENDMDL
MODEL 7
REMARK VINA RESULT:    -5.216      2.756      6.692
REMARK INTER + INTRA:          -6.305
REMARK INTER:                  -6.131
REMARK INTRA:                  -0.174
REMARK UNBOUND:                -0.174
REMARK SMILES CCC=Cc1oc(O)c2c(O)cccc12
REMARK SMILES IDX 7 1 6 2 5 3 15 4 14 5 13 6 12 7 10 8 9 9 8 10 4 12 3 13 2 14
REMARK SMILES IDX 1 15 11 16
REMARK H PARENT 8 11 11 17
REMARK Flexibility Score: inf
ROOT
ATOM      1  C   UNL     1      50.250 113.992  45.357  1.00  0.00     0.294 A 
ATOM      2  O   UNL     1      49.123 114.125  46.027  1.00  0.00    -0.425 OA
ATOM      3  C   UNL     1      49.366 113.941  47.312  1.00  0.00     0.138 A 
ATOM      4  C   UNL     1      50.718 113.655  47.477  1.00  0.00     0.035 A 
ATOM      5  C   UNL     1      51.476 113.302  48.597  1.00  0.00     0.013 A 
ATOM      6  C   UNL     1      52.845 113.037  48.410  1.00  0.00     0.005 A 
ATOM      7  C   UNL     1      53.422 113.110  47.124  1.00  0.00     0.047 A 
ATOM      8  C   UNL     1      52.629 113.437  46.005  1.00  0.00     0.130 A 
ATOM      9  C   UNL     1      51.277 113.699  46.225  1.00  0.00     0.108 A 
ENDROOT
BRANCH   1  10
ATOM     10  O   UNL     1      50.362 114.123  43.977  1.00  0.00    -0.480 OA
ATOM     11  H   UNL     1      51.271 114.105  43.532  1.00  0.00     0.297 HD
ENDBRANCH   1  10
BRANCH   3  12
ATOM     12  C   UNL     1      48.314 114.023  48.339  1.00  0.00     0.043 C 
ATOM     13  C   UNL     1      48.059 113.030  49.194  1.00  0.00    -0.023 C 
BRANCH  13  14
ATOM     14  C   UNL     1      47.007 113.161  50.257  1.00  0.00     0.024 C 
ATOM     15  C   UNL     1      45.681 113.636  49.668  1.00  0.00     0.008 C 
ENDBRANCH  13  14
ENDBRANCH   3  12
BRANCH   8  16
ATOM     16  O   UNL     1      53.170 113.491  44.723  1.00  0.00    -0.507 OA
ATOM     17  H   UNL     1      53.892 114.162  44.484  1.00  0.00     0.293 HD
ENDBRANCH   8  16
TORSDOF 4
ENDMDL
MODEL 8
REMARK VINA RESULT:    -5.195      7.861      9.024
REMARK INTER + INTRA:          -6.280
REMARK INTER:                  -6.073
REMARK INTRA:                  -0.206
REMARK UNBOUND:                -0.174
REMARK SMILES CCC=Cc1oc(O)c2c(O)cccc12
REMARK SMILES IDX 7 1 6 2 5 3 15 4 14 5 13 6 12 7 10 8 9 9 8 10 4 12 3 13 2 14
REMARK SMILES IDX 1 15 11 16
REMARK H PARENT 8 11 11 17
REMARK Flexibility Score: inf
ROOT
ATOM      1  C   UNL     1      47.883 107.675  53.095  1.00  0.00     0.294 A 
ATOM      2  O   UNL     1      48.791 108.385  53.735  1.00  0.00    -0.425 OA
ATOM      3  C   UNL     1      49.959 107.775  53.635  1.00  0.00     0.138 A 
ATOM      4  C   UNL     1      49.791 106.600  52.910  1.00  0.00     0.035 A 
ATOM      5  C   UNL     1      50.666 105.557  52.590  1.00  0.00     0.013 A 
ATOM      6  C   UNL     1      50.157 104.470  51.856  1.00  0.00     0.005 A 
ATOM      7  C   UNL     1      48.798 104.434  51.476  1.00  0.00     0.047 A 
ATOM      8  C   UNL     1      47.928 105.482  51.839  1.00  0.00     0.130 A 
ATOM      9  C   UNL     1      48.465 106.548  52.561  1.00  0.00     0.108 A 
ENDROOT
BRANCH   1  10
ATOM     10  O   UNL     1      46.542 108.024  52.996  1.00  0.00    -0.480 OA
ATOM     11  H   UNL     1      45.819 107.329  53.135  1.00  0.00     0.297 HD
ENDBRANCH   1  10
BRANCH   3  12
ATOM     12  C   UNL     1      51.189 108.312  54.241  1.00  0.00     0.043 C 
ATOM     13  C   UNL     1      51.558 109.590  54.118  1.00  0.00    -0.023 C 
BRANCH  13  14
ATOM     14  C   UNL     1      52.797 110.115  54.783  1.00  0.00     0.024 C 
ATOM     15  C   UNL     1      53.982 109.180  54.563  1.00  0.00     0.008 C 
ENDBRANCH  13  14
ENDBRANCH   3  12
BRANCH   8  16
ATOM     16  O   UNL     1      46.578 105.457  51.496  1.00  0.00    -0.507 OA
ATOM     17  H   UNL     1      46.203 106.079  50.790  1.00  0.00     0.293 HD
ENDBRANCH   8  16
TORSDOF 4
ENDMDL
MODEL 9
REMARK VINA RESULT:    -5.177      3.217      7.234
REMARK INTER + INTRA:          -6.259
REMARK INTER:                  -6.085
REMARK INTRA:                  -0.174
REMARK UNBOUND:                -0.174
REMARK SMILES CCC=Cc1oc(O)c2c(O)cccc12
REMARK SMILES IDX 7 1 6 2 5 3 15 4 14 5 13 6 12 7 10 8 9 9 8 10 4 12 3 13 2 14
REMARK SMILES IDX 1 15 11 16
REMARK H PARENT 8 11 11 17
REMARK Flexibility Score: inf
ROOT
ATOM      1  C   UNL     1      53.055 113.012  48.794  1.00  0.00     0.294 A 
ATOM      2  O   UNL     1      51.740 113.088  48.835  1.00  0.00    -0.425 OA
ATOM      3  C   UNL     1      51.294 113.426  47.638  1.00  0.00     0.138 A 
ATOM      4  C   UNL     1      52.381 113.595  46.786  1.00  0.00     0.035 A 
ATOM      5  C   UNL     1      52.479 114.024  45.459  1.00  0.00     0.013 A 
ATOM      6  C   UNL     1      53.762 114.121  44.890  1.00  0.00     0.005 A 
ATOM      7  C   UNL     1      54.911 113.811  45.651  1.00  0.00     0.047 A 
ATOM      8  C   UNL     1      54.786 113.411  46.997  1.00  0.00     0.130 A 
ATOM      9  C   UNL     1      53.500 113.319  47.529  1.00  0.00     0.108 A 
ENDROOT
BRANCH   1  10
ATOM     10  O   UNL     1      53.855 112.678  49.881  1.00  0.00    -0.480 OA
ATOM     11  H   UNL     1      54.830 112.442  49.746  1.00  0.00     0.297 HD
ENDBRANCH   1  10
BRANCH   3  12
ATOM     12  C   UNL     1      49.861 113.594  47.343  1.00  0.00     0.043 C 
ATOM     13  C   UNL     1      48.911 113.471  48.274  1.00  0.00    -0.023 C 
BRANCH  13  14
ATOM     14  C   UNL     1      47.462 113.691  47.949  1.00  0.00     0.024 C 
ATOM     15  C   UNL     1      46.658 114.019  49.204  1.00  0.00     0.008 C 
ENDBRANCH  13  14
ENDBRANCH   3  12
BRANCH   8  16
ATOM     16  O   UNL     1      55.906 113.123  47.775  1.00  0.00    -0.507 OA
ATOM     17  H   UNL     1      55.818 112.878  48.754  1.00  0.00     0.293 HD
ENDBRANCH   8  16
TORSDOF 4
ENDMDL
