MODEL 1
REMARK VINA RESULT:    -2.679      0.000      0.000
REMARK INTER + INTRA:          -3.268
REMARK INTER:                  -3.775
REMARK INTRA:                   0.507
REMARK UNBOUND:                 0.507
REMARK SMILES CC1=CCCC(C)=CCC(C)(C)C=CC1
REMARK SMILES IDX 2 1 3 2 1 3 4 4 5 5 6 6 7 7 8 8 15 10 14 11 13 12 10 13
REMARK SMILES IDX 11 14 12 15 9 16
REMARK H PARENT
REMARK Flexibility Score: 60.00
ROOT
ATOM      1  C   UNL     1      43.719 -33.451  12.823  1.00  0.00    -0.074 C 
ATOM      2  C   UNL     1      42.502 -32.929  13.119  1.00  0.00    -0.027 C 
ATOM      3  C   UNL     1      43.874 -34.950  12.873  1.00  0.00     0.039 C 
ENDROOT
BRANCH   2   4
ATOM      4  C   UNL     1      42.151 -31.459  13.120  1.00  0.00     0.032 C 
BRANCH   4   5
ATOM      5  C   UNL     1      40.889 -31.185  12.284  1.00  0.00     0.034 C 
BRANCH   5   6
ATOM      6  C   UNL     1      41.071 -31.331  10.783  1.00  0.00    -0.077 C 
ATOM      7  C   UNL     1      40.077 -32.185  10.031  1.00  0.00     0.039 C 
ATOM      8  C   UNL     1      42.126 -30.847  10.075  1.00  0.00    -0.027 CG0
ATOM      9  G   UNL     1      43.163 -29.829  10.514  1.00  0.00     0.000 G0
ENDBRANCH   5   6
ENDBRANCH   4   5
ENDBRANCH   2   4
BRANCH   1  10
ATOM     10  C   UNL     1      44.922 -32.608  12.430  1.00  0.00     0.057 C 
BRANCH  10  11
ATOM     11  C   UNL     1      45.125 -32.654  10.937  1.00  0.00    -0.026 C 
ATOM     12  C   UNL     1      44.940 -31.659  10.037  1.00  0.00    -0.024 C 
BRANCH  12  13
ATOM     13  C   UNL     1      44.663 -30.175  10.286  1.00  0.00    -0.014 C 
ATOM     14  C   UNL     1      45.190 -29.380   9.066  1.00  0.00     0.016 C 
ATOM     15  C   UNL     1      45.474 -29.708  11.517  1.00  0.00     0.016 C 
BRANCH  13  16
ATOM     16  C   UNL     1      43.158 -29.819  10.493  1.00  0.00     0.038 CG0
ATOM     17  G   UNL     1      42.131 -30.865  10.098  1.00  0.00     0.000 G0
ENDBRANCH  13  16
ENDBRANCH  12  13
ENDBRANCH  10  11
ENDBRANCH   1  10
TORSDOF 0
ENDMDL
MODEL 2
REMARK VINA RESULT:    -2.259      3.932      6.464
REMARK INTER + INTRA:          -2.676
REMARK INTER:                  -3.340
REMARK INTRA:                   0.664
REMARK UNBOUND:                 0.507
REMARK SMILES CC1=CCCC(C)=CCC(C)(C)C=CC1
REMARK SMILES IDX 2 1 3 2 1 3 4 4 5 5 6 6 7 7 8 8 15 10 14 11 13 12 10 13
REMARK SMILES IDX 11 14 12 15 9 16
REMARK H PARENT
REMARK Flexibility Score: 60.00
ROOT
ATOM      1  C   UNL     1      35.413 -30.532  12.346  1.00  0.00    -0.074 C 
ATOM      2  C   UNL     1      35.267 -29.760  11.240  1.00  0.00    -0.027 C 
ATOM      3  C   UNL     1      34.220 -31.327  12.812  1.00  0.00     0.039 C 
ENDROOT
BRANCH   2   4
ATOM      4  C   UNL     1      36.343 -28.899  10.619  1.00  0.00     0.032 C 
BRANCH   4   5
ATOM      5  C   UNL     1      36.443 -29.135   9.102  1.00  0.00     0.034 C 
BRANCH   5   6
ATOM      6  C   UNL     1      37.201 -30.388   8.698  1.00  0.00    -0.077 C 
ATOM      7  C   UNL     1      36.710 -31.152   7.491  1.00  0.00     0.039 C 
ATOM      8  C   UNL     1      38.222 -30.942   9.404  1.00  0.00    -0.027 CG0
ATOM      9  G   UNL     1      39.029 -30.324  10.532  1.00  0.00     0.000 G0
ENDBRANCH   5   6
ENDBRANCH   4   5
ENDBRANCH   2   4
BRANCH   1  10
ATOM     10  C   UNL     1      36.714 -30.648  13.124  1.00  0.00     0.057 C 
BRANCH  10  11
ATOM     11  C   UNL     1      37.354 -31.990  12.872  1.00  0.00    -0.026 C 
ATOM     12  C   UNL     1      38.494 -32.257  12.191  1.00  0.00    -0.024 C 
BRANCH  12  13
ATOM     13  C   UNL     1      39.547 -31.283  11.656  1.00  0.00    -0.014 C 
ATOM     14  C   UNL     1      40.726 -32.116  11.094  1.00  0.00     0.016 C 
ATOM     15  C   UNL     1      40.102 -30.443  12.829  1.00  0.00     0.016 C 
BRANCH  13  16
ATOM     16  C   UNL     1      39.039 -30.328  10.531  1.00  0.00     0.038 CG0
ATOM     17  G   UNL     1      38.241 -30.946   9.397  1.00  0.00     0.000 G0
ENDBRANCH  13  16
ENDBRANCH  12  13
ENDBRANCH  10  11
ENDBRANCH   1  10
TORSDOF 0
ENDMDL
MODEL 3
REMARK VINA RESULT:    -2.101      4.863      7.593
REMARK INTER + INTRA:          -2.453
REMARK INTER:                  -3.603
REMARK INTRA:                   1.150
REMARK UNBOUND:                 0.507
REMARK SMILES CC1=CCCC(C)=CCC(C)(C)C=CC1
REMARK SMILES IDX 2 1 3 2 1 3 4 4 5 5 6 6 7 7 8 8 15 10 14 11 13 12 10 13
REMARK SMILES IDX 11 14 12 15 9 16
REMARK H PARENT
REMARK Flexibility Score: 60.00
ROOT
ATOM      1  C   UNL     1      35.245 -30.105  11.855  1.00  0.00    -0.074 C 
ATOM      2  C   UNL     1      36.381 -29.973  12.585  1.00  0.00    -0.027 C 
ATOM      3  C   UNL     1      34.274 -31.188  12.251  1.00  0.00     0.039 C 
ENDROOT
BRANCH   2   4
ATOM      4  C   UNL     1      37.467 -28.950  12.346  1.00  0.00     0.032 C 
BRANCH   4   5
ATOM      5  C   UNL     1      38.792 -29.623  11.949  1.00  0.00     0.034 C 
BRANCH   5   6
ATOM      6  C   UNL     1      38.649 -30.835  11.046  1.00  0.00    -0.077 C 
ATOM      7  C   UNL     1      39.212 -32.150  11.533  1.00  0.00     0.039 C 
ATOM      8  C   UNL     1      38.154 -30.809   9.779  1.00  0.00    -0.027 CG0
ATOM      9  G   UNL     1      37.373 -29.699   9.099  1.00  0.00     0.000 G0
ENDBRANCH   5   6
ENDBRANCH   4   5
ENDBRANCH   2   4
BRANCH   1  10
ATOM     10  C   UNL     1      34.896 -29.212  10.674  1.00  0.00     0.057 C 
BRANCH  10  11
ATOM     11  C   UNL     1      34.340 -30.039   9.542  1.00  0.00    -0.026 C 
ATOM     12  C   UNL     1      34.937 -30.357   8.369  1.00  0.00    -0.024 C 
BRANCH  12  13
ATOM     13  C   UNL     1      36.389 -30.141   7.937  1.00  0.00    -0.014 C 
ATOM     14  C   UNL     1      36.404 -29.039   6.849  1.00  0.00     0.016 C 
ATOM     15  C   UNL     1      36.921 -31.436   7.281  1.00  0.00     0.016 C 
BRANCH  13  16
ATOM     16  C   UNL     1      37.354 -29.711   9.086  1.00  0.00     0.038 CG0
ATOM     17  G   UNL     1      38.154 -30.802   9.773  1.00  0.00     0.000 G0
ENDBRANCH  13  16
ENDBRANCH  12  13
ENDBRANCH  10  11
ENDBRANCH   1  10
TORSDOF 0
ENDMDL
MODEL 4
REMARK VINA RESULT:    -2.073      2.590      3.953
REMARK INTER + INTRA:          -2.414
REMARK INTER:                  -2.782
REMARK INTRA:                   0.368
REMARK UNBOUND:                 0.507
REMARK SMILES CC1=CCCC(C)=CCC(C)(C)C=CC1
REMARK SMILES IDX 2 1 3 2 1 3 4 4 5 5 6 6 7 7 8 8 15 10 14 11 13 12 10 13
REMARK SMILES IDX 11 14 12 15 9 16
REMARK H PARENT
REMARK Flexibility Score: 60.00
ROOT
ATOM      1  C   UNL     1      38.634 -31.933  12.954  1.00  0.00    -0.074 C 
ATOM      2  C   UNL     1      37.713 -30.966  12.711  1.00  0.00    -0.027 C 
ATOM      3  C   UNL     1      38.145 -33.353  13.088  1.00  0.00     0.039 C 
ENDROOT
BRANCH   2   4
ATOM      4  C   UNL     1      38.008 -29.493  12.542  1.00  0.00     0.032 C 
BRANCH   4   5
ATOM      5  C   UNL     1      37.501 -28.973  11.186  1.00  0.00     0.034 C 
BRANCH   5   6
ATOM      6  C   UNL     1      38.089 -29.672   9.972  1.00  0.00    -0.077 C 
ATOM      7  C   UNL     1      37.133 -30.319   8.997  1.00  0.00     0.039 C 
ATOM      8  C   UNL     1      39.417 -29.862   9.749  1.00  0.00    -0.027 CG0
ATOM      9  G   UNL     1      40.590 -29.193  10.443  1.00  0.00     0.000 G0
ENDBRANCH   5   6
ENDBRANCH   4   5
ENDBRANCH   2   4
BRANCH   1  10
ATOM     10  C   UNL     1      40.124 -31.662  13.083  1.00  0.00     0.057 C 
BRANCH  10  11
ATOM     11  C   UNL     1      40.864 -32.256  11.911  1.00  0.00    -0.026 C 
ATOM     12  C   UNL     1      41.506 -31.605  10.912  1.00  0.00    -0.024 C 
BRANCH  12  13
ATOM     13  C   UNL     1      41.827 -30.114  10.783  1.00  0.00    -0.014 C 
ATOM     14  C   UNL     1      42.893 -29.949   9.671  1.00  0.00     0.016 C 
ATOM     15  C   UNL     1      42.466 -29.619  12.101  1.00  0.00     0.016 C 
BRANCH  13  16
ATOM     16  C   UNL     1      40.604 -29.212  10.430  1.00  0.00     0.038 CG0
ATOM     17  G   UNL     1      39.421 -29.874   9.748  1.00  0.00     0.000 G0
ENDBRANCH  13  16
ENDBRANCH  12  13
ENDBRANCH  10  11
ENDBRANCH   1  10
TORSDOF 0
ENDMDL
MODEL 5
REMARK VINA RESULT:    -2.063      4.623      7.357
REMARK INTER + INTRA:          -2.400
REMARK INTER:                  -3.017
REMARK INTRA:                   0.617
REMARK UNBOUND:                 0.507
REMARK SMILES CC1=CCCC(C)=CCC(C)(C)C=CC1
REMARK SMILES IDX 2 1 3 2 1 3 4 4 5 5 6 6 7 7 8 8 15 10 14 11 13 12 10 13
REMARK SMILES IDX 11 14 12 15 9 16
REMARK H PARENT
REMARK Flexibility Score: 60.00
ROOT
ATOM      1  C   UNL     1      36.628 -29.181   8.309  1.00  0.00    -0.074 C 
ATOM      2  C   UNL     1      35.355 -29.134   8.776  1.00  0.00    -0.027 C 
ATOM      3  C   UNL     1      36.836 -29.100   6.818  1.00  0.00     0.039 C 
ENDROOT
BRANCH   2   4
ATOM      4  C   UNL     1      34.948 -29.197  10.230  1.00  0.00     0.032 C 
BRANCH   4   5
ATOM      5  C   UNL     1      34.963 -30.644  10.753  1.00  0.00     0.034 C 
BRANCH   5   6
ATOM      6  C   UNL     1      35.236 -30.784  12.241  1.00  0.00    -0.077 C 
ATOM      7  C   UNL     1      34.142 -31.362  13.108  1.00  0.00     0.039 C 
ATOM      8  C   UNL     1      36.347 -30.325  12.875  1.00  0.00    -0.027 CG0
ATOM      9  G   UNL     1      37.659 -29.869  12.261  1.00  0.00     0.000 G0
ENDBRANCH   5   6
ENDBRANCH   4   5
ENDBRANCH   2   4
BRANCH   1  10
ATOM     10  C   UNL     1      37.850 -29.296   9.208  1.00  0.00     0.057 C 
BRANCH  10  11
ATOM     11  C   UNL     1      38.260 -30.741   9.347  1.00  0.00    -0.026 C 
ATOM     12  C   UNL     1      38.710 -31.378  10.453  1.00  0.00    -0.024 C 
BRANCH  12  13
ATOM     13  C   UNL     1      38.750 -30.884  11.901  1.00  0.00    -0.014 C 
ATOM     14  C   UNL     1      40.140 -30.247  12.150  1.00  0.00     0.016 C 
ATOM     15  C   UNL     1      38.628 -32.095  12.854  1.00  0.00     0.016 C 
BRANCH  13  16
ATOM     16  C   UNL     1      37.655 -29.831  12.260  1.00  0.00     0.038 CG0
ATOM     17  G   UNL     1      36.374 -30.343  12.895  1.00  0.00     0.000 G0
ENDBRANCH  13  16
ENDBRANCH  12  13
ENDBRANCH  10  11
ENDBRANCH   1  10
TORSDOF 0
ENDMDL
MODEL 6
REMARK VINA RESULT:    -1.831      4.447      6.843
REMARK INTER + INTRA:          -2.073
REMARK INTER:                  -2.655
REMARK INTRA:                   0.582
REMARK UNBOUND:                 0.507
REMARK SMILES CC1=CCCC(C)=CCC(C)(C)C=CC1
REMARK SMILES IDX 2 1 3 2 1 3 4 4 5 5 6 6 7 7 8 8 15 10 14 11 13 12 10 13
REMARK SMILES IDX 11 14 12 15 9 16
REMARK H PARENT
REMARK Flexibility Score: 60.00
ROOT
ATOM      1  C   UNL     1      40.088 -30.468  10.972  1.00  0.00    -0.074 C 
ATOM      2  C   UNL     1      39.600 -30.412  12.236  1.00  0.00    -0.027 C 
ATOM      3  C   UNL     1      41.456 -31.070  10.770  1.00  0.00     0.039 C 
ENDROOT
BRANCH   2   4
ATOM      4  C   UNL     1      38.255 -29.852  12.637  1.00  0.00     0.032 C 
BRANCH   4   5
ATOM      5  C   UNL     1      37.115 -30.816  12.265  1.00  0.00     0.034 C 
BRANCH   5   6
ATOM      6  C   UNL     1      35.764 -30.156  12.050  1.00  0.00    -0.077 C 
ATOM      7  C   UNL     1      34.715 -30.326  13.125  1.00  0.00     0.039 C 
ATOM      8  C   UNL     1      35.381 -29.517  10.912  1.00  0.00    -0.027 CG0
ATOM      9  G   UNL     1      36.252 -29.048   9.760  1.00  0.00     0.000 G0
ENDBRANCH   5   6
ENDBRANCH   4   5
ENDBRANCH   2   4
BRANCH   1  10
ATOM     10  C   UNL     1      39.326 -29.972   9.753  1.00  0.00     0.057 C 
BRANCH  10  11
ATOM     11  C   UNL     1      38.610 -31.119   9.085  1.00  0.00    -0.026 C 
ATOM     12  C   UNL     1      37.332 -31.159   8.638  1.00  0.00    -0.024 C 
BRANCH  12  13
ATOM     13  C   UNL     1      36.321 -30.017   8.507  1.00  0.00    -0.014 C 
ATOM     14  C   UNL     1      34.922 -30.642   8.277  1.00  0.00     0.016 C 
ATOM     15  C   UNL     1      36.659 -29.184   7.250  1.00  0.00     0.016 C 
BRANCH  13  16
ATOM     16  C   UNL     1      36.240 -29.073   9.747  1.00  0.00     0.038 CG0
ATOM     17  G   UNL     1      35.377 -29.522  10.912  1.00  0.00     0.000 G0
ENDBRANCH  13  16
ENDBRANCH  12  13
ENDBRANCH  10  11
ENDBRANCH   1  10
TORSDOF 0
ENDMDL
MODEL 7
REMARK VINA RESULT:    -1.806      0.971      3.641
REMARK INTER + INTRA:          -2.038
REMARK INTER:                  -3.762
REMARK INTRA:                   1.724
REMARK UNBOUND:                 0.507
REMARK SMILES CC1=CCCC(C)=CCC(C)(C)C=CC1
REMARK SMILES IDX 2 1 3 2 1 3 4 4 5 5 6 6 7 7 8 8 15 10 14 11 13 12 10 13
REMARK SMILES IDX 11 14 12 15 9 16
REMARK H PARENT
REMARK Flexibility Score: 60.00
ROOT
ATOM      1  C   UNL     1      43.981 -33.432  12.474  1.00  0.00    -0.074 C 
ATOM      2  C   UNL     1      45.032 -33.165  11.658  1.00  0.00    -0.027 C 
ATOM      3  C   UNL     1      43.707 -34.874  12.821  1.00  0.00     0.039 C 
ENDROOT
BRANCH   2   4
ATOM      4  C   UNL     1      45.465 -31.790  11.203  1.00  0.00     0.032 C 
BRANCH   4   5
ATOM      5  C   UNL     1      44.401 -30.730  11.535  1.00  0.00     0.034 C 
BRANCH   5   6
ATOM      6  C   UNL     1      43.749 -30.078  10.328  1.00  0.00    -0.077 C 
ATOM      7  C   UNL     1      44.480 -28.936   9.661  1.00  0.00     0.039 C 
ATOM      8  C   UNL     1      42.503 -30.365   9.865  1.00  0.00    -0.027 CG0
ATOM      9  G   UNL     1      41.623 -31.553  10.212  1.00  0.00     0.000 G0
ENDBRANCH   5   6
ENDBRANCH   4   5
ENDBRANCH   2   4
BRANCH   1  10
ATOM     10  C   UNL     1      43.081 -32.359  13.065  1.00  0.00     0.057 C 
BRANCH  10  11
ATOM     11  C   UNL     1      41.656 -32.849  13.125  1.00  0.00    -0.026 C 
ATOM     12  C   UNL     1      40.582 -32.378  12.448  1.00  0.00    -0.024 C 
BRANCH  12  13
ATOM     13  C   UNL     1      40.533 -31.362  11.304  1.00  0.00    -0.014 C 
ATOM     14  C   UNL     1      40.705 -29.948  11.914  1.00  0.00     0.016 C 
ATOM     15  C   UNL     1      39.135 -31.406  10.647  1.00  0.00     0.016 C 
BRANCH  13  16
ATOM     16  C   UNL     1      41.626 -31.561  10.209  1.00  0.00     0.038 CG0
ATOM     17  G   UNL     1      42.497 -30.366   9.864  1.00  0.00     0.000 G0
ENDBRANCH  13  16
ENDBRANCH  12  13
ENDBRANCH  10  11
ENDBRANCH   1  10
TORSDOF 0
ENDMDL
MODEL 8
REMARK VINA RESULT:    -1.377      4.474      5.947
REMARK INTER + INTRA:          -1.433
REMARK INTER:                  -2.039
REMARK INTRA:                   0.607
REMARK UNBOUND:                 0.507
REMARK SMILES CC1=CCCC(C)=CCC(C)(C)C=CC1
REMARK SMILES IDX 2 1 3 2 1 3 4 4 5 5 6 6 7 7 8 8 15 10 14 11 13 12 10 13
REMARK SMILES IDX 11 14 12 15 9 16
REMARK H PARENT
REMARK Flexibility Score: 60.00
ROOT
ATOM      1  C   UNL     1      37.060 -32.805  13.018  1.00  0.00    -0.074 C 
ATOM      2  C   UNL     1      35.903 -32.097  12.975  1.00  0.00    -0.027 C 
ATOM      3  C   UNL     1      36.965 -34.309  13.058  1.00  0.00     0.039 C 
ENDROOT
BRANCH   2   4
ATOM      4  C   UNL     1      35.795 -30.590  12.927  1.00  0.00     0.032 C 
BRANCH   4   5
ATOM      5  C   UNL     1      34.829 -30.135  11.819  1.00  0.00     0.034 C 
BRANCH   5   6
ATOM      6  C   UNL     1      35.439 -30.062  10.429  1.00  0.00    -0.077 C 
ATOM      7  C   UNL     1      34.563 -30.428   9.254  1.00  0.00     0.039 C 
ATOM      8  C   UNL     1      36.747 -29.803  10.165  1.00  0.00    -0.027 CG0
ATOM      9  G   UNL     1      37.801 -29.242  11.102  1.00  0.00     0.000 G0
ENDBRANCH   5   6
ENDBRANCH   4   5
ENDBRANCH   2   4
BRANCH   1  10
ATOM     10  C   UNL     1      38.439 -32.164  13.012  1.00  0.00     0.057 C 
BRANCH  10  11
ATOM     11  C   UNL     1      39.069 -32.297  11.648  1.00  0.00    -0.026 C 
ATOM     12  C   UNL     1      39.344 -31.317  10.756  1.00  0.00    -0.024 C 
BRANCH  12  13
ATOM     13  C   UNL     1      39.276 -29.799  10.940  1.00  0.00    -0.014 C 
ATOM     14  C   UNL     1      39.944 -29.138   9.709  1.00  0.00     0.016 C 
ATOM     15  C   UNL     1      40.111 -29.401  12.178  1.00  0.00     0.016 C 
BRANCH  13  16
ATOM     16  C   UNL     1      37.832 -29.224  11.084  1.00  0.00     0.038 CG0
ATOM     17  G   UNL     1      36.758 -29.797  10.177  1.00  0.00     0.000 G0
ENDBRANCH  13  16
ENDBRANCH  12  13
ENDBRANCH  10  11
ENDBRANCH   1  10
TORSDOF 0
ENDMDL
MODEL 9
REMARK VINA RESULT:    -1.037      4.404      7.684
REMARK INTER + INTRA:          -0.953
REMARK INTER:                  -2.517
REMARK INTRA:                   1.564
REMARK UNBOUND:                 0.507
REMARK SMILES CC1=CCCC(C)=CCC(C)(C)C=CC1
REMARK SMILES IDX 2 1 3 2 1 3 4 4 5 5 6 6 7 7 8 8 15 10 14 11 13 12 10 13
REMARK SMILES IDX 11 14 12 15 9 16
REMARK H PARENT
REMARK Flexibility Score: 60.00
ROOT
ATOM      1  C   UNL     1      37.191 -30.174   8.716  1.00  0.00    -0.074 C 
ATOM      2  C   UNL     1      38.523 -30.138   8.974  1.00  0.00    -0.027 C 
ATOM      3  C   UNL     1      36.677 -31.269   7.816  1.00  0.00     0.039 C 
ENDROOT
BRANCH   2   4
ATOM      4  C   UNL     1      39.222 -29.125   9.851  1.00  0.00     0.032 C 
BRANCH   4   5
ATOM      5  C   UNL     1      39.970 -29.809  11.009  1.00  0.00     0.034 C 
BRANCH   5   6
ATOM      6  C   UNL     1      39.257 -31.006  11.613  1.00  0.00    -0.077 C 
ATOM      7  C   UNL     1      40.021 -32.304  11.722  1.00  0.00     0.039 C 
ATOM      8  C   UNL     1      37.942 -31.035  11.962  1.00  0.00    -0.027 CG0
ATOM      9  G   UNL     1      36.989 -29.865  12.127  1.00  0.00     0.000 G0
ENDBRANCH   5   6
ENDBRANCH   4   5
ENDBRANCH   2   4
BRANCH   1  10
ATOM     10  C   UNL     1      36.195 -29.182   9.297  1.00  0.00     0.057 C 
BRANCH  10  11
ATOM     11  C   UNL     1      34.953 -29.902   9.760  1.00  0.00    -0.026 C 
ATOM     12  C   UNL     1      34.684 -30.395  10.992  1.00  0.00    -0.024 C 
BRANCH  12  13
ATOM     13  C   UNL     1      35.459 -30.202  12.298  1.00  0.00    -0.014 C 
ATOM     14  C   UNL     1      35.334 -31.505  13.125  1.00  0.00     0.016 C 
ATOM     15  C   UNL     1      34.792 -29.075  13.120  1.00  0.00     0.016 C 
BRANCH  13  16
ATOM     16  C   UNL     1      36.975 -29.880  12.114  1.00  0.00     0.038 CG0
ATOM     17  G   UNL     1      37.927 -31.054  11.969  1.00  0.00     0.000 G0
ENDBRANCH  13  16
ENDBRANCH  12  13
ENDBRANCH  10  11
ENDBRANCH   1  10
TORSDOF 0
ENDMDL
