MODEL 1
REMARK VINA RESULT:    -3.661      0.000      0.000
REMARK INTER + INTRA:          -4.412
REMARK INTER:                  -4.303
REMARK INTRA:                  -0.109
REMARK UNBOUND:                -0.109
REMARK SMILES CCCCC(=O)[O-]
REMARK SMILES IDX 4 1 5 2 6 3 7 4 3 5 2 6 1 7
REMARK H PARENT
REMARK Flexibility Score: inf
ROOT
ATOM      1  C   UNL     1     217.538  -8.258  26.319  1.00  0.00     0.053 C 
ENDROOT
BRANCH   1   2
ATOM      2  C   UNL     1     218.450  -9.053  25.438  1.00  0.00     0.041 C 
ATOM      3  O   UNL     1     219.698  -8.981  25.590  1.00  0.00    -0.550 OA
ATOM      4  O   UNL     1     217.921  -9.910  24.483  1.00  0.00    -0.550 OA
ENDBRANCH   1   2
BRANCH   1   5
ATOM      5  C   UNL     1     217.164  -9.065  27.569  1.00  0.00     0.006 C 
BRANCH   5   6
ATOM      6  C   UNL     1     218.047  -8.719  28.779  1.00  0.00    -0.003 C 
ATOM      7  C   UNL     1     218.530  -7.269  28.763  1.00  0.00     0.004 C 
ENDBRANCH   5   6
ENDBRANCH   1   5
TORSDOF 3
ENDMDL
MODEL 2
REMARK VINA RESULT:    -3.640      2.121      3.005
REMARK INTER + INTRA:          -4.388
REMARK INTER:                  -4.312
REMARK INTRA:                  -0.077
REMARK UNBOUND:                -0.109
REMARK SMILES CCCCC(=O)[O-]
REMARK SMILES IDX 4 1 5 2 6 3 7 4 3 5 2 6 1 7
REMARK H PARENT
REMARK Flexibility Score: inf
ROOT
ATOM      1  C   UNL     1     217.388  -7.293  23.777  1.00  0.00     0.053 C 
ENDROOT
BRANCH   1   2
ATOM      2  C   UNL     1     218.212  -8.198  22.915  1.00  0.00     0.041 C 
ATOM      3  O   UNL     1     217.671  -9.156  22.304  1.00  0.00    -0.550 OA
ATOM      4  O   UNL     1     219.569  -7.953  22.749  1.00  0.00    -0.550 OA
ENDBRANCH   1   2
BRANCH   1   5
ATOM      5  C   UNL     1     217.852  -7.377  25.237  1.00  0.00     0.006 C 
BRANCH   5   6
ATOM      6  C   UNL     1     217.796  -8.809  25.792  1.00  0.00    -0.003 C 
ATOM      7  C   UNL     1     217.297  -8.864  27.235  1.00  0.00     0.004 C 
ENDBRANCH   5   6
ENDBRANCH   1   5
TORSDOF 3
ENDMDL
MODEL 3
REMARK VINA RESULT:    -3.598      0.108      1.227
REMARK INTER + INTRA:          -4.338
REMARK INTER:                  -4.228
REMARK INTRA:                  -0.110
REMARK UNBOUND:                -0.109
REMARK SMILES CCCCC(=O)[O-]
REMARK SMILES IDX 4 1 5 2 6 3 7 4 3 5 2 6 1 7
REMARK H PARENT
REMARK Flexibility Score: inf
ROOT
ATOM      1  C   UNL     1     217.500  -8.324  26.351  1.00  0.00     0.053 C 
ENDROOT
BRANCH   1   2
ATOM      2  C   UNL     1     218.381  -9.125  25.444  1.00  0.00     0.041 C 
ATOM      3  O   UNL     1     217.876  -9.830  24.532  1.00  0.00    -0.550 OA
ATOM      4  O   UNL     1     219.762  -9.053  25.576  1.00  0.00    -0.550 OA
ENDBRANCH   1   2
BRANCH   1   5
ATOM      5  C   UNL     1     217.181  -9.117  27.625  1.00  0.00     0.006 C 
BRANCH   5   6
ATOM      6  C   UNL     1     218.162  -8.813  28.768  1.00  0.00    -0.003 C 
ATOM      7  C   UNL     1     218.621  -7.355  28.781  1.00  0.00     0.004 C 
ENDBRANCH   5   6
ENDBRANCH   1   5
TORSDOF 3
ENDMDL
MODEL 4
REMARK VINA RESULT:    -3.596      3.362      4.363
REMARK INTER + INTRA:          -4.336
REMARK INTER:                  -4.260
REMARK INTRA:                  -0.077
REMARK UNBOUND:                -0.109
REMARK SMILES CCCCC(=O)[O-]
REMARK SMILES IDX 4 1 5 2 6 3 7 4 3 5 2 6 1 7
REMARK H PARENT
REMARK Flexibility Score: inf
ROOT
ATOM      1  C   UNL     1     220.300  -7.801  22.948  1.00  0.00     0.053 C 
ENDROOT
BRANCH   1   2
ATOM      2  C   UNL     1     221.110  -9.046  23.129  1.00  0.00     0.041 C 
ATOM      3  O   UNL     1     220.581 -10.079  23.617  1.00  0.00    -0.550 OA
ATOM      4  O   UNL     1     222.434  -9.080  22.713  1.00  0.00    -0.550 OA
ENDBRANCH   1   2
BRANCH   1   5
ATOM      5  C   UNL     1     220.636  -6.780  24.044  1.00  0.00     0.006 C 
BRANCH   5   6
ATOM      6  C   UNL     1     219.415  -6.415  24.903  1.00  0.00    -0.003 C 
ATOM      7  C   UNL     1     218.112  -6.998  24.356  1.00  0.00     0.004 C 
ENDBRANCH   5   6
ENDBRANCH   1   5
TORSDOF 3
ENDMDL
MODEL 5
REMARK VINA RESULT:    -3.576      1.830      2.122
REMARK INTER + INTRA:          -4.312
REMARK INTER:                  -4.293
REMARK INTRA:                  -0.019
REMARK UNBOUND:                -0.109
REMARK SMILES CCCCC(=O)[O-]
REMARK SMILES IDX 4 1 5 2 6 3 7 4 3 5 2 6 1 7
REMARK H PARENT
REMARK Flexibility Score: inf
ROOT
ATOM      1  C   UNL     1     217.525  -7.686  25.375  1.00  0.00     0.053 C 
ENDROOT
BRANCH   1   2
ATOM      2  C   UNL     1     218.626  -7.060  24.577  1.00  0.00     0.041 C 
ATOM      3  O   UNL     1     219.228  -6.046  25.018  1.00  0.00    -0.550 OA
ATOM      4  O   UNL     1     219.018  -7.625  23.371  1.00  0.00    -0.550 OA
ENDBRANCH   1   2
BRANCH   1   5
ATOM      5  C   UNL     1     217.881  -7.689  26.867  1.00  0.00     0.006 C 
BRANCH   5   6
ATOM      6  C   UNL     1     217.423  -8.972  27.580  1.00  0.00    -0.003 C 
ATOM      7  C   UNL     1     218.176  -9.222  28.886  1.00  0.00     0.004 C 
ENDBRANCH   5   6
ENDBRANCH   1   5
TORSDOF 3
ENDMDL
MODEL 6
REMARK VINA RESULT:    -3.567      2.097      3.404
REMARK INTER + INTRA:          -4.302
REMARK INTER:                  -4.198
REMARK INTRA:                  -0.104
REMARK UNBOUND:                -0.109
REMARK SMILES CCCCC(=O)[O-]
REMARK SMILES IDX 4 1 5 2 6 3 7 4 3 5 2 6 1 7
REMARK H PARENT
REMARK Flexibility Score: inf
ROOT
ATOM      1  C   UNL     1     218.370  -8.275  22.749  1.00  0.00     0.053 C 
ENDROOT
BRANCH   1   2
ATOM      2  C   UNL     1     218.241  -9.733  23.058  1.00  0.00     0.041 C 
ATOM      3  O   UNL     1     217.194 -10.357  22.743  1.00  0.00    -0.550 OA
ATOM      4  O   UNL     1     219.297 -10.414  23.650  1.00  0.00    -0.550 OA
ENDBRANCH   1   2
BRANCH   1   5
ATOM      5  C   UNL     1     217.481  -7.448  23.687  1.00  0.00     0.006 C 
BRANCH   5   6
ATOM      6  C   UNL     1     218.179  -7.112  25.015  1.00  0.00    -0.003 C 
ATOM      7  C   UNL     1     217.591  -7.876  26.201  1.00  0.00     0.004 C 
ENDBRANCH   5   6
ENDBRANCH   1   5
TORSDOF 3
ENDMDL
MODEL 7
REMARK VINA RESULT:    -3.541      1.406      2.055
REMARK INTER + INTRA:          -4.272
REMARK INTER:                  -4.161
REMARK INTRA:                  -0.111
REMARK UNBOUND:                -0.109
REMARK SMILES CCCCC(=O)[O-]
REMARK SMILES IDX 4 1 5 2 6 3 7 4 3 5 2 6 1 7
REMARK H PARENT
REMARK Flexibility Score: inf
ROOT
ATOM      1  C   UNL     1     219.121  -8.143  24.758  1.00  0.00     0.053 C 
ENDROOT
BRANCH   1   2
ATOM      2  C   UNL     1     219.085  -9.559  24.273  1.00  0.00     0.041 C 
ATOM      3  O   UNL     1     220.153 -10.149  23.964  1.00  0.00    -0.550 OA
ATOM      4  O   UNL     1     217.877 -10.241  24.209  1.00  0.00    -0.550 OA
ENDBRANCH   1   2
BRANCH   1   5
ATOM      5  C   UNL     1     217.778  -7.761  25.393  1.00  0.00     0.006 C 
BRANCH   5   6
ATOM      6  C   UNL     1     217.804  -7.854  26.927  1.00  0.00    -0.003 C 
ATOM      7  C   UNL     1     217.070  -9.086  27.457  1.00  0.00     0.004 C 
ENDBRANCH   5   6
ENDBRANCH   1   5
TORSDOF 3
ENDMDL
MODEL 8
REMARK VINA RESULT:    -3.529      3.069      4.199
REMARK INTER + INTRA:          -4.258
REMARK INTER:                  -4.193
REMARK INTRA:                  -0.065
REMARK UNBOUND:                -0.109
REMARK SMILES CCCCC(=O)[O-]
REMARK SMILES IDX 4 1 5 2 6 3 7 4 3 5 2 6 1 7
REMARK H PARENT
REMARK Flexibility Score: inf
ROOT
ATOM      1  C   UNL     1     217.482  -7.274  23.878  1.00  0.00     0.053 C 
ENDROOT
BRANCH   1   2
ATOM      2  C   UNL     1     218.284  -6.933  25.095  1.00  0.00     0.041 C 
ATOM      3  O   UNL     1     219.324  -6.233  24.991  1.00  0.00    -0.550 OA
ATOM      4  O   UNL     1     217.853  -7.347  26.349  1.00  0.00    -0.550 OA
ENDBRANCH   1   2
BRANCH   1   5
ATOM      5  C   UNL     1     218.187  -8.366  23.062  1.00  0.00     0.006 C 
BRANCH   5   6
ATOM      6  C   UNL     1     218.291  -9.697  23.824  1.00  0.00    -0.003 C 
ATOM      7  C   UNL     1     217.694 -10.870  23.047  1.00  0.00     0.004 C 
ENDBRANCH   5   6
ENDBRANCH   1   5
TORSDOF 3
ENDMDL
MODEL 9
REMARK VINA RESULT:    -3.511      4.220      4.825
REMARK INTER + INTRA:          -4.236
REMARK INTER:                  -4.134
REMARK INTRA:                  -0.102
REMARK UNBOUND:                -0.109
REMARK SMILES CCCCC(=O)[O-]
REMARK SMILES IDX 4 1 5 2 6 3 7 4 3 5 2 6 1 7
REMARK H PARENT
REMARK Flexibility Score: inf
ROOT
ATOM      1  C   UNL     1     218.948  -8.675  22.388  1.00  0.00     0.053 C 
ENDROOT
BRANCH   1   2
ATOM      2  C   UNL     1     218.518 -10.004  22.925  1.00  0.00     0.041 C 
ATOM      3  O   UNL     1     219.277 -10.651  23.693  1.00  0.00    -0.550 OA
ATOM      4  O   UNL     1     217.260 -10.504  22.617  1.00  0.00    -0.550 OA
ENDBRANCH   1   2
BRANCH   1   5
ATOM      5  C   UNL     1     220.323  -8.787  21.718  1.00  0.00     0.006 C 
BRANCH   5   6
ATOM      6  C   UNL     1     221.428  -8.076  22.516  1.00  0.00    -0.003 C 
ATOM      7  C   UNL     1     220.872  -7.179  23.623  1.00  0.00     0.004 C 
ENDBRANCH   5   6
ENDBRANCH   1   5
TORSDOF 3
ENDMDL
