MODEL 1
REMARK VINA RESULT:    -3.953      0.000      0.000
REMARK INTER + INTRA:          -5.597
REMARK INTER:                  -5.223
REMARK INTRA:                  -0.374
REMARK UNBOUND:                -0.374
REMARK SMILES C=C[C@H](O)CCCCC
REMARK SMILES IDX 6 1 7 2 8 3 9 4 5 5 3 6 2 7 1 8 4 9
REMARK H PARENT 4 10
REMARK Flexibility Score: inf
ROOT
ATOM      1  C   UNL     1     181.649 190.814 201.300  1.00  0.00     0.003 C 
ENDROOT
BRANCH   1   2
ATOM      2  C   UNL     1     180.787 191.611 202.295  1.00  0.00    -0.000 C 
BRANCH   2   3
ATOM      3  C   UNL     1     180.371 193.013 201.812  1.00  0.00    -0.003 C 
ATOM      4  C   UNL     1     181.202 194.132 202.439  1.00  0.00     0.004 C 
ENDBRANCH   2   3
ENDBRANCH   1   2
BRANCH   1   5
ATOM      5  C   UNL     1     180.871 189.680 200.607  1.00  0.00     0.036 C 
BRANCH   5   6
ATOM      6  C   UNL     1     180.631 189.946 199.106  1.00  0.00     0.136 C 
BRANCH   6   7
ATOM      7  C   UNL     1     179.163 190.075 198.786  1.00  0.00    -0.004 C 
ATOM      8  C   UNL     1     178.317 190.706 199.607  1.00  0.00     0.007 C 
ENDBRANCH   6   7
BRANCH   6   9
ATOM      9  O   UNL     1     181.181 188.910 198.333  1.00  0.00    -0.389 OA
ATOM     10  H   UNL     1     182.155 188.895 198.523  1.00  0.00     0.211 HD
ENDBRANCH   6   9
ENDBRANCH   5   6
ENDBRANCH   1   5
TORSDOF 6
ENDMDL
MODEL 2
REMARK VINA RESULT:    -3.657      1.526      2.678
REMARK INTER + INTRA:          -5.207
REMARK INTER:                  -4.733
REMARK INTRA:                  -0.474
REMARK UNBOUND:                -0.374
REMARK SMILES C=C[C@H](O)CCCCC
REMARK SMILES IDX 6 1 7 2 8 3 9 4 5 5 3 6 2 7 1 8 4 9
REMARK H PARENT 4 10
REMARK Flexibility Score: inf
ROOT
ATOM      1  C   UNL     1     179.134 191.647 200.493  1.00  0.00     0.003 C 
ENDROOT
BRANCH   1   2
ATOM      2  C   UNL     1     177.915 191.426 201.407  1.00  0.00    -0.000 C 
BRANCH   2   3
ATOM      3  C   UNL     1     178.080 191.955 202.844  1.00  0.00    -0.003 C 
ATOM      4  C   UNL     1     179.460 192.559 203.104  1.00  0.00     0.004 C 
ENDBRANCH   2   3
ENDBRANCH   1   2
BRANCH   1   5
ATOM      5  C   UNL     1     179.342 190.502 199.485  1.00  0.00     0.036 C 
BRANCH   5   6
ATOM      6  C   UNL     1     180.475 189.537 199.898  1.00  0.00     0.136 C 
BRANCH   6   7
ATOM      7  C   UNL     1     181.393 190.155 200.922  1.00  0.00    -0.004 C 
ATOM      8  C   UNL     1     181.831 189.466 201.981  1.00  0.00     0.007 C 
ENDBRANCH   6   7
BRANCH   6   9
ATOM      9  O   UNL     1     181.227 189.159 198.774  1.00  0.00    -0.389 OA
ATOM     10  H   UNL     1     181.059 188.190 198.629  1.00  0.00     0.211 HD
ENDBRANCH   6   9
ENDBRANCH   5   6
ENDBRANCH   1   5
TORSDOF 6
ENDMDL
MODEL 3
REMARK VINA RESULT:    -3.566     11.057     12.303
REMARK INTER + INTRA:          -5.087
REMARK INTER:                  -4.811
REMARK INTRA:                  -0.276
REMARK UNBOUND:                -0.374
REMARK SMILES C=C[C@H](O)CCCCC
REMARK SMILES IDX 6 1 7 2 8 3 9 4 5 5 3 6 2 7 1 8 4 9
REMARK H PARENT 4 10
REMARK Flexibility Score: inf
ROOT
ATOM      1  C   UNL     1     184.623 191.040 188.090  1.00  0.00     0.003 C 
ENDROOT
BRANCH   1   2
ATOM      2  C   UNL     1     185.376 192.323 187.696  1.00  0.00    -0.000 C 
BRANCH   2   3
ATOM      3  C   UNL     1     186.396 192.820 188.738  1.00  0.00    -0.003 C 
ATOM      4  C   UNL     1     186.077 194.217 189.268  1.00  0.00     0.004 C 
ENDBRANCH   2   3
ENDBRANCH   1   2
BRANCH   1   5
ATOM      5  C   UNL     1     184.002 191.117 189.497  1.00  0.00     0.036 C 
BRANCH   5   6
ATOM      6  C   UNL     1     184.193 189.819 190.310  1.00  0.00     0.136 C 
BRANCH   6   7
ATOM      7  C   UNL     1     184.384 188.619 189.415  1.00  0.00    -0.004 C 
ATOM      8  C   UNL     1     183.477 187.639 189.348  1.00  0.00     0.007 C 
ENDBRANCH   6   7
BRANCH   6   9
ATOM      9  O   UNL     1     183.085 189.598 191.144  1.00  0.00    -0.389 OA
ATOM     10  H   UNL     1     183.013 190.388 191.742  1.00  0.00     0.211 HD
ENDBRANCH   6   9
ENDBRANCH   5   6
ENDBRANCH   1   5
TORSDOF 6
ENDMDL
MODEL 4
REMARK VINA RESULT:    -3.514      1.677      2.322
REMARK INTER + INTRA:          -5.018
REMARK INTER:                  -4.551
REMARK INTRA:                  -0.467
REMARK UNBOUND:                -0.374
REMARK SMILES C=C[C@H](O)CCCCC
REMARK SMILES IDX 6 1 7 2 8 3 9 4 5 5 3 6 2 7 1 8 4 9
REMARK H PARENT 4 10
REMARK Flexibility Score: inf
ROOT
ATOM      1  C   UNL     1     181.364 192.189 202.146  1.00  0.00     0.003 C 
ENDROOT
BRANCH   1   2
ATOM      2  C   UNL     1     180.329 193.275 202.486  1.00  0.00    -0.000 C 
BRANCH   2   3
ATOM      3  C   UNL     1     178.894 192.971 202.017  1.00  0.00    -0.003 C 
ATOM      4  C   UNL     1     178.611 193.464 200.599  1.00  0.00     0.004 C 
ENDBRANCH   2   3
ENDBRANCH   1   2
BRANCH   1   5
ATOM      5  C   UNL     1     180.797 190.762 202.263  1.00  0.00     0.036 C 
BRANCH   5   6
ATOM      6  C   UNL     1     181.517 189.752 201.345  1.00  0.00     0.136 C 
BRANCH   6   7
ATOM      7  C   UNL     1     180.794 189.572 200.033  1.00  0.00    -0.004 C 
ATOM      8  C   UNL     1     179.505 189.897 199.889  1.00  0.00     0.007 C 
ENDBRANCH   6   7
BRANCH   6   9
ATOM      9  O   UNL     1     181.628 188.506 201.983  1.00  0.00    -0.389 OA
ATOM     10  H   UNL     1     182.413 188.047 201.582  1.00  0.00     0.211 HD
ENDBRANCH   6   9
ENDBRANCH   5   6
ENDBRANCH   1   5
TORSDOF 6
ENDMDL
MODEL 5
REMARK VINA RESULT:    -3.497     12.789     13.856
REMARK INTER + INTRA:          -4.995
REMARK INTER:                  -4.918
REMARK INTRA:                  -0.078
REMARK UNBOUND:                -0.374
REMARK SMILES C=C[C@H](O)CCCCC
REMARK SMILES IDX 6 1 7 2 8 3 9 4 5 5 3 6 2 7 1 8 4 9
REMARK H PARENT 4 10
REMARK Flexibility Score: inf
ROOT
ATOM      1  C   UNL     1     186.559 194.713 189.378  1.00  0.00     0.003 C 
ENDROOT
BRANCH   1   2
ATOM      2  C   UNL     1     185.680 193.452 189.455  1.00  0.00    -0.000 C 
BRANCH   2   3
ATOM      3  C   UNL     1     185.612 192.630 188.155  1.00  0.00    -0.003 C 
ATOM      4  C   UNL     1     184.543 191.538 188.193  1.00  0.00     0.004 C 
ENDBRANCH   2   3
ENDBRANCH   1   2
BRANCH   1   5
ATOM      5  C   UNL     1     186.415 195.620 190.613  1.00  0.00     0.036 C 
BRANCH   5   6
ATOM      6  C   UNL     1     187.225 196.929 190.495  1.00  0.00     0.136 C 
BRANCH   6   7
ATOM      7  C   UNL     1     186.631 198.034 191.333  1.00  0.00    -0.004 C 
ATOM      8  C   UNL     1     187.142 199.270 191.332  1.00  0.00     0.007 C 
ENDBRANCH   6   7
BRANCH   6   9
ATOM      9  O   UNL     1     187.284 197.347 189.156  1.00  0.00    -0.389 OA
ATOM     10  H   UNL     1     186.701 198.148 189.079  1.00  0.00     0.211 HD
ENDBRANCH   6   9
ENDBRANCH   5   6
ENDBRANCH   1   5
TORSDOF 6
ENDMDL
MODEL 6
REMARK VINA RESULT:    -3.493     11.279     12.964
REMARK INTER + INTRA:          -4.991
REMARK INTER:                  -4.474
REMARK INTRA:                  -0.517
REMARK UNBOUND:                -0.374
REMARK SMILES C=C[C@H](O)CCCCC
REMARK SMILES IDX 6 1 7 2 8 3 9 4 5 5 3 6 2 7 1 8 4 9
REMARK H PARENT 4 10
REMARK Flexibility Score: inf
ROOT
ATOM      1  C   UNL     1     184.996 192.059 189.203  1.00  0.00     0.003 C 
ENDROOT
BRANCH   1   2
ATOM      2  C   UNL     1     185.543 192.283 187.782  1.00  0.00    -0.000 C 
BRANCH   2   3
ATOM      3  C   UNL     1     186.624 191.279 187.339  1.00  0.00    -0.003 C 
ATOM      4  C   UNL     1     186.131 190.302 186.272  1.00  0.00     0.004 C 
ENDBRANCH   2   3
ENDBRANCH   1   2
BRANCH   1   5
ATOM      5  C   UNL     1     183.886 190.993 189.257  1.00  0.00     0.036 C 
BRANCH   5   6
ATOM      6  C   UNL     1     184.205 189.843 190.235  1.00  0.00     0.136 C 
BRANCH   6   7
ATOM      7  C   UNL     1     184.507 188.555 189.509  1.00  0.00    -0.004 C 
ATOM      8  C   UNL     1     183.884 188.225 188.373  1.00  0.00     0.007 C 
ENDBRANCH   6   7
BRANCH   6   9
ATOM      9  O   UNL     1     183.128 189.635 191.112  1.00  0.00    -0.389 OA
ATOM     10  H   UNL     1     182.347 189.380 190.552  1.00  0.00     0.211 HD
ENDBRANCH   6   9
ENDBRANCH   5   6
ENDBRANCH   1   5
TORSDOF 6
ENDMDL
MODEL 7
REMARK VINA RESULT:    -3.475     11.091     12.122
REMARK INTER + INTRA:          -4.966
REMARK INTER:                  -4.637
REMARK INTRA:                  -0.329
REMARK UNBOUND:                -0.374
REMARK SMILES C=C[C@H](O)CCCCC
REMARK SMILES IDX 6 1 7 2 8 3 9 4 5 5 3 6 2 7 1 8 4 9
REMARK H PARENT 4 10
REMARK Flexibility Score: inf
ROOT
ATOM      1  C   UNL     1     184.834 187.319 189.215  1.00  0.00     0.003 C 
ENDROOT
BRANCH   1   2
ATOM      2  C   UNL     1     183.357 186.983 188.939  1.00  0.00    -0.000 C 
BRANCH   2   3
ATOM      3  C   UNL     1     182.753 185.910 189.863  1.00  0.00    -0.003 C 
ATOM      4  C   UNL     1     181.295 186.187 190.228  1.00  0.00     0.004 C 
ENDBRANCH   2   3
ENDBRANCH   1   2
BRANCH   1   5
ATOM      5  C   UNL     1     185.008 188.526 190.155  1.00  0.00     0.036 C 
BRANCH   5   6
ATOM      6  C   UNL     1     183.814 189.502 190.107  1.00  0.00     0.136 C 
BRANCH   6   7
ATOM      7  C   UNL     1     184.257 190.918 189.834  1.00  0.00    -0.004 C 
ATOM      8  C   UNL     1     184.299 191.416 188.594  1.00  0.00     0.007 C 
ENDBRANCH   6   7
BRANCH   6   9
ATOM      9  O   UNL     1     183.106 189.468 191.319  1.00  0.00    -0.389 OA
ATOM     10  H   UNL     1     183.063 190.402 191.654  1.00  0.00     0.211 HD
ENDBRANCH   6   9
ENDBRANCH   5   6
ENDBRANCH   1   5
TORSDOF 6
ENDMDL
MODEL 8
REMARK VINA RESULT:    -3.461     13.804     15.056
REMARK INTER + INTRA:          -4.948
REMARK INTER:                  -4.786
REMARK INTRA:                  -0.162
REMARK UNBOUND:                -0.374
REMARK SMILES C=C[C@H](O)CCCCC
REMARK SMILES IDX 6 1 7 2 8 3 9 4 5 5 3 6 2 7 1 8 4 9
REMARK H PARENT 4 10
REMARK Flexibility Score: inf
ROOT
ATOM      1  C   UNL     1     185.466 191.194 187.484  1.00  0.00     0.003 C 
ENDROOT
BRANCH   1   2
ATOM      2  C   UNL     1     185.266 192.658 187.915  1.00  0.00    -0.000 C 
BRANCH   2   3
ATOM      3  C   UNL     1     185.604 192.950 189.389  1.00  0.00    -0.003 C 
ATOM      4  C   UNL     1     186.121 194.371 189.614  1.00  0.00     0.004 C 
ENDBRANCH   2   3
ENDBRANCH   1   2
BRANCH   1   5
ATOM      5  C   UNL     1     186.678 191.003 186.554  1.00  0.00     0.036 C 
BRANCH   5   6
ATOM      6  C   UNL     1     186.592 189.712 185.712  1.00  0.00     0.136 C 
BRANCH   6   7
ATOM      7  C   UNL     1     187.235 189.880 184.358  1.00  0.00    -0.004 C 
ATOM      8  C   UNL     1     187.857 191.012 184.010  1.00  0.00     0.007 C 
ENDBRANCH   6   7
BRANCH   6   9
ATOM      9  O   UNL     1     185.252 189.329 185.541  1.00  0.00    -0.389 OA
ATOM     10  H   UNL     1     184.710 190.162 185.568  1.00  0.00     0.211 HD
ENDBRANCH   6   9
ENDBRANCH   5   6
ENDBRANCH   1   5
TORSDOF 6
ENDMDL
MODEL 9
REMARK VINA RESULT:    -3.429     12.610     14.322
REMARK INTER + INTRA:          -4.905
REMARK INTER:                  -4.513
REMARK INTRA:                  -0.393
REMARK UNBOUND:                -0.374
REMARK SMILES C=C[C@H](O)CCCCC
REMARK SMILES IDX 6 1 7 2 8 3 9 4 5 5 3 6 2 7 1 8 4 9
REMARK H PARENT 4 10
REMARK Flexibility Score: inf
ROOT
ATOM      1  C   UNL     1     185.503 189.664 187.631  1.00  0.00     0.003 C 
ENDROOT
BRANCH   1   2
ATOM      2  C   UNL     1     186.376 189.659 186.363  1.00  0.00    -0.000 C 
BRANCH   2   3
ATOM      3  C   UNL     1     186.928 191.036 185.952  1.00  0.00    -0.003 C 
ATOM      4  C   UNL     1     187.579 191.031 184.569  1.00  0.00     0.004 C 
ENDBRANCH   2   3
ENDBRANCH   1   2
BRANCH   1   5
ATOM      5  C   UNL     1     184.318 190.644 187.538  1.00  0.00     0.036 C 
BRANCH   5   6
ATOM      6  C   UNL     1     184.101 191.447 188.838  1.00  0.00     0.136 C 
BRANCH   6   7
ATOM      7  C   UNL     1     185.403 191.950 189.411  1.00  0.00    -0.004 C 
ATOM      8  C   UNL     1     185.839 193.194 189.182  1.00  0.00     0.007 C 
ENDBRANCH   6   7
BRANCH   6   9
ATOM      9  O   UNL     1     183.451 190.656 189.798  1.00  0.00    -0.389 OA
ATOM     10  H   UNL     1     183.501 189.717 189.478  1.00  0.00     0.211 HD
ENDBRANCH   6   9
ENDBRANCH   5   6
ENDBRANCH   1   5
TORSDOF 6
ENDMDL
