MODEL 1
REMARK VINA RESULT:    -5.757      0.000      0.000
REMARK INTER + INTRA:          -6.371
REMARK INTER:                  -6.261
REMARK INTRA:                  -0.110
REMARK UNBOUND:                -0.110
REMARK SMILES Cc1ccc(C(C)C)cc1O
REMARK SMILES IDX 1 1 2 2 10 3 9 4 5 5 4 6 3 7 11 8 6 10 7 11 8 12
REMARK H PARENT 11 9
REMARK Flexibility Score: inf
ROOT
ATOM      1  C   UNL     1      31.002 -16.125  39.485  1.00  0.00     0.048 C 
ATOM      2  C   UNL     1      31.174 -14.974  40.436  1.00  0.00    -0.009 A 
ATOM      3  C   UNL     1      30.594 -13.714  40.173  1.00  0.00     0.118 A 
ATOM      4  C   UNL     1      30.772 -12.662  41.079  1.00  0.00     0.050 A 
ATOM      5  C   UNL     1      31.525 -12.839  42.254  1.00  0.00    -0.042 A 
ATOM      6  C   UNL     1      32.099 -14.095  42.508  1.00  0.00     0.004 A 
ATOM      7  C   UNL     1      31.926 -15.150  41.609  1.00  0.00     0.007 A 
ENDROOT
BRANCH   3   8
ATOM      8  O   UNL     1      29.835 -13.475  39.025  1.00  0.00    -0.508 OA
ATOM      9  H   UNL     1      30.051 -13.887  38.126  1.00  0.00     0.293 HD
ENDBRANCH   3   8
BRANCH   5  10
ATOM     10  C   UNL     1      31.722 -11.702  43.238  1.00  0.00     0.013 C 
ATOM     11  C   UNL     1      33.152 -11.153  43.170  1.00  0.00     0.012 C 
ATOM     12  C   UNL     1      30.691 -10.589  43.010  1.00  0.00     0.012 C 
ENDBRANCH   5  10
TORSDOF 2
ENDMDL
MODEL 2
REMARK VINA RESULT:    -5.694      0.451      1.114
REMARK INTER + INTRA:          -6.304
REMARK INTER:                  -6.176
REMARK INTRA:                  -0.128
REMARK UNBOUND:                -0.110
REMARK SMILES Cc1ccc(C(C)C)cc1O
REMARK SMILES IDX 1 1 2 2 10 3 9 4 5 5 4 6 3 7 11 8 6 10 7 11 8 12
REMARK H PARENT 11 9
REMARK Flexibility Score: inf
ROOT
ATOM      1  C   UNL     1      31.004 -16.125  39.572  1.00  0.00     0.048 C 
ATOM      2  C   UNL     1      31.165 -14.909  40.441  1.00  0.00    -0.009 A 
ATOM      3  C   UNL     1      30.581 -13.673  40.086  1.00  0.00     0.118 A 
ATOM      4  C   UNL     1      30.748 -12.559  40.916  1.00  0.00     0.050 A 
ATOM      5  C   UNL     1      31.493 -12.650  42.106  1.00  0.00    -0.042 A 
ATOM      6  C   UNL     1      32.070 -13.882  42.452  1.00  0.00     0.004 A 
ATOM      7  C   UNL     1      31.908 -14.999  41.629  1.00  0.00     0.007 A 
ENDROOT
BRANCH   3   8
ATOM      8  O   UNL     1      29.830 -13.519  38.918  1.00  0.00    -0.508 OA
ATOM      9  H   UNL     1      30.037 -14.015  38.060  1.00  0.00     0.293 HD
ENDBRANCH   3   8
BRANCH   5  10
ATOM     10  C   UNL     1      31.678 -11.446  43.009  1.00  0.00     0.013 C 
ATOM     11  C   UNL     1      30.854 -11.585  44.294  1.00  0.00     0.012 C 
ATOM     12  C   UNL     1      33.162 -11.216  43.327  1.00  0.00     0.012 C 
ENDBRANCH   5  10
TORSDOF 2
ENDMDL
MODEL 3
REMARK VINA RESULT:    -5.596      2.361      4.622
REMARK INTER + INTRA:          -6.196
REMARK INTER:                  -6.069
REMARK INTRA:                  -0.127
REMARK UNBOUND:                -0.110
REMARK SMILES Cc1ccc(C(C)C)cc1O
REMARK SMILES IDX 1 1 2 2 10 3 9 4 5 5 4 6 3 7 11 8 6 10 7 11 8 12
REMARK H PARENT 11 9
REMARK Flexibility Score: inf
ROOT
ATOM      1  C   UNL     1      30.165  -9.662  43.416  1.00  0.00     0.048 C 
ATOM      2  C   UNL     1      30.862 -10.944  43.056  1.00  0.00    -0.009 A 
ATOM      3  C   UNL     1      32.088 -11.305  43.657  1.00  0.00     0.118 A 
ATOM      4  C   UNL     1      32.712 -12.505  43.300  1.00  0.00     0.050 A 
ATOM      5  C   UNL     1      32.135 -13.364  42.347  1.00  0.00    -0.042 A 
ATOM      6  C   UNL     1      30.916 -12.998  41.754  1.00  0.00     0.004 A 
ATOM      7  C   UNL     1      30.287 -11.802  42.105  1.00  0.00     0.007 A 
ENDROOT
BRANCH   3   8
ATOM      8  O   UNL     1      32.710 -10.494  44.610  1.00  0.00    -0.508 OA
ATOM      9  H   UNL     1      32.660  -9.484  44.591  1.00  0.00     0.293 HD
ENDBRANCH   3   8
BRANCH   5  10
ATOM     10  C   UNL     1      32.808 -14.666  41.956  1.00  0.00     0.013 C 
ATOM     11  C   UNL     1      33.481 -15.326  43.165  1.00  0.00     0.012 C 
ATOM     12  C   UNL     1      31.813 -15.624  41.287  1.00  0.00     0.012 C 
ENDBRANCH   5  10
TORSDOF 2
ENDMDL
MODEL 4
REMARK VINA RESULT:    -5.437      1.636      4.206
REMARK INTER + INTRA:          -6.024
REMARK INTER:                  -5.901
REMARK INTRA:                  -0.122
REMARK UNBOUND:                -0.110
REMARK SMILES Cc1ccc(C(C)C)cc1O
REMARK SMILES IDX 1 1 2 2 10 3 9 4 5 5 4 6 3 7 11 8 6 10 7 11 8 12
REMARK H PARENT 11 9
REMARK Flexibility Score: inf
ROOT
ATOM      1  C   UNL     1      31.506 -10.352  44.327  1.00  0.00     0.048 C 
ATOM      2  C   UNL     1      31.485 -11.482  43.337  1.00  0.00    -0.009 A 
ATOM      3  C   UNL     1      30.517 -11.539  42.310  1.00  0.00     0.118 A 
ATOM      4  C   UNL     1      30.524 -12.604  41.403  1.00  0.00     0.050 A 
ATOM      5  C   UNL     1      31.485 -13.627  41.497  1.00  0.00    -0.042 A 
ATOM      6  C   UNL     1      32.444 -13.564  42.521  1.00  0.00     0.004 A 
ATOM      7  C   UNL     1      32.444 -12.504  43.429  1.00  0.00     0.007 A 
ENDROOT
BRANCH   3   8
ATOM      8  O   UNL     1      29.537 -10.554  42.164  1.00  0.00    -0.508 OA
ATOM      9  H   UNL     1      28.811 -10.599  41.460  1.00  0.00     0.293 HD
ENDBRANCH   3   8
BRANCH   5  10
ATOM     10  C   UNL     1      31.497 -14.785  40.517  1.00  0.00     0.013 C 
ATOM     11  C   UNL     1      31.651 -16.125  41.246  1.00  0.00     0.012 C 
ATOM     12  C   UNL     1      30.240 -14.777  39.637  1.00  0.00     0.012 C 
ENDBRANCH   5  10
TORSDOF 2
ENDMDL
MODEL 5
REMARK VINA RESULT:    -5.298      1.120      1.948
REMARK INTER + INTRA:          -5.872
REMARK INTER:                  -5.746
REMARK INTRA:                  -0.127
REMARK UNBOUND:                -0.110
REMARK SMILES Cc1ccc(C(C)C)cc1O
REMARK SMILES IDX 1 1 2 2 10 3 9 4 5 5 4 6 3 7 11 8 6 10 7 11 8 12
REMARK H PARENT 11 9
REMARK Flexibility Score: inf
ROOT
ATOM      1  C   UNL     1      31.793 -15.328  40.992  1.00  0.00     0.048 C 
ATOM      2  C   UNL     1      31.599 -14.001  41.670  1.00  0.00    -0.009 A 
ATOM      3  C   UNL     1      30.863 -12.965  41.054  1.00  0.00     0.118 A 
ATOM      4  C   UNL     1      30.700 -11.740  41.711  1.00  0.00     0.050 A 
ATOM      5  C   UNL     1      31.259 -11.522  42.983  1.00  0.00    -0.042 A 
ATOM      6  C   UNL     1      31.989 -12.557  43.589  1.00  0.00     0.004 A 
ATOM      7  C   UNL     1      32.157 -13.782  42.940  1.00  0.00     0.007 A 
ENDROOT
BRANCH   3   8
ATOM      8  O   UNL     1      30.283 -13.120  39.793  1.00  0.00    -0.508 OA
ATOM      9  H   UNL     1      29.674 -13.893  39.557  1.00  0.00     0.293 HD
ENDBRANCH   3   8
BRANCH   5  10
ATOM     10  C   UNL     1      31.086 -10.197  43.700  1.00  0.00     0.013 C 
ATOM     11  C   UNL     1      29.731  -9.561  43.369  1.00  0.00     0.012 C 
ATOM     12  C   UNL     1      31.265 -10.360  45.215  1.00  0.00     0.012 C 
ENDBRANCH   5  10
TORSDOF 2
ENDMDL
MODEL 6
REMARK VINA RESULT:    -5.190      2.248      2.961
REMARK INTER + INTRA:          -5.755
REMARK INTER:                  -5.629
REMARK INTRA:                  -0.126
REMARK UNBOUND:                -0.110
REMARK SMILES Cc1ccc(C(C)C)cc1O
REMARK SMILES IDX 1 1 2 2 10 3 9 4 5 5 4 6 3 7 11 8 6 10 7 11 8 12
REMARK H PARENT 11 9
REMARK Flexibility Score: inf
ROOT
ATOM      1  C   UNL     1      32.517 -16.125  41.570  1.00  0.00     0.048 C 
ATOM      2  C   UNL     1      32.133 -14.733  41.989  1.00  0.00    -0.009 A 
ATOM      3  C   UNL     1      32.854 -14.044  42.988  1.00  0.00     0.118 A 
ATOM      4  C   UNL     1      32.471 -12.749  43.356  1.00  0.00     0.050 A 
ATOM      5  C   UNL     1      31.373 -12.118  42.743  1.00  0.00    -0.042 A 
ATOM      6  C   UNL     1      30.662 -12.810  41.750  1.00  0.00     0.004 A 
ATOM      7  C   UNL     1      31.037 -14.103  41.378  1.00  0.00     0.007 A 
ENDROOT
BRANCH   3   8
ATOM      8  O   UNL     1      33.953 -14.616  43.634  1.00  0.00    -0.508 OA
ATOM      9  H   UNL     1      34.625 -15.205  43.160  1.00  0.00     0.293 HD
ENDBRANCH   3   8
BRANCH   5  10
ATOM     10  C   UNL     1      30.954 -10.716  43.139  1.00  0.00     0.013 C 
ATOM     11  C   UNL     1      29.461 -10.489  42.874  1.00  0.00     0.012 C 
ATOM     12  C   UNL     1      31.305 -10.426  44.604  1.00  0.00     0.012 C 
ENDBRANCH   5  10
TORSDOF 2
ENDMDL
MODEL 7
REMARK VINA RESULT:    -5.126      1.799      2.815
REMARK INTER + INTRA:          -5.686
REMARK INTER:                  -5.558
REMARK INTRA:                  -0.127
REMARK UNBOUND:                -0.110
REMARK SMILES Cc1ccc(C(C)C)cc1O
REMARK SMILES IDX 1 1 2 2 10 3 9 4 5 5 4 6 3 7 11 8 6 10 7 11 8 12
REMARK H PARENT 11 9
REMARK Flexibility Score: inf
ROOT
ATOM      1  C   UNL     1      33.460 -14.925  42.307  1.00  0.00     0.048 C 
ATOM      2  C   UNL     1      32.437 -13.831  42.430  1.00  0.00    -0.009 A 
ATOM      3  C   UNL     1      31.112 -14.013  41.978  1.00  0.00     0.118 A 
ATOM      4  C   UNL     1      30.182 -12.975  42.106  1.00  0.00     0.050 A 
ATOM      5  C   UNL     1      30.548 -11.745  42.682  1.00  0.00    -0.042 A 
ATOM      6  C   UNL     1      31.867 -11.572  43.130  1.00  0.00     0.004 A 
ATOM      7  C   UNL     1      32.801 -12.603  43.005  1.00  0.00     0.007 A 
ENDROOT
BRANCH   3   8
ATOM      8  O   UNL     1      30.687 -15.211  41.397  1.00  0.00    -0.508 OA
ATOM      9  H   UNL     1      31.329 -15.912  41.048  1.00  0.00     0.293 HD
ENDBRANCH   3   8
BRANCH   5  10
ATOM     10  C   UNL     1      29.545 -10.616  42.823  1.00  0.00     0.013 C 
ATOM     11  C   UNL     1      28.270 -11.092  43.529  1.00  0.00     0.012 C 
ATOM     12  C   UNL     1      30.163  -9.415  43.551  1.00  0.00     0.012 C 
ENDBRANCH   5  10
TORSDOF 2
ENDMDL
MODEL 8
REMARK VINA RESULT:    -4.827      2.707      4.032
REMARK INTER + INTRA:          -5.361
REMARK INTER:                  -5.233
REMARK INTRA:                  -0.127
REMARK UNBOUND:                -0.110
REMARK SMILES Cc1ccc(C(C)C)cc1O
REMARK SMILES IDX 1 1 2 2 10 3 9 4 5 5 4 6 3 7 11 8 6 10 7 11 8 12
REMARK H PARENT 11 9
REMARK Flexibility Score: inf
ROOT
ATOM      1  C   UNL     1      32.865 -13.497  42.122  1.00  0.00     0.048 C 
ATOM      2  C   UNL     1      31.836 -12.519  42.615  1.00  0.00    -0.009 A 
ATOM      3  C   UNL     1      32.213 -11.344  43.302  1.00  0.00     0.118 A 
ATOM      4  C   UNL     1      31.231 -10.453  43.749  1.00  0.00     0.050 A 
ATOM      5  C   UNL     1      29.866 -10.709  43.523  1.00  0.00    -0.042 A 
ATOM      6  C   UNL     1      29.500 -11.879  42.839  1.00  0.00     0.004 A 
ATOM      7  C   UNL     1      30.474 -12.773  42.391  1.00  0.00     0.007 A 
ENDROOT
BRANCH   3   8
ATOM      8  O   UNL     1      33.551 -11.034  43.556  1.00  0.00    -0.508 OA
ATOM      9  H   UNL     1      34.321 -11.598  43.220  1.00  0.00     0.293 HD
ENDBRANCH   3   8
BRANCH   5  10
ATOM     10  C   UNL     1      28.798  -9.746  44.006  1.00  0.00     0.013 C 
ATOM     11  C   UNL     1      28.837  -8.434  43.215  1.00  0.00     0.012 C 
ATOM     12  C   UNL     1      27.406 -10.388  43.941  1.00  0.00     0.012 C 
ENDBRANCH   5  10
TORSDOF 2
ENDMDL
