MODEL 1
REMARK VINA RESULT:    -7.100      0.000      0.000
REMARK INTER + INTRA:          -7.722
REMARK INTER:                  -7.722
REMARK INTRA:                   0.000
REMARK UNBOUND:                 0.000
REMARK SMILES Cc1cc(O)c2c(c1)C(=O)c1cc(O)cc(O)c1C2=O
REMARK SMILES IDX 1 1 2 2 8 3 7 4 6 5 4 6 3 7 19 8 20 9 18 10 11 11 9 12 10 13
REMARK SMILES IDX 12 14 13 15 15 16 16 17 5 18 17 20 14 22
REMARK H PARENT 5 19 17 21 14 23
REMARK Flexibility Score: inf
ROOT
ATOM      1  C   UNL     1      26.733  14.944  37.709  1.00  0.00     0.044 C 
ATOM      2  C   UNL     1      26.506  15.003  36.227  1.00  0.00    -0.047 A 
ATOM      3  C   UNL     1      27.389  15.710  35.407  1.00  0.00     0.016 A 
ATOM      4  C   UNL     1      27.172  15.794  34.020  1.00  0.00     0.038 A 
ATOM      5  C   UNL     1      26.048  15.157  33.444  1.00  0.00     0.076 A 
ATOM      6  C   UNL     1      25.103  14.527  34.298  1.00  0.00     0.127 A 
ATOM      7  C   UNL     1      25.357  14.435  35.669  1.00  0.00     0.050 A 
ATOM      8  C   UNL     1      25.933  15.131  31.959  1.00  0.00     0.201 C 
ATOM      9  O   UNL     1      25.221  14.259  31.395  1.00  0.00    -0.288 OA
ATOM     10  C   UNL     1      26.749  16.057  31.130  1.00  0.00     0.076 A 
ATOM     11  C   UNL     1      27.829  16.742  31.727  1.00  0.00     0.041 A 
ATOM     12  C   UNL     1      28.113  16.558  33.168  1.00  0.00     0.194 C 
ATOM     13  O   UNL     1      29.150  17.070  33.675  1.00  0.00    -0.289 OA
ATOM     14  C   UNL     1      28.633  17.592  30.947  1.00  0.00     0.059 A 
ATOM     15  C   UNL     1      28.369  17.771  29.589  1.00  0.00     0.120 A 
ATOM     16  C   UNL     1      27.295  17.101  28.996  1.00  0.00     0.093 A 
ATOM     17  C   UNL     1      26.483  16.248  29.755  1.00  0.00     0.131 A 
ENDROOT
BRANCH   6  18
ATOM     18  O   UNL     1      23.887  14.015  33.838  1.00  0.00    -0.507 OA
ATOM     19  H   UNL     1      23.381  14.393  33.051  1.00  0.00     0.293 HD
ENDBRANCH   6  18
BRANCH  17  20
ATOM     20  O   UNL     1      25.409  15.602  29.141  1.00  0.00    -0.507 OA
ATOM     21  H   UNL     1      24.681  15.148  29.681  1.00  0.00     0.293 HD
ENDBRANCH  17  20
BRANCH  15  22
ATOM     22  O   UNL     1      29.178  18.620  28.837  1.00  0.00    -0.508 OA
ATOM     23  H   UNL     1      29.171  18.599  27.824  1.00  0.00     0.293 HD
ENDBRANCH  15  22
TORSDOF 3
ENDMDL
MODEL 2
REMARK VINA RESULT:    -6.747      1.238      5.491
REMARK INTER + INTRA:          -7.339
REMARK INTER:                  -7.339
REMARK INTRA:                   0.000
REMARK UNBOUND:                 0.000
REMARK SMILES Cc1cc(O)c2c(c1)C(=O)c1cc(O)cc(O)c1C2=O
REMARK SMILES IDX 1 1 2 2 8 3 7 4 6 5 4 6 3 7 19 8 20 9 18 10 11 11 9 12 10 13
REMARK SMILES IDX 12 14 13 15 15 16 16 17 5 18 17 20 14 22
REMARK H PARENT 5 19 17 21 14 23
REMARK Flexibility Score: inf
ROOT
ATOM      1  C   UNL     1      29.877  18.736  28.876  1.00  0.00     0.044 C 
ATOM      2  C   UNL     1      28.868  17.927  29.636  1.00  0.00    -0.047 A 
ATOM      3  C   UNL     1      28.947  17.829  31.028  1.00  0.00     0.016 A 
ATOM      4  C   UNL     1      28.021  17.054  31.748  1.00  0.00     0.038 A 
ATOM      5  C   UNL     1      26.997  16.361  31.061  1.00  0.00     0.076 A 
ATOM      6  C   UNL     1      26.985  16.385  29.639  1.00  0.00     0.127 A 
ATOM      7  C   UNL     1      27.901  17.186  28.950  1.00  0.00     0.050 A 
ATOM      8  C   UNL     1      25.942  15.680  31.862  1.00  0.00     0.201 C 
ATOM      9  O   UNL     1      24.824  15.420  31.345  1.00  0.00    -0.288 OA
ATOM     10  C   UNL     1      26.160  15.408  33.307  1.00  0.00     0.076 A 
ATOM     11  C   UNL     1      27.226  16.050  33.973  1.00  0.00     0.041 A 
ATOM     12  C   UNL     1      28.128  16.952  33.222  1.00  0.00     0.194 C 
ATOM     13  O   UNL     1      29.003  17.622  33.839  1.00  0.00    -0.289 OA
ATOM     14  C   UNL     1      27.423  15.832  35.349  1.00  0.00     0.059 A 
ATOM     15  C   UNL     1      26.577  14.980  36.061  1.00  0.00     0.120 A 
ATOM     16  C   UNL     1      25.525  14.337  35.403  1.00  0.00     0.093 A 
ATOM     17  C   UNL     1      25.311  14.541  34.034  1.00  0.00     0.131 A 
ENDROOT
BRANCH   6  18
ATOM     18  O   UNL     1      26.115  15.606  28.874  1.00  0.00    -0.507 OA
ATOM     19  H   UNL     1      25.868  15.816  27.918  1.00  0.00     0.293 HD
ENDBRANCH   6  18
BRANCH  17  20
ATOM     20  O   UNL     1      24.262  13.875  33.398  1.00  0.00    -0.507 OA
ATOM     21  H   UNL     1      23.378  14.333  33.208  1.00  0.00     0.293 HD
ENDBRANCH  17  20
BRANCH  15  22
ATOM     22  O   UNL     1      26.793  14.779  37.422  1.00  0.00    -0.508 OA
ATOM     23  H   UNL     1      27.725  14.655  37.798  1.00  0.00     0.293 HD
ENDBRANCH  15  22
TORSDOF 3
ENDMDL
MODEL 3
REMARK VINA RESULT:    -6.293      2.336      5.654
REMARK INTER + INTRA:          -6.845
REMARK INTER:                  -6.845
REMARK INTRA:                   0.000
REMARK UNBOUND:                 0.000
REMARK SMILES Cc1cc(O)c2c(c1)C(=O)c1cc(O)cc(O)c1C2=O
REMARK SMILES IDX 1 1 2 2 8 3 7 4 6 5 4 6 3 7 19 8 20 9 18 10 11 11 9 12 10 13
REMARK SMILES IDX 12 14 13 15 15 16 16 17 5 18 17 20 14 22
REMARK H PARENT 5 19 17 21 14 23
REMARK Flexibility Score: inf
ROOT
ATOM      1  C   UNL     1      21.122  13.878  29.820  1.00  0.00     0.044 C 
ATOM      2  C   UNL     1      22.493  14.233  30.314  1.00  0.00    -0.047 A 
ATOM      3  C   UNL     1      22.804  14.122  31.672  1.00  0.00     0.016 A 
ATOM      4  C   UNL     1      24.078  14.475  32.150  1.00  0.00     0.038 A 
ATOM      5  C   UNL     1      25.060  14.951  31.250  1.00  0.00     0.076 A 
ATOM      6  C   UNL     1      24.704  15.156  29.889  1.00  0.00     0.127 A 
ATOM      7  C   UNL     1      23.439  14.770  29.436  1.00  0.00     0.050 A 
ATOM      8  C   UNL     1      26.443  15.166  31.761  1.00  0.00     0.201 C 
ATOM      9  O   UNL     1      27.417  15.178  30.963  1.00  0.00    -0.288 OA
ATOM     10  C   UNL     1      26.695  15.250  33.223  1.00  0.00     0.076 A 
ATOM     11  C   UNL     1      25.685  14.837  34.119  1.00  0.00     0.041 A 
ATOM     12  C   UNL     1      24.384  14.363  33.595  1.00  0.00     0.194 C 
ATOM     13  O   UNL     1      23.528  13.878  34.386  1.00  0.00    -0.289 OA
ATOM     14  C   UNL     1      25.922  14.876  35.504  1.00  0.00     0.059 A 
ATOM     15  C   UNL     1      27.145  15.326  36.004  1.00  0.00     0.120 A 
ATOM     16  C   UNL     1      28.145  15.742  35.120  1.00  0.00     0.093 A 
ATOM     17  C   UNL     1      27.929  15.710  33.736  1.00  0.00     0.131 A 
ENDROOT
BRANCH   6  18
ATOM     18  O   UNL     1      25.554  15.770  28.966  1.00  0.00    -0.507 OA
ATOM     19  H   UNL     1      25.955  16.687  29.096  1.00  0.00     0.293 HD
ENDBRANCH   6  18
BRANCH  17  20
ATOM     20  O   UNL     1      28.940  16.146  32.877  1.00  0.00    -0.507 OA
ATOM     21  H   UNL     1      29.330  17.079  32.943  1.00  0.00     0.293 HD
ENDBRANCH  17  20
BRANCH  15  22
ATOM     22  O   UNL     1      27.356  15.356  37.380  1.00  0.00    -0.508 OA
ATOM     23  H   UNL     1      28.205  15.741  37.777  1.00  0.00     0.293 HD
ENDBRANCH  15  22
TORSDOF 3
ENDMDL
MODEL 4
REMARK VINA RESULT:    -5.912      1.901      4.039
REMARK INTER + INTRA:          -6.430
REMARK INTER:                  -6.430
REMARK INTRA:                   0.000
REMARK UNBOUND:                 0.000
REMARK SMILES Cc1cc(O)c2c(c1)C(=O)c1cc(O)cc(O)c1C2=O
REMARK SMILES IDX 1 1 2 2 8 3 7 4 6 5 4 6 3 7 19 8 20 9 18 10 11 11 9 12 10 13
REMARK SMILES IDX 12 14 13 15 15 16 16 17 5 18 17 20 14 22
REMARK H PARENT 5 19 17 21 14 23
REMARK Flexibility Score: inf
ROOT
ATOM      1  C   UNL     1      26.750  14.625  37.468  1.00  0.00     0.044 C 
ATOM      2  C   UNL     1      26.678  14.903  35.996  1.00  0.00    -0.047 A 
ATOM      3  C   UNL     1      25.514  14.612  35.279  1.00  0.00     0.016 A 
ATOM      4  C   UNL     1      25.444  14.846  33.895  1.00  0.00     0.038 A 
ATOM      5  C   UNL     1      26.563  15.380  33.214  1.00  0.00     0.076 A 
ATOM      6  C   UNL     1      27.774  15.579  33.931  1.00  0.00     0.127 A 
ATOM      7  C   UNL     1      27.807  15.364  35.312  1.00  0.00     0.050 A 
ATOM      8  C   UNL     1      26.405  15.763  31.783  1.00  0.00     0.201 C 
ATOM      9  O   UNL     1      27.190  16.596  31.260  1.00  0.00    -0.288 OA
ATOM     10  C   UNL     1      25.250  15.254  30.996  1.00  0.00     0.076 A 
ATOM     11  C   UNL     1      24.165  14.659  31.677  1.00  0.00     0.041 A 
ATOM     12  C   UNL     1      24.206  14.519  33.150  1.00  0.00     0.194 C 
ATOM     13  O   UNL     1      23.188  14.103  33.770  1.00  0.00    -0.289 OA
ATOM     14  C   UNL     1      23.049  14.206  30.951  1.00  0.00     0.059 A 
ATOM     15  C   UNL     1      23.007  14.333  29.561  1.00  0.00     0.120 A 
ATOM     16  C   UNL     1      24.083  14.914  28.884  1.00  0.00     0.093 A 
ATOM     17  C   UNL     1      25.203  15.372  29.589  1.00  0.00     0.131 A 
ENDROOT
BRANCH   6  18
ATOM     18  O   UNL     1      28.971  15.949  33.313  1.00  0.00    -0.507 OA
ATOM     19  H   UNL     1      29.022  16.546  32.501  1.00  0.00     0.293 HD
ENDBRANCH   6  18
BRANCH  17  20
ATOM     20  O   UNL     1      26.269  15.936  28.886  1.00  0.00    -0.507 OA
ATOM     21  H   UNL     1      26.226  16.090  27.885  1.00  0.00     0.293 HD
ENDBRANCH  17  20
BRANCH  15  22
ATOM     22  O   UNL     1      21.892  13.875  28.863  1.00  0.00    -0.508 OA
ATOM     23  H   UNL     1      21.507  12.952  29.026  1.00  0.00     0.293 HD
ENDBRANCH  15  22
TORSDOF 3
ENDMDL
MODEL 5
REMARK VINA RESULT:    -5.816      2.566      4.539
REMARK INTER + INTRA:          -6.326
REMARK INTER:                  -6.326
REMARK INTRA:                   0.000
REMARK UNBOUND:                 0.000
REMARK SMILES Cc1cc(O)c2c(c1)C(=O)c1cc(O)cc(O)c1C2=O
REMARK SMILES IDX 1 1 2 2 8 3 7 4 6 5 4 6 3 7 19 8 20 9 18 10 11 11 9 12 10 13
REMARK SMILES IDX 12 14 13 15 15 16 16 17 5 18 17 20 14 22
REMARK H PARENT 5 19 17 21 14 23
REMARK Flexibility Score: inf
ROOT
ATOM      1  C   UNL     1      29.370  16.094  34.061  1.00  0.00     0.044 C 
ATOM      2  C   UNL     1      27.945  15.679  33.846  1.00  0.00    -0.047 A 
ATOM      3  C   UNL     1      27.462  15.460  32.552  1.00  0.00     0.016 A 
ATOM      4  C   UNL     1      26.122  15.095  32.337  1.00  0.00     0.038 A 
ATOM      5  C   UNL     1      25.247  14.947  33.438  1.00  0.00     0.076 A 
ATOM      6  C   UNL     1      25.719  15.269  34.740  1.00  0.00     0.127 A 
ATOM      7  C   UNL     1      27.064  15.603  34.928  1.00  0.00     0.050 A 
ATOM      8  C   UNL     1      23.881  14.407  33.190  1.00  0.00     0.201 C 
ATOM      9  O   UNL     1      23.230  13.875  34.128  1.00  0.00    -0.288 OA
ATOM     10  C   UNL     1      23.324  14.387  31.812  1.00  0.00     0.076 A 
ATOM     11  C   UNL     1      24.191  14.603  30.718  1.00  0.00     0.041 A 
ATOM     12  C   UNL     1      25.625  14.879  30.958  1.00  0.00     0.194 C 
ATOM     13  O   UNL     1      26.423  14.948  29.982  1.00  0.00    -0.289 OA
ATOM     14  C   UNL     1      23.687  14.551  29.407  1.00  0.00     0.059 A 
ATOM     15  C   UNL     1      22.334  14.294  29.176  1.00  0.00     0.120 A 
ATOM     16  C   UNL     1      21.472  14.088  30.256  1.00  0.00     0.093 A 
ATOM     17  C   UNL     1      21.954  14.135  31.570  1.00  0.00     0.131 A 
ENDROOT
BRANCH   6  18
ATOM     18  O   UNL     1      24.888  15.309  35.862  1.00  0.00    -0.507 OA
ATOM     19  H   UNL     1      24.486  16.157  36.232  1.00  0.00     0.293 HD
ENDBRANCH   6  18
BRANCH  17  20
ATOM     20  O   UNL     1      21.069  13.939  32.631  1.00  0.00    -0.507 OA
ATOM     21  H   UNL     1      21.235  14.344  33.545  1.00  0.00     0.293 HD
ENDBRANCH  17  20
BRANCH  15  22
ATOM     22  O   UNL     1      21.858  14.249  27.867  1.00  0.00    -0.508 OA
ATOM     23  H   UNL     1      22.416  14.578  27.089  1.00  0.00     0.293 HD
ENDBRANCH  15  22
TORSDOF 3
ENDMDL
MODEL 6
REMARK VINA RESULT:    -5.528      2.252      5.769
REMARK INTER + INTRA:          -6.013
REMARK INTER:                  -6.013
REMARK INTRA:                   0.000
REMARK UNBOUND:                 0.000
REMARK SMILES Cc1cc(O)c2c(c1)C(=O)c1cc(O)cc(O)c1C2=O
REMARK SMILES IDX 1 1 2 2 8 3 7 4 6 5 4 6 3 7 19 8 20 9 18 10 11 11 9 12 10 13
REMARK SMILES IDX 12 14 13 15 15 16 16 17 5 18 17 20 14 22
REMARK H PARENT 5 19 17 21 14 23
REMARK Flexibility Score: inf
ROOT
ATOM      1  C   UNL     1      29.357  17.892  29.515  1.00  0.00     0.044 C 
ATOM      2  C   UNL     1      28.407  17.163  30.418  1.00  0.00    -0.047 A 
ATOM      3  C   UNL     1      27.173  16.719  29.932  1.00  0.00     0.016 A 
ATOM      4  C   UNL     1      26.265  16.056  30.776  1.00  0.00     0.038 A 
ATOM      5  C   UNL     1      26.597  15.833  32.132  1.00  0.00     0.076 A 
ATOM      6  C   UNL     1      27.809  16.376  32.641  1.00  0.00     0.127 A 
ATOM      7  C   UNL     1      28.706  17.007  31.774  1.00  0.00     0.050 A 
ATOM      8  C   UNL     1      25.685  14.992  32.956  1.00  0.00     0.201 C 
ATOM      9  O   UNL     1      26.112  14.428  33.998  1.00  0.00    -0.288 OA
ATOM     10  C   UNL     1      24.299  14.718  32.493  1.00  0.00     0.076 A 
ATOM     11  C   UNL     1      23.953  15.006  31.155  1.00  0.00     0.041 A 
ATOM     12  C   UNL     1      24.957  15.605  30.246  1.00  0.00     0.194 C 
ATOM     13  O   UNL     1      24.689  15.747  29.020  1.00  0.00    -0.289 OA
ATOM     14  C   UNL     1      22.657  14.718  30.691  1.00  0.00     0.059 A 
ATOM     15  C   UNL     1      21.706  14.157  31.545  1.00  0.00     0.120 A 
ATOM     16  C   UNL     1      22.042  13.878  32.872  1.00  0.00     0.093 A 
ATOM     17  C   UNL     1      23.328  14.156  33.353  1.00  0.00     0.131 A 
ENDROOT
BRANCH   6  18
ATOM     18  O   UNL     1      28.144  16.346  33.997  1.00  0.00    -0.507 OA
ATOM     19  H   UNL     1      28.854  16.932  34.412  1.00  0.00     0.293 HD
ENDBRANCH   6  18
BRANCH  17  20
ATOM     20  O   UNL     1      23.634  13.881  34.687  1.00  0.00    -0.507 OA
ATOM     21  H   UNL     1      23.050  14.212  35.447  1.00  0.00     0.293 HD
ENDBRANCH  17  20
BRANCH  15  22
ATOM     22  O   UNL     1      20.428  13.882  31.063  1.00  0.00    -0.508 OA
ATOM     23  H   UNL     1      20.255  13.109  30.431  1.00  0.00     0.293 HD
ENDBRANCH  15  22
TORSDOF 3
ENDMDL
MODEL 7
REMARK VINA RESULT:    -5.429      2.500      5.092
REMARK INTER + INTRA:          -5.905
REMARK INTER:                  -5.905
REMARK INTRA:                   0.000
REMARK UNBOUND:                 0.000
REMARK SMILES Cc1cc(O)c2c(c1)C(=O)c1cc(O)cc(O)c1C2=O
REMARK SMILES IDX 1 1 2 2 8 3 7 4 6 5 4 6 3 7 19 8 20 9 18 10 11 11 9 12 10 13
REMARK SMILES IDX 12 14 13 15 15 16 16 17 5 18 17 20 14 22
REMARK H PARENT 5 19 17 21 14 23
REMARK Flexibility Score: inf
ROOT
ATOM      1  C   UNL     1      29.819  15.018  34.125  1.00  0.00     0.044 C 
ATOM      2  C   UNL     1      28.644  15.043  33.193  1.00  0.00    -0.047 A 
ATOM      3  C   UNL     1      27.346  14.898  33.691  1.00  0.00     0.016 A 
ATOM      4  C   UNL     1      26.240  14.895  32.824  1.00  0.00     0.038 A 
ATOM      5  C   UNL     1      26.436  15.039  31.431  1.00  0.00     0.076 A 
ATOM      6  C   UNL     1      27.764  15.085  30.925  1.00  0.00     0.127 A 
ATOM      7  C   UNL     1      28.845  15.113  31.811  1.00  0.00     0.050 A 
ATOM      8  C   UNL     1      25.238  15.191  30.558  1.00  0.00     0.201 C 
ATOM      9  O   UNL     1      25.346  15.723  29.422  1.00  0.00    -0.288 OA
ATOM     10  C   UNL     1      23.891  14.822  31.068  1.00  0.00     0.076 A 
ATOM     11  C   UNL     1      23.715  14.613  32.453  1.00  0.00     0.041 A 
ATOM     12  C   UNL     1      24.872  14.727  33.369  1.00  0.00     0.194 C 
ATOM     13  O   UNL     1      24.694  14.664  34.617  1.00  0.00    -0.289 OA
ATOM     14  C   UNL     1      22.439  14.300  32.955  1.00  0.00     0.059 A 
ATOM     15  C   UNL     1      21.346  14.188  32.095  1.00  0.00     0.120 A 
ATOM     16  C   UNL     1      21.518  14.387  30.723  1.00  0.00     0.093 A 
ATOM     17  C   UNL     1      22.780  14.700  30.202  1.00  0.00     0.131 A 
ENDROOT
BRANCH   6  18
ATOM     18  O   UNL     1      28.058  15.064  29.559  1.00  0.00    -0.507 OA
ATOM     19  H   UNL     1      28.991  14.958  29.188  1.00  0.00     0.293 HD
ENDBRANCH   6  18
BRANCH  17  20
ATOM     20  O   UNL     1      22.927  14.880  28.826  1.00  0.00    -0.507 OA
ATOM     21  H   UNL     1      23.300  14.149  28.230  1.00  0.00     0.293 HD
ENDBRANCH  17  20
BRANCH  15  22
ATOM     22  O   UNL     1      20.092  13.876  32.616  1.00  0.00    -0.508 OA
ATOM     23  H   UNL     1      19.917  12.993  33.081  1.00  0.00     0.293 HD
ENDBRANCH  15  22
TORSDOF 3
ENDMDL
MODEL 8
REMARK VINA RESULT:    -5.201     15.348     17.347
REMARK INTER + INTRA:          -5.657
REMARK INTER:                  -5.657
REMARK INTRA:                   0.000
REMARK UNBOUND:                 0.000
REMARK SMILES Cc1cc(O)c2c(c1)C(=O)c1cc(O)cc(O)c1C2=O
REMARK SMILES IDX 1 1 2 2 8 3 7 4 6 5 4 6 3 7 19 8 20 9 18 10 11 11 9 12 10 13
REMARK SMILES IDX 12 14 13 15 15 16 16 17 5 18 17 20 14 22
REMARK H PARENT 5 19 17 21 14 23
REMARK Flexibility Score: inf
ROOT
ATOM      1  C   UNL     1      11.354  16.973  37.794  1.00  0.00     0.044 C 
ATOM      2  C   UNL     1      12.042  18.235  38.226  1.00  0.00    -0.047 A 
ATOM      3  C   UNL     1      11.300  19.394  38.471  1.00  0.00     0.016 A 
ATOM      4  C   UNL     1      11.937  20.588  38.852  1.00  0.00     0.038 A 
ATOM      5  C   UNL     1      13.344  20.622  38.990  1.00  0.00     0.076 A 
ATOM      6  C   UNL     1      14.098  19.468  38.642  1.00  0.00     0.127 A 
ATOM      7  C   UNL     1      13.437  18.286  38.292  1.00  0.00     0.050 A 
ATOM      8  C   UNL     1      13.971  21.853  39.547  1.00  0.00     0.201 C 
ATOM      9  O   UNL     1      15.116  21.800  40.069  1.00  0.00    -0.288 OA
ATOM     10  C   UNL     1      13.205  23.127  39.594  1.00  0.00     0.076 A 
ATOM     11  C   UNL     1      11.808  23.095  39.388  1.00  0.00     0.041 A 
ATOM     12  C   UNL     1      11.135  21.810  39.095  1.00  0.00     0.194 C 
ATOM     13  O   UNL     1       9.875  21.760  39.035  1.00  0.00    -0.289 OA
ATOM     14  C   UNL     1      11.064  24.285  39.467  1.00  0.00     0.059 A 
ATOM     15  C   UNL     1      11.695  25.500  39.740  1.00  0.00     0.120 A 
ATOM     16  C   UNL     1      13.078  25.536  39.936  1.00  0.00     0.093 A 
ATOM     17  C   UNL     1      13.837  24.362  39.864  1.00  0.00     0.131 A 
ENDROOT
BRANCH   6  18
ATOM     18  O   UNL     1      15.494  19.458  38.592  1.00  0.00    -0.507 OA
ATOM     19  H   UNL     1      16.030  19.840  37.827  1.00  0.00     0.293 HD
ENDBRANCH   6  18
BRANCH  17  20
ATOM     20  O   UNL     1      15.219  24.428  40.050  1.00  0.00    -0.507 OA
ATOM     21  H   UNL     1      15.728  23.694  40.529  1.00  0.00     0.293 HD
ENDBRANCH  17  20
BRANCH  15  22
ATOM     22  O   UNL     1      10.936  26.667  39.812  1.00  0.00    -0.508 OA
ATOM     23  H   UNL     1       9.973  26.692  39.498  1.00  0.00     0.293 HD
ENDBRANCH  15  22
TORSDOF 3
ENDMDL
MODEL 9
REMARK VINA RESULT:    -4.888      2.416      4.261
REMARK INTER + INTRA:          -5.317
REMARK INTER:                  -5.317
REMARK INTRA:                   0.000
REMARK UNBOUND:                 0.000
REMARK SMILES Cc1cc(O)c2c(c1)C(=O)c1cc(O)cc(O)c1C2=O
REMARK SMILES IDX 1 1 2 2 8 3 7 4 6 5 4 6 3 7 19 8 20 9 18 10 11 11 9 12 10 13
REMARK SMILES IDX 12 14 13 15 15 16 16 17 5 18 17 20 14 22
REMARK H PARENT 5 19 17 21 14 23
REMARK Flexibility Score: inf
ROOT
ATOM      1  C   UNL     1      20.549  13.982  31.462  1.00  0.00     0.044 C 
ATOM      2  C   UNL     1      21.953  14.211  31.936  1.00  0.00    -0.047 A 
ATOM      3  C   UNL     1      22.965  14.521  31.022  1.00  0.00     0.016 A 
ATOM      4  C   UNL     1      24.289  14.714  31.453  1.00  0.00     0.038 A 
ATOM      5  C   UNL     1      24.608  14.591  32.826  1.00  0.00     0.076 A 
ATOM      6  C   UNL     1      23.594  14.178  33.733  1.00  0.00     0.127 A 
ATOM      7  C   UNL     1      22.280  14.020  33.282  1.00  0.00     0.050 A 
ATOM      8  C   UNL     1      25.983  14.955  33.269  1.00  0.00     0.201 C 
ATOM      9  O   UNL     1      26.200  15.264  34.470  1.00  0.00    -0.288 OA
ATOM     10  C   UNL     1      27.082  15.070  32.275  1.00  0.00     0.076 A 
ATOM     11  C   UNL     1      26.762  15.123  30.901  1.00  0.00     0.041 A 
ATOM     12  C   UNL     1      25.350  15.029  30.468  1.00  0.00     0.194 C 
ATOM     13  O   UNL     1      25.052  15.202  29.253  1.00  0.00    -0.289 OA
ATOM     14  C   UNL     1      27.788  15.269  29.950  1.00  0.00     0.059 A 
ATOM     15  C   UNL     1      29.122  15.355  30.352  1.00  0.00     0.120 A 
ATOM     16  C   UNL     1      29.443  15.294  31.711  1.00  0.00     0.093 A 
ATOM     17  C   UNL     1      28.436  15.151  32.674  1.00  0.00     0.131 A 
ENDROOT
BRANCH   6  18
ATOM     18  O   UNL     1      23.850  13.875  35.072  1.00  0.00    -0.507 OA
ATOM     19  H   UNL     1      24.771  13.893  35.485  1.00  0.00     0.293 HD
ENDBRANCH   6  18
BRANCH  17  20
ATOM     20  O   UNL     1      28.785  15.079  34.023  1.00  0.00    -0.507 OA
ATOM     21  H   UNL     1      28.733  15.889  34.631  1.00  0.00     0.293 HD
ENDBRANCH  17  20
BRANCH  15  22
ATOM     22  O   UNL     1      30.121  15.498  29.392  1.00  0.00    -0.508 OA
ATOM     23  H   UNL     1      29.936  15.934  28.497  1.00  0.00     0.293 HD
ENDBRANCH  15  22
TORSDOF 3
ENDMDL
