MODEL 1
REMARK VINA RESULT:    -4.760      0.000      0.000
REMARK INTER + INTRA:          -7.187
REMARK INTER:                  -6.708
REMARK INTRA:                  -0.479
REMARK UNBOUND:                -0.479
REMARK SMILES CCCCCCCCC(=O)[O-]
REMARK SMILES IDX 6 1 7 2 8 3 9 4 10 5 11 6 5 7 4 8 3 9 2 10 1 11
REMARK H PARENT
REMARK Flexibility Score: inf
ROOT
ATOM      1  C   UNL     1       8.408  23.069  -9.270  1.00  0.00     0.000 C 
ENDROOT
BRANCH   1   2
ATOM      2  C   UNL     1       7.691  24.232  -8.554  1.00  0.00     0.006 C 
BRANCH   2   3
ATOM      3  C   UNL     1       6.601  23.798  -7.564  1.00  0.00     0.053 C 
BRANCH   3   4
ATOM      4  C   UNL     1       6.948  24.164  -6.153  1.00  0.00     0.041 C 
ATOM      5  O   UNL     1       6.564  25.261  -5.669  1.00  0.00    -0.550 OA
ATOM      6  O   UNL     1       7.668  23.277  -5.362  1.00  0.00    -0.550 OA
ENDBRANCH   3   4
ENDBRANCH   2   3
ENDBRANCH   1   2
BRANCH   1   7
ATOM      7  C   UNL     1       9.391  22.270  -8.396  1.00  0.00     0.000 C 
BRANCH   7   8
ATOM      8  C   UNL     1      10.803  22.198  -8.996  1.00  0.00    -0.000 C 
BRANCH   8   9
ATOM      9  C   UNL     1      10.980  23.241 -10.109  1.00  0.00    -0.000 C 
BRANCH   9  10
ATOM     10  C   UNL     1      11.786  24.466  -9.649  1.00  0.00    -0.003 C 
ATOM     11  C   UNL     1      12.819  24.126  -8.575  1.00  0.00     0.004 C 
ENDBRANCH   9  10
ENDBRANCH   8   9
ENDBRANCH   7   8
ENDBRANCH   1   7
TORSDOF 7
ENDMDL
MODEL 2
REMARK VINA RESULT:    -4.749      1.386      2.254
REMARK INTER + INTRA:          -7.171
REMARK INTER:                  -6.617
REMARK INTRA:                  -0.554
REMARK UNBOUND:                -0.479
REMARK SMILES CCCCCCCCC(=O)[O-]
REMARK SMILES IDX 6 1 7 2 8 3 9 4 10 5 11 6 5 7 4 8 3 9 2 10 1 11
REMARK H PARENT
REMARK Flexibility Score: inf
ROOT
ATOM      1  C   UNL     1       7.905  22.864  -9.540  1.00  0.00     0.000 C 
ENDROOT
BRANCH   1   2
ATOM      2  C   UNL     1       7.605  24.049  -8.600  1.00  0.00     0.006 C 
BRANCH   2   3
ATOM      3  C   UNL     1       6.515  23.775  -7.554  1.00  0.00     0.053 C 
BRANCH   3   4
ATOM      4  C   UNL     1       6.966  24.128  -6.169  1.00  0.00     0.041 C 
ATOM      5  O   UNL     1       6.663  25.243  -5.668  1.00  0.00    -0.550 OA
ATOM      6  O   UNL     1       7.692  23.212  -5.420  1.00  0.00    -0.550 OA
ENDBRANCH   3   4
ENDBRANCH   2   3
ENDBRANCH   1   2
BRANCH   1   7
ATOM      7  C   UNL     1       9.368  22.387  -9.545  1.00  0.00     0.000 C 
BRANCH   7   8
ATOM      8  C   UNL     1      10.194  22.978  -8.392  1.00  0.00    -0.000 C 
BRANCH   8   9
ATOM      9  C   UNL     1      10.454  21.924  -7.306  1.00  0.00    -0.000 C 
BRANCH   9  10
ATOM     10  C   UNL     1      10.222  20.490  -7.807  1.00  0.00    -0.003 C 
ATOM     11  C   UNL     1      11.525  19.731  -8.055  1.00  0.00     0.004 C 
ENDBRANCH   9  10
ENDBRANCH   8   9
ENDBRANCH   7   8
ENDBRANCH   1   7
TORSDOF 7
ENDMDL
MODEL 3
REMARK VINA RESULT:    -4.713      2.958      5.025
REMARK INTER + INTRA:          -7.121
REMARK INTER:                  -6.644
REMARK INTRA:                  -0.477
REMARK UNBOUND:                -0.479
REMARK SMILES CCCCCCCCC(=O)[O-]
REMARK SMILES IDX 6 1 7 2 8 3 9 4 10 5 11 6 5 7 4 8 3 9 2 10 1 11
REMARK H PARENT
REMARK Flexibility Score: inf
ROOT
ATOM      1  C   UNL     1       8.880  22.207  -9.287  1.00  0.00     0.000 C 
ENDROOT
BRANCH   1   2
ATOM      2  C   UNL     1      10.222  22.814  -9.745  1.00  0.00     0.006 C 
BRANCH   2   3
ATOM      3  C   UNL     1      11.209  23.111  -8.608  1.00  0.00     0.053 C 
BRANCH   3   4
ATOM      4  C   UNL     1      12.188  24.182  -8.981  1.00  0.00     0.041 C 
ATOM      5  O   UNL     1      13.131  24.480  -8.202  1.00  0.00    -0.550 OA
ATOM      6  O   UNL     1      12.077  24.828 -10.206  1.00  0.00    -0.550 OA
ENDBRANCH   3   4
ENDBRANCH   2   3
ENDBRANCH   1   2
BRANCH   1   7
ATOM      7  C   UNL     1       7.657  22.615 -10.129  1.00  0.00     0.000 C 
BRANCH   7   8
ATOM      8  C   UNL     1       6.609  23.397  -9.322  1.00  0.00    -0.000 C 
BRANCH   8   9
ATOM      9  C   UNL     1       7.276  24.241  -8.226  1.00  0.00    -0.000 C 
BRANCH   9  10
ATOM     10  C   UNL     1       6.655  24.008  -6.840  1.00  0.00    -0.003 C 
ATOM     11  C   UNL     1       7.596  23.277  -5.884  1.00  0.00     0.004 C 
ENDBRANCH   9  10
ENDBRANCH   8   9
ENDBRANCH   7   8
ENDBRANCH   1   7
TORSDOF 7
ENDMDL
MODEL 4
REMARK VINA RESULT:    -4.659      2.099      4.431
REMARK INTER + INTRA:          -7.045
REMARK INTER:                  -6.534
REMARK INTRA:                  -0.511
REMARK UNBOUND:                -0.479
REMARK SMILES CCCCCCCCC(=O)[O-]
REMARK SMILES IDX 6 1 7 2 8 3 9 4 10 5 11 6 5 7 4 8 3 9 2 10 1 11
REMARK H PARENT
REMARK Flexibility Score: inf
ROOT
ATOM      1  C   UNL     1       9.341  23.249  -9.449  1.00  0.00     0.000 C 
ENDROOT
BRANCH   1   2
ATOM      2  C   UNL     1      10.474  22.214  -9.294  1.00  0.00     0.006 C 
BRANCH   2   3
ATOM      3  C   UNL     1      10.241  21.174  -8.188  1.00  0.00     0.053 C 
BRANCH   3   4
ATOM      4  C   UNL     1      10.428  21.759  -6.821  1.00  0.00     0.041 C 
ATOM      5  O   UNL     1       9.445  21.880  -6.043  1.00  0.00    -0.550 OA
ATOM      6  O   UNL     1      11.694  22.140  -6.396  1.00  0.00    -0.550 OA
ENDBRANCH   3   4
ENDBRANCH   2   3
ENDBRANCH   1   2
BRANCH   1   7
ATOM      7  C   UNL     1       7.935  22.654  -9.647  1.00  0.00     0.000 C 
BRANCH   7   8
ATOM      8  C   UNL     1       6.814  23.603  -9.194  1.00  0.00    -0.000 C 
BRANCH   8   9
ATOM      9  C   UNL     1       7.273  24.469  -8.012  1.00  0.00    -0.000 C 
BRANCH   9  10
ATOM     10  C   UNL     1       6.665  24.015  -6.675  1.00  0.00    -0.003 C 
ATOM     11  C   UNL     1       6.564  25.148  -5.655  1.00  0.00     0.004 C 
ENDBRANCH   9  10
ENDBRANCH   8   9
ENDBRANCH   7   8
ENDBRANCH   1   7
TORSDOF 7
ENDMDL
MODEL 5
REMARK VINA RESULT:    -4.642      2.112      4.151
REMARK INTER + INTRA:          -7.020
REMARK INTER:                  -6.436
REMARK INTRA:                  -0.584
REMARK UNBOUND:                -0.479
REMARK SMILES CCCCCCCCC(=O)[O-]
REMARK SMILES IDX 6 1 7 2 8 3 9 4 10 5 11 6 5 7 4 8 3 9 2 10 1 11
REMARK H PARENT
REMARK Flexibility Score: inf
ROOT
ATOM      1  C   UNL     1       8.522  23.569  -8.952  1.00  0.00     0.000 C 
ENDROOT
BRANCH   1   2
ATOM      2  C   UNL     1       7.478  24.493  -8.292  1.00  0.00     0.006 C 
BRANCH   2   3
ATOM      3  C   UNL     1       6.562  23.798  -7.275  1.00  0.00     0.053 C 
BRANCH   3   4
ATOM      4  C   UNL     1       6.928  24.145  -5.864  1.00  0.00     0.041 C 
ATOM      5  O   UNL     1       7.604  23.342  -5.168  1.00  0.00    -0.550 OA
ATOM      6  O   UNL     1       6.550  25.370  -5.329  1.00  0.00    -0.550 OA
ENDBRANCH   3   4
ENDBRANCH   2   3
ENDBRANCH   1   2
BRANCH   1   7
ATOM      7  C   UNL     1       7.944  22.324  -9.650  1.00  0.00     0.000 C 
BRANCH   7   8
ATOM      8  C   UNL     1       6.968  22.673 -10.783  1.00  0.00    -0.000 C 
BRANCH   8   9
ATOM      9  C   UNL     1       5.536  22.249 -10.424  1.00  0.00    -0.000 C 
BRANCH   9  10
ATOM     10  C   UNL     1       4.587  23.447 -10.265  1.00  0.00    -0.003 C 
ATOM     11  C   UNL     1       4.782  24.505 -11.350  1.00  0.00     0.004 C 
ENDBRANCH   9  10
ENDBRANCH   8   9
ENDBRANCH   7   8
ENDBRANCH   1   7
TORSDOF 7
ENDMDL
MODEL 6
REMARK VINA RESULT:    -4.534      1.415      2.022
REMARK INTER + INTRA:          -6.868
REMARK INTER:                  -6.147
REMARK INTRA:                  -0.721
REMARK UNBOUND:                -0.479
REMARK SMILES CCCCCCCCC(=O)[O-]
REMARK SMILES IDX 6 1 7 2 8 3 9 4 10 5 11 6 5 7 4 8 3 9 2 10 1 11
REMARK H PARENT
REMARK Flexibility Score: inf
ROOT
ATOM      1  C   UNL     1       9.518  21.756  -8.816  1.00  0.00     0.000 C 
ENDROOT
BRANCH   1   2
ATOM      2  C   UNL     1       8.478  22.718  -9.426  1.00  0.00     0.006 C 
BRANCH   2   3
ATOM      3  C   UNL     1       8.279  24.024  -8.642  1.00  0.00     0.053 C 
BRANCH   3   4
ATOM      4  C   UNL     1       6.940  24.076  -7.972  1.00  0.00     0.041 C 
ATOM      5  O   UNL     1       5.953  23.479  -8.477  1.00  0.00    -0.550 OA
ATOM      6  O   UNL     1       6.791  24.757  -6.771  1.00  0.00    -0.550 OA
ENDBRANCH   3   4
ENDBRANCH   2   3
ENDBRANCH   1   2
BRANCH   1   7
ATOM      7  C   UNL     1       9.871  22.026  -7.342  1.00  0.00     0.000 C 
BRANCH   7   8
ATOM      8  C   UNL     1      11.382  22.177  -7.107  1.00  0.00    -0.000 C 
BRANCH   8   9
ATOM      9  C   UNL     1      12.107  22.536  -8.413  1.00  0.00    -0.000 C 
BRANCH   9  10
ATOM     10  C   UNL     1      12.501  24.020  -8.480  1.00  0.00    -0.003 C 
ATOM     11  C   UNL     1      12.018  24.703  -9.760  1.00  0.00     0.004 C 
ENDBRANCH   9  10
ENDBRANCH   8   9
ENDBRANCH   7   8
ENDBRANCH   1   7
TORSDOF 7
ENDMDL
MODEL 7
REMARK VINA RESULT:    -4.495      3.173      5.517
REMARK INTER + INTRA:          -6.813
REMARK INTER:                  -6.458
REMARK INTRA:                  -0.355
REMARK UNBOUND:                -0.479
REMARK SMILES CCCCCCCCC(=O)[O-]
REMARK SMILES IDX 6 1 7 2 8 3 9 4 10 5 11 6 5 7 4 8 3 9 2 10 1 11
REMARK H PARENT
REMARK Flexibility Score: inf
ROOT
ATOM      1  C   UNL     1       8.744  22.520  -9.430  1.00  0.00     0.000 C 
ENDROOT
BRANCH   1   2
ATOM      2  C   UNL     1      10.265  22.531  -9.688  1.00  0.00     0.006 C 
BRANCH   2   3
ATOM      3  C   UNL     1      11.108  23.042  -8.511  1.00  0.00     0.053 C 
BRANCH   3   4
ATOM      4  C   UNL     1      12.151  24.023  -8.954  1.00  0.00     0.041 C 
ATOM      5  O   UNL     1      11.990  24.687 -10.011  1.00  0.00    -0.550 OA
ATOM      6  O   UNL     1      13.286  24.227  -8.180  1.00  0.00    -0.550 OA
ENDBRANCH   3   4
ENDBRANCH   2   3
ENDBRANCH   1   2
BRANCH   1   7
ATOM      7  C   UNL     1       8.199  23.755  -8.689  1.00  0.00     0.000 C 
BRANCH   7   8
ATOM      8  C   UNL     1       6.664  23.776  -8.610  1.00  0.00    -0.000 C 
BRANCH   8   9
ATOM      9  C   UNL     1       6.040  23.511  -9.989  1.00  0.00    -0.000 C 
BRANCH   9  10
ATOM     10  C   UNL     1       4.725  22.721  -9.900  1.00  0.00    -0.003 C 
ATOM     11  C   UNL     1       4.178  22.641  -8.475  1.00  0.00     0.004 C 
ENDBRANCH   9  10
ENDBRANCH   8   9
ENDBRANCH   7   8
ENDBRANCH   1   7
TORSDOF 7
ENDMDL
MODEL 8
REMARK VINA RESULT:    -4.426      2.159      4.807
REMARK INTER + INTRA:          -6.716
REMARK INTER:                  -6.215
REMARK INTRA:                  -0.501
REMARK UNBOUND:                -0.479
REMARK SMILES CCCCCCCCC(=O)[O-]
REMARK SMILES IDX 6 1 7 2 8 3 9 4 10 5 11 6 5 7 4 8 3 9 2 10 1 11
REMARK H PARENT
REMARK Flexibility Score: inf
ROOT
ATOM      1  C   UNL     1       9.775  22.461  -9.717  1.00  0.00     0.000 C 
ENDROOT
BRANCH   1   2
ATOM      2  C   UNL     1      10.594  23.094  -8.573  1.00  0.00     0.006 C 
BRANCH   2   3
ATOM      3  C   UNL     1      11.233  22.084  -7.610  1.00  0.00     0.053 C 
BRANCH   3   4
ATOM      4  C   UNL     1      10.206  21.231  -6.930  1.00  0.00     0.041 C 
ATOM      5  O   UNL     1       9.484  21.713  -6.018  1.00  0.00    -0.550 OA
ATOM      6  O   UNL     1      10.023  19.913  -7.329  1.00  0.00    -0.550 OA
ENDBRANCH   3   4
ENDBRANCH   2   3
ENDBRANCH   1   2
BRANCH   1   7
ATOM      7  C   UNL     1       8.270  22.784  -9.698  1.00  0.00     0.000 C 
BRANCH   7   8
ATOM      8  C   UNL     1       7.882  23.766  -8.582  1.00  0.00    -0.000 C 
BRANCH   8   9
ATOM      9  C   UNL     1       6.373  23.708  -8.301  1.00  0.00    -0.000 C 
BRANCH   9  10
ATOM     10  C   UNL     1       5.575  23.121  -9.476  1.00  0.00    -0.003 C 
ATOM     11  C   UNL     1       4.251  22.495  -9.038  1.00  0.00     0.004 C 
ENDBRANCH   9  10
ENDBRANCH   8   9
ENDBRANCH   7   8
ENDBRANCH   1   7
TORSDOF 7
ENDMDL
MODEL 9
REMARK VINA RESULT:    -4.407      2.695      4.915
REMARK INTER + INTRA:          -6.690
REMARK INTER:                  -6.249
REMARK INTRA:                  -0.441
REMARK UNBOUND:                -0.479
REMARK SMILES CCCCCCCCC(=O)[O-]
REMARK SMILES IDX 6 1 7 2 8 3 9 4 10 5 11 6 5 7 4 8 3 9 2 10 1 11
REMARK H PARENT
REMARK Flexibility Score: inf
ROOT
ATOM      1  C   UNL     1      10.544  22.826  -9.763  1.00  0.00     0.000 C 
ENDROOT
BRANCH   1   2
ATOM      2  C   UNL     1      11.083  24.046  -8.989  1.00  0.00     0.006 C 
BRANCH   2   3
ATOM      3  C   UNL     1      12.576  23.974  -8.642  1.00  0.00     0.053 C 
BRANCH   3   4
ATOM      4  C   UNL     1      12.884  22.826  -7.730  1.00  0.00     0.041 C 
ATOM      5  O   UNL     1      12.077  22.506  -6.818  1.00  0.00    -0.550 OA
ATOM      6  O   UNL     1      14.048  22.089  -7.909  1.00  0.00    -0.550 OA
ENDBRANCH   3   4
ENDBRANCH   2   3
ENDBRANCH   1   2
BRANCH   1   7
ATOM      7  C   UNL     1       9.234  22.231  -9.215  1.00  0.00     0.000 C 
BRANCH   7   8
ATOM      8  C   UNL     1       8.036  22.460 -10.148  1.00  0.00    -0.000 C 
BRANCH   8   9
ATOM      9  C   UNL     1       6.875  23.129  -9.396  1.00  0.00    -0.000 C 
BRANCH   9  10
ATOM     10  C   UNL     1       7.318  24.379  -8.619  1.00  0.00    -0.003 C 
ATOM     11  C   UNL     1       6.937  24.322  -7.140  1.00  0.00     0.004 C 
ENDBRANCH   9  10
ENDBRANCH   8   9
ENDBRANCH   7   8
ENDBRANCH   1   7
TORSDOF 7
ENDMDL
