MODEL 1
REMARK VINA RESULT:    46.439      0.000      0.000
REMARK INTER + INTRA:          56.263
REMARK INTER:                  55.941
REMARK INTRA:                   0.322
REMARK UNBOUND:                 0.322
REMARK SMILES Oc1cc(O)c2c(c1)O[C@H](c1ccc(O)c(O)c1)[C@@H](O)C2
REMARK SMILES IDX 21 1 19 2 10 3 9 4 7 5 8 6 2 7 3 8 4 9 6 10 20 11 11 13
REMARK SMILES IDX 18 14 12 15 16 16 13 17 14 18 17 19 15 21 5 23 1 25
REMARK H PARENT 20 12 17 20 15 22 5 24 1 26
REMARK Flexibility Score: inf
ROOT
ATOM      1  C   UNL     1       1.779   6.957  19.703  1.00  0.00     0.079 C 
ATOM      2  C   UNL     1       2.303   5.547  20.034  1.00  0.00     0.164 C 
ATOM      3  C   UNL     1       1.980   5.194  21.502  1.00  0.00     0.232 C 
ATOM      4  O   UNL     1       2.519   6.189  22.374  1.00  0.00    -0.482 OA
ATOM      5  C   UNL     1       2.546   7.547  22.039  1.00  0.00     0.131 A 
ATOM      6  C   UNL     1       2.929   8.482  23.005  1.00  0.00     0.093 A 
ATOM      7  C   UNL     1       2.963   9.846  22.693  1.00  0.00     0.122 A 
ATOM      8  C   UNL     1       2.612  10.275  21.409  1.00  0.00     0.092 A 
ATOM      9  C   UNL     1       2.230   9.346  20.429  1.00  0.00     0.126 A 
ATOM     10  C   UNL     1       2.215   7.972  20.735  1.00  0.00     0.039 A 
ENDROOT
BRANCH   2  11
ATOM     11  O   UNL     1       1.764   4.600  19.147  1.00  0.00    -0.389 OA
ATOM     12  H   UNL     1       2.475   3.937  18.944  1.00  0.00     0.211 HD
ENDBRANCH   2  11
BRANCH   3  13
ATOM     13  C   UNL     1       2.538   3.838  21.869  1.00  0.00    -0.001 A 
ATOM     14  C   UNL     1       3.128   3.026  20.887  1.00  0.00     0.057 A 
ATOM     15  C   UNL     1       2.516   3.396  23.203  1.00  0.00     0.012 A 
ATOM     16  C   UNL     1       3.673   1.781  21.225  1.00  0.00     0.157 A 
ATOM     17  C   UNL     1       3.057   2.154  23.542  1.00  0.00     0.050 A 
ATOM     18  C   UNL     1       3.636   1.341  22.558  1.00  0.00     0.157 A 
BRANCH  16  19
ATOM     19  O   UNL     1       4.245   0.999  20.223  1.00  0.00    -0.504 OA
ATOM     20  H   UNL     1       4.213   1.267  19.246  1.00  0.00     0.293 HD
ENDBRANCH  16  19
BRANCH  18  21
ATOM     21  O   UNL     1       4.175   0.101  22.901  1.00  0.00    -0.504 OA
ATOM     22  H   UNL     1       3.861  -0.754  22.458  1.00  0.00     0.293 HD
ENDBRANCH  18  21
ENDBRANCH   3  13
BRANCH   9  23
ATOM     23  O   UNL     1       1.868   9.785  19.157  1.00  0.00    -0.507 OA
ATOM     24  H   UNL     1       2.485  10.363  18.598  1.00  0.00     0.293 HD
ENDBRANCH   9  23
BRANCH   7  25
ATOM     25  O   UNL     1       3.342  10.785  23.650  1.00  0.00    -0.508 OA
ATOM     26  H   UNL     1       3.825  11.638  23.392  1.00  0.00     0.293 HD
ENDBRANCH   7  25
TORSDOF 6
ENDMDL
MODEL 2
REMARK VINA RESULT:    48.568      0.641      1.494
REMARK INTER + INTRA:          58.827
REMARK INTER:                  58.533
REMARK INTRA:                   0.295
REMARK UNBOUND:                 0.322
REMARK SMILES Oc1cc(O)c2c(c1)O[C@H](c1ccc(O)c(O)c1)[C@@H](O)C2
REMARK SMILES IDX 21 1 19 2 10 3 9 4 7 5 8 6 2 7 3 8 4 9 6 10 20 11 11 13
REMARK SMILES IDX 18 14 12 15 16 16 13 17 14 18 17 19 15 21 5 23 1 25
REMARK H PARENT 20 12 17 20 15 22 5 24 1 26
REMARK Flexibility Score: inf
ROOT
ATOM      1  C   UNL     1       1.784   7.052  19.580  1.00  0.00     0.079 C 
ATOM      2  C   UNL     1       2.288   5.633  19.901  1.00  0.00     0.164 C 
ATOM      3  C   UNL     1       1.940   5.266  21.361  1.00  0.00     0.232 C 
ATOM      4  O   UNL     1       2.477   6.245  22.252  1.00  0.00    -0.482 OA
ATOM      5  C   UNL     1       2.524   7.607  21.934  1.00  0.00     0.131 A 
ATOM      6  C   UNL     1       2.902   8.526  22.915  1.00  0.00     0.093 A 
ATOM      7  C   UNL     1       2.956   9.893  22.620  1.00  0.00     0.122 A 
ATOM      8  C   UNL     1       2.627  10.340  21.336  1.00  0.00     0.092 A 
ATOM      9  C   UNL     1       2.250   9.427  20.340  1.00  0.00     0.126 A 
ATOM     10  C   UNL     1       2.216   8.050  20.630  1.00  0.00     0.039 A 
ENDROOT
BRANCH   2  11
ATOM     11  O   UNL     1       1.751   4.701  18.996  1.00  0.00    -0.389 OA
ATOM     12  H   UNL     1       2.209   4.829  18.124  1.00  0.00     0.211 HD
ENDBRANCH   2  11
BRANCH   3  13
ATOM     13  C   UNL     1       2.477   3.900  21.720  1.00  0.00    -0.001 A 
ATOM     14  C   UNL     1       2.317   3.396  23.021  1.00  0.00     0.057 A 
ATOM     15  C   UNL     1       3.099   3.099  20.747  1.00  0.00     0.012 A 
ATOM     16  C   UNL     1       2.786   2.120  23.355  1.00  0.00     0.157 A 
ATOM     17  C   UNL     1       3.570   1.826  21.077  1.00  0.00     0.050 A 
ATOM     18  C   UNL     1       3.418   1.331  22.380  1.00  0.00     0.157 A 
BRANCH  16  19
ATOM     19  O   UNL     1       2.615   1.656  24.658  1.00  0.00    -0.504 OA
ATOM     20  H   UNL     1       1.707   1.639  25.109  1.00  0.00     0.293 HD
ENDBRANCH  16  19
BRANCH  18  21
ATOM     21  O   UNL     1       3.890   0.060  22.706  1.00  0.00    -0.504 OA
ATOM     22  H   UNL     1       3.265  -0.673  23.020  1.00  0.00     0.293 HD
ENDBRANCH  18  21
ENDBRANCH   3  13
BRANCH   9  23
ATOM     23  O   UNL     1       1.911   9.885  19.068  1.00  0.00    -0.507 OA
ATOM     24  H   UNL     1       2.470  10.579  18.586  1.00  0.00     0.293 HD
ENDBRANCH   9  23
BRANCH   7  25
ATOM     25  O   UNL     1       3.330  10.817  23.593  1.00  0.00    -0.508 OA
ATOM     26  H   UNL     1       2.653  11.213  24.235  1.00  0.00     0.293 HD
ENDBRANCH   7  25
TORSDOF 6
ENDMDL
