MODEL 1
REMARK VINA RESULT:    -5.195      0.000      0.000
REMARK INTER + INTRA:          -6.270
REMARK INTER:                  -7.017
REMARK INTRA:                   0.747
REMARK UNBOUND:                 0.747
REMARK SMILES O=c1c(-c2ccc(O)cc2)coc2c([C@H]3O[C@H](CO)[C@H](O)[C@@H](O)[C@@H]3O)c(O)ccc12
REMARK SMILES IDX 3 1 11 2 12 3 13 4 30 5 2 6 1 7 29 8 28 9 26 10 14 11 4 12
REMARK SMILES IDX 5 13 6 14 7 15 10 16 9 17 8 18 15 20 24 21 16 22 22 23 17 24
REMARK SMILES IDX 20 25 25 26 23 28 18 30 19 31 21 33 27 35
REMARK H PARENT 8 19 25 27 23 29 19 32 21 34 27 36
REMARK Flexibility Score: inf
ROOT
ATOM      1  C   UNL     1     -39.379  76.615 -22.252  1.00  0.00     0.065 A 
ATOM      2  C   UNL     1     -38.088  76.302 -22.702  1.00  0.00     0.208 A 
ATOM      3  O   UNL     1     -37.832  76.163 -23.997  1.00  0.00    -0.463 OA
ATOM      4  C   UNL     1     -38.758  76.308 -24.942  1.00  0.00     0.147 A 
ATOM      5  C   UNL     1     -40.086  76.635 -24.577  1.00  0.00     0.066 A 
ATOM      6  C   UNL     1     -40.391  76.792 -23.213  1.00  0.00     0.200 A 
ATOM      7  O   UNL     1     -41.558  77.113 -22.854  1.00  0.00    -0.288 OA
ATOM      8  C   UNL     1     -41.057  76.805 -25.575  1.00  0.00     0.020 A 
ATOM      9  C   UNL     1     -40.716  76.662 -26.918  1.00  0.00     0.047 A 
ATOM     10  C   UNL     1     -39.406  76.340 -27.292  1.00  0.00     0.125 A 
ATOM     11  C   UNL     1     -38.414  76.141 -26.304  1.00  0.00     0.069 A 
ENDROOT
BRANCH   1  12
ATOM     12  C   UNL     1     -39.643  76.758 -20.798  1.00  0.00    -0.011 A 
ATOM     13  C   UNL     1     -38.593  76.633 -19.871  1.00  0.00     0.013 A 
ATOM     14  C   UNL     1     -38.839  76.758 -18.500  1.00  0.00     0.047 A 
ATOM     15  C   UNL     1     -40.136  77.002 -18.039  1.00  0.00     0.115 A 
ATOM     16  C   UNL     1     -40.945  76.997 -20.325  1.00  0.00     0.013 A 
ATOM     17  C   UNL     1     -41.189  77.121 -18.954  1.00  0.00     0.047 A 
BRANCH  15  18
ATOM     18  O   UNL     1     -40.366  77.125 -16.670  1.00  0.00    -0.508 OA
ATOM     19  H   UNL     1     -40.498  76.310 -16.080  1.00  0.00     0.293 HD
ENDBRANCH  15  18
ENDBRANCH   1  12
BRANCH  11  20
ATOM     20  C   UNL     1     -36.981  75.814 -26.704  1.00  0.00     0.188 C 
ATOM     21  C   UNL     1     -36.798  74.284 -26.833  1.00  0.00     0.179 C 
ATOM     22  O   UNL     1     -36.097  76.366 -25.736  1.00  0.00    -0.362 OA
ATOM     23  C   UNL     1     -35.339  73.967 -27.191  1.00  0.00     0.177 C 
ATOM     24  C   UNL     1     -34.726  76.165 -26.056  1.00  0.00     0.176 C 
ATOM     25  C   UNL     1     -34.385  74.660 -26.198  1.00  0.00     0.177 C 
BRANCH  21  26
ATOM     26  O   UNL     1     -37.633  73.778 -27.844  1.00  0.00    -0.387 OA
ATOM     27  H   UNL     1     -37.098  73.757 -28.680  1.00  0.00     0.211 HD
ENDBRANCH  21  26
BRANCH  23  28
ATOM     28  O   UNL     1     -35.122  72.578 -27.210  1.00  0.00    -0.387 OA
ATOM     29  H   UNL     1     -35.993  72.131 -27.045  1.00  0.00     0.211 HD
ENDBRANCH  23  28
BRANCH  24  30
ATOM     30  C   UNL     1     -34.274  77.046 -27.243  1.00  0.00     0.191 C 
BRANCH  30  31
ATOM     31  O   UNL     1     -32.966  76.713 -27.619  1.00  0.00    -0.394 OA
ATOM     32  H   UNL     1     -32.650  77.453 -28.202  1.00  0.00     0.210 HD
ENDBRANCH  30  31
ENDBRANCH  24  30
BRANCH  25  33
ATOM     33  O   UNL     1     -33.052  74.499 -26.608  1.00  0.00    -0.388 OA
ATOM     34  H   UNL     1     -33.044  74.556 -27.600  1.00  0.00     0.211 HD
ENDBRANCH  25  33
ENDBRANCH  11  20
BRANCH  10  35
ATOM     35  O   UNL     1     -39.089  76.222 -28.646  1.00  0.00    -0.507 OA
ATOM     36  H   UNL     1     -38.926  77.034 -29.228  1.00  0.00     0.293 HD
ENDBRANCH  10  35
TORSDOF 9
ENDMDL
MODEL 2
REMARK VINA RESULT:    -3.955      1.729      7.751
REMARK INTER + INTRA:          -4.595
REMARK INTER:                  -6.869
REMARK INTRA:                   2.274
REMARK UNBOUND:                 0.747
REMARK SMILES O=c1c(-c2ccc(O)cc2)coc2c([C@H]3O[C@H](CO)[C@H](O)[C@@H](O)[C@@H]3O)c(O)ccc12
REMARK SMILES IDX 3 1 11 2 12 3 13 4 30 5 2 6 1 7 29 8 28 9 26 10 14 11 4 12
REMARK SMILES IDX 5 13 6 14 7 15 10 16 9 17 8 18 15 20 24 21 16 22 22 23 17 24
REMARK SMILES IDX 20 25 25 26 23 28 18 30 19 31 21 33 27 35
REMARK H PARENT 8 19 25 27 23 29 19 32 21 34 27 36
REMARK Flexibility Score: inf
ROOT
ATOM      1  C   UNL     1     -36.901  76.057 -25.817  1.00  0.00     0.065 A 
ATOM      2  C   UNL     1     -37.174  75.979 -24.443  1.00  0.00     0.208 A 
ATOM      3  O   UNL     1     -38.422  76.017 -23.993  1.00  0.00    -0.463 OA
ATOM      4  C   UNL     1     -39.482  76.127 -24.791  1.00  0.00     0.147 A 
ATOM      5  C   UNL     1     -39.297  76.201 -26.193  1.00  0.00     0.066 A 
ATOM      6  C   UNL     1     -37.987  76.161 -26.703  1.00  0.00     0.200 A 
ATOM      7  O   UNL     1     -37.788  76.195 -27.950  1.00  0.00    -0.288 OA
ATOM      8  C   UNL     1     -40.416  76.299 -27.034  1.00  0.00     0.020 A 
ATOM      9  C   UNL     1     -41.701  76.315 -26.495  1.00  0.00     0.047 A 
ATOM     10  C   UNL     1     -41.895  76.242 -25.111  1.00  0.00     0.125 A 
ATOM     11  C   UNL     1     -40.785  76.165 -24.240  1.00  0.00     0.069 A 
ENDROOT
BRANCH   1  12
ATOM     12  C   UNL     1     -35.496  76.020 -26.295  1.00  0.00    -0.011 A 
ATOM     13  C   UNL     1     -34.617  77.076 -25.996  1.00  0.00     0.013 A 
ATOM     14  C   UNL     1     -33.296  77.049 -26.453  1.00  0.00     0.047 A 
ATOM     15  C   UNL     1     -32.839  75.972 -27.219  1.00  0.00     0.115 A 
ATOM     16  C   UNL     1     -35.031  74.945 -27.073  1.00  0.00     0.013 A 
ATOM     17  C   UNL     1     -33.710  74.920 -27.528  1.00  0.00     0.047 A 
BRANCH  15  18
ATOM     18  O   UNL     1     -31.519  75.958 -27.667  1.00  0.00    -0.508 OA
ATOM     19  H   UNL     1     -31.052  76.808 -27.962  1.00  0.00     0.293 HD
ENDBRANCH  15  18
ENDBRANCH   1  12
BRANCH  11  20
ATOM     20  C   UNL     1     -40.989  76.061 -22.735  1.00  0.00     0.188 C 
ATOM     21  C   UNL     1     -42.498  76.101 -22.396  1.00  0.00     0.179 C 
ATOM     22  O   UNL     1     -40.283  77.120 -22.101  1.00  0.00    -0.362 OA
ATOM     23  C   UNL     1     -42.687  76.041 -20.874  1.00  0.00     0.177 C 
ATOM     24  C   UNL     1     -40.364  77.071 -20.682  1.00  0.00     0.176 C 
ATOM     25  C   UNL     1     -41.832  77.125 -20.189  1.00  0.00     0.177 C 
BRANCH  21  26
ATOM     26  O   UNL     1     -43.156  75.004 -22.978  1.00  0.00    -0.387 OA
ATOM     27  H   UNL     1     -42.455  74.357 -23.255  1.00  0.00     0.211 HD
ENDBRANCH  21  26
BRANCH  23  28
ATOM     28  O   UNL     1     -44.044  76.182 -20.535  1.00  0.00    -0.387 OA
ATOM     29  H   UNL     1     -44.149  75.918 -19.584  1.00  0.00     0.211 HD
ENDBRANCH  23  28
BRANCH  24  30
ATOM     30  C   UNL     1     -39.525  75.913 -20.095  1.00  0.00     0.191 C 
BRANCH  30  31
ATOM     31  O   UNL     1     -38.839  76.346 -18.952  1.00  0.00    -0.394 OA
ATOM     32  H   UNL     1     -39.536  76.608 -18.294  1.00  0.00     0.210 HD
ENDBRANCH  30  31
ENDBRANCH  24  30
BRANCH  25  33
ATOM     33  O   UNL     1     -41.883  76.978 -18.793  1.00  0.00    -0.388 OA
ATOM     34  H   UNL     1     -41.837  76.004 -18.602  1.00  0.00     0.211 HD
ENDBRANCH  25  33
ENDBRANCH  11  20
BRANCH  10  35
ATOM     35  O   UNL     1     -43.194  76.241 -24.602  1.00  0.00    -0.507 OA
ATOM     36  H   UNL     1     -43.551  77.014 -24.052  1.00  0.00     0.293 HD
ENDBRANCH  10  35
TORSDOF 9
ENDMDL
