MODEL 1
REMARK VINA RESULT:    -3.681      0.000      0.000
REMARK INTER + INTRA:          -8.360
REMARK INTER:                  -7.125
REMARK INTRA:                  -1.235
REMARK UNBOUND:                -1.235
REMARK SMILES CCCCCCCCCCCCCCCCCC(=O)[O-]
REMARK SMILES IDX 10 1 11 2 12 3 13 4 14 5 15 6 16 7 17 8 18 9 19 10 20 11
REMARK SMILES IDX 9 12 8 13 7 14 6 15 5 16 4 17 3 18 2 19 1 20
REMARK H PARENT
REMARK Flexibility Score: inf
ROOT
ATOM      1  C   UNL     1     169.667 162.863 150.141  1.00  0.00     0.000 C 
ENDROOT
BRANCH   1   2
ATOM      2  C   UNL     1     169.376 163.260 151.597  1.00  0.00     0.000 C 
BRANCH   2   3
ATOM      3  C   UNL     1     168.034 163.992 151.759  1.00  0.00     0.000 C 
BRANCH   3   4
ATOM      4  C   UNL     1     167.065 163.254 152.698  1.00  0.00     0.000 C 
BRANCH   4   5
ATOM      5  C   UNL     1     166.887 163.978 154.044  1.00  0.00     0.000 C 
BRANCH   5   6
ATOM      6  C   UNL     1     167.161 165.488 153.939  1.00  0.00     0.000 C 
BRANCH   6   7
ATOM      7  C   UNL     1     167.379 166.147 155.310  1.00  0.00     0.006 C 
BRANCH   7   8
ATOM      8  C   UNL     1     166.285 167.165 155.660  1.00  0.00     0.053 C 
BRANCH   8   9
ATOM      9  C   UNL     1     166.892 168.494 155.979  1.00  0.00     0.041 C 
ATOM     10  O   UNL     1     166.859 168.940 157.157  1.00  0.00    -0.550 OA
ATOM     11  O   UNL     1     167.450 169.266 154.967  1.00  0.00    -0.550 OA
ENDBRANCH   8   9
ENDBRANCH   7   8
ENDBRANCH   6   7
ENDBRANCH   5   6
ENDBRANCH   4   5
ENDBRANCH   3   4
ENDBRANCH   2   3
ENDBRANCH   1   2
BRANCH   1  12
ATOM     12  C   UNL     1     168.361 162.587 149.379  1.00  0.00     0.000 C 
BRANCH  12  13
ATOM     13  C   UNL     1     168.216 163.457 148.119  1.00  0.00    -0.000 C 
BRANCH  13  14
ATOM     14  C   UNL     1     166.754 163.835 147.831  1.00  0.00    -0.000 C 
BRANCH  14  15
ATOM     15  C   UNL     1     165.879 163.847 149.096  1.00  0.00    -0.000 C 
BRANCH  15  16
ATOM     16  C   UNL     1     165.116 165.172 149.309  1.00  0.00    -0.000 C 
BRANCH  16  17
ATOM     17  C   UNL     1     165.378 166.178 148.175  1.00  0.00    -0.000 C 
BRANCH  17  18
ATOM     18  C   UNL     1     164.491 167.430 148.281  1.00  0.00    -0.000 C 
BRANCH  18  19
ATOM     19  C   UNL     1     165.217 168.703 147.819  1.00  0.00    -0.003 C 
ATOM     20  C   UNL     1     165.116 168.873 146.307  1.00  0.00     0.004 C 
ENDBRANCH  18  19
ENDBRANCH  17  18
ENDBRANCH  16  17
ENDBRANCH  15  16
ENDBRANCH  14  15
ENDBRANCH  13  14
ENDBRANCH  12  13
ENDBRANCH   1  12
TORSDOF 16
ENDMDL
MODEL 2
REMARK VINA RESULT:    -3.515      2.546      6.474
REMARK INTER + INTRA:          -8.038
REMARK INTER:                  -7.060
REMARK INTRA:                  -0.978
REMARK UNBOUND:                -1.235
REMARK SMILES CCCCCCCCCCCCCCCCCC(=O)[O-]
REMARK SMILES IDX 10 1 11 2 12 3 13 4 14 5 15 6 16 7 17 8 18 9 19 10 20 11
REMARK SMILES IDX 9 12 8 13 7 14 6 15 5 16 4 17 3 18 2 19 1 20
REMARK H PARENT
REMARK Flexibility Score: inf
ROOT
ATOM      1  C   UNL     1     169.206 163.614 151.118  1.00  0.00     0.000 C 
ENDROOT
BRANCH   1   2
ATOM      2  C   UNL     1     169.139 162.689 149.892  1.00  0.00     0.000 C 
BRANCH   2   3
ATOM      3  C   UNL     1     167.834 162.848 149.095  1.00  0.00     0.000 C 
BRANCH   3   4
ATOM      4  C   UNL     1     168.035 163.606 147.771  1.00  0.00     0.000 C 
BRANCH   4   5
ATOM      5  C   UNL     1     166.721 164.188 147.223  1.00  0.00     0.000 C 
BRANCH   5   6
ATOM      6  C   UNL     1     165.658 164.372 148.321  1.00  0.00     0.000 C 
BRANCH   6   7
ATOM      7  C   UNL     1     165.653 165.793 148.906  1.00  0.00     0.006 C 
BRANCH   7   8
ATOM      8  C   UNL     1     164.551 166.677 148.308  1.00  0.00     0.053 C 
BRANCH   8   9
ATOM      9  C   UNL     1     165.118 167.987 147.859  1.00  0.00     0.041 C 
ATOM     10  O   UNL     1     165.793 168.692 148.655  1.00  0.00    -0.550 OA
ATOM     11  O   UNL     1     164.860 168.454 146.576  1.00  0.00    -0.550 OA
ENDBRANCH   8   9
ENDBRANCH   7   8
ENDBRANCH   6   7
ENDBRANCH   5   6
ENDBRANCH   4   5
ENDBRANCH   3   4
ENDBRANCH   2   3
ENDBRANCH   1   2
BRANCH   1  12
ATOM     12  C   UNL     1     167.938 164.477 151.221  1.00  0.00     0.000 C 
BRANCH  12  13
ATOM     13  C   UNL     1     166.818 163.790 152.020  1.00  0.00    -0.000 C 
BRANCH  13  14
ATOM     14  C   UNL     1     167.310 163.242 153.370  1.00  0.00    -0.000 C 
BRANCH  14  15
ATOM     15  C   UNL     1     166.940 164.149 154.555  1.00  0.00    -0.000 C 
BRANCH  15  16
ATOM     16  C   UNL     1     167.210 165.647 154.296  1.00  0.00    -0.000 C 
BRANCH  16  17
ATOM     17  C   UNL     1     167.436 166.427 155.603  1.00  0.00    -0.000 C 
BRANCH  17  18
ATOM     18  C   UNL     1     166.160 167.124 156.102  1.00  0.00    -0.000 C 
BRANCH  18  19
ATOM     19  C   UNL     1     166.318 168.650 156.182  1.00  0.00    -0.003 C 
ATOM     20  C   UNL     1     167.402 169.140 155.227  1.00  0.00     0.004 C 
ENDBRANCH  18  19
ENDBRANCH  17  18
ENDBRANCH  16  17
ENDBRANCH  15  16
ENDBRANCH  14  15
ENDBRANCH  13  14
ENDBRANCH  12  13
ENDBRANCH   1  12
TORSDOF 16
ENDMDL
MODEL 3
REMARK VINA RESULT:    -3.489      3.435      7.890
REMARK INTER + INTRA:          -7.987
REMARK INTER:                  -7.011
REMARK INTRA:                  -0.976
REMARK UNBOUND:                -1.235
REMARK SMILES CCCCCCCCCCCCCCCCCC(=O)[O-]
REMARK SMILES IDX 10 1 11 2 12 3 13 4 14 5 15 6 16 7 17 8 18 9 19 10 20 11
REMARK SMILES IDX 9 12 8 13 7 14 6 15 5 16 4 17 3 18 2 19 1 20
REMARK H PARENT
REMARK Flexibility Score: inf
ROOT
ATOM      1  C   UNL     1     169.008 163.603 151.478  1.00  0.00     0.000 C 
ENDROOT
BRANCH   1   2
ATOM      2  C   UNL     1     169.089 162.781 150.182  1.00  0.00     0.000 C 
BRANCH   2   3
ATOM      3  C   UNL     1     167.805 162.864 149.341  1.00  0.00     0.000 C 
BRANCH   3   4
ATOM      4  C   UNL     1     168.012 163.610 148.012  1.00  0.00     0.000 C 
BRANCH   4   5
ATOM      5  C   UNL     1     166.691 164.127 147.417  1.00  0.00     0.000 C 
BRANCH   5   6
ATOM      6  C   UNL     1     165.644 164.443 148.500  1.00  0.00     0.000 C 
BRANCH   6   7
ATOM      7  C   UNL     1     165.672 165.916 148.937  1.00  0.00     0.006 C 
BRANCH   7   8
ATOM      8  C   UNL     1     164.585 166.757 148.256  1.00  0.00     0.053 C 
BRANCH   8   9
ATOM      9  C   UNL     1     165.148 168.067 147.802  1.00  0.00     0.041 C 
ATOM     10  O   UNL     1     164.899 168.498 146.645  1.00  0.00    -0.550 OA
ATOM     11  O   UNL     1     165.989 168.791 148.638  1.00  0.00    -0.550 OA
ENDBRANCH   8   9
ENDBRANCH   7   8
ENDBRANCH   6   7
ENDBRANCH   5   6
ENDBRANCH   4   5
ENDBRANCH   3   4
ENDBRANCH   2   3
ENDBRANCH   1   2
BRANCH   1  12
ATOM     12  C   UNL     1     167.568 164.074 151.737  1.00  0.00     0.000 C 
BRANCH  12  13
ATOM     13  C   UNL     1     166.781 163.104 152.634  1.00  0.00    -0.000 C 
BRANCH  13  14
ATOM     14  C   UNL     1     167.176 163.222 154.116  1.00  0.00    -0.000 C 
BRANCH  14  15
ATOM     15  C   UNL     1     166.357 162.294 155.028  1.00  0.00    -0.000 C 
BRANCH  15  16
ATOM     16  C   UNL     1     167.172 161.690 156.192  1.00  0.00    -0.000 C 
BRANCH  16  17
ATOM     17  C   UNL     1     166.306 160.807 157.107  1.00  0.00    -0.000 C 
BRANCH  17  18
ATOM     18  C   UNL     1     166.362 161.250 158.578  1.00  0.00    -0.000 C 
BRANCH  18  19
ATOM     19  C   UNL     1     167.685 161.946 158.930  1.00  0.00    -0.003 C 
ATOM     20  C   UNL     1     167.482 163.446 159.123  1.00  0.00     0.004 C 
ENDBRANCH  18  19
ENDBRANCH  17  18
ENDBRANCH  16  17
ENDBRANCH  15  16
ENDBRANCH  14  15
ENDBRANCH  13  14
ENDBRANCH  12  13
ENDBRANCH   1  12
TORSDOF 16
ENDMDL
MODEL 4
REMARK VINA RESULT:    -3.096      3.106      3.779
REMARK INTER + INTRA:          -7.227
REMARK INTER:                  -5.883
REMARK INTRA:                  -1.343
REMARK UNBOUND:                -1.235
REMARK SMILES CCCCCCCCCCCCCCCCCC(=O)[O-]
REMARK SMILES IDX 10 1 11 2 12 3 13 4 14 5 15 6 16 7 17 8 18 9 19 10 20 11
REMARK SMILES IDX 9 12 8 13 7 14 6 15 5 16 4 17 3 18 2 19 1 20
REMARK H PARENT
REMARK Flexibility Score: inf
ROOT
ATOM      1  C   UNL     1     169.752 163.095 150.051  1.00  0.00     0.000 C 
ENDROOT
BRANCH   1   2
ATOM      2  C   UNL     1     169.402 163.228 151.542  1.00  0.00     0.000 C 
BRANCH   2   3
ATOM      3  C   UNL     1     168.072 163.962 151.779  1.00  0.00     0.000 C 
BRANCH   3   4
ATOM      4  C   UNL     1     167.040 163.096 152.521  1.00  0.00     0.000 C 
BRANCH   4   5
ATOM      5  C   UNL     1     166.893 163.496 153.999  1.00  0.00     0.000 C 
BRANCH   5   6
ATOM      6  C   UNL     1     166.499 162.306 154.892  1.00  0.00     0.000 C 
BRANCH   6   7
ATOM      7  C   UNL     1     167.193 162.341 156.263  1.00  0.00     0.006 C 
BRANCH   7   8
ATOM      8  C   UNL     1     167.221 160.969 156.949  1.00  0.00     0.053 C 
BRANCH   8   9
ATOM      9  C   UNL     1     166.586 161.048 158.302  1.00  0.00     0.041 C 
ATOM     10  O   UNL     1     166.647 162.115 158.969  1.00  0.00    -0.550 OA
ATOM     11  O   UNL     1     165.971 159.928 158.849  1.00  0.00    -0.550 OA
ENDBRANCH   8   9
ENDBRANCH   7   8
ENDBRANCH   6   7
ENDBRANCH   5   6
ENDBRANCH   4   5
ENDBRANCH   3   4
ENDBRANCH   2   3
ENDBRANCH   1   2
BRANCH   1  12
ATOM     12  C   UNL     1     168.512 162.704 149.232  1.00  0.00     0.000 C 
BRANCH  12  13
ATOM     13  C   UNL     1     168.361 163.542 147.951  1.00  0.00    -0.000 C 
BRANCH  13  14
ATOM     14  C   UNL     1     166.896 163.896 147.649  1.00  0.00    -0.000 C 
BRANCH  14  15
ATOM     15  C   UNL     1     165.945 163.539 148.804  1.00  0.00    -0.000 C 
BRANCH  15  16
ATOM     16  C   UNL     1     165.314 164.770 149.490  1.00  0.00    -0.000 C 
BRANCH  16  17
ATOM     17  C   UNL     1     165.881 166.091 148.942  1.00  0.00    -0.000 C 
BRANCH  17  18
ATOM     18  C   UNL     1     164.847 166.881 148.123  1.00  0.00    -0.000 C 
BRANCH  18  19
ATOM     19  C   UNL     1     165.283 168.333 147.874  1.00  0.00    -0.003 C 
ATOM     20  C   UNL     1     164.976 168.760 146.443  1.00  0.00     0.004 C 
ENDBRANCH  18  19
ENDBRANCH  17  18
ENDBRANCH  16  17
ENDBRANCH  15  16
ENDBRANCH  14  15
ENDBRANCH  13  14
ENDBRANCH  12  13
ENDBRANCH   1  12
TORSDOF 16
ENDMDL
MODEL 5
REMARK VINA RESULT:    -2.617      4.242      5.156
REMARK INTER + INTRA:          -6.299
REMARK INTER:                  -5.873
REMARK INTRA:                  -0.426
REMARK UNBOUND:                -1.235
REMARK SMILES CCCCCCCCCCCCCCCCCC(=O)[O-]
REMARK SMILES IDX 10 1 11 2 12 3 13 4 14 5 15 6 16 7 17 8 18 9 19 10 20 11
REMARK SMILES IDX 9 12 8 13 7 14 6 15 5 16 4 17 3 18 2 19 1 20
REMARK H PARENT
REMARK Flexibility Score: inf
ROOT
ATOM      1  C   UNL     1     167.432 163.623 151.631  1.00  0.00     0.000 C 
ENDROOT
BRANCH   1   2
ATOM      2  C   UNL     1     167.219 164.094 153.079  1.00  0.00     0.000 C 
BRANCH   2   3
ATOM      3  C   UNL     1     166.720 162.971 154.004  1.00  0.00     0.000 C 
BRANCH   3   4
ATOM      4  C   UNL     1     167.150 163.174 155.468  1.00  0.00     0.000 C 
BRANCH   4   5
ATOM      5  C   UNL     1     167.114 161.864 156.275  1.00  0.00     0.000 C 
BRANCH   5   6
ATOM      6  C   UNL     1     167.376 162.093 157.775  1.00  0.00     0.000 C 
BRANCH   6   7
ATOM      7  C   UNL     1     167.112 160.836 158.619  1.00  0.00     0.006 C 
BRANCH   7   8
ATOM      8  C   UNL     1     166.375 159.740 157.837  1.00  0.00     0.053 C 
BRANCH   8   9
ATOM      9  C   UNL     1     167.353 158.870 157.111  1.00  0.00     0.041 C 
ATOM     10  O   UNL     1     168.575 159.172 157.088  1.00  0.00    -0.550 OA
ATOM     11  O   UNL     1     166.907 157.753 156.416  1.00  0.00    -0.550 OA
ENDBRANCH   8   9
ENDBRANCH   7   8
ENDBRANCH   6   7
ENDBRANCH   5   6
ENDBRANCH   4   5
ENDBRANCH   3   4
ENDBRANCH   2   3
ENDBRANCH   1   2
BRANCH   1  12
ATOM     12  C   UNL     1     168.929 163.569 151.289  1.00  0.00     0.000 C 
BRANCH  12  13
ATOM     13  C   UNL     1     169.185 163.262 149.804  1.00  0.00    -0.000 C 
BRANCH  13  14
ATOM     14  C   UNL     1     167.892 162.932 149.040  1.00  0.00    -0.000 C 
BRANCH  14  15
ATOM     15  C   UNL     1     167.801 163.650 147.682  1.00  0.00    -0.000 C 
BRANCH  15  16
ATOM     16  C   UNL     1     166.382 164.154 147.341  1.00  0.00    -0.000 C 
BRANCH  16  17
ATOM     17  C   UNL     1     165.571 164.491 148.604  1.00  0.00    -0.000 C 
BRANCH  17  18
ATOM     18  C   UNL     1     165.653 165.980 148.978  1.00  0.00    -0.000 C 
BRANCH  18  19
ATOM     19  C   UNL     1     164.643 166.836 148.199  1.00  0.00    -0.003 C 
ATOM     20  C   UNL     1     165.201 168.229 147.925  1.00  0.00     0.004 C 
ENDBRANCH  18  19
ENDBRANCH  17  18
ENDBRANCH  16  17
ENDBRANCH  15  16
ENDBRANCH  14  15
ENDBRANCH  13  14
ENDBRANCH  12  13
ENDBRANCH   1  12
TORSDOF 16
ENDMDL
MODEL 6
REMARK VINA RESULT:    -2.605      3.654      8.096
REMARK INTER + INTRA:          -6.276
REMARK INTER:                  -5.257
REMARK INTRA:                  -1.019
REMARK UNBOUND:                -1.235
REMARK SMILES CCCCCCCCCCCCCCCCCC(=O)[O-]
REMARK SMILES IDX 10 1 11 2 12 3 13 4 14 5 15 6 16 7 17 8 18 9 19 10 20 11
REMARK SMILES IDX 9 12 8 13 7 14 6 15 5 16 4 17 3 18 2 19 1 20
REMARK H PARENT
REMARK Flexibility Score: inf
ROOT
ATOM      1  C   UNL     1     167.766 163.202 152.096  1.00  0.00     0.000 C 
ENDROOT
BRANCH   1   2
ATOM      2  C   UNL     1     168.979 163.611 151.245  1.00  0.00     0.000 C 
BRANCH   2   3
ATOM      3  C   UNL     1     168.853 163.172 149.778  1.00  0.00     0.000 C 
BRANCH   3   4
ATOM      4  C   UNL     1     167.399 163.192 149.275  1.00  0.00     0.000 C 
BRANCH   4   5
ATOM      5  C   UNL     1     167.279 163.767 147.852  1.00  0.00     0.000 C 
BRANCH   5   6
ATOM      6  C   UNL     1     165.984 164.575 147.654  1.00  0.00     0.000 C 
BRANCH   6   7
ATOM      7  C   UNL     1     165.812 165.683 148.704  1.00  0.00     0.006 C 
BRANCH   7   8
ATOM      8  C   UNL     1     164.653 166.634 148.379  1.00  0.00     0.053 C 
BRANCH   8   9
ATOM      9  C   UNL     1     165.175 167.933 147.851  1.00  0.00     0.041 C 
ATOM     10  O   UNL     1     165.891 168.671 148.579  1.00  0.00    -0.550 OA
ATOM     11  O   UNL     1     164.830 168.354 146.573  1.00  0.00    -0.550 OA
ENDBRANCH   8   9
ENDBRANCH   7   8
ENDBRANCH   6   7
ENDBRANCH   5   6
ENDBRANCH   4   5
ENDBRANCH   3   4
ENDBRANCH   2   3
ENDBRANCH   1   2
BRANCH   1  12
ATOM     12  C   UNL     1     167.241 164.396 152.909  1.00  0.00     0.000 C 
BRANCH  12  13
ATOM     13  C   UNL     1     166.829 164.004 154.338  1.00  0.00    -0.000 C 
BRANCH  13  14
ATOM     14  C   UNL     1     166.549 162.499 154.477  1.00  0.00    -0.000 C 
BRANCH  14  15
ATOM     15  C   UNL     1     167.217 161.879 155.716  1.00  0.00    -0.000 C 
BRANCH  15  16
ATOM     16  C   UNL     1     166.276 160.973 156.540  1.00  0.00    -0.000 C 
BRANCH  16  17
ATOM     17  C   UNL     1     166.916 160.533 157.868  1.00  0.00    -0.000 C 
BRANCH  17  18
ATOM     18  C   UNL     1     166.217 161.149 159.091  1.00  0.00    -0.000 C 
BRANCH  18  19
ATOM     19  C   UNL     1     166.312 162.683 159.109  1.00  0.00    -0.003 C 
ATOM     20  C   UNL     1     167.766 163.142 159.125  1.00  0.00     0.004 C 
ENDBRANCH  18  19
ENDBRANCH  17  18
ENDBRANCH  16  17
ENDBRANCH  15  16
ENDBRANCH  14  15
ENDBRANCH  13  14
ENDBRANCH  12  13
ENDBRANCH   1  12
TORSDOF 16
ENDMDL
MODEL 7
REMARK VINA RESULT:    -2.284      3.868      8.484
REMARK INTER + INTRA:          -5.656
REMARK INTER:                  -4.501
REMARK INTRA:                  -1.155
REMARK UNBOUND:                -1.235
REMARK SMILES CCCCCCCCCCCCCCCCCC(=O)[O-]
REMARK SMILES IDX 10 1 11 2 12 3 13 4 14 5 15 6 16 7 17 8 18 9 19 10 20 11
REMARK SMILES IDX 9 12 8 13 7 14 6 15 5 16 4 17 3 18 2 19 1 20
REMARK H PARENT
REMARK Flexibility Score: inf
ROOT
ATOM      1  C   UNL     1     167.427 164.697 152.805  1.00  0.00     0.000 C 
ENDROOT
BRANCH   1   2
ATOM      2  C   UNL     1     167.575 163.457 151.909  1.00  0.00     0.000 C 
BRANCH   2   3
ATOM      3  C   UNL     1     168.944 163.384 151.213  1.00  0.00     0.000 C 
BRANCH   3   4
ATOM      4  C   UNL     1     168.846 162.885 149.762  1.00  0.00     0.000 C 
BRANCH   4   5
ATOM      5  C   UNL     1     167.452 163.117 149.154  1.00  0.00     0.000 C 
BRANCH   5   6
ATOM      6  C   UNL     1     167.517 163.839 147.796  1.00  0.00     0.000 C 
BRANCH   6   7
ATOM      7  C   UNL     1     166.240 164.639 147.490  1.00  0.00     0.006 C 
BRANCH   7   8
ATOM      8  C   UNL     1     165.657 165.322 148.733  1.00  0.00     0.053 C 
BRANCH   8   9
ATOM      9  C   UNL     1     164.830 166.505 148.339  1.00  0.00     0.041 C 
ATOM     10  O   UNL     1     165.296 167.371 147.552  1.00  0.00    -0.550 OA
ATOM     11  O   UNL     1     163.562 166.680 148.880  1.00  0.00    -0.550 OA
ENDBRANCH   8   9
ENDBRANCH   7   8
ENDBRANCH   6   7
ENDBRANCH   5   6
ENDBRANCH   4   5
ENDBRANCH   3   4
ENDBRANCH   2   3
ENDBRANCH   1   2
BRANCH   1  12
ATOM     12  C   UNL     1     167.014 164.296 154.229  1.00  0.00     0.000 C 
BRANCH  12  13
ATOM     13  C   UNL     1     166.841 162.776 154.390  1.00  0.00    -0.000 C 
BRANCH  13  14
ATOM     14  C   UNL     1     167.104 162.303 155.829  1.00  0.00    -0.000 C 
BRANCH  14  15
ATOM     15  C   UNL     1     167.533 163.446 156.764  1.00  0.00    -0.000 C 
BRANCH  15  16
ATOM     16  C   UNL     1     167.181 163.198 158.247  1.00  0.00    -0.000 C 
BRANCH  16  17
ATOM     17  C   UNL     1     167.459 161.746 158.672  1.00  0.00    -0.000 C 
BRANCH  17  18
ATOM     18  C   UNL     1     166.174 160.976 159.016  1.00  0.00    -0.000 C 
BRANCH  18  19
ATOM     19  C   UNL     1     166.296 159.473 158.723  1.00  0.00    -0.003 C 
ATOM     20  C   UNL     1     166.843 159.229 157.321  1.00  0.00     0.004 C 
ENDBRANCH  18  19
ENDBRANCH  17  18
ENDBRANCH  16  17
ENDBRANCH  15  16
ENDBRANCH  14  15
ENDBRANCH  13  14
ENDBRANCH  12  13
ENDBRANCH   1  12
TORSDOF 16
ENDMDL
MODEL 8
REMARK VINA RESULT:    -2.235      3.514      7.741
REMARK INTER + INTRA:          -5.561
REMARK INTER:                  -4.493
REMARK INTRA:                  -1.068
REMARK UNBOUND:                -1.235
REMARK SMILES CCCCCCCCCCCCCCCCCC(=O)[O-]
REMARK SMILES IDX 10 1 11 2 12 3 13 4 14 5 15 6 16 7 17 8 18 9 19 10 20 11
REMARK SMILES IDX 9 12 8 13 7 14 6 15 5 16 4 17 3 18 2 19 1 20
REMARK H PARENT
REMARK Flexibility Score: inf
ROOT
ATOM      1  C   UNL     1     168.855 163.981 150.851  1.00  0.00     0.000 C 
ENDROOT
BRANCH   1   2
ATOM      2  C   UNL     1     168.875 163.048 149.629  1.00  0.00     0.000 C 
BRANCH   2   3
ATOM      3  C   UNL     1     167.511 162.392 149.358  1.00  0.00     0.000 C 
BRANCH   3   4
ATOM      4  C   UNL     1     166.402 163.422 149.079  1.00  0.00     0.000 C 
BRANCH   4   5
ATOM      5  C   UNL     1     166.557 164.091 147.702  1.00  0.00     0.000 C 
BRANCH   5   6
ATOM      6  C   UNL     1     165.921 165.492 147.656  1.00  0.00     0.000 C 
BRANCH   6   7
ATOM      7  C   UNL     1     165.107 165.814 148.920  1.00  0.00     0.006 C 
BRANCH   7   8
ATOM      8  C   UNL     1     163.922 166.746 148.640  1.00  0.00     0.053 C 
BRANCH   8   9
ATOM      9  C   UNL     1     162.711 166.292 149.394  1.00  0.00     0.041 C 
ATOM     10  O   UNL     1     161.565 166.680 149.045  1.00  0.00    -0.550 OA
ATOM     11  O   UNL     1     162.852 165.481 150.513  1.00  0.00    -0.550 OA
ENDBRANCH   8   9
ENDBRANCH   7   8
ENDBRANCH   6   7
ENDBRANCH   5   6
ENDBRANCH   4   5
ENDBRANCH   3   4
ENDBRANCH   2   3
ENDBRANCH   1   2
BRANCH   1  12
ATOM     12  C   UNL     1     168.157 163.306 152.042  1.00  0.00     0.000 C 
BRANCH  12  13
ATOM     13  C   UNL     1     167.185 164.250 152.771  1.00  0.00    -0.000 C 
BRANCH  13  14
ATOM     14  C   UNL     1     166.814 163.744 154.174  1.00  0.00    -0.000 C 
BRANCH  14  15
ATOM     15  C   UNL     1     166.523 162.234 154.207  1.00  0.00    -0.000 C 
BRANCH  15  16
ATOM     16  C   UNL     1     166.066 161.720 155.589  1.00  0.00    -0.000 C 
BRANCH  16  17
ATOM     17  C   UNL     1     167.235 161.627 156.586  1.00  0.00    -0.000 C 
BRANCH  17  18
ATOM     18  C   UNL     1     166.899 160.758 157.809  1.00  0.00    -0.000 C 
BRANCH  18  19
ATOM     19  C   UNL     1     166.781 161.583 159.099  1.00  0.00    -0.003 C 
ATOM     20  C   UNL     1     167.337 162.990 158.904  1.00  0.00     0.004 C 
ENDBRANCH  18  19
ENDBRANCH  17  18
ENDBRANCH  16  17
ENDBRANCH  15  16
ENDBRANCH  14  15
ENDBRANCH  13  14
ENDBRANCH  12  13
ENDBRANCH   1  12
TORSDOF 16
ENDMDL
MODEL 9
REMARK VINA RESULT:    -2.030     12.548     14.003
REMARK INTER + INTRA:          -5.165
REMARK INTER:                  -3.999
REMARK INTRA:                  -1.165
REMARK UNBOUND:                -1.235
REMARK SMILES CCCCCCCCCCCCCCCCCC(=O)[O-]
REMARK SMILES IDX 10 1 11 2 12 3 13 4 14 5 15 6 16 7 17 8 18 9 19 10 20 11
REMARK SMILES IDX 9 12 8 13 7 14 6 15 5 16 4 17 3 18 2 19 1 20
REMARK H PARENT
REMARK Flexibility Score: inf
ROOT
ATOM      1  C   UNL     1     156.099 162.907 156.545  1.00  0.00     0.000 C 
ENDROOT
BRANCH   1   2
ATOM      2  C   UNL     1     155.304 162.780 157.855  1.00  0.00     0.000 C 
BRANCH   2   3
ATOM      3  C   UNL     1     153.786 162.891 157.645  1.00  0.00     0.000 C 
BRANCH   3   4
ATOM      4  C   UNL     1     153.019 161.675 158.193  1.00  0.00     0.000 C 
BRANCH   4   5
ATOM      5  C   UNL     1     153.304 160.393 157.392  1.00  0.00     0.000 C 
BRANCH   5   6
ATOM      6  C   UNL     1     153.147 160.601 155.876  1.00  0.00     0.000 C 
BRANCH   6   7
ATOM      7  C   UNL     1     154.345 160.063 155.077  1.00  0.00     0.006 C 
BRANCH   7   8
ATOM      8  C   UNL     1     153.935 159.040 154.010  1.00  0.00     0.053 C 
BRANCH   8   9
ATOM      9  C   UNL     1     154.122 157.647 154.523  1.00  0.00     0.041 C 
ATOM     10  O   UNL     1     153.344 157.184 155.399  1.00  0.00    -0.550 OA
ATOM     11  O   UNL     1     155.185 156.876 154.071  1.00  0.00    -0.550 OA
ENDBRANCH   8   9
ENDBRANCH   7   8
ENDBRANCH   6   7
ENDBRANCH   5   6
ENDBRANCH   4   5
ENDBRANCH   3   4
ENDBRANCH   2   3
ENDBRANCH   1   2
BRANCH   1  12
ATOM     12  C   UNL     1     155.472 163.968 155.627  1.00  0.00     0.000 C 
BRANCH  12  13
ATOM     13  C   UNL     1     156.527 164.790 154.867  1.00  0.00    -0.000 C 
BRANCH  13  14
ATOM     14  C   UNL     1     156.238 166.300 154.909  1.00  0.00    -0.000 C 
BRANCH  14  15
ATOM     15  C   UNL     1     155.449 166.790 153.683  1.00  0.00    -0.000 C 
BRANCH  15  16
ATOM     16  C   UNL     1     155.242 168.320 153.650  1.00  0.00    -0.000 C 
BRANCH  16  17
ATOM     17  C   UNL     1     154.589 168.787 152.338  1.00  0.00    -0.000 C 
BRANCH  17  18
ATOM     18  C   UNL     1     155.458 168.484 151.107  1.00  0.00    -0.000 C 
BRANCH  18  19
ATOM     19  C   UNL     1     156.053 169.755 150.483  1.00  0.00    -0.003 C 
ATOM     20  C   UNL     1     157.419 169.475 149.864  1.00  0.00     0.004 C 
ENDBRANCH  18  19
ENDBRANCH  17  18
ENDBRANCH  16  17
ENDBRANCH  15  16
ENDBRANCH  14  15
ENDBRANCH  13  14
ENDBRANCH  12  13
ENDBRANCH   1  12
TORSDOF 16
ENDMDL
