MODEL 1
REMARK VINA RESULT:    -2.226      0.000      0.000
REMARK INTER + INTRA:          -4.035
REMARK INTER:                  -3.527
REMARK INTRA:                  -0.508
REMARK UNBOUND:                -0.508
REMARK SMILES CCCCCCCCCCCC(=O)[O-]
REMARK SMILES IDX 7 1 8 2 9 3 10 4 11 5 12 6 13 7 14 8 6 9 5 10 4 11 3 12 2 13
REMARK SMILES IDX 1 14
REMARK H PARENT
REMARK Flexibility Score: inf
ROOT
ATOM      1  C   UNL     1      17.626   1.425  25.435  1.00  0.00     0.000 C 
ENDROOT
BRANCH   1   2
ATOM      2  C   UNL     1      17.050   2.798  25.045  1.00  0.00     0.000 C 
BRANCH   2   3
ATOM      3  C   UNL     1      15.682   3.141  25.670  1.00  0.00     0.000 C 
BRANCH   3   4
ATOM      4  C   UNL     1      14.554   2.140  25.365  1.00  0.00     0.006 C 
BRANCH   4   5
ATOM      5  C   UNL     1      13.283   2.818  24.837  1.00  0.00     0.053 C 
BRANCH   5   6
ATOM      6  C   UNL     1      13.530   3.413  23.487  1.00  0.00     0.041 C 
ATOM      7  O   UNL     1      14.060   2.721  22.578  1.00  0.00    -0.550 OA
ATOM      8  O   UNL     1      13.129   4.715  23.216  1.00  0.00    -0.550 OA
ENDBRANCH   5   6
ENDBRANCH   4   5
ENDBRANCH   3   4
ENDBRANCH   2   3
ENDBRANCH   1   2
BRANCH   1   9
ATOM      9  C   UNL     1      19.141   1.463  25.696  1.00  0.00     0.000 C 
BRANCH   9  10
ATOM     10  C   UNL     1      19.495   1.312  27.187  1.00  0.00    -0.000 C 
BRANCH  10  11
ATOM     11  C   UNL     1      18.976   2.438  28.105  1.00  0.00    -0.000 C 
BRANCH  11  12
ATOM     12  C   UNL     1      19.324   2.278  29.595  1.00  0.00    -0.000 C 
BRANCH  12  13
ATOM     13  C   UNL     1      19.306   3.610  30.359  1.00  0.00    -0.003 C 
ATOM     14  C   UNL     1      17.878   4.048  30.668  1.00  0.00     0.004 C 
ENDBRANCH  12  13
ENDBRANCH  11  12
ENDBRANCH  10  11
ENDBRANCH   9  10
ENDBRANCH   1   9
TORSDOF 10
ENDMDL
MODEL 2
REMARK VINA RESULT:    -1.751     13.905     15.951
REMARK INTER + INTRA:          -3.282
REMARK INTER:                  -2.625
REMARK INTRA:                  -0.657
REMARK UNBOUND:                -0.508
REMARK SMILES CCCCCCCCCCCC(=O)[O-]
REMARK SMILES IDX 7 1 8 2 9 3 10 4 11 5 12 6 13 7 14 8 6 9 5 10 4 11 3 12 2 13
REMARK SMILES IDX 1 14
REMARK H PARENT
REMARK Flexibility Score: inf
ROOT
ATOM      1  C   UNL     1      11.684  14.983  21.167  1.00  0.00     0.000 C 
ENDROOT
BRANCH   1   2
ATOM      2  C   UNL     1      10.966  13.909  22.004  1.00  0.00     0.000 C 
BRANCH   2   3
ATOM      3  C   UNL     1      10.954  14.158  23.527  1.00  0.00     0.000 C 
BRANCH   3   4
ATOM      4  C   UNL     1      10.875  15.636  23.947  1.00  0.00     0.006 C 
BRANCH   4   5
ATOM      5  C   UNL     1      11.385  15.877  25.373  1.00  0.00     0.053 C 
BRANCH   5   6
ATOM      6  C   UNL     1      12.324  17.041  25.403  1.00  0.00     0.041 C 
ATOM      7  O   UNL     1      12.500  17.685  26.471  1.00  0.00    -0.550 OA
ATOM      8  O   UNL     1      13.042  17.385  24.265  1.00  0.00    -0.550 OA
ENDBRANCH   5   6
ENDBRANCH   4   5
ENDBRANCH   3   4
ENDBRANCH   2   3
ENDBRANCH   1   2
BRANCH   1   9
ATOM      9  C   UNL     1      11.308  14.931  19.677  1.00  0.00     0.000 C 
BRANCH   9  10
ATOM     10  C   UNL     1      10.875  16.299  19.120  1.00  0.00    -0.000 C 
BRANCH  10  11
ATOM     11  C   UNL     1      11.583  17.519  19.745  1.00  0.00    -0.000 C 
BRANCH  11  12
ATOM     12  C   UNL     1      12.957  17.858  19.139  1.00  0.00    -0.000 C 
BRANCH  12  13
ATOM     13  C   UNL     1      14.104  17.725  20.150  1.00  0.00    -0.003 C 
ATOM     14  C   UNL     1      15.459  17.886  19.468  1.00  0.00     0.004 C 
ENDBRANCH  12  13
ENDBRANCH  11  12
ENDBRANCH  10  11
ENDBRANCH   9  10
ENDBRANCH   1   9
TORSDOF 10
ENDMDL
MODEL 3
REMARK VINA RESULT:    -1.631      3.652      6.769
REMARK INTER + INTRA:          -3.093
REMARK INTER:                  -2.494
REMARK INTRA:                  -0.599
REMARK UNBOUND:                -0.508
REMARK SMILES CCCCCCCCCCCC(=O)[O-]
REMARK SMILES IDX 7 1 8 2 9 3 10 4 11 5 12 6 13 7 14 8 6 9 5 10 4 11 3 12 2 13
REMARK SMILES IDX 1 14
REMARK H PARENT
REMARK Flexibility Score: inf
ROOT
ATOM      1  C   UNL     1      17.906   1.540  25.431  1.00  0.00     0.000 C 
ENDROOT
BRANCH   1   2
ATOM      2  C   UNL     1      19.166   1.762  26.287  1.00  0.00     0.000 C 
BRANCH   2   3
ATOM      3  C   UNL     1      19.255   0.903  27.566  1.00  0.00     0.000 C 
BRANCH   3   4
ATOM      4  C   UNL     1      19.497   1.690  28.866  1.00  0.00     0.006 C 
BRANCH   4   5
ATOM      5  C   UNL     1      18.781   3.046  28.883  1.00  0.00     0.053 C 
BRANCH   5   6
ATOM      6  C   UNL     1      18.766   3.611  30.268  1.00  0.00     0.041 C 
ATOM      7  O   UNL     1      19.785   3.516  31.002  1.00  0.00    -0.550 OA
ATOM      8  O   UNL     1      17.645   4.289  30.730  1.00  0.00    -0.550 OA
ENDBRANCH   5   6
ENDBRANCH   4   5
ENDBRANCH   3   4
ENDBRANCH   2   3
ENDBRANCH   1   2
BRANCH   1   9
ATOM      9  C   UNL     1      17.191   2.852  25.069  1.00  0.00     0.000 C 
BRANCH   9  10
ATOM     10  C   UNL     1      15.872   3.048  25.839  1.00  0.00    -0.000 C 
BRANCH  10  11
ATOM     11  C   UNL     1      14.690   2.185  25.353  1.00  0.00    -0.000 C 
BRANCH  11  12
ATOM     12  C   UNL     1      13.495   2.975  24.788  1.00  0.00    -0.000 C 
BRANCH  12  13
ATOM     13  C   UNL     1      13.595   3.207  23.274  1.00  0.00    -0.003 C 
ATOM     14  C   UNL     1      13.068   4.587  22.893  1.00  0.00     0.004 C 
ENDBRANCH  12  13
ENDBRANCH  11  12
ENDBRANCH  10  11
ENDBRANCH   9  10
ENDBRANCH   1   9
TORSDOF 10
ENDMDL
MODEL 4
REMARK VINA RESULT:    -1.547      0.857      1.221
REMARK INTER + INTRA:          -2.960
REMARK INTER:                  -2.587
REMARK INTRA:                  -0.373
REMARK UNBOUND:                -0.508
REMARK SMILES CCCCCCCCCCCC(=O)[O-]
REMARK SMILES IDX 7 1 8 2 9 3 10 4 11 5 12 6 13 7 14 8 6 9 5 10 4 11 3 12 2 13
REMARK SMILES IDX 1 14
REMARK H PARENT
REMARK Flexibility Score: inf
ROOT
ATOM      1  C   UNL     1      18.648   1.233  24.776  1.00  0.00     0.000 C 
ENDROOT
BRANCH   1   2
ATOM      2  C   UNL     1      17.280   1.609  25.374  1.00  0.00     0.000 C 
BRANCH   2   3
ATOM      3  C   UNL     1      16.916   3.106  25.301  1.00  0.00     0.000 C 
BRANCH   3   4
ATOM      4  C   UNL     1      15.512   3.464  25.819  1.00  0.00     0.006 C 
BRANCH   4   5
ATOM      5  C   UNL     1      14.507   2.317  25.654  1.00  0.00     0.053 C 
BRANCH   5   6
ATOM      6  C   UNL     1      13.624   2.563  24.472  1.00  0.00     0.041 C 
ATOM      7  O   UNL     1      12.516   1.972  24.377  1.00  0.00    -0.550 OA
ATOM      8  O   UNL     1      14.000   3.482  23.501  1.00  0.00    -0.550 OA
ENDBRANCH   5   6
ENDBRANCH   4   5
ENDBRANCH   3   4
ENDBRANCH   2   3
ENDBRANCH   1   2
BRANCH   1   9
ATOM      9  C   UNL     1      19.785   1.278  25.810  1.00  0.00     0.000 C 
BRANCH   9  10
ATOM     10  C   UNL     1      19.292   1.073  27.254  1.00  0.00    -0.000 C 
BRANCH  10  11
ATOM     11  C   UNL     1      19.092   2.366  28.071  1.00  0.00    -0.000 C 
BRANCH  11  12
ATOM     12  C   UNL     1      19.336   2.226  29.584  1.00  0.00    -0.000 C 
BRANCH  12  13
ATOM     13  C   UNL     1      19.338   3.576  30.316  1.00  0.00    -0.003 C 
ATOM     14  C   UNL     1      17.919   4.013  30.667  1.00  0.00     0.004 C 
ENDBRANCH  12  13
ENDBRANCH  11  12
ENDBRANCH  10  11
ENDBRANCH   9  10
ENDBRANCH   1   9
TORSDOF 10
ENDMDL
MODEL 5
REMARK VINA RESULT:    -0.618      3.478      6.665
REMARK INTER + INTRA:          -1.487
REMARK INTER:                  -0.734
REMARK INTRA:                  -0.753
REMARK UNBOUND:                -0.508
REMARK SMILES CCCCCCCCCCCC(=O)[O-]
REMARK SMILES IDX 7 1 8 2 9 3 10 4 11 5 12 6 13 7 14 8 6 9 5 10 4 11 3 12 2 13
REMARK SMILES IDX 1 14
REMARK H PARENT
REMARK Flexibility Score: inf
ROOT
ATOM      1  C   UNL     1      17.105   2.505  24.834  1.00  0.00     0.000 C 
ENDROOT
BRANCH   1   2
ATOM      2  C   UNL     1      17.843   1.240  25.304  1.00  0.00     0.000 C 
BRANCH   2   3
ATOM      3  C   UNL     1      19.382   1.349  25.343  1.00  0.00     0.000 C 
BRANCH   3   4
ATOM      4  C   UNL     1      19.977   1.710  26.716  1.00  0.00     0.006 C 
BRANCH   4   5
ATOM      5  C   UNL     1      18.998   1.464  27.871  1.00  0.00     0.053 C 
BRANCH   5   6
ATOM      6  C   UNL     1      19.437   2.206  29.094  1.00  0.00     0.041 C 
ATOM      7  O   UNL     1      20.418   1.793  29.766  1.00  0.00    -0.550 OA
ATOM      8  O   UNL     1      18.794   3.381  29.463  1.00  0.00    -0.550 OA
ENDBRANCH   5   6
ENDBRANCH   4   5
ENDBRANCH   3   4
ENDBRANCH   2   3
ENDBRANCH   1   2
BRANCH   1   9
ATOM      9  C   UNL     1      16.637   3.393  25.999  1.00  0.00     0.000 C 
BRANCH   9  10
ATOM     10  C   UNL     1      15.112   3.603  26.018  1.00  0.00    -0.000 C 
BRANCH  10  11
ATOM     11  C   UNL     1      14.272   2.354  25.683  1.00  0.00    -0.000 C 
BRANCH  11  12
ATOM     12  C   UNL     1      13.284   2.526  24.514  1.00  0.00    -0.000 C 
BRANCH  12  13
ATOM     13  C   UNL     1      13.861   3.364  23.364  1.00  0.00    -0.003 C 
ATOM     14  C   UNL     1      12.846   4.387  22.866  1.00  0.00     0.004 C 
ENDBRANCH  12  13
ENDBRANCH  11  12
ENDBRANCH  10  11
ENDBRANCH   9  10
ENDBRANCH   1   9
TORSDOF 10
ENDMDL
