MODEL 1
REMARK VINA RESULT:    -4.367      0.000      0.000
REMARK INTER + INTRA:          -4.622
REMARK INTER:                  -4.622
REMARK INTRA:                   0.000
REMARK UNBOUND:                 0.000
REMARK SMILES Cc1cc(O)c(C)c(C)c1O
REMARK SMILES IDX 1 1 2 2 3 3 4 4 6 5 8 6 10 7 9 8 7 9 11 10 5 12
REMARK H PARENT 11 11 5 13
REMARK Flexibility Score: inf
ROOT
ATOM      1  C   UNL     1      33.789  32.759  71.005  1.00  0.00     0.048 C 
ATOM      2  C   UNL     1      33.235  34.156  71.094  1.00  0.00    -0.005 A 
ATOM      3  C   UNL     1      34.107  35.245  70.992  1.00  0.00     0.053 A 
ATOM      4  C   UNL     1      33.637  36.555  71.058  1.00  0.00     0.119 A 
ATOM      5  C   UNL     1      32.252  36.807  71.208  1.00  0.00    -0.003 A 
ATOM      6  C   UNL     1      31.364  35.709  71.378  1.00  0.00    -0.002 A 
ATOM      7  C   UNL     1      31.858  34.386  71.294  1.00  0.00     0.121 A 
ATOM      8  C   UNL     1      29.888  35.938  71.623  1.00  0.00     0.049 C 
ATOM      9  C   UNL     1      31.758  38.237  71.215  1.00  0.00     0.049 C 
ENDROOT
BRANCH   7  10
ATOM     10  O   UNL     1      30.963  33.316  71.409  1.00  0.00    -0.507 OA
ATOM     11  H   UNL     1      30.740  32.866  72.286  1.00  0.00     0.293 HD
ENDBRANCH   7  10
BRANCH   4  12
ATOM     12  O   UNL     1      34.577  37.586  70.978  1.00  0.00    -0.508 OA
ATOM     13  H   UNL     1      35.049  37.850  70.123  1.00  0.00     0.293 HD
ENDBRANCH   4  12
TORSDOF 2
ENDMDL
MODEL 2
REMARK VINA RESULT:    -4.252      4.632      5.918
REMARK INTER + INTRA:          -4.501
REMARK INTER:                  -4.501
REMARK INTRA:                   0.000
REMARK UNBOUND:                 0.000
REMARK SMILES Cc1cc(O)c(C)c(C)c1O
REMARK SMILES IDX 1 1 2 2 3 3 4 4 6 5 8 6 10 7 9 8 7 9 11 10 5 12
REMARK H PARENT 11 11 5 13
REMARK Flexibility Score: inf
ROOT
ATOM      1  C   UNL     1      28.071  28.866  73.957  1.00  0.00     0.048 C 
ATOM      2  C   UNL     1      28.428  30.215  73.393  1.00  0.00    -0.005 A 
ATOM      3  C   UNL     1      29.766  30.504  73.105  1.00  0.00     0.053 A 
ATOM      4  C   UNL     1      30.140  31.735  72.572  1.00  0.00     0.119 A 
ATOM      5  C   UNL     1      29.159  32.714  72.287  1.00  0.00    -0.003 A 
ATOM      6  C   UNL     1      27.804  32.457  72.634  1.00  0.00    -0.002 A 
ATOM      7  C   UNL     1      27.441  31.196  73.162  1.00  0.00     0.121 A 
ATOM      8  C   UNL     1      26.737  33.509  72.421  1.00  0.00     0.049 C 
ATOM      9  C   UNL     1      29.581  34.020  71.650  1.00  0.00     0.049 C 
ENDROOT
BRANCH   7  10
ATOM     10  O   UNL     1      26.096  30.938  73.448  1.00  0.00    -0.507 OA
ATOM     11  H   UNL     1      25.484  31.602  73.903  1.00  0.00     0.293 HD
ENDBRANCH   7  10
BRANCH   4  12
ATOM     12  O   UNL     1      31.501  31.955  72.342  1.00  0.00    -0.508 OA
ATOM     13  H   UNL     1      31.959  31.768  71.459  1.00  0.00     0.293 HD
ENDBRANCH   4  12
TORSDOF 2
ENDMDL
MODEL 3
REMARK VINA RESULT:    -4.174      6.086      7.727
REMARK INTER + INTRA:          -4.418
REMARK INTER:                  -4.418
REMARK INTRA:                   0.000
REMARK UNBOUND:                 0.000
REMARK SMILES Cc1cc(O)c(C)c(C)c1O
REMARK SMILES IDX 1 1 2 2 3 3 4 4 6 5 8 6 10 7 9 8 7 9 11 10 5 12
REMARK H PARENT 11 11 5 13
REMARK Flexibility Score: inf
ROOT
ATOM      1  C   UNL     1      25.841  28.535  74.382  1.00  0.00     0.048 C 
ATOM      2  C   UNL     1      27.090  29.282  73.997  1.00  0.00    -0.005 A 
ATOM      3  C   UNL     1      28.336  28.679  74.198  1.00  0.00     0.053 A 
ATOM      4  C   UNL     1      29.518  29.328  73.846  1.00  0.00     0.119 A 
ATOM      5  C   UNL     1      29.474  30.612  73.253  1.00  0.00    -0.003 A 
ATOM      6  C   UNL     1      28.218  31.262  73.102  1.00  0.00    -0.002 A 
ATOM      7  C   UNL     1      27.028  30.582  73.452  1.00  0.00     0.121 A 
ATOM      8  C   UNL     1      28.134  32.668  72.548  1.00  0.00     0.049 C 
ATOM      9  C   UNL     1      30.765  31.272  72.822  1.00  0.00     0.049 C 
ENDROOT
BRANCH   7  10
ATOM     10  O   UNL     1      25.796  31.213  73.249  1.00  0.00    -0.507 OA
ATOM     11  H   UNL     1      25.581  31.769  72.432  1.00  0.00     0.293 HD
ENDBRANCH   7  10
BRANCH   4  12
ATOM     12  O   UNL     1      30.722  28.669  74.107  1.00  0.00    -0.508 OA
ATOM     13  H   UNL     1      31.624  29.001  73.791  1.00  0.00     0.293 HD
ENDBRANCH   4  12
TORSDOF 2
ENDMDL
MODEL 4
REMARK VINA RESULT:    -4.162      5.674      7.371
REMARK INTER + INTRA:          -4.406
REMARK INTER:                  -4.406
REMARK INTRA:                   0.000
REMARK UNBOUND:                 0.000
REMARK SMILES Cc1cc(O)c(C)c(C)c1O
REMARK SMILES IDX 1 1 2 2 3 3 4 4 6 5 8 6 10 7 9 8 7 9 11 10 5 12
REMARK H PARENT 11 11 5 13
REMARK Flexibility Score: inf
ROOT
ATOM      1  C   UNL     1      27.462  27.875  74.413  1.00  0.00     0.048 C 
ATOM      2  C   UNL     1      27.826  29.224  73.852  1.00  0.00    -0.005 A 
ATOM      3  C   UNL     1      26.809  30.136  73.551  1.00  0.00     0.053 A 
ATOM      4  C   UNL     1      27.100  31.399  73.040  1.00  0.00     0.119 A 
ATOM      5  C   UNL     1      28.445  31.791  72.837  1.00  0.00    -0.003 A 
ATOM      6  C   UNL     1      29.484  30.850  73.079  1.00  0.00    -0.002 A 
ATOM      7  C   UNL     1      29.170  29.578  73.611  1.00  0.00     0.121 A 
ATOM      8  C   UNL     1      30.928  31.202  72.797  1.00  0.00     0.049 C 
ATOM      9  C   UNL     1      28.740  33.189  72.340  1.00  0.00     0.049 C 
ENDROOT
BRANCH   7  10
ATOM     10  O   UNL     1      30.207  28.682  73.894  1.00  0.00    -0.507 OA
ATOM     11  H   UNL     1      31.027  28.928  74.433  1.00  0.00     0.293 HD
ENDBRANCH   7  10
BRANCH   4  12
ATOM     12  O   UNL     1      26.025  32.239  72.737  1.00  0.00    -0.508 OA
ATOM     13  H   UNL     1      26.026  32.898  71.970  1.00  0.00     0.293 HD
ENDBRANCH   4  12
TORSDOF 2
ENDMDL
MODEL 5
REMARK VINA RESULT:    -4.158      6.090      7.804
REMARK INTER + INTRA:          -4.401
REMARK INTER:                  -4.401
REMARK INTRA:                   0.000
REMARK UNBOUND:                 0.000
REMARK SMILES Cc1cc(O)c(C)c(C)c1O
REMARK SMILES IDX 1 1 2 2 3 3 4 4 6 5 8 6 10 7 9 8 7 9 11 10 5 12
REMARK H PARENT 11 11 5 13
REMARK Flexibility Score: inf
ROOT
ATOM      1  C   UNL     1      30.874  31.250  72.750  1.00  0.00     0.048 C 
ATOM      2  C   UNL     1      29.454  30.842  73.043  1.00  0.00    -0.005 A 
ATOM      3  C   UNL     1      28.416  31.741  72.775  1.00  0.00     0.053 A 
ATOM      4  C   UNL     1      27.087  31.403  73.020  1.00  0.00     0.119 A 
ATOM      5  C   UNL     1      26.761  30.122  73.526  1.00  0.00    -0.003 A 
ATOM      6  C   UNL     1      27.811  29.223  73.861  1.00  0.00    -0.002 A 
ATOM      7  C   UNL     1      29.154  29.579  73.593  1.00  0.00     0.121 A 
ATOM      8  C   UNL     1      27.509  27.876  74.481  1.00  0.00     0.049 C 
ATOM      9  C   UNL     1      25.307  29.754  73.725  1.00  0.00     0.049 C 
ENDROOT
BRANCH   7  10
ATOM     10  O   UNL     1      30.172  28.663  73.879  1.00  0.00    -0.507 OA
ATOM     11  H   UNL     1      30.577  28.045  73.189  1.00  0.00     0.293 HD
ENDBRANCH   7  10
BRANCH   4  12
ATOM     12  O   UNL     1      26.113  32.369  72.754  1.00  0.00    -0.508 OA
ATOM     13  H   UNL     1      25.458  32.309  71.985  1.00  0.00     0.293 HD
ENDBRANCH   4  12
TORSDOF 2
ENDMDL
MODEL 6
REMARK VINA RESULT:    -4.157      2.921      5.093
REMARK INTER + INTRA:          -4.400
REMARK INTER:                  -4.400
REMARK INTRA:                   0.000
REMARK UNBOUND:                 0.000
REMARK SMILES Cc1cc(O)c(C)c(C)c1O
REMARK SMILES IDX 1 1 2 2 3 3 4 4 6 5 8 6 10 7 9 8 7 9 11 10 5 12
REMARK H PARENT 11 11 5 13
REMARK Flexibility Score: inf
ROOT
ATOM      1  C   UNL     1      33.440  40.342  74.039  1.00  0.00     0.048 C 
ATOM      2  C   UNL     1      32.391  39.368  73.571  1.00  0.00    -0.005 A 
ATOM      3  C   UNL     1      31.175  39.291  74.258  1.00  0.00     0.053 A 
ATOM      4  C   UNL     1      30.172  38.413  73.853  1.00  0.00     0.119 A 
ATOM      5  C   UNL     1      30.361  37.594  72.714  1.00  0.00    -0.003 A 
ATOM      6  C   UNL     1      31.616  37.617  72.046  1.00  0.00    -0.002 A 
ATOM      7  C   UNL     1      32.617  38.525  72.463  1.00  0.00     0.121 A 
ATOM      8  C   UNL     1      31.887  36.698  70.875  1.00  0.00     0.049 C 
ATOM      9  C   UNL     1      29.235  36.693  72.257  1.00  0.00     0.049 C 
ENDROOT
BRANCH   7  10
ATOM     10  O   UNL     1      33.827  38.575  71.762  1.00  0.00    -0.507 OA
ATOM     11  H   UNL     1      34.251  37.770  71.321  1.00  0.00     0.293 HD
ENDBRANCH   7  10
BRANCH   4  12
ATOM     12  O   UNL     1      28.999  38.375  74.612  1.00  0.00    -0.508 OA
ATOM     13  H   UNL     1      28.481  37.528  74.803  1.00  0.00     0.293 HD
ENDBRANCH   4  12
TORSDOF 2
ENDMDL
MODEL 7
REMARK VINA RESULT:    -4.049     17.152     18.232
REMARK INTER + INTRA:          -4.286
REMARK INTER:                  -4.286
REMARK INTRA:                   0.000
REMARK UNBOUND:                 0.000
REMARK SMILES Cc1cc(O)c(C)c(C)c1O
REMARK SMILES IDX 1 1 2 2 3 3 4 4 6 5 8 6 10 7 9 8 7 9 11 10 5 12
REMARK H PARENT 11 11 5 13
REMARK Flexibility Score: inf
ROOT
ATOM      1  C   UNL     1      21.816  34.652  84.292  1.00  0.00     0.048 C 
ATOM      2  C   UNL     1      22.384  35.518  85.385  1.00  0.00    -0.005 A 
ATOM      3  C   UNL     1      23.172  34.931  86.381  1.00  0.00     0.053 A 
ATOM      4  C   UNL     1      23.727  35.695  87.406  1.00  0.00     0.119 A 
ATOM      5  C   UNL     1      23.519  37.095  87.441  1.00  0.00    -0.003 A 
ATOM      6  C   UNL     1      22.668  37.693  86.472  1.00  0.00    -0.002 A 
ATOM      7  C   UNL     1      22.125  36.903  85.431  1.00  0.00     0.121 A 
ATOM      8  C   UNL     1      22.355  39.172  86.523  1.00  0.00     0.049 C 
ATOM      9  C   UNL     1      24.183  37.913  88.527  1.00  0.00     0.049 C 
ENDROOT
BRANCH   7  10
ATOM     10  O   UNL     1      21.333  37.515  84.453  1.00  0.00    -0.507 OA
ATOM     11  H   UNL     1      20.359  37.290  84.301  1.00  0.00     0.293 HD
ENDBRANCH   7  10
BRANCH   4  12
ATOM     12  O   UNL     1      24.477  35.028  88.378  1.00  0.00    -0.508 OA
ATOM     13  H   UNL     1      24.284  35.081  89.370  1.00  0.00     0.293 HD
ENDBRANCH   4  12
TORSDOF 2
ENDMDL
MODEL 8
REMARK VINA RESULT:    -4.038      4.175      6.784
REMARK INTER + INTRA:          -4.275
REMARK INTER:                  -4.275
REMARK INTRA:                   0.000
REMARK UNBOUND:                 0.000
REMARK SMILES Cc1cc(O)c(C)c(C)c1O
REMARK SMILES IDX 1 1 2 2 3 3 4 4 6 5 8 6 10 7 9 8 7 9 11 10 5 12
REMARK H PARENT 11 11 5 13
REMARK Flexibility Score: inf
ROOT
ATOM      1  C   UNL     1      28.301  34.859  71.621  1.00  0.00     0.048 C 
ATOM      2  C   UNL     1      28.467  33.462  72.158  1.00  0.00    -0.005 A 
ATOM      3  C   UNL     1      27.344  32.773  72.627  1.00  0.00     0.053 A 
ATOM      4  C   UNL     1      27.448  31.475  73.122  1.00  0.00     0.119 A 
ATOM      5  C   UNL     1      28.701  30.818  73.137  1.00  0.00    -0.003 A 
ATOM      6  C   UNL     1      29.861  31.531  72.723  1.00  0.00    -0.002 A 
ATOM      7  C   UNL     1      29.733  32.843  72.210  1.00  0.00     0.121 A 
ATOM      8  C   UNL     1      31.231  30.893  72.801  1.00  0.00     0.049 C 
ATOM      9  C   UNL     1      28.780  29.387  73.622  1.00  0.00     0.049 C 
ENDROOT
BRANCH   7  10
ATOM     10  O   UNL     1      30.875  33.511  71.756  1.00  0.00    -0.507 OA
ATOM     11  H   UNL     1      31.042  33.737  70.785  1.00  0.00     0.293 HD
ENDBRANCH   7  10
BRANCH   4  12
ATOM     12  O   UNL     1      26.283  30.868  73.599  1.00  0.00    -0.508 OA
ATOM     13  H   UNL     1      26.130  30.632  74.571  1.00  0.00     0.293 HD
ENDBRANCH   4  12
TORSDOF 2
ENDMDL
MODEL 9
REMARK VINA RESULT:    -4.034      5.784      7.648
REMARK INTER + INTRA:          -4.270
REMARK INTER:                  -4.270
REMARK INTRA:                   0.000
REMARK UNBOUND:                 0.000
REMARK SMILES Cc1cc(O)c(C)c(C)c1O
REMARK SMILES IDX 1 1 2 2 3 3 4 4 6 5 8 6 10 7 9 8 7 9 11 10 5 12
REMARK H PARENT 11 11 5 13
REMARK Flexibility Score: inf
ROOT
ATOM      1  C   UNL     1      27.119  33.376  72.327  1.00  0.00     0.048 C 
ATOM      2  C   UNL     1      27.648  32.030  72.743  1.00  0.00    -0.005 A 
ATOM      3  C   UNL     1      29.025  31.788  72.685  1.00  0.00     0.053 A 
ATOM      4  C   UNL     1      29.560  30.561  73.070  1.00  0.00     0.119 A 
ATOM      5  C   UNL     1      28.712  29.537  73.555  1.00  0.00    -0.003 A 
ATOM      6  C   UNL     1      27.305  29.747  73.558  1.00  0.00    -0.002 A 
ATOM      7  C   UNL     1      26.782  31.005  73.177  1.00  0.00     0.121 A 
ATOM      8  C   UNL     1      26.359  28.649  73.991  1.00  0.00     0.049 C 
ATOM      9  C   UNL     1      29.321  28.234  74.026  1.00  0.00     0.049 C 
ENDROOT
BRANCH   7  10
ATOM     10  O   UNL     1      25.400  31.215  73.237  1.00  0.00    -0.507 OA
ATOM     11  H   UNL     1      24.731  30.703  72.676  1.00  0.00     0.293 HD
ENDBRANCH   7  10
BRANCH   4  12
ATOM     12  O   UNL     1      30.942  30.391  72.953  1.00  0.00    -0.508 OA
ATOM     13  H   UNL     1      31.503  30.833  72.236  1.00  0.00     0.293 HD
ENDBRANCH   4  12
TORSDOF 2
ENDMDL
