MODEL 1
REMARK VINA RESULT:    -3.646      0.000      0.000
REMARK INTER + INTRA:          -4.671
REMARK INTER:                  -4.605
REMARK INTRA:                  -0.067
REMARK UNBOUND:                -0.067
REMARK SMILES CCCCCCO
REMARK SMILES IDX 4 1 3 2 2 3 1 4 5 5 6 6 7 7
REMARK H PARENT 7 8
REMARK Flexibility Score: inf
ROOT
ATOM      1  C   UNL     1      16.842  -4.336  17.123  1.00  0.00     0.002 C 
ENDROOT
BRANCH   1   2
ATOM      2  C   UNL     1      17.878  -3.502  17.885  1.00  0.00    -0.000 C 
BRANCH   2   3
ATOM      3  C   UNL     1      18.659  -2.591  16.932  1.00  0.00    -0.003 C 
ATOM      4  C   UNL     1      18.468  -1.121  17.294  1.00  0.00     0.004 C 
ENDBRANCH   2   3
ENDBRANCH   1   2
BRANCH   1   5
ATOM      5  C   UNL     1      15.444  -4.165  17.728  1.00  0.00     0.028 C 
BRANCH   5   6
ATOM      6  C   UNL     1      14.638  -5.462  17.633  1.00  0.00     0.156 C 
BRANCH   6   7
ATOM      7  O   UNL     1      13.838  -5.622  18.774  1.00  0.00    -0.396 OA
ATOM      8  H   UNL     1      13.486  -6.550  18.747  1.00  0.00     0.210 HD
ENDBRANCH   6   7
ENDBRANCH   5   6
ENDBRANCH   1   5
TORSDOF 5
ENDMDL
MODEL 2
REMARK VINA RESULT:    -3.553      2.107      2.538
REMARK INTER + INTRA:          -4.555
REMARK INTER:                  -4.450
REMARK INTRA:                  -0.105
REMARK UNBOUND:                -0.067
REMARK SMILES CCCCCCO
REMARK SMILES IDX 4 1 3 2 2 3 1 4 5 5 6 6 7 7
REMARK H PARENT 7 8
REMARK Flexibility Score: inf
ROOT
ATOM      1  C   UNL     1      16.437  -4.523  18.881  1.00  0.00     0.002 C 
ENDROOT
BRANCH   1   2
ATOM      2  C   UNL     1      16.493  -3.154  19.569  1.00  0.00    -0.000 C 
BRANCH   2   3
ATOM      3  C   UNL     1      17.593  -3.120  20.637  1.00  0.00    -0.003 C 
ATOM      4  C   UNL     1      18.439  -4.389  20.596  1.00  0.00     0.004 C 
ENDBRANCH   2   3
ENDBRANCH   1   2
BRANCH   1   5
ATOM      5  C   UNL     1      15.662  -4.444  17.561  1.00  0.00     0.028 C 
BRANCH   5   6
ATOM      6  C   UNL     1      14.608  -5.551  17.472  1.00  0.00     0.156 C 
BRANCH   6   7
ATOM      7  O   UNL     1      13.903  -5.646  18.680  1.00  0.00    -0.396 OA
ATOM      8  H   UNL     1      14.512  -6.084  19.331  1.00  0.00     0.210 HD
ENDBRANCH   6   7
ENDBRANCH   5   6
ENDBRANCH   1   5
TORSDOF 5
ENDMDL
MODEL 3
REMARK VINA RESULT:    -3.523      4.658      5.802
REMARK INTER + INTRA:          -4.516
REMARK INTER:                  -4.428
REMARK INTRA:                  -0.088
REMARK UNBOUND:                -0.067
REMARK SMILES CCCCCCO
REMARK SMILES IDX 4 1 3 2 2 3 1 4 5 5 6 6 7 7
REMARK H PARENT 7 8
REMARK Flexibility Score: inf
ROOT
ATOM      1  C   UNL     1      19.923  -5.144  18.085  1.00  0.00     0.002 C 
ENDROOT
BRANCH   1   2
ATOM      2  C   UNL     1      18.809  -4.338  18.763  1.00  0.00    -0.000 C 
BRANCH   2   3
ATOM      3  C   UNL     1      18.558  -4.838  20.189  1.00  0.00    -0.003 C 
ATOM      4  C   UNL     1      19.137  -3.875  21.222  1.00  0.00     0.004 C 
ENDBRANCH   2   3
ENDBRANCH   1   2
BRANCH   1   5
ATOM      5  C   UNL     1      21.250  -4.378  18.107  1.00  0.00     0.028 C 
BRANCH   5   6
ATOM      6  C   UNL     1      22.174  -4.842  16.978  1.00  0.00     0.156 C 
BRANCH   6   7
ATOM      7  O   UNL     1      22.951  -3.769  16.516  1.00  0.00    -0.396 OA
ATOM      8  H   UNL     1      23.143  -3.949  15.559  1.00  0.00     0.210 HD
ENDBRANCH   6   7
ENDBRANCH   5   6
ENDBRANCH   1   5
TORSDOF 5
ENDMDL
MODEL 4
REMARK VINA RESULT:    -3.507      7.514      8.199
REMARK INTER + INTRA:          -4.496
REMARK INTER:                  -4.312
REMARK INTRA:                  -0.184
REMARK UNBOUND:                -0.067
REMARK SMILES CCCCCCO
REMARK SMILES IDX 4 1 3 2 2 3 1 4 5 5 6 6 7 7
REMARK H PARENT 7 8
REMARK Flexibility Score: inf
ROOT
ATOM      1  C   UNL     1      21.043  -3.056  23.008  1.00  0.00     0.002 C 
ENDROOT
BRANCH   1   2
ATOM      2  C   UNL     1      21.303  -1.697  23.668  1.00  0.00    -0.000 C 
BRANCH   2   3
ATOM      3  C   UNL     1      20.030  -0.843  23.689  1.00  0.00    -0.003 C 
ATOM      4  C   UNL     1      19.609  -0.447  22.277  1.00  0.00     0.004 C 
ENDBRANCH   2   3
ENDBRANCH   1   2
BRANCH   1   5
ATOM      5  C   UNL     1      22.095  -3.356  21.934  1.00  0.00     0.028 C 
BRANCH   5   6
ATOM      6  C   UNL     1      23.033  -2.164  21.730  1.00  0.00     0.156 C 
BRANCH   6   7
ATOM      7  O   UNL     1      24.362  -2.550  21.955  1.00  0.00    -0.396 OA
ATOM      8  H   UNL     1      24.373  -3.047  22.814  1.00  0.00     0.210 HD
ENDBRANCH   6   7
ENDBRANCH   5   6
ENDBRANCH   1   5
TORSDOF 5
ENDMDL
MODEL 5
REMARK VINA RESULT:    -3.485      5.291      6.180
REMARK INTER + INTRA:          -4.468
REMARK INTER:                  -4.383
REMARK INTRA:                  -0.085
REMARK UNBOUND:                -0.067
REMARK SMILES CCCCCCO
REMARK SMILES IDX 4 1 3 2 2 3 1 4 5 5 6 6 7 7
REMARK H PARENT 7 8
REMARK Flexibility Score: inf
ROOT
ATOM      1  C   UNL     1      21.482  -3.843  19.591  1.00  0.00     0.002 C 
ENDROOT
BRANCH   1   2
ATOM      2  C   UNL     1      20.751  -2.759  20.392  1.00  0.00    -0.000 C 
BRANCH   2   3
ATOM      3  C   UNL     1      19.993  -3.369  21.576  1.00  0.00    -0.003 C 
ATOM      4  C   UNL     1      18.802  -4.197  21.100  1.00  0.00     0.004 C 
ENDBRANCH   2   3
ENDBRANCH   1   2
BRANCH   1   5
ATOM      5  C   UNL     1      21.042  -3.833  18.122  1.00  0.00     0.028 C 
BRANCH   5   6
ATOM      6  C   UNL     1      21.991  -4.664  17.255  1.00  0.00     0.156 C 
BRANCH   6   7
ATOM      7  O   UNL     1      22.888  -3.825  16.579  1.00  0.00    -0.396 OA
ATOM      8  H   UNL     1      23.545  -4.417  16.126  1.00  0.00     0.210 HD
ENDBRANCH   6   7
ENDBRANCH   5   6
ENDBRANCH   1   5
TORSDOF 5
ENDMDL
MODEL 6
REMARK VINA RESULT:    -3.407      7.919      8.945
REMARK INTER + INTRA:          -4.371
REMARK INTER:                  -4.263
REMARK INTRA:                  -0.107
REMARK UNBOUND:                -0.067
REMARK SMILES CCCCCCO
REMARK SMILES IDX 4 1 3 2 2 3 1 4 5 5 6 6 7 7
REMARK H PARENT 7 8
REMARK Flexibility Score: inf
ROOT
ATOM      1  C   UNL     1      19.944 -10.111  13.175  1.00  0.00     0.002 C 
ENDROOT
BRANCH   1   2
ATOM      2  C   UNL     1      19.474 -11.515  12.777  1.00  0.00    -0.000 C 
BRANCH   2   3
ATOM      3  C   UNL     1      18.217 -11.447  11.902  1.00  0.00    -0.003 C 
ATOM      4  C   UNL     1      18.332 -12.379  10.699  1.00  0.00     0.004 C 
ENDBRANCH   2   3
ENDBRANCH   1   2
BRANCH   1   5
ATOM      5  C   UNL     1      18.775  -9.120  13.182  1.00  0.00     0.028 C 
BRANCH   5   6
ATOM      6  C   UNL     1      18.291  -8.847  14.608  1.00  0.00     0.156 C 
BRANCH   6   7
ATOM      7  O   UNL     1      18.994  -7.767  15.160  1.00  0.00    -0.396 OA
ATOM      8  H   UNL     1      19.842  -8.135  15.523  1.00  0.00     0.210 HD
ENDBRANCH   6   7
ENDBRANCH   5   6
ENDBRANCH   1   5
TORSDOF 5
ENDMDL
MODEL 7
REMARK VINA RESULT:    -3.386      1.936      2.252
REMARK INTER + INTRA:          -4.344
REMARK INTER:                  -4.239
REMARK INTRA:                  -0.105
REMARK UNBOUND:                -0.067
REMARK SMILES CCCCCCO
REMARK SMILES IDX 4 1 3 2 2 3 1 4 5 5 6 6 7 7
REMARK H PARENT 7 8
REMARK Flexibility Score: inf
ROOT
ATOM      1  C   UNL     1      16.746  -3.569  17.547  1.00  0.00     0.002 C 
ENDROOT
BRANCH   1   2
ATOM      2  C   UNL     1      16.763  -2.127  18.068  1.00  0.00    -0.000 C 
BRANCH   2   3
ATOM      3  C   UNL     1      15.369  -1.695  18.535  1.00  0.00    -0.003 C 
ATOM      4  C   UNL     1      15.422  -1.073  19.928  1.00  0.00     0.004 C 
ENDBRANCH   2   3
ENDBRANCH   1   2
BRANCH   1   5
ATOM      5  C   UNL     1      15.990  -4.494  18.508  1.00  0.00     0.028 C 
BRANCH   5   6
ATOM      6  C   UNL     1      14.875  -5.251  17.784  1.00  0.00     0.156 C 
BRANCH   6   7
ATOM      7  O   UNL     1      13.877  -5.631  18.693  1.00  0.00    -0.396 OA
ATOM      8  H   UNL     1      13.840  -4.922  19.387  1.00  0.00     0.210 HD
ENDBRANCH   6   7
ENDBRANCH   5   6
ENDBRANCH   1   5
TORSDOF 5
ENDMDL
MODEL 8
REMARK VINA RESULT:    -3.385      6.631      7.902
REMARK INTER + INTRA:          -4.342
REMARK INTER:                  -4.261
REMARK INTRA:                  -0.082
REMARK UNBOUND:                -0.067
REMARK SMILES CCCCCCO
REMARK SMILES IDX 4 1 3 2 2 3 1 4 5 5 6 6 7 7
REMARK H PARENT 7 8
REMARK Flexibility Score: inf
ROOT
ATOM      1  C   UNL     1      20.979  -2.044  23.147  1.00  0.00     0.002 C 
ENDROOT
BRANCH   1   2
ATOM      2  C   UNL     1      20.647  -3.277  22.299  1.00  0.00    -0.000 C 
BRANCH   2   3
ATOM      3  C   UNL     1      19.389  -3.042  21.455  1.00  0.00    -0.003 C 
ATOM      4  C   UNL     1      18.690  -4.359  21.129  1.00  0.00     0.004 C 
ENDBRANCH   2   3
ENDBRANCH   1   2
BRANCH   1   5
ATOM      5  C   UNL     1      22.290  -1.396  22.688  1.00  0.00     0.028 C 
BRANCH   5   6
ATOM      6  C   UNL     1      22.983  -2.248  21.622  1.00  0.00     0.156 C 
BRANCH   6   7
ATOM      7  O   UNL     1      24.313  -2.498  21.991  1.00  0.00    -0.396 OA
ATOM      8  H   UNL     1      24.686  -3.116  21.309  1.00  0.00     0.210 HD
ENDBRANCH   6   7
ENDBRANCH   5   6
ENDBRANCH   1   5
TORSDOF 5
ENDMDL
MODEL 9
REMARK VINA RESULT:    -3.340      9.704     10.268
REMARK INTER + INTRA:          -4.285
REMARK INTER:                  -4.221
REMARK INTRA:                  -0.064
REMARK UNBOUND:                -0.067
REMARK SMILES CCCCCCO
REMARK SMILES IDX 4 1 3 2 2 3 1 4 5 5 6 6 7 7
REMARK H PARENT 7 8
REMARK Flexibility Score: inf
ROOT
ATOM      1  C   UNL     1       9.898 -10.867  14.685  1.00  0.00     0.002 C 
ENDROOT
BRANCH   1   2
ATOM      2  C   UNL     1      10.814 -12.053  14.363  1.00  0.00    -0.000 C 
BRANCH   2   3
ATOM      3  C   UNL     1      12.287 -11.631  14.378  1.00  0.00    -0.003 C 
ATOM      4  C   UNL     1      13.151 -12.670  15.087  1.00  0.00     0.004 C 
ENDBRANCH   2   3
ENDBRANCH   1   2
BRANCH   1   5
ATOM      5  C   UNL     1       9.270 -11.017  16.076  1.00  0.00     0.028 C 
BRANCH   5   6
ATOM      6  C   UNL     1       7.890 -10.358  16.133  1.00  0.00     0.156 C 
BRANCH   6   7
ATOM      7  O   UNL     1       8.019  -8.983  16.376  1.00  0.00    -0.396 OA
ATOM      8  H   UNL     1       7.795  -8.521  15.526  1.00  0.00     0.210 HD
ENDBRANCH   6   7
ENDBRANCH   5   6
ENDBRANCH   1   5
TORSDOF 5
ENDMDL
