MODEL 1
REMARK VINA RESULT:    -2.846      0.000      0.000
REMARK INTER + INTRA:          -3.186
REMARK INTER:                  -3.179
REMARK INTRA:                  -0.007
REMARK UNBOUND:                -0.007
REMARK SMILES CCCC(=O)[O-]
REMARK SMILES IDX 3 1 4 2 5 3 6 4 2 5 1 6
REMARK H PARENT
REMARK Flexibility Score: inf
ROOT
ATOM      1  C   UNL     1      -6.650  -5.006   8.698  1.00  0.00     0.052 C 
ENDROOT
BRANCH   1   2
ATOM      2  C   UNL     1      -7.407  -5.213   7.423  1.00  0.00     0.041 C 
ATOM      3  O   UNL     1      -7.385  -6.333   6.849  1.00  0.00    -0.550 OA
ATOM      4  O   UNL     1      -8.097  -4.156   6.845  1.00  0.00    -0.550 OA
ENDBRANCH   1   2
BRANCH   1   5
ATOM      5  C   UNL     1      -5.200  -4.614   8.400  1.00  0.00     0.003 C 
ATOM      6  C   UNL     1      -4.296  -4.908   9.593  1.00  0.00     0.004 C 
ENDBRANCH   1   5
TORSDOF 2
ENDMDL
MODEL 2
REMARK VINA RESULT:    -2.782     14.072     14.850
REMARK INTER + INTRA:          -3.114
REMARK INTER:                  -3.082
REMARK INTRA:                  -0.032
REMARK UNBOUND:                -0.007
REMARK SMILES CCCC(=O)[O-]
REMARK SMILES IDX 3 1 4 2 5 3 6 4 2 5 1 6
REMARK H PARENT
REMARK Flexibility Score: inf
ROOT
ATOM      1  C   UNL     1       4.164   5.385   9.020  1.00  0.00     0.052 C 
ENDROOT
BRANCH   1   2
ATOM      2  C   UNL     1       3.145   5.297   7.927  1.00  0.00     0.041 C 
ATOM      3  O   UNL     1       1.964   5.682   8.130  1.00  0.00    -0.550 OA
ATOM      4  O   UNL     1       3.487   4.744   6.700  1.00  0.00    -0.550 OA
ENDBRANCH   1   2
BRANCH   1   5
ATOM      5  C   UNL     1       5.442   4.643   8.619  1.00  0.00     0.003 C 
ATOM      6  C   UNL     1       6.542   5.622   8.217  1.00  0.00     0.004 C 
ENDBRANCH   1   5
TORSDOF 2
ENDMDL
MODEL 3
REMARK VINA RESULT:    -2.774      3.081      3.849
REMARK INTER + INTRA:          -3.105
REMARK INTER:                  -3.074
REMARK INTRA:                  -0.032
REMARK UNBOUND:                -0.007
REMARK SMILES CCCC(=O)[O-]
REMARK SMILES IDX 3 1 4 2 5 3 6 4 2 5 1 6
REMARK H PARENT
REMARK Flexibility Score: inf
ROOT
ATOM      1  C   UNL     1      -4.177  -4.906   9.451  1.00  0.00     0.052 C 
ENDROOT
BRANCH   1   2
ATOM      2  C   UNL     1      -3.131  -4.846   8.383  1.00  0.00     0.041 C 
ATOM      3  O   UNL     1      -1.928  -5.092   8.660  1.00  0.00    -0.550 OA
ATOM      4  O   UNL     1      -3.477  -4.471   7.091  1.00  0.00    -0.550 OA
ENDBRANCH   1   2
BRANCH   1   5
ATOM      5  C   UNL     1      -5.419  -4.116   9.028  1.00  0.00     0.003 C 
ATOM      6  C   UNL     1      -6.567  -5.052   8.662  1.00  0.00     0.004 C 
ENDBRANCH   1   5
TORSDOF 2
ENDMDL
MODEL 4
REMARK VINA RESULT:    -2.767     20.062     20.761
REMARK INTER + INTRA:          -3.097
REMARK INTER:                  -3.086
REMARK INTRA:                  -0.011
REMARK UNBOUND:                -0.007
REMARK SMILES CCCC(=O)[O-]
REMARK SMILES IDX 3 1 4 2 5 3 6 4 2 5 1 6
REMARK H PARENT
REMARK Flexibility Score: inf
ROOT
ATOM      1  C   UNL     1       8.927   7.951   2.159  1.00  0.00     0.052 C 
ENDROOT
BRANCH   1   2
ATOM      2  C   UNL     1       8.985   7.967   3.654  1.00  0.00     0.041 C 
ATOM      3  O   UNL     1       8.423   7.059   4.320  1.00  0.00    -0.550 OA
ATOM      4  O   UNL     1       9.619   9.012   4.314  1.00  0.00    -0.550 OA
ENDBRANCH   1   2
BRANCH   1   5
ATOM      5  C   UNL     1       8.637   6.536   1.651  1.00  0.00     0.003 C 
ATOM      6  C   UNL     1       8.580   6.500   0.126  1.00  0.00     0.004 C 
ENDBRANCH   1   5
TORSDOF 2
ENDMDL
MODEL 5
REMARK VINA RESULT:    -2.730     16.505     17.250
REMARK INTER + INTRA:          -3.056
REMARK INTER:                  -3.036
REMARK INTRA:                  -0.020
REMARK UNBOUND:                -0.007
REMARK SMILES CCCC(=O)[O-]
REMARK SMILES IDX 3 1 4 2 5 3 6 4 2 5 1 6
REMARK H PARENT
REMARK Flexibility Score: inf
ROOT
ATOM      1  C   UNL     1       7.379   4.526   8.731  1.00  0.00     0.052 C 
ENDROOT
BRANCH   1   2
ATOM      2  C   UNL     1       6.697   5.333   7.672  1.00  0.00     0.041 C 
ATOM      3  O   UNL     1       7.377   5.992   6.842  1.00  0.00    -0.550 OA
ATOM      4  O   UNL     1       5.311   5.397   7.631  1.00  0.00    -0.550 OA
ENDBRANCH   1   2
BRANCH   1   5
ATOM      5  C   UNL     1       8.757   4.065   8.248  1.00  0.00     0.003 C 
ATOM      6  C   UNL     1       9.742   3.965   9.409  1.00  0.00     0.004 C 
ENDBRANCH   1   5
TORSDOF 2
ENDMDL
MODEL 6
REMARK VINA RESULT:    -2.726     15.943     16.766
REMARK INTER + INTRA:          -3.051
REMARK INTER:                  -3.046
REMARK INTRA:                  -0.005
REMARK UNBOUND:                -0.007
REMARK SMILES CCCC(=O)[O-]
REMARK SMILES IDX 3 1 4 2 5 3 6 4 2 5 1 6
REMARK H PARENT
REMARK Flexibility Score: inf
ROOT
ATOM      1  C   UNL     1       6.384   5.720   8.355  1.00  0.00     0.052 C 
ENDROOT
BRANCH   1   2
ATOM      2  C   UNL     1       7.443   5.203   7.432  1.00  0.00     0.041 C 
ATOM      3  O   UNL     1       8.294   4.373   7.846  1.00  0.00    -0.550 OA
ATOM      4  O   UNL     1       7.519   5.674   6.128  1.00  0.00    -0.550 OA
ENDBRANCH   1   2
BRANCH   1   5
ATOM      5  C   UNL     1       5.262   4.690   8.512  1.00  0.00     0.003 C 
ATOM      6  C   UNL     1       3.999   5.335   9.072  1.00  0.00     0.004 C 
ENDBRANCH   1   5
TORSDOF 2
ENDMDL
MODEL 7
REMARK VINA RESULT:    -2.658      2.151      3.102
REMARK INTER + INTRA:          -2.976
REMARK INTER:                  -2.960
REMARK INTRA:                  -0.016
REMARK UNBOUND:                -0.007
REMARK SMILES CCCC(=O)[O-]
REMARK SMILES IDX 3 1 4 2 5 3 6 4 2 5 1 6
REMARK H PARENT
REMARK Flexibility Score: inf
ROOT
ATOM      1  C   UNL     1      -7.410  -4.093   8.960  1.00  0.00     0.052 C 
ENDROOT
BRANCH   1   2
ATOM      2  C   UNL     1      -6.719  -4.923   7.923  1.00  0.00     0.041 C 
ATOM      3  O   UNL     1      -5.468  -4.864   7.795  1.00  0.00    -0.550 OA
ATOM      4  O   UNL     1      -7.462  -5.724   7.066  1.00  0.00    -0.550 OA
ENDBRANCH   1   2
BRANCH   1   5
ATOM      5  C   UNL     1      -8.740  -3.560   8.419  1.00  0.00     0.003 C 
ATOM      6  C   UNL     1      -9.751  -3.363   9.544  1.00  0.00     0.004 C 
ENDBRANCH   1   5
TORSDOF 2
ENDMDL
MODEL 8
REMARK VINA RESULT:    -2.639     15.300     16.114
REMARK INTER + INTRA:          -2.954
REMARK INTER:                  -2.917
REMARK INTRA:                  -0.037
REMARK UNBOUND:                -0.007
REMARK SMILES CCCC(=O)[O-]
REMARK SMILES IDX 3 1 4 2 5 3 6 4 2 5 1 6
REMARK H PARENT
REMARK Flexibility Score: inf
ROOT
ATOM      1  C   UNL     1       5.288   4.383   8.770  1.00  0.00     0.052 C 
ENDROOT
BRANCH   1   2
ATOM      2  C   UNL     1       6.564   4.997   8.283  1.00  0.00     0.041 C 
ATOM      3  O   UNL     1       6.543   5.848   7.356  1.00  0.00    -0.550 OA
ATOM      4  O   UNL     1       7.779   4.592   8.819  1.00  0.00    -0.550 OA
ENDBRANCH   1   2
BRANCH   1   5
ATOM      5  C   UNL     1       4.273   5.473   9.125  1.00  0.00     0.003 C 
ATOM      6  C   UNL     1       3.005   5.337   8.287  1.00  0.00     0.004 C 
ENDBRANCH   1   5
TORSDOF 2
ENDMDL
MODEL 9
REMARK VINA RESULT:    -2.625     14.458     15.349
REMARK INTER + INTRA:          -2.939
REMARK INTER:                  -2.905
REMARK INTRA:                  -0.034
REMARK UNBOUND:                -0.007
REMARK SMILES CCCC(=O)[O-]
REMARK SMILES IDX 3 1 4 2 5 3 6 4 2 5 1 6
REMARK H PARENT
REMARK Flexibility Score: inf
ROOT
ATOM      1  C   UNL     1       4.371   5.510   9.160  1.00  0.00     0.052 C 
ENDROOT
BRANCH   1   2
ATOM      2  C   UNL     1       5.475   5.250   8.183  1.00  0.00     0.041 C 
ATOM      3  O   UNL     1       6.620   5.736   8.377  1.00  0.00    -0.550 OA
ATOM      4  O   UNL     1       5.227   4.511   7.034  1.00  0.00    -0.550 OA
ENDBRANCH   1   2
BRANCH   1   5
ATOM      5  C   UNL     1       3.129   4.693   8.793  1.00  0.00     0.003 C 
ATOM      6  C   UNL     1       2.057   5.575   8.162  1.00  0.00     0.004 C 
ENDBRANCH   1   5
TORSDOF 2
ENDMDL
