MODEL 1
REMARK VINA RESULT:    -5.531      0.000      0.000
REMARK INTER + INTRA:         -11.474
REMARK INTER:                 -10.704
REMARK INTRA:                  -0.770
REMARK UNBOUND:                -0.770
REMARK SMILES CCCCCCCCCCCCCCCCCC(=O)[O-]
REMARK SMILES IDX 10 1 11 2 12 3 13 4 14 5 15 6 16 7 17 8 18 9 19 10 20 11
REMARK SMILES IDX 9 12 8 13 7 14 6 15 5 16 4 17 3 18 2 19 1 20
REMARK H PARENT
REMARK Flexibility Score: inf
ROOT
ATOM      1  C   UNL     1      27.372  41.443  33.921  1.00  0.00     0.000 C 
ENDROOT
BRANCH   1   2
ATOM      2  C   UNL     1      27.999  42.726  34.491  1.00  0.00     0.000 C 
BRANCH   2   3
ATOM      3  C   UNL     1      27.084  43.437  35.501  1.00  0.00     0.000 C 
BRANCH   3   4
ATOM      4  C   UNL     1      25.660  42.862  35.447  1.00  0.00     0.000 C 
BRANCH   4   5
ATOM      5  C   UNL     1      24.588  43.869  35.901  1.00  0.00     0.000 C 
BRANCH   5   6
ATOM      6  C   UNL     1      23.206  43.688  35.246  1.00  0.00     0.000 C 
BRANCH   6   7
ATOM      7  C   UNL     1      22.113  44.543  35.910  1.00  0.00     0.006 C 
BRANCH   7   8
ATOM      8  C   UNL     1      21.176  45.188  34.881  1.00  0.00     0.053 C 
BRANCH   8   9
ATOM      9  C   UNL     1      21.185  46.683  34.982  1.00  0.00     0.041 C 
ATOM     10  O   UNL     1      22.276  47.308  35.053  1.00  0.00    -0.550 OA
ATOM     11  O   UNL     1      19.988  47.387  34.974  1.00  0.00    -0.550 OA
ENDBRANCH   8   9
ENDBRANCH   7   8
ENDBRANCH   6   7
ENDBRANCH   5   6
ENDBRANCH   4   5
ENDBRANCH   3   4
ENDBRANCH   2   3
ENDBRANCH   1   2
BRANCH   1  12
ATOM     12  C   UNL     1      27.876  41.120  32.504  1.00  0.00     0.000 C 
BRANCH  12  13
ATOM     13  C   UNL     1      27.907  39.610  32.218  1.00  0.00    -0.000 C 
BRANCH  13  14
ATOM     14  C   UNL     1      27.611  38.763  33.470  1.00  0.00    -0.000 C 
BRANCH  14  15
ATOM     15  C   UNL     1      27.579  37.256  33.167  1.00  0.00    -0.000 C 
BRANCH  15  16
ATOM     16  C   UNL     1      27.497  36.957  31.659  1.00  0.00    -0.000 C 
BRANCH  16  17
ATOM     17  C   UNL     1      28.305  35.700  31.269  1.00  0.00    -0.000 C 
BRANCH  17  18
ATOM     18  C   UNL     1      27.557  34.378  31.528  1.00  0.00    -0.000 C 
BRANCH  18  19
ATOM     19  C   UNL     1      27.251  33.554  30.265  1.00  0.00    -0.003 C 
ATOM     20  C   UNL     1      25.754  33.343  30.042  1.00  0.00     0.004 C 
ENDBRANCH  18  19
ENDBRANCH  17  18
ENDBRANCH  16  17
ENDBRANCH  15  16
ENDBRANCH  14  15
ENDBRANCH  13  14
ENDBRANCH  12  13
ENDBRANCH   1  12
TORSDOF 16
ENDMDL
MODEL 2
REMARK VINA RESULT:    -5.238      6.436     11.429
REMARK INTER + INTRA:         -10.908
REMARK INTER:                  -9.996
REMARK INTRA:                  -0.912
REMARK UNBOUND:                -0.770
REMARK SMILES CCCCCCCCCCCCCCCCCC(=O)[O-]
REMARK SMILES IDX 10 1 11 2 12 3 13 4 14 5 15 6 16 7 17 8 18 9 19 10 20 11
REMARK SMILES IDX 9 12 8 13 7 14 6 15 5 16 4 17 3 18 2 19 1 20
REMARK H PARENT
REMARK Flexibility Score: inf
ROOT
ATOM      1  C   UNL     1      27.214  36.406  32.656  1.00  0.00     0.000 C 
ENDROOT
BRANCH   1   2
ATOM      2  C   UNL     1      28.007  36.549  31.347  1.00  0.00     0.000 C 
BRANCH   2   3
ATOM      3  C   UNL     1      27.638  35.478  30.308  1.00  0.00     0.000 C 
BRANCH   3   4
ATOM      4  C   UNL     1      26.147  35.118  30.400  1.00  0.00     0.000 C 
BRANCH   4   5
ATOM      5  C   UNL     1      25.871  33.628  30.129  1.00  0.00     0.000 C 
BRANCH   5   6
ATOM      6  C   UNL     1      24.417  33.294  29.747  1.00  0.00     0.000 C 
BRANCH   6   7
ATOM      7  C   UNL     1      24.285  31.948  29.015  1.00  0.00     0.006 C 
BRANCH   7   8
ATOM      8  C   UNL     1      25.432  31.712  28.024  1.00  0.00     0.053 C 
BRANCH   8   9
ATOM      9  C   UNL     1      25.403  30.324  27.460  1.00  0.00     0.041 C 
ATOM     10  O   UNL     1      24.722  29.426  28.022  1.00  0.00    -0.550 OA
ATOM     11  O   UNL     1      26.108  30.030  26.300  1.00  0.00    -0.550 OA
ENDBRANCH   8   9
ENDBRANCH   7   8
ENDBRANCH   6   7
ENDBRANCH   5   6
ENDBRANCH   4   5
ENDBRANCH   3   4
ENDBRANCH   2   3
ENDBRANCH   1   2
BRANCH   1  12
ATOM     12  C   UNL     1      27.521  37.532  33.658  1.00  0.00     0.000 C 
BRANCH  12  13
ATOM     13  C   UNL     1      27.489  38.925  33.009  1.00  0.00    -0.000 C 
BRANCH  13  14
ATOM     14  C   UNL     1      27.129  40.038  34.010  1.00  0.00    -0.000 C 
BRANCH  14  15
ATOM     15  C   UNL     1      27.570  41.429  33.528  1.00  0.00    -0.000 C 
BRANCH  15  16
ATOM     16  C   UNL     1      28.010  42.345  34.684  1.00  0.00    -0.000 C 
BRANCH  16  17
ATOM     17  C   UNL     1      27.114  43.596  34.810  1.00  0.00    -0.000 C 
BRANCH  17  18
ATOM     18  C   UNL     1      26.129  43.535  35.994  1.00  0.00    -0.000 C 
BRANCH  18  19
ATOM     19  C   UNL     1      24.647  43.434  35.594  1.00  0.00    -0.003 C 
ATOM     20  C   UNL     1      24.237  42.018  35.188  1.00  0.00     0.004 C 
ENDBRANCH  18  19
ENDBRANCH  17  18
ENDBRANCH  16  17
ENDBRANCH  15  16
ENDBRANCH  14  15
ENDBRANCH  13  14
ENDBRANCH  12  13
ENDBRANCH   1  12
TORSDOF 16
ENDMDL
MODEL 3
REMARK VINA RESULT:    -5.233      5.673     10.194
REMARK INTER + INTRA:         -10.898
REMARK INTER:                  -9.706
REMARK INTRA:                  -1.192
REMARK UNBOUND:                -0.770
REMARK SMILES CCCCCCCCCCCCCCCCCC(=O)[O-]
REMARK SMILES IDX 10 1 11 2 12 3 13 4 14 5 15 6 16 7 17 8 18 9 19 10 20 11
REMARK SMILES IDX 9 12 8 13 7 14 6 15 5 16 4 17 3 18 2 19 1 20
REMARK H PARENT
REMARK Flexibility Score: inf
ROOT
ATOM      1  C   UNL     1      24.337  33.193  29.580  1.00  0.00     0.000 C 
ENDROOT
BRANCH   1   2
ATOM      2  C   UNL     1      25.835  32.914  29.379  1.00  0.00     0.000 C 
BRANCH   2   3
ATOM      3  C   UNL     1      26.703  33.483  30.512  1.00  0.00     0.000 C 
BRANCH   3   4
ATOM      4  C   UNL     1      27.871  34.305  29.946  1.00  0.00     0.000 C 
BRANCH   4   5
ATOM      5  C   UNL     1      28.313  35.445  30.880  1.00  0.00     0.000 C 
BRANCH   5   6
ATOM      6  C   UNL     1      27.696  35.408  32.291  1.00  0.00     0.000 C 
BRANCH   6   7
ATOM      7  C   UNL     1      27.699  36.783  32.981  1.00  0.00     0.006 C 
BRANCH   7   8
ATOM      8  C   UNL     1      27.502  37.933  31.985  1.00  0.00     0.053 C 
BRANCH   8   9
ATOM      9  C   UNL     1      27.772  39.266  32.614  1.00  0.00     0.041 C 
ATOM     10  O   UNL     1      27.558  39.442  33.843  1.00  0.00    -0.550 OA
ATOM     11  O   UNL     1      28.285  40.305  31.848  1.00  0.00    -0.550 OA
ENDBRANCH   8   9
ENDBRANCH   7   8
ENDBRANCH   6   7
ENDBRANCH   5   6
ENDBRANCH   4   5
ENDBRANCH   3   4
ENDBRANCH   2   3
ENDBRANCH   1   2
BRANCH   1  12
ATOM     12  C   UNL     1      23.447  32.302  28.697  1.00  0.00     0.000 C 
BRANCH  12  13
ATOM     13  C   UNL     1      23.519  30.818  29.093  1.00  0.00    -0.000 C 
BRANCH  13  14
ATOM     14  C   UNL     1      22.147  30.121  29.039  1.00  0.00    -0.000 C 
BRANCH  14  15
ATOM     15  C   UNL     1      21.300  30.391  30.293  1.00  0.00    -0.000 C 
BRANCH  15  16
ATOM     16  C   UNL     1      19.826  29.989  30.111  1.00  0.00    -0.000 C 
BRANCH  16  17
ATOM     17  C   UNL     1      19.337  30.209  28.663  1.00  0.00    -0.000 C 
BRANCH  17  18
ATOM     18  C   UNL     1      18.168  31.207  28.549  1.00  0.00    -0.000 C 
BRANCH  18  19
ATOM     19  C   UNL     1      18.576  32.688  28.626  1.00  0.00    -0.003 C 
ATOM     20  C   UNL     1      19.841  32.997  27.824  1.00  0.00     0.004 C 
ENDBRANCH  18  19
ENDBRANCH  17  18
ENDBRANCH  16  17
ENDBRANCH  15  16
ENDBRANCH  14  15
ENDBRANCH  13  14
ENDBRANCH  12  13
ENDBRANCH   1  12
TORSDOF 16
ENDMDL
MODEL 4
REMARK VINA RESULT:    -5.224      1.490      2.785
REMARK INTER + INTRA:         -10.880
REMARK INTER:                  -9.991
REMARK INTRA:                  -0.889
REMARK UNBOUND:                -0.770
REMARK SMILES CCCCCCCCCCCCCCCCCC(=O)[O-]
REMARK SMILES IDX 10 1 11 2 12 3 13 4 14 5 15 6 16 7 17 8 18 9 19 10 20 11
REMARK SMILES IDX 9 12 8 13 7 14 6 15 5 16 4 17 3 18 2 19 1 20
REMARK H PARENT
REMARK Flexibility Score: inf
ROOT
ATOM      1  C   UNL     1      24.503  41.910  35.117  1.00  0.00     0.000 C 
ENDROOT
BRANCH   1   2
ATOM      2  C   UNL     1      24.969  43.033  36.057  1.00  0.00     0.000 C 
BRANCH   2   3
ATOM      3  C   UNL     1      24.058  44.269  36.003  1.00  0.00     0.000 C 
BRANCH   3   4
ATOM      4  C   UNL     1      22.791  43.981  35.183  1.00  0.00     0.000 C 
BRANCH   4   5
ATOM      5  C   UNL     1      21.566  44.776  35.666  1.00  0.00     0.000 C 
BRANCH   5   6
ATOM      6  C   UNL     1      21.822  46.272  35.927  1.00  0.00     0.000 C 
BRANCH   6   7
ATOM      7  C   UNL     1      21.570  47.147  34.688  1.00  0.00     0.006 C 
BRANCH   7   8
ATOM      8  C   UNL     1      20.081  47.225  34.326  1.00  0.00     0.053 C 
BRANCH   8   9
ATOM      9  C   UNL     1      19.834  46.826  32.903  1.00  0.00     0.041 C 
ATOM     10  O   UNL     1      20.456  45.854  32.399  1.00  0.00    -0.550 OA
ATOM     11  O   UNL     1      18.898  47.514  32.141  1.00  0.00    -0.550 OA
ENDBRANCH   8   9
ENDBRANCH   7   8
ENDBRANCH   6   7
ENDBRANCH   5   6
ENDBRANCH   4   5
ENDBRANCH   3   4
ENDBRANCH   2   3
ENDBRANCH   1   2
BRANCH   1  12
ATOM     12  C   UNL     1      25.646  40.961  34.719  1.00  0.00     0.000 C 
BRANCH  12  13
ATOM     13  C   UNL     1      26.932  41.713  34.339  1.00  0.00    -0.000 C 
BRANCH  13  14
ATOM     14  C   UNL     1      27.832  40.907  33.384  1.00  0.00    -0.000 C 
BRANCH  14  15
ATOM     15  C   UNL     1      27.646  39.389  33.541  1.00  0.00    -0.000 C 
BRANCH  15  16
ATOM     16  C   UNL     1      27.560  38.660  32.188  1.00  0.00    -0.000 C 
BRANCH  16  17
ATOM     17  C   UNL     1      27.189  37.170  32.351  1.00  0.00    -0.000 C 
BRANCH  17  18
ATOM     18  C   UNL     1      28.024  36.224  31.466  1.00  0.00    -0.000 C 
BRANCH  18  19
ATOM     19  C   UNL     1      28.276  34.833  32.070  1.00  0.00    -0.003 C 
ATOM     20  C   UNL     1      27.990  33.697  31.087  1.00  0.00     0.004 C 
ENDBRANCH  18  19
ENDBRANCH  17  18
ENDBRANCH  16  17
ENDBRANCH  15  16
ENDBRANCH  14  15
ENDBRANCH  13  14
ENDBRANCH  12  13
ENDBRANCH   1  12
TORSDOF 16
ENDMDL
MODEL 5
REMARK VINA RESULT:    -5.105      4.309      8.594
REMARK INTER + INTRA:         -10.651
REMARK INTER:                  -9.871
REMARK INTRA:                  -0.780
REMARK UNBOUND:                -0.770
REMARK SMILES CCCCCCCCCCCCCCCCCC(=O)[O-]
REMARK SMILES IDX 10 1 11 2 12 3 13 4 14 5 15 6 16 7 17 8 18 9 19 10 20 11
REMARK SMILES IDX 9 12 8 13 7 14 6 15 5 16 4 17 3 18 2 19 1 20
REMARK H PARENT
REMARK Flexibility Score: inf
ROOT
ATOM      1  C   UNL     1      26.452  34.265  30.268  1.00  0.00     0.000 C 
ENDROOT
BRANCH   1   2
ATOM      2  C   UNL     1      27.737  33.984  31.063  1.00  0.00     0.000 C 
BRANCH   2   3
ATOM      3  C   UNL     1      28.368  35.259  31.644  1.00  0.00     0.000 C 
BRANCH   3   4
ATOM      4  C   UNL     1      27.841  35.533  33.062  1.00  0.00     0.000 C 
BRANCH   4   5
ATOM      5  C   UNL     1      27.511  37.016  33.305  1.00  0.00     0.000 C 
BRANCH   5   6
ATOM      6  C   UNL     1      27.434  37.884  32.036  1.00  0.00     0.000 C 
BRANCH   6   7
ATOM      7  C   UNL     1      27.952  39.315  32.257  1.00  0.00     0.006 C 
BRANCH   7   8
ATOM      8  C   UNL     1      27.856  39.745  33.727  1.00  0.00     0.053 C 
BRANCH   8   9
ATOM      9  C   UNL     1      27.275  41.119  33.868  1.00  0.00     0.041 C 
ATOM     10  O   UNL     1      27.899  42.120  33.425  1.00  0.00    -0.550 OA
ATOM     11  O   UNL     1      26.033  41.291  34.465  1.00  0.00    -0.550 OA
ENDBRANCH   8   9
ENDBRANCH   7   8
ENDBRANCH   6   7
ENDBRANCH   5   6
ENDBRANCH   4   5
ENDBRANCH   3   4
ENDBRANCH   2   3
ENDBRANCH   1   2
BRANCH   1  12
ATOM     12  C   UNL     1      25.879  33.000  29.606  1.00  0.00     0.000 C 
BRANCH  12  13
ATOM     13  C   UNL     1      24.348  33.043  29.476  1.00  0.00    -0.000 C 
BRANCH  13  14
ATOM     14  C   UNL     1      23.806  31.994  28.487  1.00  0.00    -0.000 C 
BRANCH  14  15
ATOM     15  C   UNL     1      23.025  30.872  29.188  1.00  0.00    -0.000 C 
BRANCH  15  16
ATOM     16  C   UNL     1      21.585  30.735  28.662  1.00  0.00    -0.000 C 
BRANCH  16  17
ATOM     17  C   UNL     1      20.598  31.653  29.415  1.00  0.00    -0.000 C 
BRANCH  17  18
ATOM     18  C   UNL     1      19.828  32.621  28.496  1.00  0.00    -0.000 C 
BRANCH  18  19
ATOM     19  C   UNL     1      18.297  32.560  28.635  1.00  0.00    -0.003 C 
ATOM     20  C   UNL     1      17.580  32.519  27.286  1.00  0.00     0.004 C 
ENDBRANCH  18  19
ENDBRANCH  17  18
ENDBRANCH  16  17
ENDBRANCH  15  16
ENDBRANCH  14  15
ENDBRANCH  13  14
ENDBRANCH  12  13
ENDBRANCH   1  12
TORSDOF 16
ENDMDL
MODEL 6
REMARK VINA RESULT:    -5.036      4.657     10.311
REMARK INTER + INTRA:         -10.517
REMARK INTER:                  -9.776
REMARK INTRA:                  -0.741
REMARK UNBOUND:                -0.770
REMARK SMILES CCCCCCCCCCCCCCCCCC(=O)[O-]
REMARK SMILES IDX 10 1 11 2 12 3 13 4 14 5 15 6 16 7 17 8 18 9 19 10 20 11
REMARK SMILES IDX 9 12 8 13 7 14 6 15 5 16 4 17 3 18 2 19 1 20
REMARK H PARENT
REMARK Flexibility Score: inf
ROOT
ATOM      1  C   UNL     1      25.653  43.529  35.435  1.00  0.00     0.000 C 
ENDROOT
BRANCH   1   2
ATOM      2  C   UNL     1      27.175  43.503  35.649  1.00  0.00     0.000 C 
BRANCH   2   3
ATOM      3  C   UNL     1      27.896  42.557  34.675  1.00  0.00     0.000 C 
BRANCH   3   4
ATOM      4  C   UNL     1      26.899  41.599  34.005  1.00  0.00     0.000 C 
BRANCH   4   5
ATOM      5  C   UNL     1      27.541  40.268  33.574  1.00  0.00     0.000 C 
BRANCH   5   6
ATOM      6  C   UNL     1      26.960  39.014  34.252  1.00  0.00     0.000 C 
BRANCH   6   7
ATOM      7  C   UNL     1      27.503  37.705  33.655  1.00  0.00     0.006 C 
BRANCH   7   8
ATOM      8  C   UNL     1      27.503  37.723  32.121  1.00  0.00     0.053 C 
BRANCH   8   9
ATOM      9  C   UNL     1      27.780  36.366  31.549  1.00  0.00     0.041 C 
ATOM     10  O   UNL     1      28.248  36.251  30.385  1.00  0.00    -0.550 OA
ATOM     11  O   UNL     1      27.544  35.229  32.312  1.00  0.00    -0.550 OA
ENDBRANCH   8   9
ENDBRANCH   7   8
ENDBRANCH   6   7
ENDBRANCH   5   6
ENDBRANCH   4   5
ENDBRANCH   3   4
ENDBRANCH   2   3
ENDBRANCH   1   2
BRANCH   1  12
ATOM     12  C   UNL     1      24.875  43.687  36.753  1.00  0.00     0.000 C 
BRANCH  12  13
ATOM     13  C   UNL     1      23.660  44.618  36.613  1.00  0.00    -0.000 C 
BRANCH  13  14
ATOM     14  C   UNL     1      22.689  44.164  35.507  1.00  0.00    -0.000 C 
BRANCH  14  15
ATOM     15  C   UNL     1      21.847  45.323  34.950  1.00  0.00    -0.000 C 
BRANCH  15  16
ATOM     16  C   UNL     1      20.419  45.347  35.525  1.00  0.00    -0.000 C 
BRANCH  16  17
ATOM     17  C   UNL     1      19.344  45.257  34.421  1.00  0.00    -0.000 C 
BRANCH  17  18
ATOM     18  C   UNL     1      19.756  45.933  33.098  1.00  0.00    -0.000 C 
BRANCH  18  19
ATOM     19  C   UNL     1      18.721  46.917  32.529  1.00  0.00    -0.003 C 
ATOM     20  C   UNL     1      18.971  48.361  32.966  1.00  0.00     0.004 C 
ENDBRANCH  18  19
ENDBRANCH  17  18
ENDBRANCH  16  17
ENDBRANCH  15  16
ENDBRANCH  14  15
ENDBRANCH  13  14
ENDBRANCH  12  13
ENDBRANCH   1  12
TORSDOF 16
ENDMDL
MODEL 7
REMARK VINA RESULT:    -5.028      4.742      9.975
REMARK INTER + INTRA:         -10.502
REMARK INTER:                  -9.134
REMARK INTRA:                  -1.367
REMARK UNBOUND:                -0.770
REMARK SMILES CCCCCCCCCCCCCCCCCC(=O)[O-]
REMARK SMILES IDX 10 1 11 2 12 3 13 4 14 5 15 6 16 7 17 8 18 9 19 10 20 11
REMARK SMILES IDX 9 12 8 13 7 14 6 15 5 16 4 17 3 18 2 19 1 20
REMARK H PARENT
REMARK Flexibility Score: inf
ROOT
ATOM      1  C   UNL     1      21.644  45.684  36.579  1.00  0.00     0.000 C 
ENDROOT
BRANCH   1   2
ATOM      2  C   UNL     1      23.024  45.011  36.499  1.00  0.00     0.000 C 
BRANCH   2   3
ATOM      3  C   UNL     1      23.176  44.112  35.262  1.00  0.00     0.000 C 
BRANCH   3   4
ATOM      4  C   UNL     1      24.243  43.032  35.499  1.00  0.00     0.000 C 
BRANCH   4   5
ATOM      5  C   UNL     1      25.472  43.556  36.262  1.00  0.00     0.000 C 
BRANCH   5   6
ATOM      6  C   UNL     1      26.657  43.981  35.376  1.00  0.00     0.000 C 
BRANCH   6   7
ATOM      7  C   UNL     1      27.618  42.821  35.065  1.00  0.00     0.006 C 
BRANCH   7   8
ATOM      8  C   UNL     1      27.777  42.588  33.557  1.00  0.00     0.053 C 
BRANCH   8   9
ATOM      9  C   UNL     1      27.587  41.147  33.194  1.00  0.00     0.041 C 
ATOM     10  O   UNL     1      26.942  40.380  33.957  1.00  0.00    -0.550 OA
ATOM     11  O   UNL     1      28.103  40.657  32.002  1.00  0.00    -0.550 OA
ENDBRANCH   8   9
ENDBRANCH   7   8
ENDBRANCH   6   7
ENDBRANCH   5   6
ENDBRANCH   4   5
ENDBRANCH   3   4
ENDBRANCH   2   3
ENDBRANCH   1   2
BRANCH   1  12
ATOM     12  C   UNL     1      20.705  44.985  37.578  1.00  0.00     0.000 C 
BRANCH  12  13
ATOM     13  C   UNL     1      19.237  45.406  37.401  1.00  0.00    -0.000 C 
BRANCH  13  14
ATOM     14  C   UNL     1      18.378  44.304  36.753  1.00  0.00    -0.000 C 
BRANCH  14  15
ATOM     15  C   UNL     1      17.522  44.833  35.591  1.00  0.00    -0.000 C 
BRANCH  15  16
ATOM     16  C   UNL     1      17.735  44.039  34.289  1.00  0.00    -0.000 C 
BRANCH  16  17
ATOM     17  C   UNL     1      17.803  44.958  33.050  1.00  0.00    -0.000 C 
BRANCH  17  18
ATOM     18  C   UNL     1      18.344  46.369  33.355  1.00  0.00    -0.000 C 
BRANCH  18  19
ATOM     19  C   UNL     1      19.875  46.500  33.283  1.00  0.00    -0.003 C 
ATOM     20  C   UNL     1      20.504  45.565  32.250  1.00  0.00     0.004 C 
ENDBRANCH  18  19
ENDBRANCH  17  18
ENDBRANCH  16  17
ENDBRANCH  15  16
ENDBRANCH  14  15
ENDBRANCH  13  14
ENDBRANCH  12  13
ENDBRANCH   1  12
TORSDOF 16
ENDMDL
MODEL 8
REMARK VINA RESULT:    -4.990      7.542     11.639
REMARK INTER + INTRA:         -10.428
REMARK INTER:                  -8.726
REMARK INTRA:                  -1.701
REMARK UNBOUND:                -0.770
REMARK SMILES CCCCCCCCCCCCCCCCCC(=O)[O-]
REMARK SMILES IDX 10 1 11 2 12 3 13 4 14 5 15 6 16 7 17 8 18 9 19 10 20 11
REMARK SMILES IDX 9 12 8 13 7 14 6 15 5 16 4 17 3 18 2 19 1 20
REMARK H PARENT
REMARK Flexibility Score: inf
ROOT
ATOM      1  C   UNL     1      22.960  30.881  29.274  1.00  0.00     0.000 C 
ENDROOT
BRANCH   1   2
ATOM      2  C   UNL     1      23.674  32.016  28.524  1.00  0.00     0.000 C 
BRANCH   2   3
ATOM      3  C   UNL     1      24.210  33.106  29.466  1.00  0.00     0.000 C 
BRANCH   3   4
ATOM      4  C   UNL     1      25.739  33.015  29.595  1.00  0.00     0.000 C 
BRANCH   4   5
ATOM      5  C   UNL     1      26.340  34.152  30.439  1.00  0.00     0.000 C 
BRANCH   5   6
ATOM      6  C   UNL     1      27.764  34.580  30.037  1.00  0.00     0.000 C 
BRANCH   6   7
ATOM      7  C   UNL     1      28.597  35.083  31.228  1.00  0.00     0.006 C 
BRANCH   7   8
ATOM      8  C   UNL     1      27.999  34.653  32.575  1.00  0.00     0.053 C 
BRANCH   8   9
ATOM      9  C   UNL     1      27.529  35.830  33.374  1.00  0.00     0.041 C 
ATOM     10  O   UNL     1      27.505  36.979  32.858  1.00  0.00    -0.550 OA
ATOM     11  O   UNL     1      27.093  35.653  34.681  1.00  0.00    -0.550 OA
ENDBRANCH   8   9
ENDBRANCH   7   8
ENDBRANCH   6   7
ENDBRANCH   5   6
ENDBRANCH   4   5
ENDBRANCH   3   4
ENDBRANCH   2   3
ENDBRANCH   1   2
BRANCH   1  12
ATOM     12  C   UNL     1      22.565  29.719  28.347  1.00  0.00     0.000 C 
BRANCH  12  13
ATOM     13  C   UNL     1      21.116  29.255  28.566  1.00  0.00    -0.000 C 
BRANCH  13  14
ATOM     14  C   UNL     1      20.484  29.859  29.834  1.00  0.00    -0.000 C 
BRANCH  14  15
ATOM     15  C   UNL     1      18.963  30.035  29.708  1.00  0.00    -0.000 C 
BRANCH  15  16
ATOM     16  C   UNL     1      18.561  30.825  28.449  1.00  0.00    -0.000 C 
BRANCH  16  17
ATOM     17  C   UNL     1      18.735  32.347  28.635  1.00  0.00    -0.000 C 
BRANCH  17  18
ATOM     18  C   UNL     1      19.995  32.914  27.951  1.00  0.00    -0.000 C 
BRANCH  18  19
ATOM     19  C   UNL     1      19.975  32.853  26.414  1.00  0.00    -0.003 C 
ATOM     20  C   UNL     1      21.114  32.009  25.839  1.00  0.00     0.004 C 
ENDBRANCH  18  19
ENDBRANCH  17  18
ENDBRANCH  16  17
ENDBRANCH  15  16
ENDBRANCH  14  15
ENDBRANCH  13  14
ENDBRANCH  12  13
ENDBRANCH   1  12
TORSDOF 16
ENDMDL
MODEL 9
REMARK VINA RESULT:    -4.950      5.850     11.408
REMARK INTER + INTRA:         -10.350
REMARK INTER:                  -9.805
REMARK INTRA:                  -0.544
REMARK UNBOUND:                -0.770
REMARK SMILES CCCCCCCCCCCCCCCCCC(=O)[O-]
REMARK SMILES IDX 10 1 11 2 12 3 13 4 14 5 15 6 16 7 17 8 18 9 19 10 20 11
REMARK SMILES IDX 9 12 8 13 7 14 6 15 5 16 4 17 3 18 2 19 1 20
REMARK H PARENT
REMARK Flexibility Score: inf
ROOT
ATOM      1  C   UNL     1      27.120  35.132  30.185  1.00  0.00     0.000 C 
ENDROOT
BRANCH   1   2
ATOM      2  C   UNL     1      26.620  33.716  30.515  1.00  0.00     0.000 C 
BRANCH   2   3
ATOM      3  C   UNL     1      25.229  33.426  29.931  1.00  0.00     0.000 C 
BRANCH   3   4
ATOM      4  C   UNL     1      25.299  32.310  28.877  1.00  0.00     0.000 C 
BRANCH   4   5
ATOM      5  C   UNL     1      23.915  31.761  28.488  1.00  0.00     0.000 C 
BRANCH   5   6
ATOM      6  C   UNL     1      23.463  30.516  29.273  1.00  0.00     0.000 C 
BRANCH   6   7
ATOM      7  C   UNL     1      22.042  30.058  28.903  1.00  0.00     0.006 C 
BRANCH   7   8
ATOM      8  C   UNL     1      20.963  30.888  29.611  1.00  0.00     0.053 C 
BRANCH   8   9
ATOM      9  C   UNL     1      20.169  31.709  28.642  1.00  0.00     0.041 C 
ATOM     10  O   UNL     1      20.398  31.630  27.406  1.00  0.00    -0.550 OA
ATOM     11  O   UNL     1      19.158  32.543  29.103  1.00  0.00    -0.550 OA
ENDBRANCH   8   9
ENDBRANCH   7   8
ENDBRANCH   6   7
ENDBRANCH   5   6
ENDBRANCH   4   5
ENDBRANCH   3   4
ENDBRANCH   2   3
ENDBRANCH   1   2
BRANCH   1  12
ATOM     12  C   UNL     1      28.220  35.609  31.149  1.00  0.00     0.000 C 
BRANCH  12  13
ATOM     13  C   UNL     1      27.653  36.340  32.377  1.00  0.00    -0.000 C 
BRANCH  13  14
ATOM     14  C   UNL     1      27.407  37.838  32.114  1.00  0.00    -0.000 C 
BRANCH  14  15
ATOM     15  C   UNL     1      27.562  38.691  33.383  1.00  0.00    -0.000 C 
BRANCH  15  16
ATOM     16  C   UNL     1      27.850  40.170  33.071  1.00  0.00    -0.000 C 
BRANCH  16  17
ATOM     17  C   UNL     1      27.169  41.122  34.078  1.00  0.00    -0.000 C 
BRANCH  17  18
ATOM     18  C   UNL     1      27.768  42.543  34.089  1.00  0.00    -0.000 C 
BRANCH  18  19
ATOM     19  C   UNL     1      27.540  43.327  35.393  1.00  0.00    -0.003 C 
ATOM     20  C   UNL     1      26.059  43.501  35.730  1.00  0.00     0.004 C 
ENDBRANCH  18  19
ENDBRANCH  17  18
ENDBRANCH  16  17
ENDBRANCH  15  16
ENDBRANCH  14  15
ENDBRANCH  13  14
ENDBRANCH  12  13
ENDBRANCH   1  12
TORSDOF 16
ENDMDL
