MODEL 1
REMARK VINA RESULT:    28.423      0.000      0.000
REMARK INTER + INTRA:          33.985
REMARK INTER:                  34.239
REMARK INTRA:                  -0.253
REMARK UNBOUND:                -0.253
REMARK SMILES O=c1c(O)c(-c2ccc(O)c(O)c2)oc2cc(O)cc(O)c12
REMARK SMILES IDX 5 1 3 2 2 3 1 4 22 5 20 6 19 7 17 8 16 9 15 10 14 11 6 12
REMARK SMILES IDX 7 13 8 14 9 15 13 16 11 17 10 18 12 20 4 22 21 24 18 26
REMARK H PARENT 10 19 12 21 4 23 21 25 18 27
REMARK Flexibility Score: inf
ROOT
ATOM      1  C   UNL     1       9.255   1.479   9.134  1.00  0.00     0.180 A 
ATOM      2  C   UNL     1      10.055   0.403   8.711  1.00  0.00     0.208 A 
ATOM      3  C   UNL     1      11.128   0.653   7.840  1.00  0.00     0.238 A 
ATOM      4  O   UNL     1      11.807  -0.321   7.422  1.00  0.00    -0.285 OA
ATOM      5  C   UNL     1      11.398   1.977   7.418  1.00  0.00     0.111 A 
ATOM      6  C   UNL     1      12.483   2.351   6.569  1.00  0.00     0.134 A 
ATOM      7  C   UNL     1      12.577   3.671   6.110  1.00  0.00     0.093 A 
ATOM      8  C   UNL     1      11.665   4.643   6.519  1.00  0.00     0.123 A 
ATOM      9  C   UNL     1      10.634   4.301   7.397  1.00  0.00     0.094 A 
ATOM     10  C   UNL     1      10.494   2.984   7.843  1.00  0.00     0.146 A 
ATOM     11  O   UNL     1       9.493   2.699   8.668  1.00  0.00    -0.452 OA
ENDROOT
BRANCH   1  12
ATOM     12  C   UNL     1       8.122   1.297  10.070  1.00  0.00     0.025 A 
ATOM     13  C   UNL     1       8.380   1.039  11.425  1.00  0.00     0.016 A 
ATOM     14  C   UNL     1       7.326   0.844  12.322  1.00  0.00     0.051 A 
ATOM     15  C   UNL     1       6.002   0.888  11.877  1.00  0.00     0.157 A 
ATOM     16  C   UNL     1       6.790   1.321   9.619  1.00  0.00     0.062 A 
ATOM     17  C   UNL     1       5.730   1.123  10.519  1.00  0.00     0.158 A 
BRANCH  15  18
ATOM     18  O   UNL     1       4.971   0.692  12.796  1.00  0.00    -0.504 OA
ATOM     19  H   UNL     1       4.750  -0.223  13.169  1.00  0.00     0.293 HD
ENDBRANCH  15  18
BRANCH  17  20
ATOM     20  O   UNL     1       4.412   1.154  10.065  1.00  0.00    -0.504 OA
ATOM     21  H   UNL     1       3.787   1.916  10.301  1.00  0.00     0.293 HD
ENDBRANCH  17  20
ENDBRANCH   1  12
BRANCH   2  22
ATOM     22  O   UNL     1       9.757  -0.899   9.122  1.00  0.00    -0.502 OA
ATOM     23  H   UNL     1       9.120  -1.096   9.885  1.00  0.00     0.293 HD
ENDBRANCH   2  22
BRANCH   6  24
ATOM     24  O   UNL     1      13.502   1.479   6.175  1.00  0.00    -0.507 OA
ATOM     25  H   UNL     1      13.383   0.491   6.012  1.00  0.00     0.293 HD
ENDBRANCH   6  24
BRANCH   8  26
ATOM     26  O   UNL     1      11.798   5.950   6.055  1.00  0.00    -0.508 OA
ATOM     27  H   UNL     1      11.354   6.728   6.528  1.00  0.00     0.293 HD
ENDBRANCH   8  26
TORSDOF 6
ENDMDL
MODEL 2
REMARK VINA RESULT:    29.315      1.214      2.839
REMARK INTER + INTRA:          35.060
REMARK INTER:                  35.285
REMARK INTRA:                  -0.225
REMARK UNBOUND:                -0.253
REMARK SMILES O=c1c(O)c(-c2ccc(O)c(O)c2)oc2cc(O)cc(O)c12
REMARK SMILES IDX 5 1 3 2 2 3 1 4 22 5 20 6 19 7 17 8 16 9 15 10 14 11 6 12
REMARK SMILES IDX 7 13 8 14 9 15 13 16 11 17 10 18 12 20 4 22 21 24 18 26
REMARK H PARENT 10 19 12 21 4 23 21 25 18 27
REMARK Flexibility Score: inf
ROOT
ATOM      1  C   UNL     1       9.295   2.175   8.970  1.00  0.00     0.180 A 
ATOM      2  C   UNL     1       9.347   3.502   8.508  1.00  0.00     0.208 A 
ATOM      3  C   UNL     1      10.387   3.881   7.644  1.00  0.00     0.238 A 
ATOM      4  O   UNL     1      10.459   5.083   7.277  1.00  0.00    -0.285 OA
ATOM      5  C   UNL     1      11.351   2.927   7.240  1.00  0.00     0.111 A 
ATOM      6  C   UNL     1      12.424   3.191   6.337  1.00  0.00     0.134 A 
ATOM      7  C   UNL     1      13.394   2.207   6.110  1.00  0.00     0.093 A 
ATOM      8  C   UNL     1      13.296   0.949   6.703  1.00  0.00     0.123 A 
ATOM      9  C   UNL     1      12.218   0.659   7.541  1.00  0.00     0.094 A 
ATOM     10  C   UNL     1      11.254   1.633   7.815  1.00  0.00     0.146 A 
ATOM     11  O   UNL     1      10.250   1.320   8.627  1.00  0.00    -0.452 OA
ENDROOT
BRANCH   1  12
ATOM     12  C   UNL     1       8.216   1.694   9.863  1.00  0.00     0.025 A 
ATOM     13  C   UNL     1       8.529   1.291  11.171  1.00  0.00     0.016 A 
ATOM     14  C   UNL     1       7.530   0.814  12.023  1.00  0.00     0.051 A 
ATOM     15  C   UNL     1       6.208   0.718  11.579  1.00  0.00     0.157 A 
ATOM     16  C   UNL     1       6.889   1.578   9.411  1.00  0.00     0.062 A 
ATOM     17  C   UNL     1       5.885   1.098  10.266  1.00  0.00     0.158 A 
BRANCH  15  18
ATOM     18  O   UNL     1       5.232   0.241  12.454  1.00  0.00    -0.504 OA
ATOM     19  H   UNL     1       4.877   0.800  13.220  1.00  0.00     0.293 HD
ENDBRANCH  15  18
BRANCH  17  20
ATOM     20  O   UNL     1       4.571   0.991   9.812  1.00  0.00    -0.504 OA
ATOM     21  H   UNL     1       3.799   1.413  10.315  1.00  0.00     0.293 HD
ENDBRANCH  17  20
ENDBRANCH   1  12
BRANCH   2  22
ATOM     22  O   UNL     1       8.398   4.434   8.937  1.00  0.00    -0.502 OA
ATOM     23  H   UNL     1       7.414   4.353   8.708  1.00  0.00     0.293 HD
ENDBRANCH   2  22
BRANCH   6  24
ATOM     24  O   UNL     1      12.565   4.383   5.620  1.00  0.00    -0.507 OA
ATOM     25  H   UNL     1      13.424   4.703   5.200  1.00  0.00     0.293 HD
ENDBRANCH   6  24
BRANCH   8  26
ATOM     26  O   UNL     1      14.271  -0.012   6.442  1.00  0.00    -0.508 OA
ATOM     27  H   UNL     1      15.010  -0.210   7.106  1.00  0.00     0.293 HD
ENDBRANCH   8  26
TORSDOF 6
ENDMDL
MODEL 3
REMARK VINA RESULT:    30.854      4.726      8.123
REMARK INTER + INTRA:          36.913
REMARK INTER:                  37.181
REMARK INTRA:                  -0.268
REMARK UNBOUND:                -0.253
REMARK SMILES O=c1c(O)c(-c2ccc(O)c(O)c2)oc2cc(O)cc(O)c12
REMARK SMILES IDX 5 1 3 2 2 3 1 4 22 5 20 6 19 7 17 8 16 9 15 10 14 11 6 12
REMARK SMILES IDX 7 13 8 14 9 15 13 16 11 17 10 18 12 20 4 22 21 24 18 26
REMARK H PARENT 10 19 12 21 4 23 21 25 18 27
REMARK Flexibility Score: inf
ROOT
ATOM      1  C   UNL     1      14.802   3.648   9.148  1.00  0.00     0.180 A 
ATOM      2  C   UNL     1      14.019   4.742   8.740  1.00  0.00     0.208 A 
ATOM      3  C   UNL     1      12.946   4.522   7.862  1.00  0.00     0.238 A 
ATOM      4  O   UNL     1      12.282   5.512   7.458  1.00  0.00    -0.285 OA
ATOM      5  C   UNL     1      12.659   3.209   7.417  1.00  0.00     0.111 A 
ATOM      6  C   UNL     1      11.571   2.864   6.559  1.00  0.00     0.134 A 
ATOM      7  C   UNL     1      11.460   1.554   6.078  1.00  0.00     0.093 A 
ATOM      8  C   UNL     1      12.357   0.562   6.474  1.00  0.00     0.123 A 
ATOM      9  C   UNL     1      13.389   0.875   7.360  1.00  0.00     0.094 A 
ATOM     10  C   UNL     1      13.547   2.182   7.829  1.00  0.00     0.146 A 
ATOM     11  O   UNL     1      14.549   2.440   8.662  1.00  0.00    -0.452 OA
ENDROOT
BRANCH   1  12
ATOM     12  C   UNL     1      15.935   3.798  10.090  1.00  0.00     0.025 A 
ATOM     13  C   UNL     1      15.676   4.000  11.455  1.00  0.00     0.016 A 
ATOM     14  C   UNL     1      16.729   4.164  12.359  1.00  0.00     0.051 A 
ATOM     15  C   UNL     1      18.053   4.146  11.913  1.00  0.00     0.157 A 
ATOM     16  C   UNL     1      17.267   3.801   9.639  1.00  0.00     0.062 A 
ATOM     17  C   UNL     1      18.326   3.968  10.546  1.00  0.00     0.158 A 
BRANCH  15  18
ATOM     18  O   UNL     1      19.083   4.311  12.838  1.00  0.00    -0.504 OA
ATOM     19  H   UNL     1      18.924   4.253  13.837  1.00  0.00     0.293 HD
ENDBRANCH  15  18
BRANCH  17  20
ATOM     20  O   UNL     1      19.644   3.963  10.092  1.00  0.00    -0.504 OA
ATOM     21  H   UNL     1      19.938   4.537   9.310  1.00  0.00     0.293 HD
ENDBRANCH  17  20
ENDBRANCH   1  12
BRANCH   2  22
ATOM     22  O   UNL     1      14.335   6.033   9.174  1.00  0.00    -0.502 OA
ATOM     23  H   UNL     1      14.783   6.214  10.064  1.00  0.00     0.293 HD
ENDBRANCH   2  22
BRANCH   6  24
ATOM     24  O   UNL     1      10.566   3.757   6.176  1.00  0.00    -0.507 OA
ATOM     25  H   UNL     1      10.145   3.790   5.260  1.00  0.00     0.293 HD
ENDBRANCH   6  24
BRANCH   8  26
ATOM     26  O   UNL     1      12.206  -0.735   5.988  1.00  0.00    -0.508 OA
ATOM     27  H   UNL     1      12.529  -0.995   5.063  1.00  0.00     0.293 HD
ENDBRANCH   8  26
TORSDOF 6
ENDMDL
