MODEL 1
REMARK VINA RESULT:    -3.917      0.000      0.000
REMARK INTER + INTRA:          -4.170
REMARK INTER:                  -4.146
REMARK INTRA:                  -0.024
REMARK UNBOUND:                -0.024
REMARK SMILES O=C([O-])c1cccnc1
REMARK SMILES IDX 4 1 5 2 9 3 6 4 8 5 7 6 2 7 1 8 3 9
REMARK H PARENT
REMARK Flexibility Score: inf
ROOT
ATOM      1  C   UNL     1     -24.693  84.842  75.492  1.00  0.00     0.016 A 
ATOM      2  C   UNL     1     -23.755  84.531  76.491  1.00  0.00     0.013 A 
ATOM      3  C   UNL     1     -25.611  83.851  75.107  1.00  0.00     0.120 A 
ATOM      4  C   UNL     1     -23.748  83.264  77.076  1.00  0.00     0.021 A 
ATOM      5  N   UNL     1     -25.583  82.624  75.694  1.00  0.00    -0.264 NA
ATOM      6  C   UNL     1     -24.679  82.314  76.661  1.00  0.00     0.111 A 
ENDROOT
BRANCH   1   7
ATOM      7  C   UNL     1     -24.717  86.178  74.859  1.00  0.00     0.073 C 
ATOM      8  O   UNL     1     -23.818  87.023  75.113  1.00  0.00    -0.545 OA
ATOM      9  O   UNL     1     -25.733  86.519  73.972  1.00  0.00    -0.545 OA
ENDBRANCH   1   7
TORSDOF 1
ENDMDL
MODEL 2
REMARK VINA RESULT:    -3.857      2.920      3.755
REMARK INTER + INTRA:          -4.107
REMARK INTER:                  -4.090
REMARK INTRA:                  -0.017
REMARK UNBOUND:                -0.024
REMARK SMILES O=C([O-])c1cccnc1
REMARK SMILES IDX 4 1 5 2 9 3 6 4 8 5 7 6 2 7 1 8 3 9
REMARK H PARENT
REMARK Flexibility Score: inf
ROOT
ATOM      1  C   UNL     1     -24.266  84.416  76.564  1.00  0.00     0.016 A 
ATOM      2  C   UNL     1     -23.426  85.138  75.698  1.00  0.00     0.013 A 
ATOM      3  C   UNL     1     -25.445  85.032  77.016  1.00  0.00     0.120 A 
ATOM      4  C   UNL     1     -23.769  86.433  75.307  1.00  0.00     0.021 A 
ATOM      5  N   UNL     1     -25.756  86.296  76.619  1.00  0.00    -0.264 NA
ATOM      6  C   UNL     1     -24.950  87.001  75.782  1.00  0.00     0.111 A 
ENDROOT
BRANCH   1   7
ATOM      7  C   UNL     1     -23.921  83.044  76.991  1.00  0.00     0.073 C 
ATOM      8  O   UNL     1     -22.964  82.842  77.784  1.00  0.00    -0.545 OA
ATOM      9  O   UNL     1     -24.650  81.956  76.523  1.00  0.00    -0.545 OA
ENDBRANCH   1   7
TORSDOF 1
ENDMDL
MODEL 3
REMARK VINA RESULT:    -3.828      9.695     10.370
REMARK INTER + INTRA:          -4.075
REMARK INTER:                  -4.052
REMARK INTRA:                  -0.024
REMARK UNBOUND:                -0.024
REMARK SMILES O=C([O-])c1cccnc1
REMARK SMILES IDX 4 1 5 2 9 3 6 4 8 5 7 6 2 7 1 8 3 9
REMARK H PARENT
REMARK Flexibility Score: inf
ROOT
ATOM      1  C   UNL     1     -14.550  83.607  75.698  1.00  0.00     0.016 A 
ATOM      2  C   UNL     1     -15.492  83.147  74.762  1.00  0.00     0.013 A 
ATOM      3  C   UNL     1     -14.028  82.689  76.624  1.00  0.00     0.120 A 
ATOM      4  C   UNL     1     -15.890  81.809  74.766  1.00  0.00     0.021 A 
ATOM      5  N   UNL     1     -14.431  81.390  76.606  1.00  0.00    -0.264 NA
ATOM      6  C   UNL     1     -15.342  80.937  75.705  1.00  0.00     0.111 A 
ENDROOT
BRANCH   1   7
ATOM      7  C   UNL     1     -14.116  85.020  75.711  1.00  0.00     0.073 C 
ATOM      8  O   UNL     1     -14.486  85.812  74.803  1.00  0.00    -0.545 OA
ATOM      9  O   UNL     1     -13.295  85.496  76.727  1.00  0.00    -0.545 OA
ENDBRANCH   1   7
TORSDOF 1
ENDMDL
MODEL 4
REMARK VINA RESULT:    -3.800      0.917      1.600
REMARK INTER + INTRA:          -4.046
REMARK INTER:                  -4.023
REMARK INTRA:                  -0.023
REMARK UNBOUND:                -0.024
REMARK SMILES O=C([O-])c1cccnc1
REMARK SMILES IDX 4 1 5 2 9 3 6 4 8 5 7 6 2 7 1 8 3 9
REMARK H PARENT
REMARK Flexibility Score: inf
ROOT
ATOM      1  C   UNL     1     -24.709  84.836  75.515  1.00  0.00     0.016 A 
ATOM      2  C   UNL     1     -25.630  83.840  75.148  1.00  0.00     0.013 A 
ATOM      3  C   UNL     1     -23.754  84.530  76.499  1.00  0.00     0.120 A 
ATOM      4  C   UNL     1     -25.583  82.583  75.753  1.00  0.00     0.021 A 
ATOM      5  N   UNL     1     -23.729  83.297  77.074  1.00  0.00    -0.264 NA
ATOM      6  C   UNL     1     -24.616  82.328  76.724  1.00  0.00     0.111 A 
ENDROOT
BRANCH   1   7
ATOM      7  C   UNL     1     -24.742  86.173  74.887  1.00  0.00     0.073 C 
ATOM      8  O   UNL     1     -23.844  87.021  75.139  1.00  0.00    -0.545 OA
ATOM      9  O   UNL     1     -25.763  86.514  74.007  1.00  0.00    -0.545 OA
ENDBRANCH   1   7
TORSDOF 1
ENDMDL
MODEL 5
REMARK VINA RESULT:    -3.721      2.107      2.580
REMARK INTER + INTRA:          -3.962
REMARK INTER:                  -3.944
REMARK INTRA:                  -0.018
REMARK UNBOUND:                -0.024
REMARK SMILES O=C([O-])c1cccnc1
REMARK SMILES IDX 4 1 5 2 9 3 6 4 8 5 7 6 2 7 1 8 3 9
REMARK H PARENT
REMARK Flexibility Score: inf
ROOT
ATOM      1  C   UNL     1     -25.284  86.792  76.211  1.00  0.00     0.016 A 
ATOM      2  C   UNL     1     -24.130  86.576  75.439  1.00  0.00     0.013 A 
ATOM      3  C   UNL     1     -25.710  85.769  77.074  1.00  0.00     0.120 A 
ATOM      4  C   UNL     1     -23.435  85.370  75.539  1.00  0.00     0.021 A 
ATOM      5  N   UNL     1     -25.014  84.602  77.153  1.00  0.00    -0.264 NA
ATOM      6  C   UNL     1     -23.897  84.385  76.410  1.00  0.00     0.111 A 
ENDROOT
BRANCH   1   7
ATOM      7  C   UNL     1     -26.034  88.063  76.121  1.00  0.00     0.073 C 
ATOM      8  O   UNL     1     -25.463  89.162  76.350  1.00  0.00    -0.545 OA
ATOM      9  O   UNL     1     -27.383  88.062  75.780  1.00  0.00    -0.545 OA
ENDBRANCH   1   7
TORSDOF 1
ENDMDL
MODEL 6
REMARK VINA RESULT:    -3.720      2.960      4.051
REMARK INTER + INTRA:          -3.961
REMARK INTER:                  -3.941
REMARK INTRA:                  -0.020
REMARK UNBOUND:                -0.024
REMARK SMILES O=C([O-])c1cccnc1
REMARK SMILES IDX 4 1 5 2 9 3 6 4 8 5 7 6 2 7 1 8 3 9
REMARK H PARENT
REMARK Flexibility Score: inf
ROOT
ATOM      1  C   UNL     1     -25.436  86.938  76.038  1.00  0.00     0.016 A 
ATOM      2  C   UNL     1     -25.452  88.343  76.056  1.00  0.00     0.013 A 
ATOM      3  C   UNL     1     -25.697  86.253  77.238  1.00  0.00     0.120 A 
ATOM      4  C   UNL     1     -25.721  89.027  77.242  1.00  0.00     0.021 A 
ATOM      5  N   UNL     1     -25.957  86.944  78.381  1.00  0.00    -0.264 NA
ATOM      6  C   UNL     1     -25.974  88.303  78.406  1.00  0.00     0.111 A 
ENDROOT
BRANCH   1   7
ATOM      7  C   UNL     1     -25.152  86.194  74.793  1.00  0.00     0.073 C 
ATOM      8  O   UNL     1     -25.710  86.521  73.711  1.00  0.00    -0.545 OA
ATOM      9  O   UNL     1     -24.265  85.123  74.798  1.00  0.00    -0.545 OA
ENDBRANCH   1   7
TORSDOF 1
ENDMDL
MODEL 7
REMARK VINA RESULT:    -3.681     15.179     15.761
REMARK INTER + INTRA:          -3.920
REMARK INTER:                  -3.896
REMARK INTRA:                  -0.024
REMARK UNBOUND:                -0.024
REMARK SMILES O=C([O-])c1cccnc1
REMARK SMILES IDX 4 1 5 2 9 3 6 4 8 5 7 6 2 7 1 8 3 9
REMARK H PARENT
REMARK Flexibility Score: inf
ROOT
ATOM      1  C   UNL     1     -14.409  90.451  85.184  1.00  0.00     0.016 A 
ATOM      2  C   UNL     1     -15.301  90.938  86.154  1.00  0.00     0.013 A 
ATOM      3  C   UNL     1     -13.819  91.370  84.299  1.00  0.00     0.120 A 
ATOM      4  C   UNL     1     -15.583  92.303  86.225  1.00  0.00     0.021 A 
ATOM      5  N   UNL     1     -14.110  92.695  84.391  1.00  0.00    -0.264 NA
ATOM      6  C   UNL     1     -14.971  93.175  85.325  1.00  0.00     0.111 A 
ENDROOT
BRANCH   1   7
ATOM      7  C   UNL     1     -14.098  89.009  85.091  1.00  0.00     0.073 C 
ATOM      8  O   UNL     1     -14.549  88.200  85.945  1.00  0.00    -0.545 OA
ATOM      9  O   UNL     1     -13.301  88.525  84.059  1.00  0.00    -0.545 OA
ENDBRANCH   1   7
TORSDOF 1
ENDMDL
MODEL 8
REMARK VINA RESULT:    -3.584      3.878      5.067
REMARK INTER + INTRA:          -3.817
REMARK INTER:                  -3.795
REMARK INTRA:                  -0.022
REMARK UNBOUND:                -0.024
REMARK SMILES O=C([O-])c1cccnc1
REMARK SMILES IDX 4 1 5 2 9 3 6 4 8 5 7 6 2 7 1 8 3 9
REMARK H PARENT
REMARK Flexibility Score: inf
ROOT
ATOM      1  C   UNL     1     -26.215  87.914  75.942  1.00  0.00     0.016 A 
ATOM      2  C   UNL     1     -27.617  87.827  75.930  1.00  0.00     0.013 A 
ATOM      3  C   UNL     1     -25.610  88.795  76.855  1.00  0.00     0.120 A 
ATOM      4  C   UNL     1     -28.376  88.601  76.808  1.00  0.00     0.021 A 
ATOM      5  N   UNL     1     -26.373  89.538  77.702  1.00  0.00    -0.264 NA
ATOM      6  C   UNL     1     -27.730  89.460  77.696  1.00  0.00     0.111 A 
ENDROOT
BRANCH   1   7
ATOM      7  C   UNL     1     -25.392  87.103  75.020  1.00  0.00     0.073 C 
ATOM      8  O   UNL     1     -24.189  86.847  75.293  1.00  0.00    -0.545 OA
ATOM      9  O   UNL     1     -25.936  86.610  73.839  1.00  0.00    -0.545 OA
ENDBRANCH   1   7
TORSDOF 1
ENDMDL
MODEL 9
REMARK VINA RESULT:    -3.583     10.853     11.521
REMARK INTER + INTRA:          -3.816
REMARK INTER:                  -3.792
REMARK INTRA:                  -0.024
REMARK UNBOUND:                -0.024
REMARK SMILES O=C([O-])c1cccnc1
REMARK SMILES IDX 4 1 5 2 9 3 6 4 8 5 7 6 2 7 1 8 3 9
REMARK H PARENT
REMARK Flexibility Score: inf
ROOT
ATOM      1  C   UNL     1     -25.091  89.830  85.078  1.00  0.00     0.016 A 
ATOM      2  C   UNL     1     -23.980  90.072  84.254  1.00  0.00     0.013 A 
ATOM      3  C   UNL     1     -25.901  90.920  85.443  1.00  0.00     0.120 A 
ATOM      4  C   UNL     1     -23.700  91.368  83.816  1.00  0.00     0.021 A 
ATOM      5  N   UNL     1     -25.607  92.172  85.001  1.00  0.00    -0.264 NA
ATOM      6  C   UNL     1     -24.534  92.416  84.204  1.00  0.00     0.111 A 
ENDROOT
BRANCH   1   7
ATOM      7  C   UNL     1     -25.405  88.466  85.554  1.00  0.00     0.073 C 
ATOM      8  O   UNL     1     -24.813  87.467  85.067  1.00  0.00    -0.545 OA
ATOM      9  O   UNL     1     -26.359  88.268  86.546  1.00  0.00    -0.545 OA
ENDBRANCH   1   7
TORSDOF 1
ENDMDL
