MODEL 1
REMARK VINA RESULT:    -5.792      0.000      0.000
REMARK INTER + INTRA:          -6.229
REMARK INTER:                  -6.131
REMARK INTRA:                  -0.098
REMARK UNBOUND:                -0.098
REMARK SMILES C=C(C)[C@@H]1CC=C(C)C(=O)C1
REMARK SMILES IDX 8 1 7 2 6 3 5 4 4 5 11 6 9 7 10 8 2 9 1 10 3 11
REMARK H PARENT
REMARK Flexibility Score: inf
ROOT
ATOM      1  C   UNL     1      -7.402  24.162  67.734  1.00  0.00     0.048 C 
ATOM      2  C   UNL     1      -7.571  23.179  68.861  1.00  0.00    -0.012 C 
ATOM      3  C   UNL     1      -6.866  22.034  68.871  1.00  0.00    -0.019 C 
ATOM      4  C   UNL     1      -6.942  21.058  70.016  1.00  0.00     0.036 C 
ATOM      5  C   UNL     1      -8.327  21.099  70.690  1.00  0.00     0.025 C 
ATOM      6  C   UNL     1      -8.671  22.536  71.123  1.00  0.00     0.089 C 
ATOM      7  C   UNL     1      -8.501  23.492  69.975  1.00  0.00     0.158 C 
ATOM      8  O   UNL     1      -9.124  24.587  69.990  1.00  0.00    -0.295 OA
ENDROOT
BRANCH   5   9
ATOM      9  C   UNL     1      -8.416  20.123  71.853  1.00  0.00    -0.077 C 
ATOM     10  C   UNL     1      -8.005  18.848  71.733  1.00  0.00     0.008 C 
ATOM     11  C   UNL     1      -8.983  20.611  73.162  1.00  0.00     0.039 C 
ENDBRANCH   5   9
TORSDOF 1
ENDMDL
MODEL 2
REMARK VINA RESULT:    -5.774      2.187      4.895
REMARK INTER + INTRA:          -6.209
REMARK INTER:                  -6.112
REMARK INTRA:                  -0.097
REMARK UNBOUND:                -0.098
REMARK SMILES C=C(C)[C@@H]1CC=C(C)C(=O)C1
REMARK SMILES IDX 8 1 7 2 6 3 5 4 4 5 11 6 9 7 10 8 2 9 1 10 3 11
REMARK H PARENT
REMARK Flexibility Score: inf
ROOT
ATOM      1  C   UNL     1      -7.996  19.411  71.916  1.00  0.00     0.048 C 
ATOM      2  C   UNL     1      -7.862  20.409  70.798  1.00  0.00    -0.012 C 
ATOM      3  C   UNL     1      -7.944  21.726  71.053  1.00  0.00    -0.019 C 
ATOM      4  C   UNL     1      -7.738  22.763  69.981  1.00  0.00     0.036 C 
ATOM      5  C   UNL     1      -8.176  22.233  68.602  1.00  0.00     0.025 C 
ATOM      6  C   UNL     1      -7.456  20.910  68.283  1.00  0.00     0.089 C 
ATOM      7  C   UNL     1      -7.615  19.932  69.414  1.00  0.00     0.158 C 
ATOM      8  O   UNL     1      -7.489  18.700  69.182  1.00  0.00    -0.295 OA
ENDROOT
BRANCH   5   9
ATOM      9  C   UNL     1      -7.966  23.268  67.508  1.00  0.00    -0.077 C 
ATOM     10  C   UNL     1      -7.504  24.500  67.786  1.00  0.00     0.008 C 
ATOM     11  C   UNL     1      -8.292  22.889  66.086  1.00  0.00     0.039 C 
ENDBRANCH   5   9
TORSDOF 1
ENDMDL
MODEL 3
REMARK VINA RESULT:    -5.729      1.490      2.069
REMARK INTER + INTRA:          -6.161
REMARK INTER:                  -6.059
REMARK INTRA:                  -0.102
REMARK UNBOUND:                -0.098
REMARK SMILES C=C(C)[C@@H]1CC=C(C)C(=O)C1
REMARK SMILES IDX 8 1 7 2 6 3 5 4 4 5 11 6 9 7 10 8 2 9 1 10 3 11
REMARK H PARENT
REMARK Flexibility Score: inf
ROOT
ATOM      1  C   UNL     1      -7.392  24.084  67.803  1.00  0.00     0.048 C 
ATOM      2  C   UNL     1      -7.753  23.055  68.840  1.00  0.00    -0.012 C 
ATOM      3  C   UNL     1      -8.288  23.435  70.013  1.00  0.00    -0.019 C 
ATOM      4  C   UNL     1      -8.737  22.437  71.048  1.00  0.00     0.036 C 
ATOM      5  C   UNL     1      -7.890  21.151  70.985  1.00  0.00     0.025 C 
ATOM      6  C   UNL     1      -7.908  20.565  69.562  1.00  0.00     0.089 C 
ATOM      7  C   UNL     1      -7.537  21.614  68.551  1.00  0.00     0.158 C 
ATOM      8  O   UNL     1      -7.081  21.255  67.432  1.00  0.00    -0.295 OA
ENDROOT
BRANCH   5   9
ATOM      9  C   UNL     1      -8.337  20.131  72.021  1.00  0.00    -0.077 C 
ATOM     10  C   UNL     1      -8.047  18.824  71.890  1.00  0.00     0.008 C 
ATOM     11  C   UNL     1      -9.125  20.611  73.212  1.00  0.00     0.039 C 
ENDBRANCH   5   9
TORSDOF 1
ENDMDL
MODEL 4
REMARK VINA RESULT:    -5.650      1.425      4.410
REMARK INTER + INTRA:          -6.078
REMARK INTER:                  -5.980
REMARK INTRA:                  -0.099
REMARK UNBOUND:                -0.098
REMARK SMILES C=C(C)[C@@H]1CC=C(C)C(=O)C1
REMARK SMILES IDX 8 1 7 2 6 3 5 4 4 5 11 6 9 7 10 8 2 9 1 10 3 11
REMARK H PARENT
REMARK Flexibility Score: inf
ROOT
ATOM      1  C   UNL     1      -7.998  19.518  72.012  1.00  0.00     0.048 C 
ATOM      2  C   UNL     1      -8.056  20.472  70.850  1.00  0.00    -0.012 C 
ATOM      3  C   UNL     1      -7.608  20.092  69.641  1.00  0.00    -0.019 C 
ATOM      4  C   UNL     1      -7.718  20.983  68.431  1.00  0.00     0.036 C 
ATOM      5  C   UNL     1      -7.652  22.471  68.829  1.00  0.00     0.025 C 
ATOM      6  C   UNL     1      -8.721  22.791  69.890  1.00  0.00     0.089 C 
ATOM      7  C   UNL     1      -8.632  21.827  71.040  1.00  0.00     0.158 C 
ATOM      8  O   UNL     1      -9.097  22.165  72.162  1.00  0.00    -0.295 OA
ENDROOT
BRANCH   5   9
ATOM      9  C   UNL     1      -7.770  23.383  67.617  1.00  0.00    -0.077 C 
ATOM     10  C   UNL     1      -7.542  24.706  67.710  1.00  0.00     0.008 C 
ATOM     11  C   UNL     1      -8.154  22.776  66.293  1.00  0.00     0.039 C 
ENDBRANCH   5   9
TORSDOF 1
ENDMDL
MODEL 5
REMARK VINA RESULT:    -5.595      2.145      3.124
REMARK INTER + INTRA:          -6.020
REMARK INTER:                  -5.921
REMARK INTRA:                  -0.099
REMARK UNBOUND:                -0.098
REMARK SMILES C=C(C)[C@@H]1CC=C(C)C(=O)C1
REMARK SMILES IDX 8 1 7 2 6 3 5 4 4 5 11 6 9 7 10 8 2 9 1 10 3 11
REMARK H PARENT
REMARK Flexibility Score: inf
ROOT
ATOM      1  C   UNL     1      -8.002  25.473  66.531  1.00  0.00     0.048 C 
ATOM      2  C   UNL     1      -7.930  24.138  67.221  1.00  0.00    -0.012 C 
ATOM      3  C   UNL     1      -7.571  24.065  68.514  1.00  0.00    -0.019 C 
ATOM      4  C   UNL     1      -7.561  22.761  69.269  1.00  0.00     0.036 C 
ATOM      5  C   UNL     1      -7.251  21.578  68.331  1.00  0.00     0.025 C 
ATOM      6  C   UNL     1      -8.235  21.561  67.147  1.00  0.00     0.089 C 
ATOM      7  C   UNL     1      -8.279  22.904  66.473  1.00  0.00     0.158 C 
ATOM      8  O   UNL     1      -8.663  22.978  65.275  1.00  0.00    -0.295 OA
ENDROOT
BRANCH   5   9
ATOM      9  C   UNL     1      -7.244  20.254  69.078  1.00  0.00    -0.077 C 
ATOM     10  C   UNL     1      -6.898  19.105  68.468  1.00  0.00     0.008 C 
ATOM     11  C   UNL     1      -7.640  20.244  70.532  1.00  0.00     0.039 C 
ENDBRANCH   5   9
TORSDOF 1
ENDMDL
MODEL 6
REMARK VINA RESULT:    -5.557      2.447      4.523
REMARK INTER + INTRA:          -5.980
REMARK INTER:                  -5.881
REMARK INTRA:                  -0.099
REMARK UNBOUND:                -0.098
REMARK SMILES C=C(C)[C@@H]1CC=C(C)C(=O)C1
REMARK SMILES IDX 8 1 7 2 6 3 5 4 4 5 11 6 9 7 10 8 2 9 1 10 3 11
REMARK H PARENT
REMARK Flexibility Score: inf
ROOT
ATOM      1  C   UNL     1      -8.977  21.056  73.279  1.00  0.00     0.048 C 
ATOM      2  C   UNL     1      -8.500  21.018  71.853  1.00  0.00    -0.012 C 
ATOM      3  C   UNL     1      -8.475  22.143  71.118  1.00  0.00    -0.019 C 
ATOM      4  C   UNL     1      -7.933  22.170  69.713  1.00  0.00     0.036 C 
ATOM      5  C   UNL     1      -8.141  20.814  69.012  1.00  0.00     0.025 C 
ATOM      6  C   UNL     1      -7.533  19.676  69.852  1.00  0.00     0.089 C 
ATOM      7  C   UNL     1      -8.034  19.736  71.268  1.00  0.00     0.158 C 
ATOM      8  O   UNL     1      -8.010  18.691  71.973  1.00  0.00    -0.295 OA
ENDROOT
BRANCH   5   9
ATOM      9  C   UNL     1      -7.591  20.823  67.594  1.00  0.00    -0.077 C 
ATOM     10  C   UNL     1      -6.749  19.867  67.160  1.00  0.00     0.008 C 
ATOM     11  C   UNL     1      -8.005  21.937  66.667  1.00  0.00     0.039 C 
ENDBRANCH   5   9
TORSDOF 1
ENDMDL
MODEL 7
REMARK VINA RESULT:    -5.474      2.535      3.281
REMARK INTER + INTRA:          -5.892
REMARK INTER:                  -5.790
REMARK INTRA:                  -0.102
REMARK UNBOUND:                -0.098
REMARK SMILES C=C(C)[C@@H]1CC=C(C)C(=O)C1
REMARK SMILES IDX 8 1 7 2 6 3 5 4 4 5 11 6 9 7 10 8 2 9 1 10 3 11
REMARK H PARENT
REMARK Flexibility Score: inf
ROOT
ATOM      1  C   UNL     1      -7.175  19.579  65.277  1.00  0.00     0.048 C 
ATOM      2  C   UNL     1      -7.346  20.000  66.712  1.00  0.00    -0.012 C 
ATOM      3  C   UNL     1      -7.093  19.131  67.705  1.00  0.00    -0.019 C 
ATOM      4  C   UNL     1      -7.173  19.529  69.156  1.00  0.00     0.036 C 
ATOM      5  C   UNL     1      -8.220  20.639  69.371  1.00  0.00     0.025 C 
ATOM      6  C   UNL     1      -7.928  21.838  68.450  1.00  0.00     0.089 C 
ATOM      7  C   UNL     1      -7.771  21.387  67.024  1.00  0.00     0.158 C 
ATOM      8  O   UNL     1      -7.959  22.216  66.094  1.00  0.00    -0.295 OA
ENDROOT
BRANCH   5   9
ATOM      9  C   UNL     1      -8.307  21.057  70.830  1.00  0.00    -0.077 C 
ATOM     10  C   UNL     1      -8.681  22.300  71.184  1.00  0.00     0.008 C 
ATOM     11  C   UNL     1      -7.958  20.045  71.892  1.00  0.00     0.039 C 
ENDBRANCH   5   9
TORSDOF 1
ENDMDL
MODEL 8
REMARK VINA RESULT:    -5.473      3.055      4.951
REMARK INTER + INTRA:          -5.890
REMARK INTER:                  -5.793
REMARK INTRA:                  -0.097
REMARK UNBOUND:                -0.098
REMARK SMILES C=C(C)[C@@H]1CC=C(C)C(=O)C1
REMARK SMILES IDX 8 1 7 2 6 3 5 4 4 5 11 6 9 7 10 8 2 9 1 10 3 11
REMARK H PARENT
REMARK Flexibility Score: inf
ROOT
ATOM      1  C   UNL     1      -6.895  19.162  68.314  1.00  0.00     0.048 C 
ATOM      2  C   UNL     1      -7.165  20.632  68.139  1.00  0.00    -0.012 C 
ATOM      3  C   UNL     1      -6.795  21.505  69.092  1.00  0.00    -0.019 C 
ATOM      4  C   UNL     1      -6.972  22.992  68.927  1.00  0.00     0.036 C 
ATOM      5  C   UNL     1      -8.192  23.311  68.041  1.00  0.00     0.025 C 
ATOM      6  C   UNL     1      -8.081  22.582  66.690  1.00  0.00     0.089 C 
ATOM      7  C   UNL     1      -7.820  21.116  66.898  1.00  0.00     0.158 C 
ATOM      8  O   UNL     1      -8.121  20.302  65.984  1.00  0.00    -0.295 OA
ENDROOT
BRANCH   5   9
ATOM      9  C   UNL     1      -8.380  24.809  67.859  1.00  0.00    -0.077 C 
ATOM     10  C   UNL     1      -8.086  25.418  66.696  1.00  0.00     0.008 C 
ATOM     11  C   UNL     1      -8.903  25.617  69.019  1.00  0.00     0.039 C 
ENDBRANCH   5   9
TORSDOF 1
ENDMDL
MODEL 9
REMARK VINA RESULT:    -5.427      2.288      4.432
REMARK INTER + INTRA:          -5.841
REMARK INTER:                  -5.744
REMARK INTRA:                  -0.098
REMARK UNBOUND:                -0.098
REMARK SMILES C=C(C)[C@@H]1CC=C(C)C(=O)C1
REMARK SMILES IDX 8 1 7 2 6 3 5 4 4 5 11 6 9 7 10 8 2 9 1 10 3 11
REMARK H PARENT
REMARK Flexibility Score: inf
ROOT
ATOM      1  C   UNL     1      -7.910  20.243  72.231  1.00  0.00     0.048 C 
ATOM      2  C   UNL     1      -7.906  20.287  70.727  1.00  0.00    -0.012 C 
ATOM      3  C   UNL     1      -7.540  19.204  70.021  1.00  0.00    -0.019 C 
ATOM      4  C   UNL     1      -7.597  19.174  68.516  1.00  0.00     0.036 C 
ATOM      5  C   UNL     1      -7.364  20.578  67.923  1.00  0.00     0.025 C 
ATOM      6  C   UNL     1      -8.358  21.587  68.526  1.00  0.00     0.089 C 
ATOM      7  C   UNL     1      -8.333  21.525  70.028  1.00  0.00     0.158 C 
ATOM      8  O   UNL     1      -8.723  22.524  70.691  1.00  0.00    -0.295 OA
ENDROOT
BRANCH   5   9
ATOM      9  C   UNL     1      -7.425  20.565  66.404  1.00  0.00    -0.077 C 
ATOM     10  C   UNL     1      -6.877  19.567  65.687  1.00  0.00     0.008 C 
ATOM     11  C   UNL     1      -8.116  21.705  65.700  1.00  0.00     0.039 C 
ENDBRANCH   5   9
TORSDOF 1
ENDMDL
