MODEL 1
REMARK VINA RESULT:    -2.954      0.000      0.000
REMARK INTER + INTRA:          -4.690
REMARK INTER:                  -4.509
REMARK INTRA:                  -0.181
REMARK UNBOUND:                -0.181
REMARK SMILES CC1=CCC[C@H](C)C(=O)C[C@H](C(C)C)C(=O)C1
REMARK SMILES IDX 8 1 9 2 6 3 7 4 5 5 4 6 3 7 2 8 1 9 10 11 11 12 15 13 16 14
REMARK SMILES IDX 17 15 12 17 13 18 14 19
REMARK H PARENT
REMARK Flexibility Score: 70.00
ROOT
ATOM      1  C   UNL     1     188.205 178.601 200.239  1.00  0.00     0.136 C 
ATOM      2  O   UNL     1     188.884 178.577 201.255  1.00  0.00    -0.299 OA
ENDROOT
BRANCH   1   3
ATOM      3  C   UNL     1     188.316 179.798 199.316  1.00  0.00     0.053 C 
ATOM      4  C   UNL     1     188.280 181.103 200.120  1.00  0.00     0.016 C 
BRANCH   3   5
ATOM      5  C   UNL     1     189.613 179.690 198.471  1.00  0.00     0.015 C 
BRANCH   5   6
ATOM      6  C   UNL     1     189.724 178.362 197.691  1.00  0.00     0.028 C 
BRANCH   6   7
ATOM      7  C   UNL     1     188.908 178.397 196.420  1.00  0.00    -0.028 C 
ATOM      8  C   UNL     1     187.812 177.641 196.177  1.00  0.00    -0.070 CG0
ATOM      9  C   UNL     1     187.155 177.755 194.825  1.00  0.00     0.039 C 
ATOM     10  G   UNL     1     187.209 176.698 197.201  1.00  0.00     0.000 G0
ENDBRANCH   6   7
ENDBRANCH   5   6
ENDBRANCH   3   5
ENDBRANCH   1   3
BRANCH   1  11
ATOM     11  C   UNL     1     187.260 177.444 199.983  1.00  0.00     0.087 C 
BRANCH  11  12
ATOM     12  C   UNL     1     185.935 177.770 199.232  1.00  0.00     0.066 C 
BRANCH  12  13
ATOM     13  C   UNL     1     185.925 177.174 197.831  1.00  0.00     0.140 C 
ATOM     14  O   UNL     1     184.890 177.184 197.178  1.00  0.00    -0.299 OA
BRANCH  13  15
ATOM     15  C   UNL     1     187.213 176.683 197.203  1.00  0.00     0.106 CG0
ATOM     16  G   UNL     1     187.793 177.656 196.193  1.00  0.00     0.000 G0
ENDBRANCH  13  15
ENDBRANCH  12  13
BRANCH  12  17
ATOM     17  C   UNL     1     184.691 177.281 200.042  1.00  0.00    -0.006 C 
ATOM     18  C   UNL     1     185.084 176.316 201.177  1.00  0.00     0.008 C 
ATOM     19  C   UNL     1     183.901 178.458 200.642  1.00  0.00     0.008 C 
ENDBRANCH  12  17
ENDBRANCH  11  12
ENDBRANCH   1  11
TORSDOF 1
ENDMDL
MODEL 2
REMARK VINA RESULT:    -2.855      8.759     10.120
REMARK INTER + INTRA:          -4.538
REMARK INTER:                  -4.371
REMARK INTRA:                  -0.168
REMARK UNBOUND:                -0.181
REMARK SMILES CC1=CCC[C@H](C)C(=O)C[C@H](C(C)C)C(=O)C1
REMARK SMILES IDX 8 1 9 2 6 3 7 4 5 5 4 6 3 7 2 8 1 9 10 11 11 12 15 13 16 14
REMARK SMILES IDX 17 15 12 17 13 18 14 19
REMARK H PARENT
REMARK Flexibility Score: 70.00
ROOT
ATOM      1  C   UNL     1     186.725 185.842 196.251  1.00  0.00     0.136 C 
ATOM      2  O   UNL     1     187.005 184.919 197.002  1.00  0.00    -0.299 OA
ENDROOT
BRANCH   1   3
ATOM      3  C   UNL     1     185.698 186.861 196.701  1.00  0.00     0.053 C 
ATOM      4  C   UNL     1     185.740 187.031 198.225  1.00  0.00     0.016 C 
BRANCH   3   5
ATOM      5  C   UNL     1     185.942 188.210 195.976  1.00  0.00     0.015 C 
BRANCH   5   6
ATOM      6  C   UNL     1     185.040 188.409 194.739  1.00  0.00     0.028 C 
BRANCH   6   7
ATOM      7  C   UNL     1     185.798 189.042 193.596  1.00  0.00    -0.028 C 
ATOM      8  C   UNL     1     186.127 188.421 192.439  1.00  0.00    -0.070 CG0
ATOM      9  C   UNL     1     186.945 189.183 191.429  1.00  0.00     0.039 C 
ATOM     10  G   UNL     1     185.700 187.002 192.108  1.00  0.00     0.000 G0
ENDBRANCH   6   7
ENDBRANCH   5   6
ENDBRANCH   3   5
ENDBRANCH   1   3
BRANCH   1  11
ATOM     11  C   UNL     1     187.397 185.890 194.894  1.00  0.00     0.087 C 
BRANCH  11  12
ATOM     12  C   UNL     1     186.672 185.161 193.724  1.00  0.00     0.066 C 
BRANCH  12  13
ATOM     13  C   UNL     1     186.772 185.951 192.426  1.00  0.00     0.140 C 
ATOM     14  O   UNL     1     187.647 185.673 191.616  1.00  0.00    -0.299 OA
BRANCH  13  15
ATOM     15  C   UNL     1     185.724 186.990 192.083  1.00  0.00     0.106 CG0
ATOM     16  G   UNL     1     186.147 188.403 192.437  1.00  0.00     0.000 G0
ENDBRANCH  13  15
ENDBRANCH  12  13
BRANCH  12  17
ATOM     17  C   UNL     1     187.228 183.714 193.526  1.00  0.00    -0.006 C 
ATOM     18  C   UNL     1     188.709 183.605 193.933  1.00  0.00     0.008 C 
ATOM     19  C   UNL     1     186.416 182.676 194.321  1.00  0.00     0.008 C 
ENDBRANCH  12  17
ENDBRANCH  11  12
ENDBRANCH   1  11
TORSDOF 1
ENDMDL
MODEL 3
REMARK VINA RESULT:    -2.838      8.969     10.567
REMARK INTER + INTRA:          -4.512
REMARK INTER:                  -4.243
REMARK INTRA:                  -0.269
REMARK UNBOUND:                -0.181
REMARK SMILES CC1=CCC[C@H](C)C(=O)C[C@H](C(C)C)C(=O)C1
REMARK SMILES IDX 8 1 9 2 6 3 7 4 5 5 4 6 3 7 2 8 1 9 10 11 11 12 15 13 16 14
REMARK SMILES IDX 17 15 12 17 13 18 14 19
REMARK H PARENT
REMARK Flexibility Score: 70.00
ROOT
ATOM      1  C   UNL     1     187.453 186.924 195.120  1.00  0.00     0.136 C 
ATOM      2  O   UNL     1     187.271 188.133 195.132  1.00  0.00    -0.299 OA
ENDROOT
BRANCH   1   3
ATOM      3  C   UNL     1     186.497 186.036 195.890  1.00  0.00     0.053 C 
ATOM      4  C   UNL     1     186.533 186.374 197.385  1.00  0.00     0.016 C 
BRANCH   3   5
ATOM      5  C   UNL     1     185.065 186.182 195.312  1.00  0.00     0.015 C 
BRANCH   5   6
ATOM      6  C   UNL     1     184.910 185.565 193.905  1.00  0.00     0.028 C 
BRANCH   6   7
ATOM      7  C   UNL     1     184.518 186.608 192.884  1.00  0.00    -0.028 C 
ATOM      8  C   UNL     1     185.206 186.888 191.753  1.00  0.00    -0.070 CG0
ATOM      9  C   UNL     1     184.708 188.007 190.876  1.00  0.00     0.039 C 
ATOM     10  G   UNL     1     186.443 186.122 191.322  1.00  0.00     0.000 G0
ENDBRANCH   6   7
ENDBRANCH   5   6
ENDBRANCH   3   5
ENDBRANCH   1   3
BRANCH   1  11
ATOM     11  C   UNL     1     188.652 186.388 194.364  1.00  0.00     0.087 C 
BRANCH  11  12
ATOM     12  C   UNL     1     188.364 185.638 193.030  1.00  0.00     0.066 C 
BRANCH  12  13
ATOM     13  C   UNL     1     187.720 186.556 192.000  1.00  0.00     0.140 C 
ATOM     14  O   UNL     1     188.288 187.590 191.673  1.00  0.00    -0.299 OA
BRANCH  13  15
ATOM     15  C   UNL     1     186.447 186.135 191.295  1.00  0.00     0.106 CG0
ATOM     16  G   UNL     1     185.225 186.906 191.759  1.00  0.00     0.000 G0
ENDBRANCH  13  15
ENDBRANCH  12  13
BRANCH  12  17
ATOM     17  C   UNL     1     189.666 184.995 192.449  1.00  0.00    -0.006 C 
ATOM     18  C   UNL     1     190.914 185.388 193.261  1.00  0.00     0.008 C 
ATOM     19  C   UNL     1     189.570 183.460 192.396  1.00  0.00     0.008 C 
ENDBRANCH  12  17
ENDBRANCH  11  12
ENDBRANCH   1  11
TORSDOF 1
ENDMDL
MODEL 4
REMARK VINA RESULT:    -2.746      9.045     10.160
REMARK INTER + INTRA:          -4.372
REMARK INTER:                  -4.045
REMARK INTRA:                  -0.327
REMARK UNBOUND:                -0.181
REMARK SMILES CC1=CCC[C@H](C)C(=O)C[C@H](C(C)C)C(=O)C1
REMARK SMILES IDX 8 1 9 2 6 3 7 4 5 5 4 6 3 7 2 8 1 9 10 11 11 12 15 13 16 14
REMARK SMILES IDX 17 15 12 17 13 18 14 19
REMARK H PARENT
REMARK Flexibility Score: 70.00
ROOT
ATOM      1  C   UNL     1     185.306 187.186 195.018  1.00  0.00     0.136 C 
ATOM      2  O   UNL     1     184.901 188.333 195.141  1.00  0.00    -0.299 OA
ENDROOT
BRANCH   1   3
ATOM      3  C   UNL     1     186.636 186.813 195.641  1.00  0.00     0.053 C 
ATOM      4  C   UNL     1     186.661 185.323 196.005  1.00  0.00     0.016 C 
BRANCH   3   5
ATOM      5  C   UNL     1     187.790 187.177 194.672  1.00  0.00     0.015 C 
BRANCH   5   6
ATOM      6  C   UNL     1     188.372 185.954 193.930  1.00  0.00     0.028 C 
BRANCH   6   7
ATOM      7  C   UNL     1     188.306 186.133 192.431  1.00  0.00    -0.028 C 
ATOM      8  C   UNL     1     187.368 185.587 191.623  1.00  0.00    -0.070 CG0
ATOM      9  C   UNL     1     187.490 185.814 190.138  1.00  0.00     0.039 C 
ATOM     10  G   UNL     1     186.198 184.770 192.139  1.00  0.00     0.000 G0
ENDBRANCH   6   7
ENDBRANCH   5   6
ENDBRANCH   3   5
ENDBRANCH   1   3
BRANCH   1  11
ATOM     11  C   UNL     1     184.467 186.213 194.214  1.00  0.00     0.087 C 
BRANCH  11  12
ATOM     12  C   UNL     1     184.301 186.517 192.695  1.00  0.00     0.066 C 
BRANCH  12  13
ATOM     13  C   UNL     1     184.839 185.380 191.837  1.00  0.00     0.140 C 
ATOM     14  O   UNL     1     184.221 185.033 190.839  1.00  0.00    -0.299 OA
BRANCH  13  15
ATOM     15  C   UNL     1     186.189 184.766 192.145  1.00  0.00     0.106 CG0
ATOM     16  G   UNL     1     187.353 185.603 191.643  1.00  0.00     0.000 G0
ENDBRANCH  13  15
ENDBRANCH  12  13
BRANCH  12  17
ATOM     17  C   UNL     1     182.808 186.812 192.337  1.00  0.00    -0.006 C 
ATOM     18  C   UNL     1     181.835 186.155 193.333  1.00  0.00     0.008 C 
ATOM     19  C   UNL     1     182.522 188.323 192.284  1.00  0.00     0.008 C 
ENDBRANCH  12  17
ENDBRANCH  11  12
ENDBRANCH   1  11
TORSDOF 1
ENDMDL
MODEL 5
REMARK VINA RESULT:    -2.706      7.561      9.378
REMARK INTER + INTRA:          -4.311
REMARK INTER:                  -4.108
REMARK INTRA:                  -0.203
REMARK UNBOUND:                -0.181
REMARK SMILES CC1=CCC[C@H](C)C(=O)C[C@H](C(C)C)C(=O)C1
REMARK SMILES IDX 8 1 9 2 6 3 7 4 5 5 4 6 3 7 2 8 1 9 10 11 11 12 15 13 16 14
REMARK SMILES IDX 17 15 12 17 13 18 14 19
REMARK H PARENT
REMARK Flexibility Score: 70.00
ROOT
ATOM      1  C   UNL     1     187.639 186.926 194.618  1.00  0.00     0.136 C 
ATOM      2  O   UNL     1     187.823 188.129 194.737  1.00  0.00    -0.299 OA
ENDROOT
BRANCH   1   3
ATOM      3  C   UNL     1     186.977 186.175 195.756  1.00  0.00     0.053 C 
ATOM      4  C   UNL     1     186.074 187.112 196.567  1.00  0.00     0.016 C 
BRANCH   3   5
ATOM      5  C   UNL     1     186.181 184.968 195.195  1.00  0.00     0.015 C 
BRANCH   5   6
ATOM      6  C   UNL     1     186.724 183.604 195.673  1.00  0.00     0.028 C 
BRANCH   6   7
ATOM      7  C   UNL     1     186.821 182.617 194.534  1.00  0.00    -0.028 C 
ATOM      8  C   UNL     1     187.917 182.420 193.765  1.00  0.00    -0.070 CG0
ATOM      9  C   UNL     1     187.819 181.438 192.625  1.00  0.00     0.039 C 
ATOM     10  G   UNL     1     189.238 183.128 194.003  1.00  0.00     0.000 G0
ENDBRANCH   6   7
ENDBRANCH   5   6
ENDBRANCH   3   5
ENDBRANCH   1   3
BRANCH   1  11
ATOM     11  C   UNL     1     188.121 186.251 193.350  1.00  0.00     0.087 C 
BRANCH  11  12
ATOM     12  C   UNL     1     189.560 185.657 193.372  1.00  0.00     0.066 C 
BRANCH  12  13
ATOM     13  C   UNL     1     189.565 184.188 192.972  1.00  0.00     0.140 C 
ATOM     14  O   UNL     1     189.917 183.871 191.844  1.00  0.00    -0.299 OA
BRANCH  13  15
ATOM     15  C   UNL     1     189.255 183.118 193.999  1.00  0.00     0.106 CG0
ATOM     16  G   UNL     1     187.916 182.442 193.770  1.00  0.00     0.000 G0
ENDBRANCH  13  15
ENDBRANCH  12  13
BRANCH  12  17
ATOM     17  C   UNL     1     190.525 186.476 192.455  1.00  0.00    -0.006 C 
ATOM     18  C   UNL     1     189.765 187.486 191.575  1.00  0.00     0.008 C 
ATOM     19  C   UNL     1     191.588 187.230 193.272  1.00  0.00     0.008 C 
ENDBRANCH  12  17
ENDBRANCH  11  12
ENDBRANCH   1  11
TORSDOF 1
ENDMDL
MODEL 6
REMARK VINA RESULT:    -2.685     16.564     17.668
REMARK INTER + INTRA:          -4.279
REMARK INTER:                  -4.146
REMARK INTRA:                  -0.133
REMARK UNBOUND:                -0.181
REMARK SMILES CC1=CCC[C@H](C)C(=O)C[C@H](C(C)C)C(=O)C1
REMARK SMILES IDX 8 1 9 2 6 3 7 4 5 5 4 6 3 7 2 8 1 9 10 11 11 12 15 13 16 14
REMARK SMILES IDX 17 15 12 17 13 18 14 19
REMARK H PARENT
REMARK Flexibility Score: 70.00
ROOT
ATOM      1  C   UNL     1     178.218 192.876 194.377  1.00  0.00     0.136 C 
ATOM      2  O   UNL     1     177.135 193.162 194.869  1.00  0.00    -0.299 OA
ENDROOT
BRANCH   1   3
ATOM      3  C   UNL     1     179.480 193.321 195.087  1.00  0.00     0.053 C 
ATOM      4  C   UNL     1     179.249 193.394 196.601  1.00  0.00     0.016 C 
BRANCH   3   5
ATOM      5  C   UNL     1     180.645 192.358 194.739  1.00  0.00     0.015 C 
BRANCH   5   6
ATOM      6  C   UNL     1     181.651 192.957 193.733  1.00  0.00     0.028 C 
BRANCH   6   7
ATOM      7  C   UNL     1     182.265 191.888 192.859  1.00  0.00    -0.028 C 
ATOM      8  C   UNL     1     181.968 191.683 191.555  1.00  0.00    -0.070 CG0
ATOM      9  C   UNL     1     182.626 190.525 190.849  1.00  0.00     0.039 C 
ATOM     10  G   UNL     1     181.017 192.567 190.770  1.00  0.00     0.000 G0
ENDBRANCH   6   7
ENDBRANCH   5   6
ENDBRANCH   3   5
ENDBRANCH   1   3
BRANCH   1  11
ATOM     11  C   UNL     1     178.229 192.124 193.061  1.00  0.00     0.087 C 
BRANCH  11  12
ATOM     12  C   UNL     1     178.629 192.933 191.792  1.00  0.00     0.066 C 
BRANCH  12  13
ATOM     13  C   UNL     1     179.565 192.136 190.894  1.00  0.00     0.140 C 
ATOM     14  O   UNL     1     179.117 191.222 190.214  1.00  0.00    -0.299 OA
BRANCH  13  15
ATOM     15  C   UNL     1     181.015 192.549 190.748  1.00  0.00     0.106 CG0
ATOM     16  G   UNL     1     181.966 191.683 191.555  1.00  0.00     0.000 G0
ENDBRANCH  13  15
ENDBRANCH  12  13
BRANCH  12  17
ATOM     17  C   UNL     1     177.366 193.393 190.993  1.00  0.00    -0.006 C 
ATOM     18  C   UNL     1     176.078 192.735 191.521  1.00  0.00     0.008 C 
ATOM     19  C   UNL     1     177.194 194.922 191.028  1.00  0.00     0.008 C 
ENDBRANCH  12  17
ENDBRANCH  11  12
ENDBRANCH   1  11
TORSDOF 1
ENDMDL
MODEL 7
REMARK VINA RESULT:    -2.652      9.816     10.844
REMARK INTER + INTRA:          -4.229
REMARK INTER:                  -4.414
REMARK INTRA:                   0.184
REMARK UNBOUND:                -0.181
REMARK SMILES CC1=CCC[C@H](C)C(=O)C[C@H](C(C)C)C(=O)C1
REMARK SMILES IDX 8 1 9 2 6 3 7 4 5 5 4 6 3 7 2 8 1 9 10 11 11 12 15 13 16 14
REMARK SMILES IDX 17 15 12 17 13 18 14 19
REMARK H PARENT
REMARK Flexibility Score: 70.00
ROOT
ATOM      1  C   UNL     1     185.863 187.620 195.492  1.00  0.00     0.136 C 
ATOM      2  O   UNL     1     185.737 188.773 195.880  1.00  0.00    -0.299 OA
ENDROOT
BRANCH   1   3
ATOM      3  C   UNL     1     187.004 186.787 196.039  1.00  0.00     0.053 C 
ATOM      4  C   UNL     1     186.610 186.146 197.376  1.00  0.00     0.016 C 
BRANCH   3   5
ATOM      5  C   UNL     1     187.418 185.715 194.999  1.00  0.00     0.015 C 
BRANCH   5   6
ATOM      6  C   UNL     1     188.514 186.202 194.025  1.00  0.00     0.028 C 
BRANCH   6   7
ATOM      7  C   UNL     1     188.152 185.901 192.589  1.00  0.00    -0.028 C 
ATOM      8  C   UNL     1     187.349 186.665 191.812  1.00  0.00    -0.070 CG0
ATOM      9  C   UNL     1     187.039 186.182 190.419  1.00  0.00     0.039 C 
ATOM     10  G   UNL     1     186.759 187.986 192.272  1.00  0.00     0.000 G0
ENDBRANCH   6   7
ENDBRANCH   5   6
ENDBRANCH   3   5
ENDBRANCH   1   3
BRANCH   1  11
ATOM     11  C   UNL     1     184.887 187.106 194.452  1.00  0.00     0.087 C 
BRANCH  11  12
ATOM     12  C   UNL     1     184.395 188.126 193.384  1.00  0.00     0.066 C 
BRANCH  12  13
ATOM     13  C   UNL     1     185.268 188.095 192.137  1.00  0.00     0.140 C 
ATOM     14  O   UNL     1     184.753 188.242 191.036  1.00  0.00    -0.299 OA
BRANCH  13  15
ATOM     15  C   UNL     1     186.774 188.006 192.264  1.00  0.00     0.106 CG0
ATOM     16  G   UNL     1     187.332 186.665 191.825  1.00  0.00     0.000 G0
ENDBRANCH  13  15
ENDBRANCH  12  13
BRANCH  12  17
ATOM     17  C   UNL     1     182.898 187.875 193.009  1.00  0.00    -0.006 C 
ATOM     18  C   UNL     1     182.354 186.581 193.643  1.00  0.00     0.008 C 
ATOM     19  C   UNL     1     181.999 189.051 193.429  1.00  0.00     0.008 C 
ENDBRANCH  12  17
ENDBRANCH  11  12
ENDBRANCH   1  11
TORSDOF 1
ENDMDL
MODEL 8
REMARK VINA RESULT:    -2.588     10.772     12.389
REMARK INTER + INTRA:          -4.131
REMARK INTER:                  -4.055
REMARK INTRA:                  -0.076
REMARK UNBOUND:                -0.181
REMARK SMILES CC1=CCC[C@H](C)C(=O)C[C@H](C(C)C)C(=O)C1
REMARK SMILES IDX 8 1 9 2 6 3 7 4 5 5 4 6 3 7 2 8 1 9 10 11 11 12 15 13 16 14
REMARK SMILES IDX 17 15 12 17 13 18 14 19
REMARK H PARENT
REMARK Flexibility Score: 70.00
ROOT
ATOM      1  C   UNL     1     184.164 186.200 193.325  1.00  0.00     0.136 C 
ATOM      2  O   UNL     1     184.709 185.283 192.728  1.00  0.00    -0.299 OA
ENDROOT
BRANCH   1   3
ATOM      3  C   UNL     1     182.823 186.699 192.825  1.00  0.00     0.053 C 
ATOM      4  C   UNL     1     181.679 185.921 193.484  1.00  0.00     0.016 C 
BRANCH   3   5
ATOM      5  C   UNL     1     182.697 188.222 193.090  1.00  0.00     0.015 C 
BRANCH   5   6
ATOM      6  C   UNL     1     183.462 189.085 192.063  1.00  0.00     0.028 C 
BRANCH   6   7
ATOM      7  C   UNL     1     183.743 190.468 192.602  1.00  0.00    -0.028 C 
ATOM      8  C   UNL     1     184.909 190.864 193.162  1.00  0.00    -0.070 CG0
ATOM      9  C   UNL     1     184.997 192.265 193.709  1.00  0.00     0.039 C 
ATOM     10  G   UNL     1     186.133 189.970 193.254  1.00  0.00     0.000 G0
ENDBRANCH   6   7
ENDBRANCH   5   6
ENDBRANCH   3   5
ENDBRANCH   1   3
BRANCH   1  11
ATOM     11  C   UNL     1     184.884 186.810 194.511  1.00  0.00     0.087 C 
BRANCH  11  12
ATOM     12  C   UNL     1     186.231 187.535 194.218  1.00  0.00     0.066 C 
BRANCH  12  13
ATOM     13  C   UNL     1     186.117 189.037 194.438  1.00  0.00     0.140 C 
ATOM     14  O   UNL     1     186.097 189.480 195.579  1.00  0.00    -0.299 OA
BRANCH  13  15
ATOM     15  C   UNL     1     186.151 189.985 193.257  1.00  0.00     0.106 CG0
ATOM     16  G   UNL     1     184.920 190.868 193.165  1.00  0.00     0.000 G0
ENDBRANCH  13  15
ENDBRANCH  12  13
BRANCH  12  17
ATOM     17  C   UNL     1     187.391 186.943 195.083  1.00  0.00    -0.006 C 
ATOM     18  C   UNL     1     186.863 186.088 196.250  1.00  0.00     0.008 C 
ATOM     19  C   UNL     1     188.356 186.091 194.239  1.00  0.00     0.008 C 
ENDBRANCH  12  17
ENDBRANCH  11  12
ENDBRANCH   1  11
TORSDOF 1
ENDMDL
MODEL 9
REMARK VINA RESULT:    -2.586      6.737      8.688
REMARK INTER + INTRA:          -4.127
REMARK INTER:                  -3.864
REMARK INTRA:                  -0.263
REMARK UNBOUND:                -0.181
REMARK SMILES CC1=CCC[C@H](C)C(=O)C[C@H](C(C)C)C(=O)C1
REMARK SMILES IDX 8 1 9 2 6 3 7 4 5 5 4 6 3 7 2 8 1 9 10 11 11 12 15 13 16 14
REMARK SMILES IDX 17 15 12 17 13 18 14 19
REMARK H PARENT
REMARK Flexibility Score: 70.00
ROOT
ATOM      1  C   UNL     1     191.017 179.523 194.074  1.00  0.00     0.136 C 
ATOM      2  O   UNL     1     190.705 178.344 194.158  1.00  0.00    -0.299 OA
ENDROOT
BRANCH   1   3
ATOM      3  C   UNL     1     190.248 180.414 193.120  1.00  0.00     0.053 C 
ATOM      4  C   UNL     1     190.285 181.872 193.596  1.00  0.00     0.016 C 
BRANCH   3   5
ATOM      5  C   UNL     1     190.825 180.273 191.688  1.00  0.00     0.015 C 
BRANCH   5   6
ATOM      6  C   UNL     1     191.863 181.361 191.339  1.00  0.00     0.028 C 
BRANCH   6   7
ATOM      7  C   UNL     1     193.197 180.756 190.968  1.00  0.00    -0.028 C 
ATOM      8  C   UNL     1     194.291 180.734 191.764  1.00  0.00    -0.070 CG0
ATOM      9  C   UNL     1     195.563 180.146 191.209  1.00  0.00     0.039 C 
ATOM     10  G   UNL     1     194.294 181.261 193.188  1.00  0.00     0.000 G0
ENDBRANCH   6   7
ENDBRANCH   5   6
ENDBRANCH   3   5
ENDBRANCH   1   3
BRANCH   1  11
ATOM     11  C   UNL     1     192.186 180.014 194.905  1.00  0.00     0.087 C 
BRANCH  11  12
ATOM     12  C   UNL     1     193.534 179.252 194.742  1.00  0.00     0.066 C 
BRANCH  12  13
ATOM     13  C   UNL     1     194.631 180.164 194.210  1.00  0.00     0.140 C 
ATOM     14  O   UNL     1     195.795 179.960 194.532  1.00  0.00    -0.299 OA
BRANCH  13  15
ATOM     15  C   UNL     1     194.302 181.239 193.195  1.00  0.00     0.106 CG0
ATOM     16  G   UNL     1     194.297 180.729 191.766  1.00  0.00     0.000 G0
ENDBRANCH  13  15
ENDBRANCH  12  13
BRANCH  12  17
ATOM     17  C   UNL     1     193.977 178.592 196.088  1.00  0.00    -0.006 C 
ATOM     18  C   UNL     1     193.139 179.092 197.279  1.00  0.00     0.008 C 
ATOM     19  C   UNL     1     193.890 177.057 196.028  1.00  0.00     0.008 C 
ENDBRANCH  12  17
ENDBRANCH  11  12
ENDBRANCH   1  11
TORSDOF 1
ENDMDL
