MODEL 1
REMARK VINA RESULT:    -3.910      0.000      0.000
REMARK INTER + INTRA:          -4.924
REMARK INTER:                  -4.825
REMARK INTRA:                  -0.099
REMARK UNBOUND:                -0.099
REMARK SMILES CCCCCC(=O)[O-]
REMARK SMILES IDX 4 1 5 2 6 3 7 4 8 5 3 6 2 7 1 8
REMARK H PARENT
REMARK Flexibility Score: inf
ROOT
ATOM      1  C   UNL     1      24.450  71.348  28.144  1.00  0.00     0.006 C 
ENDROOT
BRANCH   1   2
ATOM      2  C   UNL     1      24.789  72.797  27.780  1.00  0.00     0.053 C 
BRANCH   2   3
ATOM      3  C   UNL     1      23.552  73.639  27.775  1.00  0.00     0.041 C 
ATOM      4  O   UNL     1      23.621  74.864  27.492  1.00  0.00    -0.550 OA
ATOM      5  O   UNL     1      22.331  73.082  28.131  1.00  0.00    -0.550 OA
ENDBRANCH   2   3
ENDBRANCH   1   2
BRANCH   1   6
ATOM      6  C   UNL     1      25.360  70.365  27.393  1.00  0.00     0.000 C 
BRANCH   6   7
ATOM      7  C   UNL     1      24.685  69.009  27.142  1.00  0.00    -0.003 C 
ATOM      8  C   UNL     1      23.232  68.974  27.617  1.00  0.00     0.004 C 
ENDBRANCH   6   7
ENDBRANCH   1   6
TORSDOF 4
ENDMDL
MODEL 2
REMARK VINA RESULT:    -3.861      2.499      4.162
REMARK INTER + INTRA:          -4.863
REMARK INTER:                  -4.782
REMARK INTRA:                  -0.081
REMARK UNBOUND:                -0.099
REMARK SMILES CCCCCC(=O)[O-]
REMARK SMILES IDX 4 1 5 2 6 3 7 4 8 5 3 6 2 7 1 8
REMARK H PARENT
REMARK Flexibility Score: inf
ROOT
ATOM      1  C   UNL     1      23.933  70.483  28.019  1.00  0.00     0.006 C 
ENDROOT
BRANCH   1   2
ATOM      2  C   UNL     1      23.491  69.085  27.572  1.00  0.00     0.053 C 
BRANCH   2   3
ATOM      3  C   UNL     1      22.014  68.921  27.750  1.00  0.00     0.041 C 
ATOM      4  O   UNL     1      21.561  67.975  28.446  1.00  0.00    -0.550 OA
ATOM      5  O   UNL     1      21.136  69.784  27.107  1.00  0.00    -0.550 OA
ENDBRANCH   2   3
ENDBRANCH   1   2
BRANCH   1   6
ATOM      6  C   UNL     1      25.319  70.826  27.456  1.00  0.00     0.000 C 
BRANCH   6   7
ATOM      7  C   UNL     1      25.578  72.339  27.406  1.00  0.00    -0.003 C 
ATOM      8  C   UNL     1      24.489  73.149  28.111  1.00  0.00     0.004 C 
ENDBRANCH   6   7
ENDBRANCH   1   6
TORSDOF 4
ENDMDL
MODEL 3
REMARK VINA RESULT:    -3.818      2.746      4.443
REMARK INTER + INTRA:          -4.810
REMARK INTER:                  -4.748
REMARK INTRA:                  -0.062
REMARK UNBOUND:                -0.099
REMARK SMILES CCCCCC(=O)[O-]
REMARK SMILES IDX 4 1 5 2 6 3 7 4 8 5 3 6 2 7 1 8
REMARK H PARENT
REMARK Flexibility Score: inf
ROOT
ATOM      1  C   UNL     1      24.500  71.196  28.163  1.00  0.00     0.006 C 
ENDROOT
BRANCH   1   2
ATOM      2  C   UNL     1      25.389  70.244  27.356  1.00  0.00     0.053 C 
BRANCH   2   3
ATOM      3  C   UNL     1      24.669  68.960  27.084  1.00  0.00     0.041 C 
ATOM      4  O   UNL     1      25.193  68.084  26.347  1.00  0.00    -0.550 OA
ATOM      5  O   UNL     1      23.399  68.752  27.606  1.00  0.00    -0.550 OA
ENDBRANCH   2   3
ENDBRANCH   1   2
BRANCH   1   6
ATOM      6  C   UNL     1      24.757  72.657  27.766  1.00  0.00     0.000 C 
BRANCH   6   7
ATOM      7  C   UNL     1      23.597  73.586  28.150  1.00  0.00    -0.003 C 
ATOM      8  C   UNL     1      23.550  73.887  29.648  1.00  0.00     0.004 C 
ENDBRANCH   6   7
ENDBRANCH   1   6
TORSDOF 4
ENDMDL
MODEL 4
REMARK VINA RESULT:    -3.781      9.716     10.386
REMARK INTER + INTRA:          -4.765
REMARK INTER:                  -4.718
REMARK INTRA:                  -0.046
REMARK UNBOUND:                -0.099
REMARK SMILES CCCCCC(=O)[O-]
REMARK SMILES IDX 4 1 5 2 6 3 7 4 8 5 3 6 2 7 1 8
REMARK H PARENT
REMARK Flexibility Score: inf
ROOT
ATOM      1  C   UNL     1      17.506  69.117  33.607  1.00  0.00     0.006 C 
ENDROOT
BRANCH   1   2
ATOM      2  C   UNL     1      17.748  69.998  34.837  1.00  0.00     0.053 C 
BRANCH   2   3
ATOM      3  C   UNL     1      18.240  69.172  35.984  1.00  0.00     0.041 C 
ATOM      4  O   UNL     1      19.424  69.297  36.393  1.00  0.00    -0.550 OA
ATOM      5  O   UNL     1      17.405  68.230  36.570  1.00  0.00    -0.550 OA
ENDBRANCH   2   3
ENDBRANCH   1   2
BRANCH   1   6
ATOM      6  C   UNL     1      16.483  69.762  32.661  1.00  0.00     0.000 C 
BRANCH   6   7
ATOM      7  C   UNL     1      15.273  68.855  32.393  1.00  0.00    -0.003 C 
ATOM      8  C   UNL     1      14.567  69.183  31.077  1.00  0.00     0.004 C 
ENDBRANCH   6   7
ENDBRANCH   1   6
TORSDOF 4
ENDMDL
MODEL 5
REMARK VINA RESULT:    -3.763      9.425     10.181
REMARK INTER + INTRA:          -4.742
REMARK INTER:                  -4.588
REMARK INTRA:                  -0.154
REMARK UNBOUND:                -0.099
REMARK SMILES CCCCCC(=O)[O-]
REMARK SMILES IDX 4 1 5 2 6 3 7 4 8 5 3 6 2 7 1 8
REMARK H PARENT
REMARK Flexibility Score: inf
ROOT
ATOM      1  C   UNL     1      16.682  69.719  32.703  1.00  0.00     0.006 C 
ENDROOT
BRANCH   1   2
ATOM      2  C   UNL     1      17.531  69.098  33.817  1.00  0.00     0.053 C 
BRANCH   2   3
ATOM      3  C   UNL     1      17.811  70.107  34.886  1.00  0.00     0.041 C 
ATOM      4  O   UNL     1      17.504  71.316  34.713  1.00  0.00    -0.550 OA
ATOM      5  O   UNL     1      18.456  69.721  36.054  1.00  0.00    -0.550 OA
ENDBRANCH   2   3
ENDBRANCH   1   2
BRANCH   1   6
ATOM      6  C   UNL     1      15.347  68.976  32.550  1.00  0.00     0.000 C 
BRANCH   6   7
ATOM      7  C   UNL     1      15.311  67.659  33.341  1.00  0.00    -0.003 C 
ATOM      8  C   UNL     1      14.947  66.456  32.470  1.00  0.00     0.004 C 
ENDBRANCH   6   7
ENDBRANCH   1   6
TORSDOF 4
ENDMDL
MODEL 6
REMARK VINA RESULT:    -3.685      9.405     10.367
REMARK INTER + INTRA:          -4.646
REMARK INTER:                  -4.573
REMARK INTRA:                  -0.074
REMARK UNBOUND:                -0.099
REMARK SMILES CCCCCC(=O)[O-]
REMARK SMILES IDX 4 1 5 2 6 3 7 4 8 5 3 6 2 7 1 8
REMARK H PARENT
REMARK Flexibility Score: inf
ROOT
ATOM      1  C   UNL     1      16.065  68.711  33.555  1.00  0.00     0.006 C 
ENDROOT
BRANCH   1   2
ATOM      2  C   UNL     1      16.892  69.936  33.150  1.00  0.00     0.053 C 
BRANCH   2   3
ATOM      3  C   UNL     1      17.410  70.643  34.362  1.00  0.00     0.041 C 
ATOM      4  O   UNL     1      17.897  69.986  35.319  1.00  0.00    -0.550 OA
ATOM      5  O   UNL     1      17.310  72.025  34.456  1.00  0.00    -0.550 OA
ENDBRANCH   2   3
ENDBRANCH   1   2
BRANCH   1   6
ATOM      6  C   UNL     1      15.118  68.288  32.423  1.00  0.00     0.000 C 
BRANCH   6   7
ATOM      7  C   UNL     1      14.881  66.772  32.387  1.00  0.00    -0.003 C 
ATOM      8  C   UNL     1      14.834  66.146  33.781  1.00  0.00     0.004 C 
ENDBRANCH   6   7
ENDBRANCH   1   6
TORSDOF 4
ENDMDL
MODEL 7
REMARK VINA RESULT:    -3.539     10.565     11.245
REMARK INTER + INTRA:          -4.466
REMARK INTER:                  -4.331
REMARK INTRA:                  -0.135
REMARK UNBOUND:                -0.099
REMARK SMILES CCCCCC(=O)[O-]
REMARK SMILES IDX 4 1 5 2 6 3 7 4 8 5 3 6 2 7 1 8
REMARK H PARENT
REMARK Flexibility Score: inf
ROOT
ATOM      1  C   UNL     1      15.319  67.389  34.419  1.00  0.00     0.006 C 
ENDROOT
BRANCH   1   2
ATOM      2  C   UNL     1      16.754  67.135  34.893  1.00  0.00     0.053 C 
BRANCH   2   3
ATOM      3  C   UNL     1      17.269  68.313  35.658  1.00  0.00     0.041 C 
ATOM      4  O   UNL     1      17.509  69.398  35.066  1.00  0.00    -0.550 OA
ATOM      5  O   UNL     1      17.528  68.199  37.018  1.00  0.00    -0.550 OA
ENDBRANCH   2   3
ENDBRANCH   1   2
BRANCH   1   6
ATOM      6  C   UNL     1      15.259  67.515  32.890  1.00  0.00     0.000 C 
BRANCH   6   7
ATOM      7  C   UNL     1      15.227  68.976  32.419  1.00  0.00    -0.003 C 
ATOM      8  C   UNL     1      14.523  69.149  31.073  1.00  0.00     0.004 C 
ENDBRANCH   6   7
ENDBRANCH   1   6
TORSDOF 4
ENDMDL
MODEL 8
REMARK VINA RESULT:    -3.537     10.160     11.180
REMARK INTER + INTRA:          -4.463
REMARK INTER:                  -4.191
REMARK INTRA:                  -0.272
REMARK UNBOUND:                -0.099
REMARK SMILES CCCCCC(=O)[O-]
REMARK SMILES IDX 4 1 5 2 6 3 7 4 8 5 3 6 2 7 1 8
REMARK H PARENT
REMARK Flexibility Score: inf
ROOT
ATOM      1  C   UNL     1      15.378  69.036  32.898  1.00  0.00     0.006 C 
ENDROOT
BRANCH   1   2
ATOM      2  C   UNL     1      15.302  67.505  32.912  1.00  0.00     0.053 C 
BRANCH   2   3
ATOM      3  C   UNL     1      15.849  66.965  34.195  1.00  0.00     0.041 C 
ATOM      4  O   UNL     1      16.780  66.117  34.181  1.00  0.00    -0.550 OA
ATOM      5  O   UNL     1      15.298  67.362  35.407  1.00  0.00    -0.550 OA
ENDBRANCH   2   3
ENDBRANCH   1   2
BRANCH   1   6
ATOM      6  C   UNL     1      16.837  69.513  32.923  1.00  0.00     0.000 C 
BRANCH   6   7
ATOM      7  C   UNL     1      17.125  70.471  34.088  1.00  0.00    -0.003 C 
ATOM      8  C   UNL     1      17.978  69.830  35.184  1.00  0.00     0.004 C 
ENDBRANCH   6   7
ENDBRANCH   1   6
TORSDOF 4
ENDMDL
MODEL 9
REMARK VINA RESULT:    -3.465     10.088     10.817
REMARK INTER + INTRA:          -4.374
REMARK INTER:                  -4.299
REMARK INTRA:                  -0.075
REMARK UNBOUND:                -0.099
REMARK SMILES CCCCCC(=O)[O-]
REMARK SMILES IDX 4 1 5 2 6 3 7 4 8 5 3 6 2 7 1 8
REMARK H PARENT
REMARK Flexibility Score: inf
ROOT
ATOM      1  C   UNL     1      16.982  69.043  34.724  1.00  0.00     0.006 C 
ENDROOT
BRANCH   1   2
ATOM      2  C   UNL     1      18.158  69.735  35.422  1.00  0.00     0.053 C 
BRANCH   2   3
ATOM      3  C   UNL     1      18.549  68.983  36.656  1.00  0.00     0.041 C 
ATOM      4  O   UNL     1      17.722  68.224  37.225  1.00  0.00    -0.550 OA
ATOM      5  O   UNL     1      19.813  69.159  37.204  1.00  0.00    -0.550 OA
ENDBRANCH   2   3
ENDBRANCH   1   2
BRANCH   1   6
ATOM      6  C   UNL     1      16.797  69.582  33.298  1.00  0.00     0.000 C 
BRANCH   6   7
ATOM      7  C   UNL     1      15.535  69.030  32.618  1.00  0.00    -0.003 C 
ATOM      8  C   UNL     1      15.264  67.568  32.970  1.00  0.00     0.004 C 
ENDBRANCH   6   7
ENDBRANCH   1   6
TORSDOF 4
ENDMDL
