MODEL 1
REMARK VINA RESULT:    -5.587      0.000      0.000
REMARK INTER + INTRA:          -9.537
REMARK INTER:                  -8.200
REMARK INTRA:                  -1.337
REMARK UNBOUND:                -1.337
REMARK SMILES O=c1c(O[C@H]2O[C@@H](CO)[C@@H](O)[C@@H](O)[C@H]2O)c(-c2ccc(O)c(O)c2)oc2cc(O)cc(O)c12
REMARK SMILES IDX 4 1 3 2 16 3 25 4 2 5 26 6 1 7 33 8 27 9 31 10 28 11 30 12
REMARK SMILES IDX 17 13 18 14 19 15 20 16 24 17 22 18 21 19 23 21 32 23 29 25
REMARK SMILES IDX 5 27 14 28 6 29 12 30 7 31 10 32 15 33 13 35 8 37 9 38 11 40
REMARK H PARENT 21 20 23 22 32 24 29 26 15 34 13 36 9 39 11 41
REMARK Flexibility Score: inf
ROOT
ATOM      1  O   UNL     1      14.945  -6.644   7.671  1.00  0.00    -0.454 OA
ENDROOT
BRANCH   1   2
ATOM      2  C   UNL     1      14.421  -6.289   8.942  1.00  0.00     0.214 A 
ATOM      3  C   UNL     1      13.211  -5.578   9.211  1.00  0.00     0.180 A 
ATOM      4  O   UNL     1      12.862  -5.313  10.465  1.00  0.00    -0.452 OA
ATOM      5  C   UNL     1      15.199  -6.679  10.050  1.00  0.00     0.239 A 
ATOM      6  C   UNL     1      13.572  -5.677  11.523  1.00  0.00     0.146 A 
ATOM      7  O   UNL     1      16.308  -7.248   9.848  1.00  0.00    -0.285 OA
ATOM      8  C   UNL     1      14.772  -6.399  11.362  1.00  0.00     0.111 A 
ATOM      9  C   UNL     1      13.126  -5.318  12.795  1.00  0.00     0.094 A 
ATOM     10  C   UNL     1      15.503  -6.786  12.513  1.00  0.00     0.134 A 
ATOM     11  C   UNL     1      13.861  -5.678  13.927  1.00  0.00     0.123 A 
ATOM     12  C   UNL     1      15.040  -6.417  13.787  1.00  0.00     0.093 A 
BRANCH   3  13
ATOM     13  C   UNL     1      12.274  -5.084   8.194  1.00  0.00     0.025 A 
ATOM     14  C   UNL     1      11.268  -5.924   7.697  1.00  0.00     0.016 A 
ATOM     15  C   UNL     1      10.349  -5.444   6.762  1.00  0.00     0.051 A 
ATOM     16  C   UNL     1      10.391  -4.104   6.352  1.00  0.00     0.157 A 
ATOM     17  C   UNL     1      12.274  -3.726   7.836  1.00  0.00     0.062 A 
ATOM     18  C   UNL     1      11.354  -3.238   6.900  1.00  0.00     0.158 A 
BRANCH  16  19
ATOM     19  O   UNL     1       9.477  -3.631   5.413  1.00  0.00    -0.504 OA
ATOM     20  H   UNL     1       9.053  -4.245   4.727  1.00  0.00     0.293 HD
ENDBRANCH  16  19
BRANCH  18  21
ATOM     21  O   UNL     1      11.413  -1.896   6.527  1.00  0.00    -0.504 OA
ATOM     22  H   UNL     1      11.626  -1.609   5.581  1.00  0.00     0.293 HD
ENDBRANCH  18  21
ENDBRANCH   3  13
BRANCH  10  23
ATOM     23  O   UNL     1      16.678  -7.530  12.404  1.00  0.00    -0.507 OA
ATOM     24  H   UNL     1      16.705  -8.438  11.944  1.00  0.00     0.293 HD
ENDBRANCH  10  23
BRANCH  11  25
ATOM     25  O   UNL     1      13.411  -5.294  15.188  1.00  0.00    -0.508 OA
ATOM     26  H   UNL     1      14.038  -4.873  15.866  1.00  0.00     0.293 HD
ENDBRANCH  11  25
ENDBRANCH   1   2
BRANCH   1  27
ATOM     27  C   UNL     1      14.981  -5.913   6.440  1.00  0.00     0.339 C 
ATOM     28  C   UNL     1      15.042  -6.856   5.206  1.00  0.00     0.214 C 
ATOM     29  O   UNL     1      15.981  -4.894   6.503  1.00  0.00    -0.332 OA
ATOM     30  C   UNL     1      16.473  -7.275   4.830  1.00  0.00     0.180 C 
ATOM     31  C   UNL     1      17.300  -5.248   6.096  1.00  0.00     0.179 C 
ATOM     32  C   UNL     1      17.356  -6.040   4.772  1.00  0.00     0.177 C 
BRANCH  28  33
ATOM     33  O   UNL     1      14.266  -8.006   5.430  1.00  0.00    -0.384 OA
ATOM     34  H   UNL     1      14.891  -8.780   5.438  1.00  0.00     0.211 HD
ENDBRANCH  28  33
BRANCH  30  35
ATOM     35  O   UNL     1      17.009  -8.266   5.677  1.00  0.00    -0.387 OA
ATOM     36  H   UNL     1      17.358  -9.014   5.127  1.00  0.00     0.211 HD
ENDBRANCH  30  35
BRANCH  31  37
ATOM     37  C   UNL     1      18.183  -5.820   7.242  1.00  0.00     0.191 C 
BRANCH  37  38
ATOM     38  O   UNL     1      19.473  -5.276   7.238  1.00  0.00    -0.394 OA
ATOM     39  H   UNL     1      19.378  -4.304   7.045  1.00  0.00     0.210 HD
ENDBRANCH  37  38
ENDBRANCH  31  37
BRANCH  32  40
ATOM     40  O   UNL     1      18.673  -6.404   4.442  1.00  0.00    -0.387 OA
ATOM     41  H   UNL     1      18.964  -5.796   3.715  1.00  0.00     0.211 HD
ENDBRANCH  32  40
ENDBRANCH   1  27
TORSDOF 12
ENDMDL
MODEL 2
REMARK VINA RESULT:    -5.104      3.276      5.911
REMARK INTER + INTRA:          -8.828
REMARK INTER:                  -7.156
REMARK INTRA:                  -1.672
REMARK UNBOUND:                -1.337
REMARK SMILES O=c1c(O[C@H]2O[C@@H](CO)[C@@H](O)[C@@H](O)[C@H]2O)c(-c2ccc(O)c(O)c2)oc2cc(O)cc(O)c12
REMARK SMILES IDX 4 1 3 2 16 3 25 4 2 5 26 6 1 7 33 8 27 9 31 10 28 11 30 12
REMARK SMILES IDX 17 13 18 14 19 15 20 16 24 17 22 18 21 19 23 21 32 23 29 25
REMARK SMILES IDX 5 27 14 28 6 29 12 30 7 31 10 32 15 33 13 35 8 37 9 38 11 40
REMARK H PARENT 21 20 23 22 32 24 29 26 15 34 13 36 9 39 11 41
REMARK Flexibility Score: inf
ROOT
ATOM      1  O   UNL     1      15.395  -7.766   6.494  1.00  0.00    -0.454 OA
ENDROOT
BRANCH   1   2
ATOM      2  C   UNL     1      14.585  -8.774   7.081  1.00  0.00     0.214 A 
ATOM      3  C   UNL     1      14.153  -8.853   8.441  1.00  0.00     0.180 A 
ATOM      4  O   UNL     1      13.400  -9.872   8.840  1.00  0.00    -0.452 OA
ATOM      5  C   UNL     1      14.180  -9.808   6.215  1.00  0.00     0.239 A 
ATOM      6  C   UNL     1      12.999 -10.851   8.042  1.00  0.00     0.146 A 
ATOM      7  O   UNL     1      14.599  -9.807   5.025  1.00  0.00    -0.285 OA
ATOM      8  C   UNL     1      13.358 -10.853   6.679  1.00  0.00     0.111 A 
ATOM      9  C   UNL     1      12.235 -11.890   8.576  1.00  0.00     0.094 A 
ATOM     10  C   UNL     1      12.903 -11.907   5.848  1.00  0.00     0.134 A 
ATOM     11  C   UNL     1      11.809 -12.941   7.761  1.00  0.00     0.123 A 
ATOM     12  C   UNL     1      12.134 -12.945   6.400  1.00  0.00     0.093 A 
BRANCH   3  13
ATOM     13  C   UNL     1      14.476  -7.878   9.491  1.00  0.00     0.025 A 
ATOM     14  C   UNL     1      13.815  -6.643   9.532  1.00  0.00     0.016 A 
ATOM     15  C   UNL     1      14.089  -5.733  10.555  1.00  0.00     0.051 A 
ATOM     16  C   UNL     1      14.987  -6.067  11.578  1.00  0.00     0.157 A 
ATOM     17  C   UNL     1      15.323  -8.240  10.552  1.00  0.00     0.062 A 
ATOM     18  C   UNL     1      15.600  -7.332  11.581  1.00  0.00     0.158 A 
BRANCH  16  19
ATOM     19  O   UNL     1      15.264  -5.152  12.592  1.00  0.00    -0.504 OA
ATOM     20  H   UNL     1      15.034  -5.345  13.560  1.00  0.00     0.293 HD
ENDBRANCH  16  19
BRANCH  18  21
ATOM     21  O   UNL     1      16.485  -7.703  12.592  1.00  0.00    -0.504 OA
ATOM     22  H   UNL     1      16.870  -7.032  13.244  1.00  0.00     0.293 HD
ENDBRANCH  18  21
ENDBRANCH   3  13
BRANCH  10  23
ATOM     23  O   UNL     1      13.204 -11.933   4.487  1.00  0.00    -0.507 OA
ATOM     24  H   UNL     1      14.034 -11.483   4.106  1.00  0.00     0.293 HD
ENDBRANCH  10  23
BRANCH  11  25
ATOM     25  O   UNL     1      11.065 -13.980   8.314  1.00  0.00    -0.508 OA
ATOM     26  H   UNL     1      11.173 -14.248   9.287  1.00  0.00     0.293 HD
ENDBRANCH  11  25
ENDBRANCH   1   2
BRANCH   1  27
ATOM     27  C   UNL     1      15.077  -6.426   6.101  1.00  0.00     0.339 C 
ATOM     28  C   UNL     1      15.230  -6.218   4.568  1.00  0.00     0.214 C 
ATOM     29  O   UNL     1      15.768  -5.492   6.934  1.00  0.00    -0.332 OA
ATOM     30  C   UNL     1      16.660  -5.850   4.143  1.00  0.00     0.180 C 
ATOM     31  C   UNL     1      17.072  -5.089   6.520  1.00  0.00     0.179 C 
ATOM     32  C   UNL     1      17.168  -4.719   5.024  1.00  0.00     0.177 C 
BRANCH  28  33
ATOM     33  O   UNL     1      14.824  -7.372   3.875  1.00  0.00    -0.384 OA
ATOM     34  H   UNL     1      14.810  -7.139   2.908  1.00  0.00     0.211 HD
ENDBRANCH  28  33
BRANCH  30  35
ATOM     35  O   UNL     1      17.546  -6.947   4.134  1.00  0.00    -0.387 OA
ATOM     36  H   UNL     1      17.059  -7.758   3.837  1.00  0.00     0.211 HD
ENDBRANCH  30  35
BRANCH  31  37
ATOM     37  C   UNL     1      18.213  -6.005   7.046  1.00  0.00     0.191 C 
BRANCH  37  38
ATOM     38  O   UNL     1      19.412  -5.305   7.229  1.00  0.00    -0.394 OA
ATOM     39  H   UNL     1      19.878  -5.726   8.001  1.00  0.00     0.210 HD
ENDBRANCH  37  38
ENDBRANCH  31  37
BRANCH  32  40
ATOM     40  O   UNL     1      18.481  -4.375   4.659  1.00  0.00    -0.387 OA
ATOM     41  H   UNL     1      18.955  -5.224   4.466  1.00  0.00     0.211 HD
ENDBRANCH  32  40
ENDBRANCH   1  27
TORSDOF 12
ENDMDL
MODEL 3
REMARK VINA RESULT:    -5.064      5.508      7.933
REMARK INTER + INTRA:          -8.770
REMARK INTER:                  -6.862
REMARK INTRA:                  -1.908
REMARK UNBOUND:                -1.337
REMARK SMILES O=c1c(O[C@H]2O[C@@H](CO)[C@@H](O)[C@@H](O)[C@H]2O)c(-c2ccc(O)c(O)c2)oc2cc(O)cc(O)c12
REMARK SMILES IDX 4 1 3 2 16 3 25 4 2 5 26 6 1 7 33 8 27 9 31 10 28 11 30 12
REMARK SMILES IDX 17 13 18 14 19 15 20 16 24 17 22 18 21 19 23 21 32 23 29 25
REMARK SMILES IDX 5 27 14 28 6 29 12 30 7 31 10 32 15 33 13 35 8 37 9 38 11 40
REMARK H PARENT 21 20 23 22 32 24 29 26 15 34 13 36 9 39 11 41
REMARK Flexibility Score: inf
ROOT
ATOM      1  O   UNL     1      14.060 -11.188   8.595  1.00  0.00    -0.454 OA
ENDROOT
BRANCH   1   2
ATOM      2  C   UNL     1      14.346 -10.503   9.805  1.00  0.00     0.214 A 
ATOM      3  C   UNL     1      14.339 -11.044  11.128  1.00  0.00     0.180 A 
ATOM      4  O   UNL     1      14.622 -10.264  12.165  1.00  0.00    -0.452 OA
ATOM      5  C   UNL     1      14.659  -9.136   9.670  1.00  0.00     0.239 A 
ATOM      6  C   UNL     1      14.928  -8.979  12.062  1.00  0.00     0.146 A 
ATOM      7  O   UNL     1      14.607  -8.608   8.525  1.00  0.00    -0.285 OA
ATOM      8  C   UNL     1      14.979  -8.358  10.798  1.00  0.00     0.111 A 
ATOM      9  C   UNL     1      15.179  -8.248  13.224  1.00  0.00     0.094 A 
ATOM     10  C   UNL     1      15.323  -6.985  10.719  1.00  0.00     0.134 A 
ATOM     11  C   UNL     1      15.491  -6.889  13.146  1.00  0.00     0.123 A 
ATOM     12  C   UNL     1      15.572  -6.262  11.897  1.00  0.00     0.093 A 
BRANCH   3  13
ATOM     13  C   UNL     1      14.032 -12.439  11.471  1.00  0.00     0.025 A 
ATOM     14  C   UNL     1      12.726 -12.926  11.330  1.00  0.00     0.016 A 
ATOM     15  C   UNL     1      12.439 -14.263  11.614  1.00  0.00     0.051 A 
ATOM     16  C   UNL     1      13.465 -15.141  11.993  1.00  0.00     0.157 A 
ATOM     17  C   UNL     1      15.069 -13.333  11.783  1.00  0.00     0.062 A 
ATOM     18  C   UNL     1      14.789 -14.674  12.068  1.00  0.00     0.158 A 
BRANCH  16  19
ATOM     19  O   UNL     1      13.174 -16.473  12.284  1.00  0.00    -0.504 OA
ATOM     20  H   UNL     1      12.348 -16.734  12.809  1.00  0.00     0.293 HD
ENDBRANCH  16  19
BRANCH  18  21
ATOM     21  O   UNL     1      15.835 -15.525  12.424  1.00  0.00    -0.504 OA
ATOM     22  H   UNL     1      16.140 -16.282  11.827  1.00  0.00     0.293 HD
ENDBRANCH  18  21
ENDBRANCH   3  13
BRANCH  10  23
ATOM     23  O   UNL     1      15.419  -6.336   9.489  1.00  0.00    -0.507 OA
ATOM     24  H   UNL     1      15.117  -5.372   9.358  1.00  0.00     0.293 HD
ENDBRANCH  10  23
BRANCH  11  25
ATOM     25  O   UNL     1      15.718  -6.168  14.316  1.00  0.00    -0.508 OA
ATOM     26  H   UNL     1      16.317  -6.529  15.050  1.00  0.00     0.293 HD
ENDBRANCH  11  25
ENDBRANCH   1   2
BRANCH   1  27
ATOM     27  C   UNL     1      14.783 -12.219   7.914  1.00  0.00     0.339 C 
ATOM     28  C   UNL     1      15.017 -11.874   6.416  1.00  0.00     0.214 C 
ATOM     29  O   UNL     1      14.192 -13.493   8.180  1.00  0.00    -0.332 OA
ATOM     30  C   UNL     1      13.850 -12.291   5.506  1.00  0.00     0.180 C 
ATOM     31  C   UNL     1      13.152 -13.925   7.306  1.00  0.00     0.179 C 
ATOM     32  C   UNL     1      13.472 -13.732   5.808  1.00  0.00     0.177 C 
BRANCH  28  33
ATOM     33  O   UNL     1      15.253 -10.496   6.263  1.00  0.00    -0.384 OA
ATOM     34  H   UNL     1      14.721 -10.197   5.478  1.00  0.00     0.211 HD
ENDBRANCH  28  33
BRANCH  30  35
ATOM     35  O   UNL     1      12.738 -11.429   5.584  1.00  0.00    -0.387 OA
ATOM     36  H   UNL     1      12.638 -11.107   6.517  1.00  0.00     0.211 HD
ENDBRANCH  30  35
BRANCH  31  37
ATOM     37  C   UNL     1      11.731 -13.466   7.739  1.00  0.00     0.191 C 
BRANCH  37  38
ATOM     38  O   UNL     1      10.737 -14.367   7.335  1.00  0.00    -0.394 OA
ATOM     39  H   UNL     1      10.617 -14.245   6.355  1.00  0.00     0.210 HD
ENDBRANCH  37  38
ENDBRANCH  31  37
BRANCH  32  40
ATOM     40  O   UNL     1      12.398 -14.130   4.994  1.00  0.00    -0.387 OA
ATOM     41  H   UNL     1      11.706 -13.423   5.068  1.00  0.00     0.211 HD
ENDBRANCH  32  40
ENDBRANCH   1  27
TORSDOF 12
ENDMDL
MODEL 4
REMARK VINA RESULT:    -5.002      5.001      7.292
REMARK INTER + INTRA:          -8.678
REMARK INTER:                  -6.949
REMARK INTRA:                  -1.729
REMARK UNBOUND:                -1.337
REMARK SMILES O=c1c(O[C@H]2O[C@@H](CO)[C@@H](O)[C@@H](O)[C@H]2O)c(-c2ccc(O)c(O)c2)oc2cc(O)cc(O)c12
REMARK SMILES IDX 4 1 3 2 16 3 25 4 2 5 26 6 1 7 33 8 27 9 31 10 28 11 30 12
REMARK SMILES IDX 17 13 18 14 19 15 20 16 24 17 22 18 21 19 23 21 32 23 29 25
REMARK SMILES IDX 5 27 14 28 6 29 12 30 7 31 10 32 15 33 13 35 8 37 9 38 11 40
REMARK H PARENT 21 20 23 22 32 24 29 26 15 34 13 36 9 39 11 41
REMARK Flexibility Score: inf
ROOT
ATOM      1  O   UNL     1      14.380 -10.920   8.849  1.00  0.00    -0.454 OA
ENDROOT
BRANCH   1   2
ATOM      2  C   UNL     1      14.543 -10.279  10.105  1.00  0.00     0.214 A 
ATOM      3  C   UNL     1      14.422 -10.871  11.401  1.00  0.00     0.180 A 
ATOM      4  O   UNL     1      14.597 -10.128  12.488  1.00  0.00    -0.452 OA
ATOM      5  C   UNL     1      14.845  -8.904  10.051  1.00  0.00     0.239 A 
ATOM      6  C   UNL     1      14.891  -8.837  12.462  1.00  0.00     0.146 A 
ATOM      7  O   UNL     1      14.891  -8.333   8.926  1.00  0.00    -0.285 OA
ATOM      8  C   UNL     1      15.049  -8.166  11.232  1.00  0.00     0.111 A 
ATOM      9  C   UNL     1      15.022  -8.148  13.668  1.00  0.00     0.094 A 
ATOM     10  C   UNL     1      15.377  -6.787  11.237  1.00  0.00     0.134 A 
ATOM     11  C   UNL     1      15.320  -6.783  13.670  1.00  0.00     0.123 A 
ATOM     12  C   UNL     1      15.505  -6.108  12.459  1.00  0.00     0.093 A 
BRANCH   3  13
ATOM     13  C   UNL     1      14.106 -12.281  11.662  1.00  0.00     0.025 A 
ATOM     14  C   UNL     1      12.787 -12.739  11.547  1.00  0.00     0.016 A 
ATOM     15  C   UNL     1      12.490 -14.088  11.753  1.00  0.00     0.051 A 
ATOM     16  C   UNL     1      13.516 -15.005  12.023  1.00  0.00     0.157 A 
ATOM     17  C   UNL     1      15.141 -13.210  11.865  1.00  0.00     0.062 A 
ATOM     18  C   UNL     1      14.850 -14.563  12.070  1.00  0.00     0.158 A 
BRANCH  16  19
ATOM     19  O   UNL     1      13.215 -16.349  12.236  1.00  0.00    -0.504 OA
ATOM     20  H   UNL     1      12.324 -16.640  12.620  1.00  0.00     0.293 HD
ENDBRANCH  16  19
BRANCH  18  21
ATOM     21  O   UNL     1      15.896 -15.451  12.320  1.00  0.00    -0.504 OA
ATOM     22  H   UNL     1      15.817 -16.442  12.133  1.00  0.00     0.293 HD
ENDBRANCH  18  21
ENDBRANCH   3  13
BRANCH  10  23
ATOM     23  O   UNL     1      15.576  -6.090  10.046  1.00  0.00    -0.507 OA
ATOM     24  H   UNL     1      16.415  -5.540   9.871  1.00  0.00     0.293 HD
ENDBRANCH  10  23
BRANCH  11  25
ATOM     25  O   UNL     1      15.426  -6.106  14.882  1.00  0.00    -0.508 OA
ATOM     26  H   UNL     1      16.281  -5.626  15.145  1.00  0.00     0.293 HD
ENDBRANCH  11  25
ENDBRANCH   1   2
BRANCH   1  27
ATOM     27  C   UNL     1      13.236 -11.557   8.270  1.00  0.00     0.339 C 
ATOM     28  C   UNL     1      13.588 -12.946   7.666  1.00  0.00     0.214 C 
ATOM     29  O   UNL     1      12.554 -10.649   7.401  1.00  0.00    -0.332 OA
ATOM     30  C   UNL     1      14.098 -12.869   6.218  1.00  0.00     0.180 C 
ATOM     31  C   UNL     1      12.972 -10.612   6.038  1.00  0.00     0.179 C 
ATOM     32  C   UNL     1      13.151 -12.007   5.400  1.00  0.00     0.177 C 
BRANCH  28  33
ATOM     33  O   UNL     1      14.547 -13.596   8.461  1.00  0.00    -0.384 OA
ATOM     34  H   UNL     1      14.928 -12.911   9.073  1.00  0.00     0.211 HD
ENDBRANCH  28  33
BRANCH  30  35
ATOM     35  O   UNL     1      15.433 -12.429   6.114  1.00  0.00    -0.387 OA
ATOM     36  H   UNL     1      15.940 -12.731   6.911  1.00  0.00     0.211 HD
ENDBRANCH  30  35
BRANCH  31  37
ATOM     37  C   UNL     1      14.124  -9.606   5.757  1.00  0.00     0.191 C 
BRANCH  37  38
ATOM     38  O   UNL     1      15.209  -9.789   6.624  1.00  0.00    -0.394 OA
ATOM     39  H   UNL     1      15.965 -10.132   6.074  1.00  0.00     0.210 HD
ENDBRANCH  37  38
ENDBRANCH  31  37
BRANCH  32  40
ATOM     40  O   UNL     1      13.608 -11.913   4.074  1.00  0.00    -0.387 OA
ATOM     41  H   UNL     1      13.956 -10.992   3.956  1.00  0.00     0.211 HD
ENDBRANCH  32  40
ENDBRANCH   1  27
TORSDOF 12
ENDMDL
MODEL 5
REMARK VINA RESULT:    -4.978      2.458      7.632
REMARK INTER + INTRA:          -8.643
REMARK INTER:                  -6.667
REMARK INTRA:                  -1.976
REMARK UNBOUND:                -1.337
REMARK SMILES O=c1c(O[C@H]2O[C@@H](CO)[C@@H](O)[C@@H](O)[C@H]2O)c(-c2ccc(O)c(O)c2)oc2cc(O)cc(O)c12
REMARK SMILES IDX 4 1 3 2 16 3 25 4 2 5 26 6 1 7 33 8 27 9 31 10 28 11 30 12
REMARK SMILES IDX 17 13 18 14 19 15 20 16 24 17 22 18 21 19 23 21 32 23 29 25
REMARK SMILES IDX 5 27 14 28 6 29 12 30 7 31 10 32 15 33 13 35 8 37 9 38 11 40
REMARK H PARENT 21 20 23 22 32 24 29 26 15 34 13 36 9 39 11 41
REMARK Flexibility Score: inf
ROOT
ATOM      1  O   UNL     1      12.842  -7.103   8.584  1.00  0.00    -0.454 OA
ENDROOT
BRANCH   1   2
ATOM      2  C   UNL     1      14.176  -6.822   8.186  1.00  0.00     0.214 A 
ATOM      3  C   UNL     1      15.339  -6.799   9.017  1.00  0.00     0.180 A 
ATOM      4  O   UNL     1      16.524  -6.507   8.491  1.00  0.00    -0.452 OA
ATOM      5  C   UNL     1      14.353  -6.523   6.822  1.00  0.00     0.239 A 
ATOM      6  C   UNL     1      16.716  -6.232   7.210  1.00  0.00     0.146 A 
ATOM      7  O   UNL     1      13.339  -6.466   6.072  1.00  0.00    -0.285 OA
ATOM      8  C   UNL     1      15.634  -6.246   6.307  1.00  0.00     0.111 A 
ATOM      9  C   UNL     1      18.001  -5.908   6.772  1.00  0.00     0.094 A 
ATOM     10  C   UNL     1      15.874  -5.961   4.939  1.00  0.00     0.134 A 
ATOM     11  C   UNL     1      18.231  -5.602   5.429  1.00  0.00     0.123 A 
ATOM     12  C   UNL     1      17.173  -5.637   4.515  1.00  0.00     0.093 A 
BRANCH   3  13
ATOM     13  C   UNL     1      15.357  -7.075  10.460  1.00  0.00     0.025 A 
ATOM     14  C   UNL     1      15.250  -6.022  11.378  1.00  0.00     0.016 A 
ATOM     15  C   UNL     1      15.223  -6.285  12.749  1.00  0.00     0.051 A 
ATOM     16  C   UNL     1      15.248  -7.606  13.217  1.00  0.00     0.157 A 
ATOM     17  C   UNL     1      15.312  -8.400  10.924  1.00  0.00     0.062 A 
ATOM     18  C   UNL     1      15.283  -8.670  12.297  1.00  0.00     0.158 A 
BRANCH  16  19
ATOM     19  O   UNL     1      15.228  -7.864  14.586  1.00  0.00    -0.504 OA
ATOM     20  H   UNL     1      14.594  -8.543  14.991  1.00  0.00     0.293 HD
ENDBRANCH  16  19
BRANCH  18  21
ATOM     21  O   UNL     1      15.291  -9.996  12.728  1.00  0.00    -0.504 OA
ATOM     22  H   UNL     1      16.135 -10.453  13.049  1.00  0.00     0.293 HD
ENDBRANCH  18  21
ENDBRANCH   3  13
BRANCH  10  23
ATOM     23  O   UNL     1      14.841  -5.997   4.004  1.00  0.00    -0.507 OA
ATOM     24  H   UNL     1      14.673  -5.235   3.350  1.00  0.00     0.293 HD
ENDBRANCH  10  23
BRANCH  11  25
ATOM     25  O   UNL     1      19.515  -5.260   5.013  1.00  0.00    -0.508 OA
ATOM     26  H   UNL     1      20.320  -5.396   5.617  1.00  0.00     0.293 HD
ENDBRANCH  11  25
ENDBRANCH   1   2
BRANCH   1  27
ATOM     27  C   UNL     1      12.120  -8.339   8.614  1.00  0.00     0.339 C 
ATOM     28  C   UNL     1      10.657  -8.169   8.116  1.00  0.00     0.214 C 
ATOM     29  O   UNL     1      12.281  -8.971   9.885  1.00  0.00    -0.332 OA
ATOM     30  C   UNL     1       9.682  -7.739   9.224  1.00  0.00     0.180 C 
ATOM     31  C   UNL     1      11.345  -8.633  10.907  1.00  0.00     0.179 C 
ATOM     32  C   UNL     1       9.875  -8.637  10.435  1.00  0.00     0.177 C 
BRANCH  28  33
ATOM     33  O   UNL     1      10.603  -7.237   7.065  1.00  0.00    -0.384 OA
ATOM     34  H   UNL     1      10.845  -6.352   7.450  1.00  0.00     0.211 HD
ENDBRANCH  28  33
BRANCH  30  35
ATOM     35  O   UNL     1       9.780  -6.373   9.562  1.00  0.00    -0.387 OA
ATOM     36  H   UNL     1       9.957  -6.287  10.533  1.00  0.00     0.211 HD
ENDBRANCH  30  35
BRANCH  31  37
ATOM     37  C   UNL     1      11.760  -7.401  11.760  1.00  0.00     0.191 C 
BRANCH  37  38
ATOM     38  O   UNL     1      11.458  -7.571  13.117  1.00  0.00    -0.394 OA
ATOM     39  H   UNL     1      11.329  -6.661  13.501  1.00  0.00     0.210 HD
ENDBRANCH  37  38
ENDBRANCH  31  37
BRANCH  32  40
ATOM     40  O   UNL     1       9.001  -8.252  11.466  1.00  0.00    -0.387 OA
ATOM     41  H   UNL     1       8.099  -8.173  11.062  1.00  0.00     0.211 HD
ENDBRANCH  32  40
ENDBRANCH   1  27
TORSDOF 12
ENDMDL
MODEL 6
REMARK VINA RESULT:    -4.963      3.827      6.884
REMARK INTER + INTRA:          -8.622
REMARK INTER:                  -6.713
REMARK INTRA:                  -1.909
REMARK UNBOUND:                -1.337
REMARK SMILES O=c1c(O[C@H]2O[C@@H](CO)[C@@H](O)[C@@H](O)[C@H]2O)c(-c2ccc(O)c(O)c2)oc2cc(O)cc(O)c12
REMARK SMILES IDX 4 1 3 2 16 3 25 4 2 5 26 6 1 7 33 8 27 9 31 10 28 11 30 12
REMARK SMILES IDX 17 13 18 14 19 15 20 16 24 17 22 18 21 19 23 21 32 23 29 25
REMARK SMILES IDX 5 27 14 28 6 29 12 30 7 31 10 32 15 33 13 35 8 37 9 38 11 40
REMARK H PARENT 21 20 23 22 32 24 29 26 15 34 13 36 9 39 11 41
REMARK Flexibility Score: inf
ROOT
ATOM      1  O   UNL     1      13.826  -8.415   9.467  1.00  0.00    -0.454 OA
ENDROOT
BRANCH   1   2
ATOM      2  C   UNL     1      14.194  -9.574  10.198  1.00  0.00     0.214 A 
ATOM      3  C   UNL     1      14.603  -9.640  11.567  1.00  0.00     0.180 A 
ATOM      4  O   UNL     1      14.927 -10.810  12.107  1.00  0.00    -0.452 OA
ATOM      5  C   UNL     1      14.158 -10.784   9.478  1.00  0.00     0.239 A 
ATOM      6  C   UNL     1      14.891 -11.961  11.452  1.00  0.00     0.146 A 
ATOM      7  O   UNL     1      13.868 -10.755   8.250  1.00  0.00    -0.285 OA
ATOM      8  C   UNL     1      14.483 -12.003  10.104  1.00  0.00     0.111 A 
ATOM      9  C   UNL     1      15.283 -13.127  12.111  1.00  0.00     0.094 A 
ATOM     10  C   UNL     1      14.443 -13.251   9.434  1.00  0.00     0.134 A 
ATOM     11  C   UNL     1      15.267 -14.353  11.442  1.00  0.00     0.123 A 
ATOM     12  C   UNL     1      14.840 -14.416  10.111  1.00  0.00     0.093 A 
BRANCH   3  13
ATOM     13  C   UNL     1      14.710  -8.491  12.476  1.00  0.00     0.025 A 
ATOM     14  C   UNL     1      15.860  -7.691  12.464  1.00  0.00     0.016 A 
ATOM     15  C   UNL     1      15.947  -6.573  13.296  1.00  0.00     0.051 A 
ATOM     16  C   UNL     1      14.865  -6.211  14.111  1.00  0.00     0.157 A 
ATOM     17  C   UNL     1      13.601  -8.091  13.239  1.00  0.00     0.062 A 
ATOM     18  C   UNL     1      13.682  -6.970  14.074  1.00  0.00     0.158 A 
BRANCH  16  19
ATOM     19  O   UNL     1      14.959  -5.099  14.945  1.00  0.00    -0.504 OA
ATOM     20  H   UNL     1      15.099  -5.194  15.944  1.00  0.00     0.293 HD
ENDBRANCH  16  19
BRANCH  18  21
ATOM     21  O   UNL     1      12.581  -6.628  14.858  1.00  0.00    -0.504 OA
ATOM     22  H   UNL     1      12.123  -7.296  15.465  1.00  0.00     0.293 HD
ENDBRANCH  18  21
ENDBRANCH   3  13
BRANCH  10  23
ATOM     23  O   UNL     1      14.014 -13.346   8.111  1.00  0.00    -0.507 OA
ATOM     24  H   UNL     1      14.190 -12.610   7.429  1.00  0.00     0.293 HD
ENDBRANCH  10  23
BRANCH  11  25
ATOM     25  O   UNL     1      15.681 -15.504  12.108  1.00  0.00    -0.508 OA
ATOM     26  H   UNL     1      16.473 -15.491  12.742  1.00  0.00     0.293 HD
ENDBRANCH  11  25
ENDBRANCH   1   2
BRANCH   1  27
ATOM     27  C   UNL     1      12.534  -7.912   9.105  1.00  0.00     0.339 C 
ATOM     28  C   UNL     1      12.512  -7.360   7.652  1.00  0.00     0.214 C 
ATOM     29  O   UNL     1      12.048  -7.031  10.119  1.00  0.00    -0.332 OA
ATOM     30  C   UNL     1      12.952  -5.891   7.552  1.00  0.00     0.180 C 
ATOM     31  C   UNL     1      12.393  -5.652  10.006  1.00  0.00     0.179 C 
ATOM     32  C   UNL     1      12.200  -5.072   8.588  1.00  0.00     0.177 C 
BRANCH  28  33
ATOM     33  O   UNL     1      13.327  -8.145   6.818  1.00  0.00    -0.384 OA
ATOM     34  H   UNL     1      13.930  -8.668   7.411  1.00  0.00     0.211 HD
ENDBRANCH  28  33
BRANCH  30  35
ATOM     35  O   UNL     1      14.347  -5.713   7.652  1.00  0.00    -0.387 OA
ATOM     36  H   UNL     1      14.657  -6.044   8.533  1.00  0.00     0.211 HD
ENDBRANCH  30  35
BRANCH  31  37
ATOM     37  C   UNL     1      13.737  -5.278  10.693  1.00  0.00     0.191 C 
BRANCH  37  38
ATOM     38  O   UNL     1      13.660  -4.060  11.380  1.00  0.00    -0.394 OA
ATOM     39  H   UNL     1      13.949  -3.350  10.745  1.00  0.00     0.210 HD
ENDBRANCH  37  38
ENDBRANCH  31  37
BRANCH  32  40
ATOM     40  O   UNL     1      12.598  -3.726   8.522  1.00  0.00    -0.387 OA
ATOM     41  H   UNL     1      12.969  -3.582   7.614  1.00  0.00     0.211 HD
ENDBRANCH  32  40
ENDBRANCH   1  27
TORSDOF 12
ENDMDL
MODEL 7
REMARK VINA RESULT:    -4.962      4.075      5.915
REMARK INTER + INTRA:          -8.619
REMARK INTER:                  -6.849
REMARK INTRA:                  -1.770
REMARK UNBOUND:                -1.337
REMARK SMILES O=c1c(O[C@H]2O[C@@H](CO)[C@@H](O)[C@@H](O)[C@H]2O)c(-c2ccc(O)c(O)c2)oc2cc(O)cc(O)c12
REMARK SMILES IDX 4 1 3 2 16 3 25 4 2 5 26 6 1 7 33 8 27 9 31 10 28 11 30 12
REMARK SMILES IDX 17 13 18 14 19 15 20 16 24 17 22 18 21 19 23 21 32 23 29 25
REMARK SMILES IDX 5 27 14 28 6 29 12 30 7 31 10 32 15 33 13 35 8 37 9 38 11 40
REMARK H PARENT 21 20 23 22 32 24 29 26 15 34 13 36 9 39 11 41
REMARK Flexibility Score: inf
ROOT
ATOM      1  O   UNL     1      14.754  -9.094   8.473  1.00  0.00    -0.454 OA
ENDROOT
BRANCH   1   2
ATOM      2  C   UNL     1      14.500 -10.070   9.472  1.00  0.00     0.214 A 
ATOM      3  C   UNL     1      14.364  -9.853  10.878  1.00  0.00     0.180 A 
ATOM      4  O   UNL     1      14.134 -10.881  11.689  1.00  0.00    -0.452 OA
ATOM      5  C   UNL     1      14.383 -11.395   9.010  1.00  0.00     0.239 A 
ATOM      6  C   UNL     1      14.011 -12.134  11.276  1.00  0.00     0.146 A 
ATOM      7  O   UNL     1      14.565 -11.633   7.784  1.00  0.00    -0.285 OA
ATOM      8  C   UNL     1      14.111 -12.447   9.906  1.00  0.00     0.111 A 
ATOM      9  C   UNL     1      13.801 -13.139  12.221  1.00  0.00     0.094 A 
ATOM     10  C   UNL     1      13.961 -13.795   9.494  1.00  0.00     0.134 A 
ATOM     11  C   UNL     1      13.679 -14.471  11.816  1.00  0.00     0.123 A 
ATOM     12  C   UNL     1      13.750 -14.796  10.457  1.00  0.00     0.093 A 
BRANCH   3  13
ATOM     13  C   UNL     1      14.461  -8.550  11.549  1.00  0.00     0.025 A 
ATOM     14  C   UNL     1      15.670  -8.147  12.131  1.00  0.00     0.016 A 
ATOM     15  C   UNL     1      15.778  -6.891  12.731  1.00  0.00     0.051 A 
ATOM     16  C   UNL     1      14.695  -6.001  12.710  1.00  0.00     0.157 A 
ATOM     17  C   UNL     1      13.399  -7.634  11.466  1.00  0.00     0.062 A 
ATOM     18  C   UNL     1      13.502  -6.373  12.065  1.00  0.00     0.158 A 
BRANCH  16  19
ATOM     19  O   UNL     1      14.804  -4.752  13.316  1.00  0.00    -0.504 OA
ATOM     20  H   UNL     1      14.478  -4.589  14.262  1.00  0.00     0.293 HD
ENDBRANCH  16  19
BRANCH  18  21
ATOM     21  O   UNL     1      12.411  -5.506  12.010  1.00  0.00    -0.504 OA
ATOM     22  H   UNL     1      12.356  -4.752  11.337  1.00  0.00     0.293 HD
ENDBRANCH  18  21
ENDBRANCH   3  13
BRANCH  10  23
ATOM     23  O   UNL     1      14.019 -14.148   8.147  1.00  0.00    -0.507 OA
ATOM     24  H   UNL     1      13.529 -13.621   7.426  1.00  0.00     0.293 HD
ENDBRANCH  10  23
BRANCH  11  25
ATOM     25  O   UNL     1      13.490 -15.464  12.773  1.00  0.00    -0.508 OA
ATOM     26  H   UNL     1      12.806 -15.360  13.514  1.00  0.00     0.293 HD
ENDBRANCH  11  25
ENDBRANCH   1   2
BRANCH   1  27
ATOM     27  C   UNL     1      13.889  -8.117   7.882  1.00  0.00     0.339 C 
ATOM     28  C   UNL     1      13.723  -8.338   6.352  1.00  0.00     0.214 C 
ATOM     29  O   UNL     1      14.280  -6.804   8.289  1.00  0.00    -0.332 OA
ATOM     30  C   UNL     1      14.821  -7.660   5.516  1.00  0.00     0.180 C 
ATOM     31  C   UNL     1      15.250  -6.134   7.487  1.00  0.00     0.179 C 
ATOM     32  C   UNL     1      14.975  -6.217   5.970  1.00  0.00     0.177 C 
BRANCH  28  33
ATOM     33  O   UNL     1      13.699  -9.712   6.056  1.00  0.00    -0.384 OA
ATOM     34  H   UNL     1      13.834  -9.799   5.075  1.00  0.00     0.211 HD
ENDBRANCH  28  33
BRANCH  30  35
ATOM     35  O   UNL     1      16.050  -8.351   5.534  1.00  0.00    -0.387 OA
ATOM     36  H   UNL     1      15.946  -9.192   6.048  1.00  0.00     0.211 HD
ENDBRANCH  30  35
BRANCH  31  37
ATOM     37  C   UNL     1      16.721  -6.418   7.906  1.00  0.00     0.191 C 
BRANCH  37  38
ATOM     38  O   UNL     1      16.800  -7.197   9.066  1.00  0.00    -0.394 OA
ATOM     39  H   UNL     1      17.746  -7.165   9.374  1.00  0.00     0.210 HD
ENDBRANCH  37  38
ENDBRANCH  31  37
BRANCH  32  40
ATOM     40  O   UNL     1      15.984  -5.582   5.226  1.00  0.00    -0.387 OA
ATOM     41  H   UNL     1      15.838  -4.606   5.321  1.00  0.00     0.211 HD
ENDBRANCH  32  40
ENDBRANCH   1  27
TORSDOF 12
ENDMDL
MODEL 8
REMARK VINA RESULT:    -4.922      1.908      7.361
REMARK INTER + INTRA:          -8.562
REMARK INTER:                  -7.106
REMARK INTRA:                  -1.456
REMARK UNBOUND:                -1.337
REMARK SMILES O=c1c(O[C@H]2O[C@@H](CO)[C@@H](O)[C@@H](O)[C@H]2O)c(-c2ccc(O)c(O)c2)oc2cc(O)cc(O)c12
REMARK SMILES IDX 4 1 3 2 16 3 25 4 2 5 26 6 1 7 33 8 27 9 31 10 28 11 30 12
REMARK SMILES IDX 17 13 18 14 19 15 20 16 24 17 22 18 21 19 23 21 32 23 29 25
REMARK SMILES IDX 5 27 14 28 6 29 12 30 7 31 10 32 15 33 13 35 8 37 9 38 11 40
REMARK H PARENT 21 20 23 22 32 24 29 26 15 34 13 36 9 39 11 41
REMARK Flexibility Score: inf
ROOT
ATOM      1  O   UNL     1      12.870  -7.169   8.596  1.00  0.00    -0.454 OA
ENDROOT
BRANCH   1   2
ATOM      2  C   UNL     1      14.203  -6.880   8.201  1.00  0.00     0.214 A 
ATOM      3  C   UNL     1      15.370  -6.882   9.027  1.00  0.00     0.180 A 
ATOM      4  O   UNL     1      16.553  -6.578   8.503  1.00  0.00    -0.452 OA
ATOM      5  C   UNL     1      14.374  -6.545   6.844  1.00  0.00     0.239 A 
ATOM      6  C   UNL     1      16.740  -6.270   7.228  1.00  0.00     0.146 A 
ATOM      7  O   UNL     1      13.357  -6.467   6.101  1.00  0.00    -0.285 OA
ATOM      8  C   UNL     1      15.653  -6.258   6.331  1.00  0.00     0.111 A 
ATOM      9  C   UNL     1      18.023  -5.937   6.794  1.00  0.00     0.094 A 
ATOM     10  C   UNL     1      15.888  -5.937   4.970  1.00  0.00     0.134 A 
ATOM     11  C   UNL     1      18.248  -5.595   5.458  1.00  0.00     0.123 A 
ATOM     12  C   UNL     1      17.185  -5.605   4.548  1.00  0.00     0.093 A 
BRANCH   3  13
ATOM     13  C   UNL     1      15.393  -7.196  10.461  1.00  0.00     0.025 A 
ATOM     14  C   UNL     1      15.415  -6.162  11.407  1.00  0.00     0.016 A 
ATOM     15  C   UNL     1      15.393  -6.457  12.771  1.00  0.00     0.051 A 
ATOM     16  C   UNL     1      15.296  -7.786  13.207  1.00  0.00     0.157 A 
ATOM     17  C   UNL     1      15.226  -8.522  10.895  1.00  0.00     0.062 A 
ATOM     18  C   UNL     1      15.202  -8.823  12.262  1.00  0.00     0.158 A 
BRANCH  16  19
ATOM     19  O   UNL     1      15.283  -8.077  14.569  1.00  0.00    -0.504 OA
ATOM     20  H   UNL     1      14.632  -7.628  15.203  1.00  0.00     0.293 HD
ENDBRANCH  16  19
BRANCH  18  21
ATOM     21  O   UNL     1      15.087 -10.154  12.660  1.00  0.00    -0.504 OA
ATOM     22  H   UNL     1      15.895 -10.724  12.876  1.00  0.00     0.293 HD
ENDBRANCH  18  21
ENDBRANCH   3  13
BRANCH  10  23
ATOM     23  O   UNL     1      14.850  -5.946   4.039  1.00  0.00    -0.507 OA
ATOM     24  H   UNL     1      15.020  -5.922   3.035  1.00  0.00     0.293 HD
ENDBRANCH  10  23
BRANCH  11  25
ATOM     25  O   UNL     1      19.531  -5.246   5.046  1.00  0.00    -0.508 OA
ATOM     26  H   UNL     1      20.217  -5.951   4.800  1.00  0.00     0.293 HD
ENDBRANCH  11  25
ENDBRANCH   1   2
BRANCH   1  27
ATOM     27  C   UNL     1      12.126  -6.745   9.745  1.00  0.00     0.339 C 
ATOM     28  C   UNL     1      10.635  -7.179   9.663  1.00  0.00     0.214 C 
ATOM     29  O   UNL     1      12.365  -5.360  10.001  1.00  0.00    -0.332 OA
ATOM     30  C   UNL     1       9.751  -6.178   8.901  1.00  0.00     0.180 C 
ATOM     31  C   UNL     1      11.511  -4.419   9.353  1.00  0.00     0.179 C 
ATOM     32  C   UNL     1      10.011  -4.777   9.430  1.00  0.00     0.177 C 
BRANCH  28  33
ATOM     33  O   UNL     1      10.526  -8.444   9.062  1.00  0.00    -0.384 OA
ATOM     34  H   UNL     1       9.555  -8.643   8.979  1.00  0.00     0.211 HD
ENDBRANCH  28  33
BRANCH  30  35
ATOM     35  O   UNL     1       9.901  -6.247   7.501  1.00  0.00    -0.387 OA
ATOM     36  H   UNL     1       9.072  -5.920   7.066  1.00  0.00     0.211 HD
ENDBRANCH  30  35
BRANCH  31  37
ATOM     37  C   UNL     1      12.011  -3.977   7.948  1.00  0.00     0.191 C 
BRANCH  37  38
ATOM     38  O   UNL     1      11.536  -2.708   7.593  1.00  0.00    -0.394 OA
ATOM     39  H   UNL     1      10.557  -2.797   7.438  1.00  0.00     0.210 HD
ENDBRANCH  37  38
ENDBRANCH  31  37
BRANCH  32  40
ATOM     40  O   UNL     1       9.221  -3.845   8.737  1.00  0.00    -0.387 OA
ATOM     41  H   UNL     1       9.628  -2.954   8.892  1.00  0.00     0.211 HD
ENDBRANCH  32  40
ENDBRANCH   1  27
TORSDOF 12
ENDMDL
MODEL 9
REMARK VINA RESULT:    -4.806     11.325     15.353
REMARK INTER + INTRA:          -8.390
REMARK INTER:                  -6.614
REMARK INTRA:                  -1.776
REMARK UNBOUND:                -1.337
REMARK SMILES O=c1c(O[C@H]2O[C@@H](CO)[C@@H](O)[C@@H](O)[C@H]2O)c(-c2ccc(O)c(O)c2)oc2cc(O)cc(O)c12
REMARK SMILES IDX 4 1 3 2 16 3 25 4 2 5 26 6 1 7 33 8 27 9 31 10 28 11 30 12
REMARK SMILES IDX 17 13 18 14 19 15 20 16 24 17 22 18 21 19 23 21 32 23 29 25
REMARK SMILES IDX 5 27 14 28 6 29 12 30 7 31 10 32 15 33 13 35 8 37 9 38 11 40
REMARK H PARENT 21 20 23 22 32 24 29 26 15 34 13 36 9 39 11 41
REMARK Flexibility Score: inf
ROOT
ATOM      1  O   UNL     1      18.430 -13.551  21.160  1.00  0.00    -0.454 OA
ENDROOT
BRANCH   1   2
ATOM      2  C   UNL     1      17.328 -14.145  20.490  1.00  0.00     0.214 A 
ATOM      3  C   UNL     1      16.383 -13.495  19.636  1.00  0.00     0.180 A 
ATOM      4  O   UNL     1      15.395 -14.194  19.088  1.00  0.00    -0.452 OA
ATOM      5  C   UNL     1      17.154 -15.525  20.711  1.00  0.00     0.239 A 
ATOM      6  C   UNL     1      15.217 -15.494  19.274  1.00  0.00     0.146 A 
ATOM      7  O   UNL     1      17.928 -16.117  21.514  1.00  0.00    -0.285 OA
ATOM      8  C   UNL     1      16.107 -16.227  20.085  1.00  0.00     0.111 A 
ATOM      9  C   UNL     1      14.126 -16.121  18.672  1.00  0.00     0.094 A 
ATOM     10  C   UNL     1      15.899 -17.619  20.253  1.00  0.00     0.134 A 
ATOM     11  C   UNL     1      13.907 -17.487  18.860  1.00  0.00     0.123 A 
ATOM     12  C   UNL     1      14.795 -18.235  19.641  1.00  0.00     0.093 A 
BRANCH   3  13
ATOM     13  C   UNL     1      16.393 -12.068  19.292  1.00  0.00     0.025 A 
ATOM     14  C   UNL     1      17.370 -11.560  18.425  1.00  0.00     0.016 A 
ATOM     15  C   UNL     1      17.356 -10.212  18.061  1.00  0.00     0.051 A 
ATOM     16  C   UNL     1      16.334  -9.367  18.517  1.00  0.00     0.157 A 
ATOM     17  C   UNL     1      15.332 -11.239  19.692  1.00  0.00     0.062 A 
ATOM     18  C   UNL     1      15.311  -9.887  19.330  1.00  0.00     0.158 A 
BRANCH  16  19
ATOM     19  O   UNL     1      16.328  -8.021  18.158  1.00  0.00    -0.504 OA
ATOM     20  H   UNL     1      16.971  -7.356  18.573  1.00  0.00     0.293 HD
ENDBRANCH  16  19
BRANCH  18  21
ATOM     21  O   UNL     1      14.271  -9.079  19.786  1.00  0.00    -0.504 OA
ATOM     22  H   UNL     1      14.332  -8.560  20.653  1.00  0.00     0.293 HD
ENDBRANCH  18  21
ENDBRANCH   3  13
BRANCH  10  23
ATOM     23  O   UNL     1      16.772 -18.390  21.019  1.00  0.00    -0.507 OA
ATOM     24  H   UNL     1      16.452 -19.180  21.577  1.00  0.00     0.293 HD
ENDBRANCH  10  23
BRANCH  11  25
ATOM     25  O   UNL     1      12.801 -18.093  18.270  1.00  0.00    -0.508 OA
ATOM     26  H   UNL     1      12.860 -19.023  17.868  1.00  0.00     0.293 HD
ENDBRANCH  11  25
ENDBRANCH   1   2
BRANCH   1  27
ATOM     27  C   UNL     1      19.737 -13.212  20.684  1.00  0.00     0.339 C 
ATOM     28  C   UNL     1      20.855 -13.916  21.505  1.00  0.00     0.214 C 
ATOM     29  O   UNL     1      19.858 -11.794  20.546  1.00  0.00    -0.332 OA
ATOM     30  C   UNL     1      21.269 -13.136  22.763  1.00  0.00     0.180 C 
ATOM     31  C   UNL     1      20.304 -11.062  21.685  1.00  0.00     0.179 C 
ATOM     32  C   UNL     1      21.528 -11.686  22.391  1.00  0.00     0.177 C 
BRANCH  28  33
ATOM     33  O   UNL     1      20.449 -15.210  21.874  1.00  0.00    -0.384 OA
ATOM     34  H   UNL     1      20.580 -15.284  22.857  1.00  0.00     0.211 HD
ENDBRANCH  28  33
BRANCH  30  35
ATOM     35  O   UNL     1      20.348 -13.251  23.825  1.00  0.00    -0.387 OA
ATOM     36  H   UNL     1      19.540 -12.715  23.616  1.00  0.00     0.211 HD
ENDBRANCH  30  35
BRANCH  31  37
ATOM     37  C   UNL     1      19.157 -10.610  22.633  1.00  0.00     0.191 C 
BRANCH  37  38
ATOM     38  O   UNL     1      17.909 -10.621  21.998  1.00  0.00    -0.394 OA
ATOM     39  H   UNL     1      17.327  -9.983  22.492  1.00  0.00     0.210 HD
ENDBRANCH  37  38
ENDBRANCH  31  37
BRANCH  32  40
ATOM     40  O   UNL     1      21.895 -10.952  23.531  1.00  0.00    -0.387 OA
ATOM     41  H   UNL     1      22.446 -10.190  23.216  1.00  0.00     0.211 HD
ENDBRANCH  32  40
ENDBRANCH   1  27
TORSDOF 12
ENDMDL
