MODEL 1
REMARK VINA RESULT:    -5.662      0.000      0.000
REMARK INTER + INTRA:          -6.220
REMARK INTER:                  -5.993
REMARK INTRA:                  -0.227
REMARK UNBOUND:                -0.227
REMARK SMILES CC1=CC[C@@H]2[C@H]3[C@H](C(C)C)CC[C@]2(C)[C@@H]13
REMARK SMILES IDX 1 1 2 2 3 3 4 4 5 5 6 6 15 7 13 8 12 9 11 10 7 11 14 12 8 13
REMARK SMILES IDX 9 14 10 15
REMARK H PARENT
REMARK Flexibility Score: inf
ROOT
ATOM      1  C   UNL     1      32.039   7.375  33.306  1.00  0.00     0.039 C 
ATOM      2  C   UNL     1      31.513   8.748  33.008  1.00  0.00    -0.073 C 
ATOM      3  C   UNL     1      30.470   9.270  33.705  1.00  0.00    -0.027 C 
ATOM      4  C   UNL     1      29.991  10.687  33.370  1.00  0.00     0.031 C 
ATOM      5  C   UNL     1      30.828  11.280  32.189  1.00  0.00     0.003 C 
ATOM      6  C   UNL     1      30.922  10.193  31.094  1.00  0.00     0.004 C 
ATOM      7  C   UNL     1      32.113   9.615  31.897  1.00  0.00     0.024 C 
ATOM      8  C   UNL     1      32.342  11.061  32.408  1.00  0.00    -0.022 C 
ATOM      9  C   UNL     1      33.122  11.905  31.360  1.00  0.00     0.008 C 
ATOM     10  C   UNL     1      32.789  11.493  29.904  1.00  0.00     0.005 C 
ATOM     11  C   UNL     1      31.381  10.831  29.742  1.00  0.00    -0.005 C 
ATOM     12  C   UNL     1      32.927  11.268  33.826  1.00  0.00     0.012 C 
ENDROOT
BRANCH  11  13
ATOM     13  C   UNL     1      31.365   9.809  28.559  1.00  0.00    -0.014 C 
ATOM     14  C   UNL     1      32.037  10.398  27.304  1.00  0.00     0.007 C 
ATOM     15  C   UNL     1      29.938   9.361  28.188  1.00  0.00     0.007 C 
ENDBRANCH  11  13
TORSDOF 1
ENDMDL
MODEL 2
REMARK VINA RESULT:    -5.630      1.302      4.576
REMARK INTER + INTRA:          -6.185
REMARK INTER:                  -6.147
REMARK INTRA:                  -0.038
REMARK UNBOUND:                -0.227
REMARK SMILES CC1=CC[C@@H]2[C@H]3[C@H](C(C)C)CC[C@]2(C)[C@@H]13
REMARK SMILES IDX 1 1 2 2 3 3 4 4 5 5 6 6 15 7 13 8 12 9 11 10 7 11 14 12 8 13
REMARK SMILES IDX 9 14 10 15
REMARK H PARENT
REMARK Flexibility Score: inf
ROOT
ATOM      1  C   UNL     1      30.974   7.810  28.689  1.00  0.00     0.039 C 
ATOM      2  C   UNL     1      31.372   9.255  28.684  1.00  0.00    -0.073 C 
ATOM      3  C   UNL     1      31.970   9.819  27.602  1.00  0.00    -0.027 C 
ATOM      4  C   UNL     1      32.335  11.307  27.648  1.00  0.00     0.031 C 
ATOM      5  C   UNL     1      31.956  11.918  29.037  1.00  0.00     0.003 C 
ATOM      6  C   UNL     1      32.458  10.941  30.127  1.00  0.00     0.004 C 
ATOM      7  C   UNL     1      31.143  10.156  29.901  1.00  0.00     0.024 C 
ATOM      8  C   UNL     1      30.526  11.509  29.460  1.00  0.00    -0.022 C 
ATOM      9  C   UNL     1      30.112  12.361  30.694  1.00  0.00     0.008 C 
ATOM     10  C   UNL     1      31.048  12.136  31.909  1.00  0.00     0.005 C 
ATOM     11  C   UNL     1      32.484  11.656  31.517  1.00  0.00    -0.005 C 
ATOM     12  C   UNL     1      29.407  11.507  28.392  1.00  0.00     0.012 C 
ENDROOT
BRANCH  11  13
ATOM     13  C   UNL     1      33.112  10.766  32.638  1.00  0.00    -0.014 C 
ATOM     14  C   UNL     1      32.537   9.336  32.603  1.00  0.00     0.007 C 
ATOM     15  C   UNL     1      32.891  11.351  34.046  1.00  0.00     0.007 C 
ENDBRANCH  11  13
TORSDOF 1
ENDMDL
MODEL 3
REMARK VINA RESULT:    -5.417      2.081      4.487
REMARK INTER + INTRA:          -5.961
REMARK INTER:                  -5.552
REMARK INTRA:                  -0.409
REMARK UNBOUND:                -0.227
REMARK SMILES CC1=CC[C@@H]2[C@H]3[C@H](C(C)C)CC[C@]2(C)[C@@H]13
REMARK SMILES IDX 1 1 2 2 3 3 4 4 5 5 6 6 15 7 13 8 12 9 11 10 7 11 14 12 8 13
REMARK SMILES IDX 9 14 10 15
REMARK H PARENT
REMARK Flexibility Score: inf
ROOT
ATOM      1  C   UNL     1      29.138   9.981  36.348  1.00  0.00     0.039 C 
ATOM      2  C   UNL     1      30.046   8.935  35.773  1.00  0.00    -0.073 C 
ATOM      3  C   UNL     1      30.661   8.020  36.567  1.00  0.00    -0.027 C 
ATOM      4  C   UNL     1      31.561   6.962  35.919  1.00  0.00     0.031 C 
ATOM      5  C   UNL     1      31.629   7.179  34.371  1.00  0.00     0.003 C 
ATOM      6  C   UNL     1      31.868   8.687  34.123  1.00  0.00     0.004 C 
ATOM      7  C   UNL     1      30.336   8.861  34.271  1.00  0.00     0.024 C 
ATOM      8  C   UNL     1      30.220   7.397  33.772  1.00  0.00    -0.022 C 
ATOM      9  C   UNL     1      30.325   7.327  32.222  1.00  0.00     0.008 C 
ATOM     10  C   UNL     1      31.261   8.418  31.643  1.00  0.00     0.005 C 
ATOM     11  C   UNL     1      32.345   8.919  32.653  1.00  0.00    -0.005 C 
ATOM     12  C   UNL     1      29.050   6.524  34.285  1.00  0.00     0.012 C 
ENDROOT
BRANCH  11  13
ATOM     13  C   UNL     1      32.736  10.407  32.376  1.00  0.00    -0.014 C 
ATOM     14  C   UNL     1      32.920  11.189  33.691  1.00  0.00     0.007 C 
ATOM     15  C   UNL     1      31.693  11.138  31.510  1.00  0.00     0.007 C 
ENDBRANCH  11  13
TORSDOF 1
ENDMDL
MODEL 4
REMARK VINA RESULT:    -5.308      0.970      4.296
REMARK INTER + INTRA:          -5.846
REMARK INTER:                  -5.452
REMARK INTRA:                  -0.394
REMARK UNBOUND:                -0.227
REMARK SMILES CC1=CC[C@@H]2[C@H]3[C@H](C(C)C)CC[C@]2(C)[C@@H]13
REMARK SMILES IDX 1 1 2 2 3 3 4 4 5 5 6 6 15 7 13 8 12 9 11 10 7 11 14 12 8 13
REMARK SMILES IDX 9 14 10 15
REMARK H PARENT
REMARK Flexibility Score: inf
ROOT
ATOM      1  C   UNL     1      31.195   9.532  29.015  1.00  0.00     0.039 C 
ATOM      2  C   UNL     1      31.617  10.281  30.243  1.00  0.00    -0.073 C 
ATOM      3  C   UNL     1      32.641  11.174  30.208  1.00  0.00    -0.027 C 
ATOM      4  C   UNL     1      33.013  11.925  31.491  1.00  0.00     0.031 C 
ATOM      5  C   UNL     1      32.106  11.460  32.677  1.00  0.00     0.003 C 
ATOM      6  C   UNL     1      32.056   9.915  32.646  1.00  0.00     0.004 C 
ATOM      7  C   UNL     1      30.930  10.062  31.594  1.00  0.00     0.024 C 
ATOM      8  C   UNL     1      30.616  11.424  32.265  1.00  0.00    -0.022 C 
ATOM      9  C   UNL     1      29.753  11.230  33.544  1.00  0.00     0.008 C 
ATOM     10  C   UNL     1      30.074   9.903  34.277  1.00  0.00     0.005 C 
ATOM     11  C   UNL     1      31.519   9.368  34.008  1.00  0.00    -0.005 C 
ATOM     12  C   UNL     1      30.058  12.574  31.394  1.00  0.00     0.012 C 
ENDROOT
BRANCH  11  13
ATOM     13  C   UNL     1      31.573   7.808  34.093  1.00  0.00    -0.014 C 
ATOM     14  C   UNL     1      32.434   7.217  32.959  1.00  0.00     0.007 C 
ATOM     15  C   UNL     1      30.174   7.166  34.034  1.00  0.00     0.007 C 
ENDBRANCH  11  13
TORSDOF 1
ENDMDL
MODEL 5
REMARK VINA RESULT:    -5.281      1.178      2.161
REMARK INTER + INTRA:          -5.816
REMARK INTER:                  -5.382
REMARK INTRA:                  -0.434
REMARK UNBOUND:                -0.227
REMARK SMILES CC1=CC[C@@H]2[C@H]3[C@H](C(C)C)CC[C@]2(C)[C@@H]13
REMARK SMILES IDX 1 1 2 2 3 3 4 4 5 5 6 6 15 7 13 8 12 9 11 10 7 11 14 12 8 13
REMARK SMILES IDX 9 14 10 15
REMARK H PARENT
REMARK Flexibility Score: inf
ROOT
ATOM      1  C   UNL     1      32.153   8.441  33.025  1.00  0.00     0.039 C 
ATOM      2  C   UNL     1      31.543   9.549  32.219  1.00  0.00    -0.073 C 
ATOM      3  C   UNL     1      30.724  10.469  32.791  1.00  0.00    -0.027 C 
ATOM      4  C   UNL     1      30.147  11.591  31.921  1.00  0.00     0.031 C 
ATOM      5  C   UNL     1      30.616  11.426  30.438  1.00  0.00     0.003 C 
ATOM      6  C   UNL     1      30.423   9.940  30.052  1.00  0.00     0.004 C 
ATOM      7  C   UNL     1      31.799   9.683  30.715  1.00  0.00     0.024 C 
ATOM      8  C   UNL     1      32.136  11.154  30.356  1.00  0.00    -0.022 C 
ATOM      9  C   UNL     1      32.582  11.277  28.871  1.00  0.00     0.008 C 
ATOM     10  C   UNL     1      31.868  10.253  27.953  1.00  0.00     0.005 C 
ATOM     11  C   UNL     1      30.481   9.778  28.499  1.00  0.00    -0.005 C 
ATOM     12  C   UNL     1      33.084  11.950  31.283  1.00  0.00     0.012 C 
ENDROOT
BRANCH  11  13
ATOM     13  C   UNL     1      30.156   8.320  28.034  1.00  0.00    -0.014 C 
ATOM     14  C   UNL     1      29.266   7.593  29.061  1.00  0.00     0.007 C 
ATOM     15  C   UNL     1      31.427   7.480  27.802  1.00  0.00     0.007 C 
ENDBRANCH  11  13
TORSDOF 1
ENDMDL
MODEL 6
REMARK VINA RESULT:    -5.255      1.266      4.797
REMARK INTER + INTRA:          -5.789
REMARK INTER:                  -5.525
REMARK INTRA:                  -0.264
REMARK UNBOUND:                -0.227
REMARK SMILES CC1=CC[C@@H]2[C@H]3[C@H](C(C)C)CC[C@]2(C)[C@@H]13
REMARK SMILES IDX 1 1 2 2 3 3 4 4 5 5 6 6 15 7 13 8 12 9 11 10 7 11 14 12 8 13
REMARK SMILES IDX 9 14 10 15
REMARK H PARENT
REMARK Flexibility Score: inf
ROOT
ATOM      1  C   UNL     1      32.269  10.546  27.048  1.00  0.00     0.039 C 
ATOM      2  C   UNL     1      31.235  10.334  28.114  1.00  0.00    -0.073 C 
ATOM      3  C   UNL     1      29.974  10.820  27.979  1.00  0.00    -0.027 C 
ATOM      4  C   UNL     1      28.955  10.555  29.093  1.00  0.00     0.031 C 
ATOM      5  C   UNL     1      29.620   9.754  30.260  1.00  0.00     0.003 C 
ATOM      6  C   UNL     1      30.979  10.425  30.569  1.00  0.00     0.004 C 
ATOM      7  C   UNL     1      31.557   9.580  29.407  1.00  0.00     0.024 C 
ATOM      8  C   UNL     1      30.437   8.556  29.725  1.00  0.00    -0.022 C 
ATOM      9  C   UNL     1      30.834   7.651  30.927  1.00  0.00     0.008 C 
ATOM     10  C   UNL     1      31.711   8.398  31.964  1.00  0.00     0.005 C 
ATOM     11  C   UNL     1      31.508   9.949  31.961  1.00  0.00    -0.005 C 
ATOM     12  C   UNL     1      29.849   7.710  28.571  1.00  0.00     0.012 C 
ENDROOT
BRANCH  11  13
ATOM     13  C   UNL     1      32.812  10.694  32.395  1.00  0.00    -0.014 C 
ATOM     14  C   UNL     1      32.717  11.178  33.855  1.00  0.00     0.007 C 
ATOM     15  C   UNL     1      33.125  11.905  31.495  1.00  0.00     0.007 C 
ENDBRANCH  11  13
TORSDOF 1
ENDMDL
MODEL 7
REMARK VINA RESULT:    -5.233      1.717      3.581
REMARK INTER + INTRA:          -5.765
REMARK INTER:                  -5.363
REMARK INTRA:                  -0.403
REMARK UNBOUND:                -0.227
REMARK SMILES CC1=CC[C@@H]2[C@H]3[C@H](C(C)C)CC[C@]2(C)[C@@H]13
REMARK SMILES IDX 1 1 2 2 3 3 4 4 5 5 6 6 15 7 13 8 12 9 11 10 7 11 14 12 8 13
REMARK SMILES IDX 9 14 10 15
REMARK H PARENT
REMARK Flexibility Score: inf
ROOT
ATOM      1  C   UNL     1      29.442  12.239  31.551  1.00  0.00     0.039 C 
ATOM      2  C   UNL     1      30.677  11.485  31.947  1.00  0.00    -0.073 C 
ATOM      3  C   UNL     1      31.902  12.072  31.915  1.00  0.00    -0.027 C 
ATOM      4  C   UNL     1      33.125  11.258  32.352  1.00  0.00     0.031 C 
ATOM      5  C   UNL     1      32.701   9.803  32.740  1.00  0.00     0.003 C 
ATOM      6  C   UNL     1      31.754   9.284  31.632  1.00  0.00     0.004 C 
ATOM      7  C   UNL     1      30.618  10.019  32.385  1.00  0.00     0.024 C 
ATOM      8  C   UNL     1      31.464   9.807  33.667  1.00  0.00    -0.022 C 
ATOM      9  C   UNL     1      31.267   8.372  34.235  1.00  0.00     0.008 C 
ATOM     10  C   UNL     1      31.019   7.325  33.120  1.00  0.00     0.005 C 
ATOM     11  C   UNL     1      31.614   7.731  31.731  1.00  0.00    -0.005 C 
ATOM     12  C   UNL     1      31.385  10.861  34.797  1.00  0.00     0.012 C 
ENDROOT
BRANCH  11  13
ATOM     13  C   UNL     1      30.779   7.127  30.555  1.00  0.00    -0.014 C 
ATOM     14  C   UNL     1      30.600   8.148  29.416  1.00  0.00     0.007 C 
ATOM     15  C   UNL     1      29.387   6.647  31.009  1.00  0.00     0.007 C 
ENDBRANCH  11  13
TORSDOF 1
ENDMDL
MODEL 8
REMARK VINA RESULT:    -5.211      2.474      5.382
REMARK INTER + INTRA:          -5.742
REMARK INTER:                  -5.346
REMARK INTRA:                  -0.396
REMARK UNBOUND:                -0.227
REMARK SMILES CC1=CC[C@@H]2[C@H]3[C@H](C(C)C)CC[C@]2(C)[C@@H]13
REMARK SMILES IDX 1 1 2 2 3 3 4 4 5 5 6 6 15 7 13 8 12 9 11 10 7 11 14 12 8 13
REMARK SMILES IDX 9 14 10 15
REMARK H PARENT
REMARK Flexibility Score: inf
ROOT
ATOM      1  C   UNL     1      31.178   7.738  31.615  1.00  0.00     0.039 C 
ATOM      2  C   UNL     1      31.536   8.856  32.549  1.00  0.00    -0.073 C 
ATOM      3  C   UNL     1      32.661   9.595  32.366  1.00  0.00    -0.027 C 
ATOM      4  C   UNL     1      32.963  10.739  33.341  1.00  0.00     0.031 C 
ATOM      5  C   UNL     1      31.863  10.814  34.450  1.00  0.00     0.003 C 
ATOM      6  C   UNL     1      31.620   9.375  34.963  1.00  0.00     0.004 C 
ATOM      7  C   UNL     1      30.663   9.204  33.758  1.00  0.00     0.024 C 
ATOM      8  C   UNL     1      30.445  10.738  33.840  1.00  0.00    -0.022 C 
ATOM      9  C   UNL     1      29.410  11.095  34.946  1.00  0.00     0.008 C 
ATOM     10  C   UNL     1      29.464  10.114  36.144  1.00  0.00     0.005 C 
ATOM     11  C   UNL     1      30.851   9.413  36.323  1.00  0.00    -0.005 C 
ATOM     12  C   UNL     1      30.151  11.521  32.538  1.00  0.00     0.012 C 
ENDROOT
BRANCH  11  13
ATOM     13  C   UNL     1      30.694   7.996  36.964  1.00  0.00    -0.014 C 
ATOM     14  C   UNL     1      31.608   6.966  36.271  1.00  0.00     0.007 C 
ATOM     15  C   UNL     1      29.243   7.482  36.908  1.00  0.00     0.007 C 
ENDBRANCH  11  13
TORSDOF 1
ENDMDL
MODEL 9
REMARK VINA RESULT:    -5.136      1.423      4.416
REMARK INTER + INTRA:          -5.663
REMARK INTER:                  -5.232
REMARK INTRA:                  -0.431
REMARK UNBOUND:                -0.227
REMARK SMILES CC1=CC[C@@H]2[C@H]3[C@H](C(C)C)CC[C@]2(C)[C@@H]13
REMARK SMILES IDX 1 1 2 2 3 3 4 4 5 5 6 6 15 7 13 8 12 9 11 10 7 11 14 12 8 13
REMARK SMILES IDX 9 14 10 15
REMARK H PARENT
REMARK Flexibility Score: inf
ROOT
ATOM      1  C   UNL     1      28.082  11.825  30.949  1.00  0.00     0.039 C 
ATOM      2  C   UNL     1      29.284  10.992  30.620  1.00  0.00    -0.073 C 
ATOM      3  C   UNL     1      29.265  10.100  29.595  1.00  0.00    -0.027 C 
ATOM      4  C   UNL     1      30.531   9.292  29.293  1.00  0.00     0.031 C 
ATOM      5  C   UNL     1      31.662   9.649  30.313  1.00  0.00     0.003 C 
ATOM      6  C   UNL     1      31.032   9.642  31.726  1.00  0.00     0.004 C 
ATOM      7  C   UNL     1      30.579  11.093  31.432  1.00  0.00     0.024 C 
ATOM      8  C   UNL     1      31.803  11.179  30.483  1.00  0.00    -0.022 C 
ATOM      9  C   UNL     1      33.106  11.470  31.280  1.00  0.00     0.008 C 
ATOM     10  C   UNL     1      33.089  10.836  32.694  1.00  0.00     0.005 C 
ATOM     11  C   UNL     1      32.154   9.587  32.812  1.00  0.00    -0.005 C 
ATOM     12  C   UNL     1      31.713  12.078  29.227  1.00  0.00     0.012 C 
ENDROOT
BRANCH  11  13
ATOM     13  C   UNL     1      31.582   9.439  34.260  1.00  0.00    -0.014 C 
ATOM     14  C   UNL     1      30.144   8.887  34.237  1.00  0.00     0.007 C 
ATOM     15  C   UNL     1      31.585  10.773  35.032  1.00  0.00     0.007 C 
ENDBRANCH  11  13
TORSDOF 1
ENDMDL
