MODEL 1
REMARK VINA RESULT:    -3.856      0.000      0.000
REMARK INTER + INTRA:          -8.595
REMARK INTER:                  -7.012
REMARK INTRA:                  -1.583
REMARK UNBOUND:                -1.583
REMARK SMILES CCCCCCCCCCCCCCCC(=O)[O-]
REMARK SMILES IDX 9 1 10 2 11 3 12 4 13 5 14 6 15 7 16 8 17 9 18 10 8 11 7 12
REMARK SMILES IDX 6 13 5 14 4 15 3 16 2 17 1 18
REMARK H PARENT
REMARK Flexibility Score: inf
ROOT
ATOM      1  C   UNL     1      -0.498  -3.034 -28.366  1.00  0.00     0.000 C 
ENDROOT
BRANCH   1   2
ATOM      2  C   UNL     1      -1.250  -4.161 -27.645  1.00  0.00     0.000 C 
BRANCH   2   3
ATOM      3  C   UNL     1      -1.992  -3.676 -26.386  1.00  0.00     0.000 C 
BRANCH   3   4
ATOM      4  C   UNL     1      -3.319  -4.405 -26.090  1.00  0.00     0.000 C 
BRANCH   4   5
ATOM      5  C   UNL     1      -4.550  -3.862 -26.842  1.00  0.00     0.000 C 
BRANCH   5   6
ATOM      6  C   UNL     1      -4.747  -2.335 -26.766  1.00  0.00     0.006 C 
BRANCH   6   7
ATOM      7  C   UNL     1      -4.894  -1.794 -25.332  1.00  0.00     0.053 C 
BRANCH   7   8
ATOM      8  C   UNL     1      -5.029  -0.303 -25.288  1.00  0.00     0.041 C 
ATOM      9  O   UNL     1      -4.645   0.340 -24.276  1.00  0.00    -0.550 OA
ATOM     10  O   UNL     1      -5.616   0.375 -26.349  1.00  0.00    -0.550 OA
ENDBRANCH   7   8
ENDBRANCH   6   7
ENDBRANCH   5   6
ENDBRANCH   4   5
ENDBRANCH   3   4
ENDBRANCH   2   3
ENDBRANCH   1   2
BRANCH   1  11
ATOM     11  C   UNL     1      -0.911  -1.661 -27.821  1.00  0.00     0.000 C 
BRANCH  11  12
ATOM     12  C   UNL     1      -1.950  -0.995 -28.736  1.00  0.00    -0.000 C 
BRANCH  12  13
ATOM     13  C   UNL     1      -1.549   0.430 -29.151  1.00  0.00    -0.000 C 
BRANCH  13  14
ATOM     14  C   UNL     1      -1.956   0.762 -30.596  1.00  0.00    -0.000 C 
BRANCH  14  15
ATOM     15  C   UNL     1      -0.842   0.462 -31.615  1.00  0.00    -0.000 C 
BRANCH  15  16
ATOM     16  C   UNL     1       0.565   0.953 -31.214  1.00  0.00    -0.000 C 
BRANCH  16  17
ATOM     17  C   UNL     1       1.586  -0.163 -30.932  1.00  0.00    -0.003 C 
ATOM     18  C   UNL     1       1.105  -1.540 -31.385  1.00  0.00     0.004 C 
ENDBRANCH  16  17
ENDBRANCH  15  16
ENDBRANCH  14  15
ENDBRANCH  13  14
ENDBRANCH  12  13
ENDBRANCH  11  12
ENDBRANCH   1  11
TORSDOF 14
ENDMDL
MODEL 2
REMARK VINA RESULT:    -3.760      2.632      5.900
REMARK INTER + INTRA:          -8.421
REMARK INTER:                  -5.753
REMARK INTRA:                  -2.668
REMARK UNBOUND:                -1.583
REMARK SMILES CCCCCCCCCCCCCCCC(=O)[O-]
REMARK SMILES IDX 9 1 10 2 11 3 12 4 13 5 14 6 15 7 16 8 17 9 18 10 8 11 7 12
REMARK SMILES IDX 6 13 5 14 4 15 3 16 2 17 1 18
REMARK H PARENT
REMARK Flexibility Score: inf
ROOT
ATOM      1  C   UNL     1      -4.476  -4.716 -25.905  1.00  0.00     0.000 C 
ENDROOT
BRANCH   1   2
ATOM      2  C   UNL     1      -3.273  -4.621 -26.855  1.00  0.00     0.000 C 
BRANCH   2   3
ATOM      3  C   UNL     1      -1.925  -4.605 -26.113  1.00  0.00     0.000 C 
BRANCH   3   4
ATOM      4  C   UNL     1      -0.796  -3.835 -26.828  1.00  0.00     0.000 C 
BRANCH   4   5
ATOM      5  C   UNL     1      -1.214  -3.101 -28.117  1.00  0.00     0.000 C 
BRANCH   5   6
ATOM      6  C   UNL     1      -0.721  -1.645 -28.234  1.00  0.00     0.006 C 
BRANCH   6   7
ATOM      7  C   UNL     1      -1.767  -0.676 -28.817  1.00  0.00     0.053 C 
BRANCH   7   8
ATOM      8  C   UNL     1      -1.245   0.102 -29.986  1.00  0.00     0.041 C 
ATOM      9  O   UNL     1      -1.882   1.097 -30.421  1.00  0.00    -0.550 OA
ATOM     10  O   UNL     1      -0.073  -0.293 -30.619  1.00  0.00    -0.550 OA
ENDBRANCH   7   8
ENDBRANCH   6   7
ENDBRANCH   5   6
ENDBRANCH   4   5
ENDBRANCH   3   4
ENDBRANCH   2   3
ENDBRANCH   1   2
BRANCH   1  11
ATOM     11  C   UNL     1      -5.392  -3.495 -26.054  1.00  0.00     0.000 C 
BRANCH  11  12
ATOM     12  C   UNL     1      -4.647  -2.326 -26.718  1.00  0.00    -0.000 C 
BRANCH  12  13
ATOM     13  C   UNL     1      -5.105  -0.956 -26.193  1.00  0.00    -0.000 C 
BRANCH  13  14
ATOM     14  C   UNL     1      -4.112  -0.347 -25.189  1.00  0.00    -0.000 C 
BRANCH  14  15
ATOM     15  C   UNL     1      -2.713  -0.985 -25.270  1.00  0.00    -0.000 C 
BRANCH  15  16
ATOM     16  C   UNL     1      -2.193  -1.599 -23.954  1.00  0.00    -0.000 C 
BRANCH  16  17
ATOM     17  C   UNL     1      -3.281  -1.942 -22.922  1.00  0.00    -0.003 C 
ATOM     18  C   UNL     1      -3.439  -3.446 -22.700  1.00  0.00     0.004 C 
ENDBRANCH  16  17
ENDBRANCH  15  16
ENDBRANCH  14  15
ENDBRANCH  13  14
ENDBRANCH  12  13
ENDBRANCH  11  12
ENDBRANCH   1  11
TORSDOF 14
ENDMDL
MODEL 3
REMARK VINA RESULT:    -3.754      2.923      5.746
REMARK INTER + INTRA:          -8.409
REMARK INTER:                  -6.251
REMARK INTRA:                  -2.158
REMARK UNBOUND:                -1.583
REMARK SMILES CCCCCCCCCCCCCCCC(=O)[O-]
REMARK SMILES IDX 9 1 10 2 11 3 12 4 13 5 14 6 15 7 16 8 17 9 18 10 8 11 7 12
REMARK SMILES IDX 6 13 5 14 4 15 3 16 2 17 1 18
REMARK H PARENT
REMARK Flexibility Score: inf
ROOT
ATOM      1  C   UNL     1      -2.773  -4.875 -26.223  1.00  0.00     0.000 C 
ENDROOT
BRANCH   1   2
ATOM      2  C   UNL     1      -1.656  -4.572 -27.232  1.00  0.00     0.000 C 
BRANCH   2   3
ATOM      3  C   UNL     1      -1.027  -3.182 -27.028  1.00  0.00     0.000 C 
BRANCH   3   4
ATOM      4  C   UNL     1      -1.038  -2.272 -28.274  1.00  0.00     0.000 C 
BRANCH   4   5
ATOM      5  C   UNL     1      -2.114  -1.169 -28.273  1.00  0.00     0.000 C 
BRANCH   5   6
ATOM      6  C   UNL     1      -1.644   0.210 -28.779  1.00  0.00     0.006 C 
BRANCH   6   7
ATOM      7  C   UNL     1      -1.725   0.376 -30.308  1.00  0.00     0.053 C 
BRANCH   7   8
ATOM      8  C   UNL     1      -0.455   0.905 -30.900  1.00  0.00     0.041 C 
ATOM      9  O   UNL     1       0.640   0.746 -30.299  1.00  0.00    -0.550 OA
ATOM     10  O   UNL     1      -0.484   1.609 -32.096  1.00  0.00    -0.550 OA
ENDBRANCH   7   8
ENDBRANCH   6   7
ENDBRANCH   5   6
ENDBRANCH   4   5
ENDBRANCH   3   4
ENDBRANCH   2   3
ENDBRANCH   1   2
BRANCH   1  11
ATOM     11  C   UNL     1      -4.155  -4.730 -26.871  1.00  0.00     0.000 C 
BRANCH  11  12
ATOM     12  C   UNL     1      -5.026  -3.733 -26.093  1.00  0.00    -0.000 C 
BRANCH  12  13
ATOM     13  C   UNL     1      -5.228  -2.407 -26.845  1.00  0.00    -0.000 C 
BRANCH  13  14
ATOM     14  C   UNL     1      -5.032  -1.179 -25.941  1.00  0.00    -0.000 C 
BRANCH  14  15
ATOM     15  C   UNL     1      -3.831  -1.324 -24.988  1.00  0.00    -0.000 C 
BRANCH  15  16
ATOM     16  C   UNL     1      -2.924  -0.081 -24.879  1.00  0.00    -0.000 C 
BRANCH  16  17
ATOM     17  C   UNL     1      -1.429  -0.383 -24.676  1.00  0.00    -0.003 C 
ATOM     18  C   UNL     1      -0.520   0.731 -25.195  1.00  0.00     0.004 C 
ENDBRANCH  16  17
ENDBRANCH  15  16
ENDBRANCH  14  15
ENDBRANCH  13  14
ENDBRANCH  12  13
ENDBRANCH  11  12
ENDBRANCH   1  11
TORSDOF 14
ENDMDL
MODEL 4
REMARK VINA RESULT:    -3.722      1.059      1.640
REMARK INTER + INTRA:          -8.352
REMARK INTER:                  -6.965
REMARK INTRA:                  -1.387
REMARK UNBOUND:                -1.583
REMARK SMILES CCCCCCCCCCCCCCCC(=O)[O-]
REMARK SMILES IDX 9 1 10 2 11 3 12 4 13 5 14 6 15 7 16 8 17 9 18 10 8 11 7 12
REMARK SMILES IDX 6 13 5 14 4 15 3 16 2 17 1 18
REMARK H PARENT
REMARK Flexibility Score: inf
ROOT
ATOM      1  C   UNL     1      -0.699  -2.239 -28.483  1.00  0.00     0.000 C 
ENDROOT
BRANCH   1   2
ATOM      2  C   UNL     1      -1.257  -3.525 -27.856  1.00  0.00     0.000 C 
BRANCH   2   3
ATOM      3  C   UNL     1      -2.336  -3.252 -26.792  1.00  0.00     0.000 C 
BRANCH   3   4
ATOM      4  C   UNL     1      -3.608  -4.117 -26.916  1.00  0.00     0.000 C 
BRANCH   4   5
ATOM      5  C   UNL     1      -4.934  -3.334 -26.954  1.00  0.00     0.000 C 
BRANCH   5   6
ATOM      6  C   UNL     1      -4.833  -1.847 -26.564  1.00  0.00     0.006 C 
BRANCH   6   7
ATOM      7  C   UNL     1      -4.898  -1.593 -25.046  1.00  0.00     0.053 C 
BRANCH   7   8
ATOM      8  C   UNL     1      -3.841  -0.642 -24.574  1.00  0.00     0.041 C 
ATOM      9  O   UNL     1      -3.189   0.045 -25.403  1.00  0.00    -0.550 OA
ATOM     10  O   UNL     1      -3.549  -0.542 -23.219  1.00  0.00    -0.550 OA
ENDBRANCH   7   8
ENDBRANCH   6   7
ENDBRANCH   5   6
ENDBRANCH   4   5
ENDBRANCH   3   4
ENDBRANCH   2   3
ENDBRANCH   1   2
BRANCH   1  11
ATOM     11  C   UNL     1      -1.713  -1.094 -28.385  1.00  0.00     0.000 C 
BRANCH  11  12
ATOM     12  C   UNL     1      -1.178   0.175 -29.067  1.00  0.00    -0.000 C 
BRANCH  12  13
ATOM     13  C   UNL     1      -1.913   0.500 -30.377  1.00  0.00    -0.000 C 
BRANCH  13  14
ATOM     14  C   UNL     1      -0.967   0.555 -31.587  1.00  0.00    -0.000 C 
BRANCH  14  15
ATOM     15  C   UNL     1       0.431  -0.012 -31.279  1.00  0.00    -0.000 C 
BRANCH  15  16
ATOM     16  C   UNL     1       0.789  -1.317 -32.019  1.00  0.00    -0.000 C 
BRANCH  16  17
ATOM     17  C   UNL     1       1.712  -2.273 -31.243  1.00  0.00    -0.003 C 
ATOM     18  C   UNL     1       2.171  -3.468 -32.078  1.00  0.00     0.004 C 
ENDBRANCH  16  17
ENDBRANCH  15  16
ENDBRANCH  14  15
ENDBRANCH  13  14
ENDBRANCH  12  13
ENDBRANCH  11  12
ENDBRANCH   1  11
TORSDOF 14
ENDMDL
MODEL 5
REMARK VINA RESULT:    -3.713      2.772      5.955
REMARK INTER + INTRA:          -8.334
REMARK INTER:                  -6.235
REMARK INTRA:                  -2.100
REMARK UNBOUND:                -1.583
REMARK SMILES CCCCCCCCCCCCCCCC(=O)[O-]
REMARK SMILES IDX 9 1 10 2 11 3 12 4 13 5 14 6 15 7 16 8 17 9 18 10 8 11 7 12
REMARK SMILES IDX 6 13 5 14 4 15 3 16 2 17 1 18
REMARK H PARENT
REMARK Flexibility Score: inf
ROOT
ATOM      1  C   UNL     1      -1.406  -0.868 -24.784  1.00  0.00     0.000 C 
ENDROOT
BRANCH   1   2
ATOM      2  C   UNL     1      -1.433  -2.350 -25.183  1.00  0.00     0.000 C 
BRANCH   2   3
ATOM      3  C   UNL     1      -0.532  -2.662 -26.391  1.00  0.00     0.000 C 
BRANCH   3   4
ATOM      4  C   UNL     1      -1.254  -2.692 -27.753  1.00  0.00     0.000 C 
BRANCH   4   5
ATOM      5  C   UNL     1      -0.748  -1.670 -28.789  1.00  0.00     0.000 C 
BRANCH   5   6
ATOM      6  C   UNL     1      -1.304  -0.241 -28.630  1.00  0.00     0.006 C 
BRANCH   6   7
ATOM      7  C   UNL     1      -1.920   0.337 -29.917  1.00  0.00     0.053 C 
BRANCH   7   8
ATOM      8  C   UNL     1      -1.032   1.346 -30.580  1.00  0.00     0.041 C 
ATOM      9  O   UNL     1      -0.079   1.867 -29.944  1.00  0.00    -0.550 OA
ATOM     10  O   UNL     1      -1.280   1.739 -31.889  1.00  0.00    -0.550 OA
ENDBRANCH   7   8
ENDBRANCH   6   7
ENDBRANCH   5   6
ENDBRANCH   4   5
ENDBRANCH   3   4
ENDBRANCH   2   3
ENDBRANCH   1   2
BRANCH   1  11
ATOM     11  C   UNL     1      -2.669  -0.145 -25.266  1.00  0.00     0.000 C 
BRANCH  11  12
ATOM     12  C   UNL     1      -3.881  -0.514 -24.396  1.00  0.00    -0.000 C 
BRANCH  12  13
ATOM     13  C   UNL     1      -5.015  -1.166 -25.204  1.00  0.00    -0.000 C 
BRANCH  13  14
ATOM     14  C   UNL     1      -4.636  -1.392 -26.677  1.00  0.00    -0.000 C 
BRANCH  14  15
ATOM     15  C   UNL     1      -5.014  -2.797 -27.182  1.00  0.00    -0.000 C 
BRANCH  15  16
ATOM     16  C   UNL     1      -4.771  -3.943 -26.179  1.00  0.00    -0.000 C 
BRANCH  16  17
ATOM     17  C   UNL     1      -3.778  -5.020 -26.651  1.00  0.00    -0.003 C 
ATOM     18  C   UNL     1      -4.054  -6.394 -26.041  1.00  0.00     0.004 C 
ENDBRANCH  16  17
ENDBRANCH  15  16
ENDBRANCH  14  15
ENDBRANCH  13  14
ENDBRANCH  12  13
ENDBRANCH  11  12
ENDBRANCH   1  11
TORSDOF 14
ENDMDL
MODEL 6
REMARK VINA RESULT:    -3.710     15.262     17.267
REMARK INTER + INTRA:          -8.330
REMARK INTER:                  -6.311
REMARK INTRA:                  -2.019
REMARK UNBOUND:                -1.583
REMARK SMILES CCCCCCCCCCCCCCCC(=O)[O-]
REMARK SMILES IDX 9 1 10 2 11 3 12 4 13 5 14 6 15 7 16 8 17 9 18 10 8 11 7 12
REMARK SMILES IDX 6 13 5 14 4 15 3 16 2 17 1 18
REMARK H PARENT
REMARK Flexibility Score: inf
ROOT
ATOM      1  C   UNL     1      -4.267 -13.384 -19.208  1.00  0.00     0.000 C 
ENDROOT
BRANCH   1   2
ATOM      2  C   UNL     1      -2.867 -12.832 -18.905  1.00  0.00     0.000 C 
BRANCH   2   3
ATOM      3  C   UNL     1      -1.820 -13.940 -18.691  1.00  0.00     0.000 C 
BRANCH   3   4
ATOM      4  C   UNL     1      -0.920 -13.756 -17.453  1.00  0.00     0.000 C 
BRANCH   4   5
ATOM      5  C   UNL     1      -0.956 -14.913 -16.435  1.00  0.00     0.000 C 
BRANCH   5   6
ATOM      6  C   UNL     1      -0.880 -14.490 -14.955  1.00  0.00     0.006 C 
BRANCH   6   7
ATOM      7  C   UNL     1      -2.253 -14.367 -14.268  1.00  0.00     0.053 C 
BRANCH   7   8
ATOM      8  C   UNL     1      -2.326 -15.129 -12.981  1.00  0.00     0.041 C 
ATOM      9  O   UNL     1      -3.255 -14.904 -12.162  1.00  0.00    -0.550 OA
ATOM     10  O   UNL     1      -1.345 -16.060 -12.666  1.00  0.00    -0.550 OA
ENDBRANCH   7   8
ENDBRANCH   6   7
ENDBRANCH   5   6
ENDBRANCH   4   5
ENDBRANCH   3   4
ENDBRANCH   2   3
ENDBRANCH   1   2
BRANCH   1  11
ATOM     11  C   UNL     1      -5.042 -13.659 -17.914  1.00  0.00     0.000 C 
BRANCH  11  12
ATOM     12  C   UNL     1      -4.573 -12.729 -16.784  1.00  0.00    -0.000 C 
BRANCH  12  13
ATOM     13  C   UNL     1      -5.507 -11.525 -16.581  1.00  0.00    -0.000 C 
BRANCH  13  14
ATOM     14  C   UNL     1      -4.753 -10.264 -16.125  1.00  0.00    -0.000 C 
BRANCH  14  15
ATOM     15  C   UNL     1      -3.639  -9.847 -17.102  1.00  0.00    -0.000 C 
BRANCH  15  16
ATOM     16  C   UNL     1      -2.216  -9.828 -16.506  1.00  0.00    -0.000 C 
BRANCH  16  17
ATOM     17  C   UNL     1      -1.949 -10.890 -15.425  1.00  0.00    -0.003 C 
ATOM     18  C   UNL     1      -0.895 -10.454 -14.408  1.00  0.00     0.004 C 
ENDBRANCH  16  17
ENDBRANCH  15  16
ENDBRANCH  14  15
ENDBRANCH  13  14
ENDBRANCH  12  13
ENDBRANCH  11  12
ENDBRANCH   1  11
TORSDOF 14
ENDMDL
MODEL 7
REMARK VINA RESULT:    -3.697     15.188     16.927
REMARK INTER + INTRA:          -8.306
REMARK INTER:                  -6.013
REMARK INTRA:                  -2.293
REMARK UNBOUND:                -1.583
REMARK SMILES CCCCCCCCCCCCCCCC(=O)[O-]
REMARK SMILES IDX 9 1 10 2 11 3 12 4 13 5 14 6 15 7 16 8 17 9 18 10 8 11 7 12
REMARK SMILES IDX 6 13 5 14 4 15 3 16 2 17 1 18
REMARK H PARENT
REMARK Flexibility Score: inf
ROOT
ATOM      1  C   UNL     1      10.885  -7.303 -23.460  1.00  0.00     0.000 C 
ENDROOT
BRANCH   1   2
ATOM      2  C   UNL     1      11.546  -7.552 -22.096  1.00  0.00     0.000 C 
BRANCH   2   3
ATOM      3  C   UNL     1      11.615  -6.285 -21.225  1.00  0.00     0.000 C 
BRANCH   3   4
ATOM      4  C   UNL     1      13.041  -5.824 -20.857  1.00  0.00     0.000 C 
BRANCH   4   5
ATOM      5  C   UNL     1      13.848  -5.196 -22.010  1.00  0.00     0.000 C 
BRANCH   5   6
ATOM      6  C   UNL     1      13.029  -4.340 -22.996  1.00  0.00     0.006 C 
BRANCH   6   7
ATOM      7  C   UNL     1      12.875  -2.868 -22.568  1.00  0.00     0.053 C 
BRANCH   7   8
ATOM      8  C   UNL     1      11.548  -2.587 -21.932  1.00  0.00     0.041 C 
ATOM      9  O   UNL     1      11.487  -2.205 -20.734  1.00  0.00    -0.550 OA
ATOM     10  O   UNL     1      10.376  -2.785 -22.650  1.00  0.00    -0.550 OA
ENDBRANCH   7   8
ENDBRANCH   6   7
ENDBRANCH   5   6
ENDBRANCH   4   5
ENDBRANCH   3   4
ENDBRANCH   2   3
ENDBRANCH   1   2
BRANCH   1  11
ATOM     11  C   UNL     1      11.865  -7.582 -24.605  1.00  0.00     0.000 C 
BRANCH  11  12
ATOM     12  C   UNL     1      13.196  -8.132 -24.069  1.00  0.00    -0.000 C 
BRANCH  12  13
ATOM     13  C   UNL     1      13.581  -9.478 -24.703  1.00  0.00    -0.000 C 
BRANCH  13  14
ATOM     14  C   UNL     1      13.446 -10.654 -23.721  1.00  0.00    -0.000 C 
BRANCH  14  15
ATOM     15  C   UNL     1      12.189 -11.505 -23.977  1.00  0.00    -0.000 C 
BRANCH  15  16
ATOM     16  C   UNL     1      10.975 -11.167 -23.087  1.00  0.00    -0.000 C 
BRANCH  16  17
ATOM     17  C   UNL     1       9.691 -10.799 -23.852  1.00  0.00    -0.003 C 
ATOM     18  C   UNL     1       9.905 -10.700 -25.361  1.00  0.00     0.004 C 
ENDBRANCH  16  17
ENDBRANCH  15  16
ENDBRANCH  14  15
ENDBRANCH  13  14
ENDBRANCH  12  13
ENDBRANCH  11  12
ENDBRANCH   1  11
TORSDOF 14
ENDMDL
MODEL 8
REMARK VINA RESULT:    -3.691      2.733      6.131
REMARK INTER + INTRA:          -8.296
REMARK INTER:                  -6.410
REMARK INTRA:                  -1.886
REMARK UNBOUND:                -1.583
REMARK SMILES CCCCCCCCCCCCCCCC(=O)[O-]
REMARK SMILES IDX 9 1 10 2 11 3 12 4 13 5 14 6 15 7 16 8 17 9 18 10 8 11 7 12
REMARK SMILES IDX 6 13 5 14 4 15 3 16 2 17 1 18
REMARK H PARENT
REMARK Flexibility Score: inf
ROOT
ATOM      1  C   UNL     1      -1.730  -3.936 -25.847  1.00  0.00     0.000 C 
ENDROOT
BRANCH   1   2
ATOM      2  C   UNL     1      -1.305  -4.030 -27.319  1.00  0.00     0.000 C 
BRANCH   2   3
ATOM      3  C   UNL     1      -1.204  -2.654 -28.002  1.00  0.00     0.000 C 
BRANCH   3   4
ATOM      4  C   UNL     1       0.119  -2.394 -28.751  1.00  0.00     0.000 C 
BRANCH   4   5
ATOM      5  C   UNL     1       0.098  -1.204 -29.730  1.00  0.00     0.000 C 
BRANCH   5   6
ATOM      6  C   UNL     1      -1.003  -0.157 -29.470  1.00  0.00     0.006 C 
BRANCH   6   7
ATOM      7  C   UNL     1      -1.809   0.227 -30.725  1.00  0.00     0.053 C 
BRANCH   7   8
ATOM      8  C   UNL     1      -1.289   1.465 -31.389  1.00  0.00     0.041 C 
ATOM      9  O   UNL     1      -2.075   2.399 -31.694  1.00  0.00    -0.550 OA
ATOM     10  O   UNL     1       0.059   1.571 -31.707  1.00  0.00    -0.550 OA
ENDBRANCH   7   8
ENDBRANCH   6   7
ENDBRANCH   5   6
ENDBRANCH   4   5
ENDBRANCH   3   4
ENDBRANCH   2   3
ENDBRANCH   1   2
BRANCH   1  11
ATOM     11  C   UNL     1      -2.804  -4.979 -25.517  1.00  0.00     0.000 C 
BRANCH  11  12
ATOM     12  C   UNL     1      -3.901  -4.999 -26.592  1.00  0.00    -0.000 C 
BRANCH  12  13
ATOM     13  C   UNL     1      -5.046  -4.017 -26.291  1.00  0.00    -0.000 C 
BRANCH  13  14
ATOM     14  C   UNL     1      -5.038  -2.797 -27.227  1.00  0.00    -0.000 C 
BRANCH  14  15
ATOM     15  C   UNL     1      -4.535  -1.517 -26.535  1.00  0.00    -0.000 C 
BRANCH  15  16
ATOM     16  C   UNL     1      -4.561  -1.549 -24.993  1.00  0.00    -0.000 C 
BRANCH  16  17
ATOM     17  C   UNL     1      -3.395  -0.814 -24.308  1.00  0.00    -0.003 C 
ATOM     18  C   UNL     1      -2.352  -0.298 -25.298  1.00  0.00     0.004 C 
ENDBRANCH  16  17
ENDBRANCH  15  16
ENDBRANCH  14  15
ENDBRANCH  13  14
ENDBRANCH  12  13
ENDBRANCH  11  12
ENDBRANCH   1  11
TORSDOF 14
ENDMDL
MODEL 9
REMARK VINA RESULT:    -3.664      1.413      3.036
REMARK INTER + INTRA:          -8.246
REMARK INTER:                  -6.410
REMARK INTRA:                  -1.837
REMARK UNBOUND:                -1.583
REMARK SMILES CCCCCCCCCCCCCCCC(=O)[O-]
REMARK SMILES IDX 9 1 10 2 11 3 12 4 13 5 14 6 15 7 16 8 17 9 18 10 8 11 7 12
REMARK SMILES IDX 6 13 5 14 4 15 3 16 2 17 1 18
REMARK H PARENT
REMARK Flexibility Score: inf
ROOT
ATOM      1  C   UNL     1       1.162  -3.159 -28.509  1.00  0.00     0.000 C 
ENDROOT
BRANCH   1   2
ATOM      2  C   UNL     1      -0.311  -3.576 -28.394  1.00  0.00     0.000 C 
BRANCH   2   3
ATOM      3  C   UNL     1      -0.485  -5.047 -27.974  1.00  0.00     0.000 C 
BRANCH   3   4
ATOM      4  C   UNL     1      -1.666  -5.317 -27.019  1.00  0.00     0.000 C 
BRANCH   4   5
ATOM      5  C   UNL     1      -2.445  -4.067 -26.566  1.00  0.00     0.000 C 
BRANCH   5   6
ATOM      6  C   UNL     1      -3.978  -4.169 -26.681  1.00  0.00     0.006 C 
BRANCH   6   7
ATOM      7  C   UNL     1      -4.654  -2.884 -27.195  1.00  0.00     0.053 C 
BRANCH   7   8
ATOM      8  C   UNL     1      -4.916  -1.893 -26.103  1.00  0.00     0.041 C 
ATOM      9  O   UNL     1      -5.168  -0.692 -26.384  1.00  0.00    -0.550 OA
ATOM     10  O   UNL     1      -4.845  -2.286 -24.773  1.00  0.00    -0.550 OA
ENDBRANCH   7   8
ENDBRANCH   6   7
ENDBRANCH   5   6
ENDBRANCH   4   5
ENDBRANCH   3   4
ENDBRANCH   2   3
ENDBRANCH   1   2
BRANCH   1  11
ATOM     11  C   UNL     1       1.744  -3.562 -29.869  1.00  0.00     0.000 C 
BRANCH  11  12
ATOM     12  C   UNL     1       1.370  -2.539 -30.953  1.00  0.00    -0.000 C 
BRANCH  12  13
ATOM     13  C   UNL     1       1.338  -1.097 -30.422  1.00  0.00    -0.000 C 
BRANCH  13  14
ATOM     14  C   UNL     1       0.292  -0.227 -31.139  1.00  0.00    -0.000 C 
BRANCH  14  15
ATOM     15  C   UNL     1      -0.968   0.017 -30.289  1.00  0.00    -0.000 C 
BRANCH  15  16
ATOM     16  C   UNL     1      -0.730   0.089 -28.767  1.00  0.00    -0.000 C 
BRANCH  16  17
ATOM     17  C   UNL     1      -1.972  -0.189 -27.901  1.00  0.00    -0.003 C 
ATOM     18  C   UNL     1      -1.646  -0.306 -26.412  1.00  0.00     0.004 C 
ENDBRANCH  16  17
ENDBRANCH  15  16
ENDBRANCH  14  15
ENDBRANCH  13  14
ENDBRANCH  12  13
ENDBRANCH  11  12
ENDBRANCH   1  11
TORSDOF 14
ENDMDL
