MODEL 1
REMARK VINA RESULT:    -5.447      0.000      0.000
REMARK INTER + INTRA:          -7.086
REMARK INTER:                  -6.721
REMARK INTRA:                  -0.365
REMARK UNBOUND:                -0.365
REMARK SMILES O=c1c(O)c(-c2cc(O)c(O)c(O)c2)oc2cc(O)cc(O)c12
REMARK SMILES IDX 5 1 3 2 2 3 1 4 23 5 21 6 20 7 18 8 17 9 16 10 15 11 6 12
REMARK SMILES IDX 7 13 8 14 14 15 10 16 12 17 9 18 11 20 13 22 4 24 22 26
REMARK SMILES IDX 19 28
REMARK H PARENT 9 19 11 21 13 23 4 25 22 27 19 29
REMARK Flexibility Score: inf
ROOT
ATOM      1  C   UNL     1      47.688  17.955 220.990  1.00  0.00     0.180 A 
ATOM      2  C   UNL     1      47.119  19.108 221.558  1.00  0.00     0.208 A 
ATOM      3  C   UNL     1      45.811  19.470 221.199  1.00  0.00     0.238 A 
ATOM      4  O   UNL     1      45.327  20.533 221.670  1.00  0.00    -0.285 OA
ATOM      5  C   UNL     1      45.082  18.665 220.291  1.00  0.00     0.111 A 
ATOM      6  C   UNL     1      43.735  18.915 219.888  1.00  0.00     0.134 A 
ATOM      7  C   UNL     1      43.157  18.128 218.886  1.00  0.00     0.093 A 
ATOM      8  C   UNL     1      43.851  17.061 218.317  1.00  0.00     0.123 A 
ATOM      9  C   UNL     1      45.148  16.770 218.746  1.00  0.00     0.094 A 
ATOM     10  C   UNL     1      45.764  17.561 219.719  1.00  0.00     0.146 A 
ATOM     11  O   UNL     1      47.002  17.257 220.091  1.00  0.00    -0.452 OA
ENDROOT
BRANCH   1  12
ATOM     12  C   UNL     1      49.052  17.495 221.338  1.00  0.00     0.029 A 
ATOM     13  C   UNL     1      50.128  17.837 220.505  1.00  0.00     0.062 A 
ATOM     14  C   UNL     1      51.425  17.400 220.798  1.00  0.00     0.162 A 
ATOM     15  C   UNL     1      49.285  16.675 222.455  1.00  0.00     0.062 A 
ATOM     16  C   UNL     1      51.656  16.597 221.928  1.00  0.00     0.200 A 
ATOM     17  C   UNL     1      50.580  16.231 222.756  1.00  0.00     0.162 A 
BRANCH  14  18
ATOM     18  O   UNL     1      52.469  17.773 219.954  1.00  0.00    -0.504 OA
ATOM     19  H   UNL     1      52.762  18.738 219.852  1.00  0.00     0.293 HD
ENDBRANCH  14  18
BRANCH  16  20
ATOM     20  O   UNL     1      52.952  16.168 222.216  1.00  0.00    -0.502 OA
ATOM     21  H   UNL     1      53.257  15.965 223.160  1.00  0.00     0.293 HD
ENDBRANCH  16  20
BRANCH  17  22
ATOM     22  O   UNL     1      50.800  15.423 223.869  1.00  0.00    -0.504 OA
ATOM     23  H   UNL     1      50.398  14.495 223.941  1.00  0.00     0.293 HD
ENDBRANCH  17  22
ENDBRANCH   1  12
BRANCH   2  24
ATOM     24  O   UNL     1      47.865  19.900 222.436  1.00  0.00    -0.502 OA
ATOM     25  H   UNL     1      48.057  19.622 223.390  1.00  0.00     0.293 HD
ENDBRANCH   2  24
BRANCH   6  26
ATOM     26  O   UNL     1      42.919  19.898 220.458  1.00  0.00    -0.507 OA
ATOM     27  H   UNL     1      42.099  19.712 221.015  1.00  0.00     0.293 HD
ENDBRANCH   6  26
BRANCH   8  28
ATOM     28  O   UNL     1      43.240  16.288 217.331  1.00  0.00    -0.508 OA
ATOM     29  H   UNL     1      42.725  15.446 217.560  1.00  0.00     0.293 HD
ENDBRANCH   8  28
TORSDOF 7
ENDMDL
MODEL 2
REMARK VINA RESULT:    -5.302     10.893     11.983
REMARK INTER + INTRA:          -6.907
REMARK INTER:                  -6.617
REMARK INTRA:                  -0.290
REMARK UNBOUND:                -0.365
REMARK SMILES O=c1c(O)c(-c2cc(O)c(O)c(O)c2)oc2cc(O)cc(O)c12
REMARK SMILES IDX 5 1 3 2 2 3 1 4 23 5 21 6 20 7 18 8 17 9 16 10 15 11 6 12
REMARK SMILES IDX 7 13 8 14 14 15 10 16 12 17 9 18 11 20 13 22 4 24 22 26
REMARK SMILES IDX 19 28
REMARK H PARENT 9 19 11 21 13 23 4 25 22 27 19 29
REMARK Flexibility Score: inf
ROOT
ATOM      1  C   UNL     1      40.704  17.496 211.319  1.00  0.00     0.180 A 
ATOM      2  C   UNL     1      39.873  18.491 210.775  1.00  0.00     0.208 A 
ATOM      3  C   UNL     1      38.607  18.706 211.341  1.00  0.00     0.238 A 
ATOM      4  O   UNL     1      37.846  19.560 210.816  1.00  0.00    -0.285 OA
ATOM      5  C   UNL     1      38.194  17.935 212.455  1.00  0.00     0.111 A 
ATOM      6  C   UNL     1      36.948  18.096 213.134  1.00  0.00     0.134 A 
ATOM      7  C   UNL     1      36.590  17.192 214.141  1.00  0.00     0.093 A 
ATOM      8  C   UNL     1      37.457  16.175 214.538  1.00  0.00     0.123 A 
ATOM      9  C   UNL     1      38.703  16.045 213.922  1.00  0.00     0.094 A 
ATOM     10  C   UNL     1      39.073  16.909 212.889  1.00  0.00     0.146 A 
ATOM     11  O   UNL     1      40.263  16.746 212.321  1.00  0.00    -0.452 OA
ENDROOT
BRANCH   1  12
ATOM     12  C   UNL     1      42.062  17.229 210.792  1.00  0.00     0.029 A 
ATOM     13  C   UNL     1      43.097  18.139 211.057  1.00  0.00     0.062 A 
ATOM     14  C   UNL     1      44.384  17.922 210.555  1.00  0.00     0.162 A 
ATOM     15  C   UNL     1      42.325  16.110 209.983  1.00  0.00     0.062 A 
ATOM     16  C   UNL     1      44.648  16.791 209.763  1.00  0.00     0.200 A 
ATOM     17  C   UNL     1      43.612  15.885 209.474  1.00  0.00     0.162 A 
BRANCH  14  18
ATOM     18  O   UNL     1      45.388  18.842 210.853  1.00  0.00    -0.504 OA
ATOM     19  H   UNL     1      46.065  18.682 211.590  1.00  0.00     0.293 HD
ENDBRANCH  14  18
BRANCH  16  20
ATOM     20  O   UNL     1      45.936  16.579 209.270  1.00  0.00    -0.502 OA
ATOM     21  H   UNL     1      46.676  16.192 209.841  1.00  0.00     0.293 HD
ENDBRANCH  16  20
BRANCH  17  22
ATOM     22  O   UNL     1      43.863  14.769 208.678  1.00  0.00    -0.504 OA
ATOM     23  H   UNL     1      44.645  14.150 208.862  1.00  0.00     0.293 HD
ENDBRANCH  17  22
ENDBRANCH   1  12
BRANCH   2  24
ATOM     24  O   UNL     1      40.292  19.225 209.661  1.00  0.00    -0.502 OA
ATOM     25  H   UNL     1      39.641  19.612 208.988  1.00  0.00     0.293 HD
ENDBRANCH   2  24
BRANCH   6  26
ATOM     26  O   UNL     1      36.048  19.134 212.879  1.00  0.00    -0.507 OA
ATOM     27  H   UNL     1      35.099  19.169 213.219  1.00  0.00     0.293 HD
ENDBRANCH   6  26
BRANCH   8  28
ATOM     28  O   UNL     1      37.074  15.302 215.555  1.00  0.00    -0.508 OA
ATOM     29  H   UNL     1      36.246  14.724 215.475  1.00  0.00     0.293 HD
ENDBRANCH   8  28
TORSDOF 7
ENDMDL
MODEL 3
REMARK VINA RESULT:    -5.167      4.415      7.234
REMARK INTER + INTRA:          -6.741
REMARK INTER:                  -6.423
REMARK INTRA:                  -0.318
REMARK UNBOUND:                -0.365
REMARK SMILES O=c1c(O)c(-c2cc(O)c(O)c(O)c2)oc2cc(O)cc(O)c12
REMARK SMILES IDX 5 1 3 2 2 3 1 4 23 5 21 6 20 7 18 8 17 9 16 10 15 11 6 12
REMARK SMILES IDX 7 13 8 14 14 15 10 16 12 17 9 18 11 20 13 22 4 24 22 26
REMARK SMILES IDX 19 28
REMARK H PARENT 9 19 11 21 13 23 4 25 22 27 19 29
REMARK Flexibility Score: inf
ROOT
ATOM      1  C   UNL     1      41.904  17.978 216.805  1.00  0.00     0.180 A 
ATOM      2  C   UNL     1      40.859  18.687 217.423  1.00  0.00     0.208 A 
ATOM      3  C   UNL     1      39.546  18.503 216.963  1.00  0.00     0.238 A 
ATOM      4  O   UNL     1      38.622  19.181 217.483  1.00  0.00    -0.285 OA
ATOM      5  C   UNL     1      39.291  17.598 215.903  1.00  0.00     0.111 A 
ATOM      6  C   UNL     1      37.994  17.304 215.384  1.00  0.00     0.134 A 
ATOM      7  C   UNL     1      37.873  16.493 214.249  1.00  0.00     0.093 A 
ATOM      8  C   UNL     1      38.994  15.915 213.654  1.00  0.00     0.123 A 
ATOM      9  C   UNL     1      40.262  16.148 214.189  1.00  0.00     0.094 A 
ATOM     10  C   UNL     1      40.418  16.982 215.299  1.00  0.00     0.146 A 
ATOM     11  O   UNL     1      41.642  17.187 215.771  1.00  0.00    -0.452 OA
ENDROOT
BRANCH   1  12
ATOM     12  C   UNL     1      43.311  18.101 217.251  1.00  0.00     0.029 A 
ATOM     13  C   UNL     1      44.071  19.207 216.841  1.00  0.00     0.062 A 
ATOM     14  C   UNL     1      45.408  19.338 217.229  1.00  0.00     0.162 A 
ATOM     15  C   UNL     1      43.920  17.104 218.032  1.00  0.00     0.062 A 
ATOM     16  C   UNL     1      46.008  18.348 218.028  1.00  0.00     0.200 A 
ATOM     17  C   UNL     1      45.260  17.226 218.425  1.00  0.00     0.162 A 
BRANCH  14  18
ATOM     18  O   UNL     1      46.125  20.459 216.813  1.00  0.00    -0.504 OA
ATOM     19  H   UNL     1      45.986  21.372 217.228  1.00  0.00     0.293 HD
ENDBRANCH  14  18
BRANCH  16  20
ATOM     20  O   UNL     1      47.341  18.489 218.415  1.00  0.00    -0.502 OA
ATOM     21  H   UNL     1      47.922  17.693 218.648  1.00  0.00     0.293 HD
ENDBRANCH  16  20
BRANCH  17  22
ATOM     22  O   UNL     1      45.853  16.234 219.204  1.00  0.00    -0.504 OA
ATOM     23  H   UNL     1      45.527  16.029 220.142  1.00  0.00     0.293 HD
ENDBRANCH  17  22
ENDBRANCH   1  12
BRANCH   2  24
ATOM     24  O   UNL     1      41.135  19.591 218.453  1.00  0.00    -0.502 OA
ATOM     25  H   UNL     1      40.411  20.120 218.922  1.00  0.00     0.293 HD
ENDBRANCH   2  24
BRANCH   6  26
ATOM     26  O   UNL     1      36.802  17.755 215.958  1.00  0.00    -0.507 OA
ATOM     27  H   UNL     1      35.881  17.447 215.686  1.00  0.00     0.293 HD
ENDBRANCH   6  26
BRANCH   8  28
ATOM     28  O   UNL     1      38.836  15.100 212.534  1.00  0.00    -0.508 OA
ATOM     29  H   UNL     1      38.116  14.388 212.493  1.00  0.00     0.293 HD
ENDBRANCH   8  28
TORSDOF 7
ENDMDL
MODEL 4
REMARK VINA RESULT:    -5.155     10.497     11.870
REMARK INTER + INTRA:          -6.726
REMARK INTER:                  -6.358
REMARK INTRA:                  -0.368
REMARK UNBOUND:                -0.365
REMARK SMILES O=c1c(O)c(-c2cc(O)c(O)c(O)c2)oc2cc(O)cc(O)c12
REMARK SMILES IDX 5 1 3 2 2 3 1 4 23 5 21 6 20 7 18 8 17 9 16 10 15 11 6 12
REMARK SMILES IDX 7 13 8 14 14 15 10 16 12 17 9 18 11 20 13 22 4 24 22 26
REMARK SMILES IDX 19 28
REMARK H PARENT 9 19 11 21 13 23 4 25 22 27 19 29
REMARK Flexibility Score: inf
ROOT
ATOM      1  C   UNL     1      40.840  16.871 211.899  1.00  0.00     0.180 A 
ATOM      2  C   UNL     1      40.809  16.295 213.180  1.00  0.00     0.208 A 
ATOM      3  C   UNL     1      39.645  16.419 213.955  1.00  0.00     0.238 A 
ATOM      4  O   UNL     1      39.642  15.948 215.123  1.00  0.00    -0.285 OA
ATOM      5  C   UNL     1      38.521  17.103 213.432  1.00  0.00     0.111 A 
ATOM      6  C   UNL     1      37.276  17.254 214.114  1.00  0.00     0.134 A 
ATOM      7  C   UNL     1      36.277  18.062 213.556  1.00  0.00     0.093 A 
ATOM      8  C   UNL     1      36.453  18.670 212.314  1.00  0.00     0.123 A 
ATOM      9  C   UNL     1      37.644  18.480 211.611  1.00  0.00     0.094 A 
ATOM     10  C   UNL     1      38.673  17.710 212.159  1.00  0.00     0.146 A 
ATOM     11  O   UNL     1      39.794  17.563 211.463  1.00  0.00    -0.452 OA
ENDROOT
BRANCH   1  12
ATOM     12  C   UNL     1      42.022  16.761 211.014  1.00  0.00     0.029 A 
ATOM     13  C   UNL     1      42.970  17.796 210.995  1.00  0.00     0.062 A 
ATOM     14  C   UNL     1      44.085  17.728 210.154  1.00  0.00     0.162 A 
ATOM     15  C   UNL     1      42.188  15.666 210.149  1.00  0.00     0.062 A 
ATOM     16  C   UNL     1      44.257  16.621 209.305  1.00  0.00     0.200 A 
ATOM     17  C   UNL     1      43.302  15.590 209.301  1.00  0.00     0.162 A 
BRANCH  14  18
ATOM     18  O   UNL     1      45.011  18.770 210.175  1.00  0.00    -0.504 OA
ATOM     19  H   UNL     1      45.103  19.426 209.409  1.00  0.00     0.293 HD
ENDBRANCH  14  18
BRANCH  16  20
ATOM     20  O   UNL     1      45.375  16.559 208.471  1.00  0.00    -0.502 OA
ATOM     21  H   UNL     1      45.848  15.687 208.267  1.00  0.00     0.293 HD
ENDBRANCH  16  20
BRANCH  17  22
ATOM     22  O   UNL     1      43.459  14.497 208.451  1.00  0.00    -0.504 OA
ATOM     23  H   UNL     1      44.243  14.429 207.812  1.00  0.00     0.293 HD
ENDBRANCH  17  22
ENDBRANCH   1  12
BRANCH   2  24
ATOM     24  O   UNL     1      41.938  15.642 213.686  1.00  0.00    -0.502 OA
ATOM     25  H   UNL     1      41.919  15.111 214.547  1.00  0.00     0.293 HD
ENDBRANCH   2  24
BRANCH   6  26
ATOM     26  O   UNL     1      36.961  16.615 215.317  1.00  0.00    -0.507 OA
ATOM     27  H   UNL     1      37.310  16.891 216.223  1.00  0.00     0.293 HD
ENDBRANCH   6  26
BRANCH   8  28
ATOM     28  O   UNL     1      35.432  19.455 211.781  1.00  0.00    -0.508 OA
ATOM     29  H   UNL     1      34.967  20.166 212.332  1.00  0.00     0.293 HD
ENDBRANCH   8  28
TORSDOF 7
ENDMDL
MODEL 5
REMARK VINA RESULT:    -5.134      5.100      8.041
REMARK INTER + INTRA:          -6.701
REMARK INTER:                  -6.439
REMARK INTRA:                  -0.261
REMARK UNBOUND:                -0.365
REMARK SMILES O=c1c(O)c(-c2cc(O)c(O)c(O)c2)oc2cc(O)cc(O)c12
REMARK SMILES IDX 5 1 3 2 2 3 1 4 23 5 21 6 20 7 18 8 17 9 16 10 15 11 6 12
REMARK SMILES IDX 7 13 8 14 14 15 10 16 12 17 9 18 11 20 13 22 4 24 22 26
REMARK SMILES IDX 19 28
REMARK H PARENT 9 19 11 21 13 23 4 25 22 27 19 29
REMARK Flexibility Score: inf
ROOT
ATOM      1  C   UNL     1      48.593  17.689 225.764  1.00  0.00     0.180 A 
ATOM      2  C   UNL     1      49.375  18.745 226.265  1.00  0.00     0.208 A 
ATOM      3  C   UNL     1      50.640  18.981 225.705  1.00  0.00     0.238 A 
ATOM      4  O   UNL     1      51.357  19.893 226.195  1.00  0.00    -0.285 OA
ATOM      5  C   UNL     1      51.101  18.170 224.640  1.00  0.00     0.111 A 
ATOM      6  C   UNL     1      52.351  18.345 223.972  1.00  0.00     0.134 A 
ATOM      7  C   UNL     1      52.762  17.404 223.020  1.00  0.00     0.093 A 
ATOM      8  C   UNL     1      51.943  16.333 222.666  1.00  0.00     0.123 A 
ATOM      9  C   UNL     1      50.693  16.185 223.271  1.00  0.00     0.094 A 
ATOM     10  C   UNL     1      50.272  17.087 224.250  1.00  0.00     0.146 A 
ATOM     11  O   UNL     1      49.081  16.905 224.809  1.00  0.00    -0.452 OA
ENDROOT
BRANCH   1  12
ATOM     12  C   UNL     1      47.239  17.394 226.285  1.00  0.00     0.029 A 
ATOM     13  C   UNL     1      47.008  16.187 226.961  1.00  0.00     0.062 A 
ATOM     14  C   UNL     1      45.734  15.872 227.446  1.00  0.00     0.162 A 
ATOM     15  C   UNL     1      46.165  18.274 226.069  1.00  0.00     0.062 A 
ATOM     16  C   UNL     1      44.667  16.765 227.246  1.00  0.00     0.200 A 
ATOM     17  C   UNL     1      44.885  17.968 226.551  1.00  0.00     0.162 A 
BRANCH  14  18
ATOM     18  O   UNL     1      45.548  14.669 228.125  1.00  0.00    -0.504 OA
ATOM     19  H   UNL     1      46.078  14.431 228.955  1.00  0.00     0.293 HD
ENDBRANCH  14  18
BRANCH  16  20
ATOM     20  O   UNL     1      43.400  16.446 227.737  1.00  0.00    -0.502 OA
ATOM     21  H   UNL     1      42.849  15.686 227.357  1.00  0.00     0.293 HD
ENDBRANCH  16  20
BRANCH  17  22
ATOM     22  O   UNL     1      43.827  18.850 226.336  1.00  0.00    -0.504 OA
ATOM     23  H   UNL     1      42.979  18.558 225.864  1.00  0.00     0.293 HD
ENDBRANCH  17  22
ENDBRANCH   1  12
BRANCH   2  24
ATOM     24  O   UNL     1      48.909  19.519 227.331  1.00  0.00    -0.502 OA
ATOM     25  H   UNL     1      49.487  19.750 228.130  1.00  0.00     0.293 HD
ENDBRANCH   2  24
BRANCH   6  26
ATOM     26  O   UNL     1      53.204  19.432 224.183  1.00  0.00    -0.507 OA
ATOM     27  H   UNL     1      52.942  20.285 224.653  1.00  0.00     0.293 HD
ENDBRANCH   6  26
BRANCH   8  28
ATOM     28  O   UNL     1      52.377  15.423 221.703  1.00  0.00    -0.508 OA
ATOM     29  H   UNL     1      52.202  15.571 220.716  1.00  0.00     0.293 HD
ENDBRANCH   8  28
TORSDOF 7
ENDMDL
MODEL 6
REMARK VINA RESULT:    -5.114      1.185      7.127
REMARK INTER + INTRA:          -6.675
REMARK INTER:                  -6.322
REMARK INTRA:                  -0.353
REMARK UNBOUND:                -0.365
REMARK SMILES O=c1c(O)c(-c2cc(O)c(O)c(O)c2)oc2cc(O)cc(O)c12
REMARK SMILES IDX 5 1 3 2 2 3 1 4 23 5 21 6 20 7 18 8 17 9 16 10 15 11 6 12
REMARK SMILES IDX 7 13 8 14 14 15 10 16 12 17 9 18 11 20 13 22 4 24 22 26
REMARK SMILES IDX 19 28
REMARK H PARENT 9 19 11 21 13 23 4 25 22 27 19 29
REMARK Flexibility Score: inf
ROOT
ATOM      1  C   UNL     1      47.401  17.988 220.154  1.00  0.00     0.180 A 
ATOM      2  C   UNL     1      48.406  18.724 219.505  1.00  0.00     0.208 A 
ATOM      3  C   UNL     1      49.741  18.555 219.904  1.00  0.00     0.238 A 
ATOM      4  O   UNL     1      50.630  19.258 219.356  1.00  0.00    -0.285 OA
ATOM      5  C   UNL     1      50.056  17.639 220.936  1.00  0.00     0.111 A 
ATOM      6  C   UNL     1      51.379  17.358 221.394  1.00  0.00     0.134 A 
ATOM      7  C   UNL     1      51.563  16.531 222.508  1.00  0.00     0.093 A 
ATOM      8  C   UNL     1      50.479  15.924 223.141  1.00  0.00     0.123 A 
ATOM      9  C   UNL     1      49.185  16.144 222.666  1.00  0.00     0.094 A 
ATOM     10  C   UNL     1      48.967  16.993 221.578  1.00  0.00     0.146 A 
ATOM     11  O   UNL     1      47.721  17.185 221.163  1.00  0.00    -0.452 OA
ENDROOT
BRANCH   1  12
ATOM     12  C   UNL     1      45.974  18.093 219.772  1.00  0.00     0.029 A 
ATOM     13  C   UNL     1      45.175  19.088 220.355  1.00  0.00     0.062 A 
ATOM     14  C   UNL     1      43.819  19.199 220.029  1.00  0.00     0.162 A 
ATOM     15  C   UNL     1      45.387  17.182 218.878  1.00  0.00     0.062 A 
ATOM     16  C   UNL     1      43.241  18.297 219.118  1.00  0.00     0.200 A 
ATOM     17  C   UNL     1      44.029  17.283 218.545  1.00  0.00     0.162 A 
BRANCH  14  18
ATOM     18  O   UNL     1      43.063  20.210 220.619  1.00  0.00    -0.504 OA
ATOM     19  H   UNL     1      43.352  21.181 220.599  1.00  0.00     0.293 HD
ENDBRANCH  14  18
BRANCH  16  20
ATOM     20  O   UNL     1      41.889  18.417 218.794  1.00  0.00    -0.502 OA
ATOM     21  H   UNL     1      41.260  17.623 218.802  1.00  0.00     0.293 HD
ENDBRANCH  16  20
BRANCH  17  22
ATOM     22  O   UNL     1      43.458  16.377 217.653  1.00  0.00    -0.504 OA
ATOM     23  H   UNL     1      42.464  16.380 217.456  1.00  0.00     0.293 HD
ENDBRANCH  17  22
ENDBRANCH   1  12
BRANCH   2  24
ATOM     24  O   UNL     1      48.070  19.640 218.503  1.00  0.00    -0.502 OA
ATOM     25  H   UNL     1      48.414  20.592 218.498  1.00  0.00     0.293 HD
ENDBRANCH   2  24
BRANCH   6  26
ATOM     26  O   UNL     1      52.537  17.839 220.777  1.00  0.00    -0.507 OA
ATOM     27  H   UNL     1      52.871  18.789 220.840  1.00  0.00     0.293 HD
ENDBRANCH   6  26
BRANCH   8  28
ATOM     28  O   UNL     1      50.699  15.094 224.240  1.00  0.00    -0.508 OA
ATOM     29  H   UNL     1      50.130  14.273 224.407  1.00  0.00     0.293 HD
ENDBRANCH   8  28
TORSDOF 7
ENDMDL
MODEL 7
REMARK VINA RESULT:    -5.089      9.749     12.477
REMARK INTER + INTRA:          -6.645
REMARK INTER:                  -6.321
REMARK INTRA:                  -0.324
REMARK UNBOUND:                -0.365
REMARK SMILES O=c1c(O)c(-c2cc(O)c(O)c(O)c2)oc2cc(O)cc(O)c12
REMARK SMILES IDX 5 1 3 2 2 3 1 4 23 5 21 6 20 7 18 8 17 9 16 10 15 11 6 12
REMARK SMILES IDX 7 13 8 14 14 15 10 16 12 17 9 18 11 20 13 22 4 24 22 26
REMARK SMILES IDX 19 28
REMARK H PARENT 9 19 11 21 13 23 4 25 22 27 19 29
REMARK Flexibility Score: inf
ROOT
ATOM      1  C   UNL     1      42.407  17.397 211.379  1.00  0.00     0.180 A 
ATOM      2  C   UNL     1      42.466  16.558 210.252  1.00  0.00     0.208 A 
ATOM      3  C   UNL     1      43.580  16.636 209.402  1.00  0.00     0.238 A 
ATOM      4  O   UNL     1      43.601  15.922 208.366  1.00  0.00    -0.285 OA
ATOM      5  C   UNL     1      44.630  17.538 209.699  1.00  0.00     0.111 A 
ATOM      6  C   UNL     1      45.825  17.672 208.928  1.00  0.00     0.134 A 
ATOM      7  C   UNL     1      46.737  18.688 209.239  1.00  0.00     0.093 A 
ATOM      8  C   UNL     1      46.530  19.532 210.329  1.00  0.00     0.123 A 
ATOM      9  C   UNL     1      45.394  19.372 211.125  1.00  0.00     0.094 A 
ATOM     10  C   UNL     1      44.448  18.391 210.818  1.00  0.00     0.146 A 
ATOM     11  O   UNL     1      43.377  18.279 211.594  1.00  0.00    -0.452 OA
ENDROOT
BRANCH   1  12
ATOM     12  C   UNL     1      41.277  17.355 212.335  1.00  0.00     0.029 A 
ATOM     13  C   UNL     1      41.409  16.627 213.527  1.00  0.00     0.062 A 
ATOM     14  C   UNL     1      40.351  16.553 214.439  1.00  0.00     0.162 A 
ATOM     15  C   UNL     1      40.053  17.983 212.048  1.00  0.00     0.062 A 
ATOM     16  C   UNL     1      39.135  17.200 214.158  1.00  0.00     0.200 A 
ATOM     17  C   UNL     1      38.987  17.913 212.955  1.00  0.00     0.162 A 
BRANCH  14  18
ATOM     18  O   UNL     1      40.526  15.832 215.619  1.00  0.00    -0.504 OA
ATOM     19  H   UNL     1      40.976  14.924 215.635  1.00  0.00     0.293 HD
ENDBRANCH  14  18
BRANCH  16  20
ATOM     20  O   UNL     1      38.085  17.124 215.074  1.00  0.00    -0.502 OA
ATOM     21  H   UNL     1      37.116  17.102 214.784  1.00  0.00     0.293 HD
ENDBRANCH  16  20
BRANCH  17  22
ATOM     22  O   UNL     1      37.779  18.544 212.663  1.00  0.00    -0.504 OA
ATOM     23  H   UNL     1      36.888  18.095 212.841  1.00  0.00     0.293 HD
ENDBRANCH  17  22
ENDBRANCH   1  12
BRANCH   2  24
ATOM     24  O   UNL     1      41.408  15.690 209.966  1.00  0.00    -0.502 OA
ATOM     25  H   UNL     1      41.553  14.721 209.711  1.00  0.00     0.293 HD
ENDBRANCH   2  24
BRANCH   6  26
ATOM     26  O   UNL     1      46.174  16.822 207.875  1.00  0.00    -0.507 OA
ATOM     27  H   UNL     1      45.586  16.088 207.509  1.00  0.00     0.293 HD
ENDBRANCH   6  26
BRANCH   8  28
ATOM     28  O   UNL     1      47.466  20.523 210.620  1.00  0.00    -0.508 OA
ATOM     29  H   UNL     1      47.482  21.402 210.116  1.00  0.00     0.293 HD
ENDBRANCH   8  28
TORSDOF 7
ENDMDL
MODEL 8
REMARK VINA RESULT:    -5.067      1.870      6.715
REMARK INTER + INTRA:          -6.617
REMARK INTER:                  -6.350
REMARK INTRA:                  -0.267
REMARK UNBOUND:                -0.365
REMARK SMILES O=c1c(O)c(-c2cc(O)c(O)c(O)c2)oc2cc(O)cc(O)c12
REMARK SMILES IDX 5 1 3 2 2 3 1 4 23 5 21 6 20 7 18 8 17 9 16 10 15 11 6 12
REMARK SMILES IDX 7 13 8 14 14 15 10 16 12 17 9 18 11 20 13 22 4 24 22 26
REMARK SMILES IDX 19 28
REMARK H PARENT 9 19 11 21 13 23 4 25 22 27 19 29
REMARK Flexibility Score: inf
ROOT
ATOM      1  C   UNL     1      47.268  17.539 220.767  1.00  0.00     0.180 A 
ATOM      2  C   UNL     1      46.757  17.675 222.068  1.00  0.00     0.208 A 
ATOM      3  C   UNL     1      47.622  17.510 223.161  1.00  0.00     0.238 A 
ATOM      4  O   UNL     1      47.147  17.578 224.325  1.00  0.00    -0.285 OA
ATOM      5  C   UNL     1      48.992  17.229 222.938  1.00  0.00     0.111 A 
ATOM      6  C   UNL     1      49.967  17.082 223.971  1.00  0.00     0.134 A 
ATOM      7  C   UNL     1      51.265  16.676 223.641  1.00  0.00     0.093 A 
ATOM      8  C   UNL     1      51.642  16.474 222.314  1.00  0.00     0.123 A 
ATOM      9  C   UNL     1      50.712  16.673 221.291  1.00  0.00     0.094 A 
ATOM     10  C   UNL     1      49.399  17.042 221.592  1.00  0.00     0.146 A 
ATOM     11  O   UNL     1      48.543  17.211 220.591  1.00  0.00    -0.452 OA
ENDROOT
BRANCH   1  12
ATOM     12  C   UNL     1      46.423  17.724 219.564  1.00  0.00     0.029 A 
ATOM     13  C   UNL     1      46.554  18.894 218.802  1.00  0.00     0.062 A 
ATOM     14  C   UNL     1      45.755  19.105 217.673  1.00  0.00     0.162 A 
ATOM     15  C   UNL     1      45.452  16.775 219.201  1.00  0.00     0.062 A 
ATOM     16  C   UNL     1      44.799  18.144 217.302  1.00  0.00     0.200 A 
ATOM     17  C   UNL     1      44.646  16.978 218.072  1.00  0.00     0.162 A 
BRANCH  14  18
ATOM     18  O   UNL     1      45.925  20.274 216.934  1.00  0.00    -0.504 OA
ATOM     19  H   UNL     1      45.804  21.193 217.343  1.00  0.00     0.293 HD
ENDBRANCH  14  18
BRANCH  16  20
ATOM     20  O   UNL     1      44.008  18.359 216.172  1.00  0.00    -0.502 OA
ATOM     21  H   UNL     1      43.054  18.691 216.237  1.00  0.00     0.293 HD
ENDBRANCH  16  20
BRANCH  17  22
ATOM     22  O   UNL     1      43.689  16.028 217.718  1.00  0.00    -0.504 OA
ATOM     23  H   UNL     1      43.939  15.061 217.544  1.00  0.00     0.293 HD
ENDBRANCH  17  22
ENDBRANCH   1  12
BRANCH   2  24
ATOM     24  O   UNL     1      45.397  17.931 222.266  1.00  0.00    -0.502 OA
ATOM     25  H   UNL     1      45.058  18.797 222.667  1.00  0.00     0.293 HD
ENDBRANCH   2  24
BRANCH   6  26
ATOM     26  O   UNL     1      49.721  17.348 225.321  1.00  0.00    -0.507 OA
ATOM     27  H   UNL     1      49.317  18.203 225.674  1.00  0.00     0.293 HD
ENDBRANCH   6  26
BRANCH   8  28
ATOM     28  O   UNL     1      52.947  16.085 222.020  1.00  0.00    -0.508 OA
ATOM     29  H   UNL     1      53.288  16.046 221.067  1.00  0.00     0.293 HD
ENDBRANCH   8  28
TORSDOF 7
ENDMDL
MODEL 9
REMARK VINA RESULT:    -5.051      3.833      9.263
REMARK INTER + INTRA:          -6.597
REMARK INTER:                  -6.230
REMARK INTRA:                  -0.368
REMARK UNBOUND:                -0.365
REMARK SMILES O=c1c(O)c(-c2cc(O)c(O)c(O)c2)oc2cc(O)cc(O)c12
REMARK SMILES IDX 5 1 3 2 2 3 1 4 23 5 21 6 20 7 18 8 17 9 16 10 15 11 6 12
REMARK SMILES IDX 7 13 8 14 14 15 10 16 12 17 9 18 11 20 13 22 4 24 22 26
REMARK SMILES IDX 19 28
REMARK H PARENT 9 19 11 21 13 23 4 25 22 27 19 29
REMARK Flexibility Score: inf
ROOT
ATOM      1  C   UNL     1      42.810  17.794 216.233  1.00  0.00     0.180 A 
ATOM      2  C   UNL     1      43.269  19.085 215.921  1.00  0.00     0.208 A 
ATOM      3  C   UNL     1      44.433  19.564 216.543  1.00  0.00     0.238 A 
ATOM      4  O   UNL     1      44.808  20.741 216.301  1.00  0.00    -0.285 OA
ATOM      5  C   UNL     1      45.133  18.739 217.457  1.00  0.00     0.111 A 
ATOM      6  C   UNL     1      46.345  19.107 218.115  1.00  0.00     0.134 A 
ATOM      7  C   UNL     1      46.880  18.264 219.096  1.00  0.00     0.093 A 
ATOM      8  C   UNL     1      46.285  17.040 219.398  1.00  0.00     0.123 A 
ATOM      9  C   UNL     1      45.132  16.644 218.718  1.00  0.00     0.094 A 
ATOM     10  C   UNL     1      44.554  17.479 217.759  1.00  0.00     0.146 A 
ATOM     11  O   UNL     1      43.452  17.070 217.143  1.00  0.00    -0.452 OA
ENDROOT
BRANCH   1  12
ATOM     12  C   UNL     1      41.606  17.211 215.599  1.00  0.00     0.029 A 
ATOM     13  C   UNL     1      40.362  17.332 216.239  1.00  0.00     0.062 A 
ATOM     14  C   UNL     1      39.211  16.773 215.673  1.00  0.00     0.162 A 
ATOM     15  C   UNL     1      41.689  16.489 214.397  1.00  0.00     0.062 A 
ATOM     16  C   UNL     1      39.296  16.069 214.460  1.00  0.00     0.200 A 
ATOM     17  C   UNL     1      40.541  15.924 213.823  1.00  0.00     0.162 A 
BRANCH  14  18
ATOM     18  O   UNL     1      37.992  16.927 216.332  1.00  0.00    -0.504 OA
ATOM     19  H   UNL     1      37.115  16.639 215.917  1.00  0.00     0.293 HD
ENDBRANCH  14  18
BRANCH  16  20
ATOM     20  O   UNL     1      38.142  15.518 213.900  1.00  0.00    -0.502 OA
ATOM     21  H   UNL     1      38.178  14.792 213.196  1.00  0.00     0.293 HD
ENDBRANCH  16  20
BRANCH  17  22
ATOM     22  O   UNL     1      40.635  15.215 212.627  1.00  0.00    -0.504 OA
ATOM     23  H   UNL     1      40.135  15.507 211.795  1.00  0.00     0.293 HD
ENDBRANCH  17  22
ENDBRANCH   1  12
BRANCH   2  24
ATOM     24  O   UNL     1      42.550  19.891 215.033  1.00  0.00    -0.502 OA
ATOM     25  H   UNL     1      41.667  19.604 214.631  1.00  0.00     0.293 HD
ENDBRANCH   2  24
BRANCH   6  26
ATOM     26  O   UNL     1      47.072  20.265 217.823  1.00  0.00    -0.507 OA
ATOM     27  H   UNL     1      47.347  20.552 216.896  1.00  0.00     0.293 HD
ENDBRANCH   6  26
BRANCH   8  28
ATOM     28  O   UNL     1      46.853  16.219 220.370  1.00  0.00    -0.508 OA
ATOM     29  H   UNL     1      46.290  15.583 220.923  1.00  0.00     0.293 HD
ENDBRANCH   8  28
TORSDOF 7
ENDMDL
