MODEL 1
REMARK VINA RESULT:    -5.732      0.000      0.000
REMARK INTER + INTRA:          -5.732
REMARK INTER:                  -5.732
REMARK INTRA:                   0.000
REMARK UNBOUND:                 0.000
REMARK SMILES CC1=CC(=O)[C@@H]2C[C@H]1C2(C)C
REMARK SMILES IDX 1 1 2 2 3 3 4 4 5 5 6 6 7 7 8 8 9 9 10 10 11 11
REMARK H PARENT
REMARK Flexibility Score: inf
ROOT
ATOM      1  C   UNL     1      -8.612  33.662  24.751  1.00  0.00     0.040 C 
ATOM      2  C   UNL     1      -8.526  33.118  23.359  1.00  0.00    -0.066 C 
ATOM      3  C   UNL     1      -7.815  33.741  22.378  1.00  0.00     0.047 C 
ATOM      4  C   UNL     1      -7.820  33.077  21.034  1.00  0.00     0.159 C 
ATOM      5  O   UNL     1      -7.168  33.530  20.058  1.00  0.00    -0.295 OA
ATOM      6  C   UNL     1      -8.672  31.811  20.932  1.00  0.00     0.067 C 
ATOM      7  C   UNL     1      -9.997  32.191  21.629  1.00  0.00     0.021 C 
ATOM      8  C   UNL     1      -9.295  31.842  22.962  1.00  0.00     0.022 C 
ATOM      9  C   UNL     1      -8.355  30.901  22.153  1.00  0.00    -0.019 C 
ATOM     10  C   UNL     1      -8.941  29.476  21.995  1.00  0.00     0.012 C 
ATOM     11  C   UNL     1      -6.875  30.771  22.613  1.00  0.00     0.012 C 
ENDROOT
TORSDOF 0
ENDMDL
MODEL 2
REMARK VINA RESULT:    -5.439      1.614      2.124
REMARK INTER + INTRA:          -5.439
REMARK INTER:                  -5.439
REMARK INTRA:                   0.000
REMARK UNBOUND:                 0.000
REMARK SMILES CC1=CC(=O)[C@@H]2C[C@H]1C2(C)C
REMARK SMILES IDX 1 1 2 2 3 3 4 4 5 5 6 6 7 7 8 8 9 9 10 10 11 11
REMARK H PARENT
REMARK Flexibility Score: inf
ROOT
ATOM      1  C   UNL     1      -7.129  34.689  23.224  1.00  0.00     0.040 C 
ATOM      2  C   UNL     1      -7.936  33.449  23.003  1.00  0.00    -0.066 C 
ATOM      3  C   UNL     1      -8.462  33.131  21.787  1.00  0.00     0.047 C 
ATOM      4  C   UNL     1      -9.247  31.856  21.719  1.00  0.00     0.159 C 
ATOM      5  O   UNL     1      -9.747  31.431  20.645  1.00  0.00    -0.295 OA
ATOM      6  C   UNL     1      -9.397  31.107  23.044  1.00  0.00     0.067 C 
ATOM      7  C   UNL     1      -9.770  32.209  24.060  1.00  0.00     0.021 C 
ATOM      8  C   UNL     1      -8.255  32.496  24.173  1.00  0.00     0.022 C 
ATOM      9  C   UNL     1      -8.002  31.026  23.728  1.00  0.00    -0.019 C 
ATOM     10  C   UNL     1      -7.987  30.042  24.923  1.00  0.00     0.012 C 
ATOM     11  C   UNL     1      -6.760  30.732  22.839  1.00  0.00     0.012 C 
ENDROOT
TORSDOF 0
ENDMDL
MODEL 3
REMARK VINA RESULT:    -5.306      1.443      3.235
REMARK INTER + INTRA:          -5.306
REMARK INTER:                  -5.306
REMARK INTRA:                   0.000
REMARK UNBOUND:                 0.000
REMARK SMILES CC1=CC(=O)[C@@H]2C[C@H]1C2(C)C
REMARK SMILES IDX 1 1 2 2 3 3 4 4 5 5 6 6 7 7 8 8 9 9 10 10 11 11
REMARK H PARENT
REMARK Flexibility Score: inf
ROOT
ATOM      1  C   UNL     1      -6.554  29.873  23.454  1.00  0.00     0.040 C 
ATOM      2  C   UNL     1      -7.494  30.870  22.854  1.00  0.00    -0.066 C 
ATOM      3  C   UNL     1      -8.362  30.542  21.856  1.00  0.00     0.047 C 
ATOM      4  C   UNL     1      -9.244  31.647  21.356  1.00  0.00     0.159 C 
ATOM      5  O   UNL     1     -10.115  31.462  20.468  1.00  0.00    -0.295 OA
ATOM      6  C   UNL     1      -9.010  33.014  22.001  1.00  0.00     0.067 C 
ATOM      7  C   UNL     1      -7.473  33.171  22.005  1.00  0.00     0.021 C 
ATOM      8  C   UNL     1      -7.479  32.343  23.310  1.00  0.00     0.022 C 
ATOM      9  C   UNL     1      -8.939  32.828  23.544  1.00  0.00    -0.019 C 
ATOM     10  C   UNL     1      -8.999  34.177  24.303  1.00  0.00     0.012 C 
ATOM     11  C   UNL     1      -9.941  31.846  24.215  1.00  0.00     0.012 C 
ENDROOT
TORSDOF 0
ENDMDL
MODEL 4
REMARK VINA RESULT:    -5.283      1.728      2.958
REMARK INTER + INTRA:          -5.283
REMARK INTER:                  -5.283
REMARK INTRA:                   0.000
REMARK UNBOUND:                 0.000
REMARK SMILES CC1=CC(=O)[C@@H]2C[C@H]1C2(C)C
REMARK SMILES IDX 1 1 2 2 3 3 4 4 5 5 6 6 7 7 8 8 9 9 10 10 11 11
REMARK H PARENT
REMARK Flexibility Score: inf
ROOT
ATOM      1  C   UNL     1      -7.029  33.405  19.885  1.00  0.00     0.040 C 
ATOM      2  C   UNL     1      -7.688  32.806  21.087  1.00  0.00    -0.066 C 
ATOM      3  C   UNL     1      -8.490  33.533  21.914  1.00  0.00     0.047 C 
ATOM      4  C   UNL     1      -9.083  32.797  23.078  1.00  0.00     0.159 C 
ATOM      5  O   UNL     1      -9.873  33.345  23.889  1.00  0.00    -0.295 OA
ATOM      6  C   UNL     1      -8.659  31.333  23.211  1.00  0.00     0.067 C 
ATOM      7  C   UNL     1      -7.130  31.361  22.989  1.00  0.00     0.021 C 
ATOM      8  C   UNL     1      -7.437  31.335  21.474  1.00  0.00     0.022 C 
ATOM      9  C   UNL     1      -8.792  30.651  21.819  1.00  0.00    -0.019 C 
ATOM     10  C   UNL     1      -8.670  29.109  21.903  1.00  0.00     0.012 C 
ATOM     11  C   UNL     1     -10.031  30.995  20.944  1.00  0.00     0.012 C 
ENDROOT
TORSDOF 0
ENDMDL
MODEL 5
REMARK VINA RESULT:    -5.147      2.088      3.427
REMARK INTER + INTRA:          -5.147
REMARK INTER:                  -5.147
REMARK INTRA:                   0.000
REMARK UNBOUND:                 0.000
REMARK SMILES CC1=CC(=O)[C@@H]2C[C@H]1C2(C)C
REMARK SMILES IDX 1 1 2 2 3 3 4 4 5 5 6 6 7 7 8 8 9 9 10 10 11 11
REMARK H PARENT
REMARK Flexibility Score: inf
ROOT
ATOM      1  C   UNL     1      -6.374  29.623  23.118  1.00  0.00     0.040 C 
ATOM      2  C   UNL     1      -7.463  30.645  23.045  1.00  0.00    -0.066 C 
ATOM      3  C   UNL     1      -8.285  30.909  24.099  1.00  0.00     0.047 C 
ATOM      4  C   UNL     1      -9.330  31.961  23.877  1.00  0.00     0.159 C 
ATOM      5  O   UNL     1     -10.122  32.324  24.785  1.00  0.00    -0.295 OA
ATOM      6  C   UNL     1      -9.368  32.560  22.470  1.00  0.00     0.067 C 
ATOM      7  C   UNL     1      -9.270  31.334  21.536  1.00  0.00     0.021 C 
ATOM      8  C   UNL     1      -7.739  31.413  21.736  1.00  0.00     0.022 C 
ATOM      9  C   UNL     1      -7.916  32.927  22.050  1.00  0.00    -0.019 C 
ATOM     10  C   UNL     1      -7.875  33.803  20.774  1.00  0.00     0.012 C 
ATOM     11  C   UNL     1      -6.979  33.570  23.112  1.00  0.00     0.012 C 
ENDROOT
TORSDOF 0
ENDMDL
MODEL 6
REMARK VINA RESULT:    -5.141      2.173      3.297
REMARK INTER + INTRA:          -5.141
REMARK INTER:                  -5.141
REMARK INTRA:                   0.000
REMARK UNBOUND:                 0.000
REMARK SMILES CC1=CC(=O)[C@@H]2C[C@H]1C2(C)C
REMARK SMILES IDX 1 1 2 2 3 3 4 4 5 5 6 6 7 7 8 8 9 9 10 10 11 11
REMARK H PARENT
REMARK Flexibility Score: inf
ROOT
ATOM      1  C   UNL     1      -8.503  33.146  25.584  1.00  0.00     0.040 C 
ATOM      2  C   UNL     1      -8.461  32.106  24.509  1.00  0.00    -0.066 C 
ATOM      3  C   UNL     1      -9.135  30.927  24.611  1.00  0.00     0.047 C 
ATOM      4  C   UNL     1      -8.999  29.984  23.453  1.00  0.00     0.159 C 
ATOM      5  O   UNL     1      -9.606  28.883  23.408  1.00  0.00    -0.295 OA
ATOM      6  C   UNL     1      -8.071  30.455  22.331  1.00  0.00     0.067 C 
ATOM      7  C   UNL     1      -6.822  30.982  23.071  1.00  0.00     0.021 C 
ATOM      8  C   UNL     1      -7.595  32.309  23.249  1.00  0.00     0.022 C 
ATOM      9  C   UNL     1      -8.421  31.930  21.986  1.00  0.00    -0.019 C 
ATOM     10  C   UNL     1      -7.747  32.405  20.675  1.00  0.00     0.012 C 
ATOM     11  C   UNL     1      -9.920  32.342  21.939  1.00  0.00     0.012 C 
ENDROOT
TORSDOF 0
ENDMDL
MODEL 7
REMARK VINA RESULT:    -5.045     16.009     17.575
REMARK INTER + INTRA:          -5.045
REMARK INTER:                  -5.045
REMARK INTRA:                   0.000
REMARK UNBOUND:                 0.000
REMARK SMILES CC1=CC(=O)[C@@H]2C[C@H]1C2(C)C
REMARK SMILES IDX 1 1 2 2 3 3 4 4 5 5 6 6 7 7 8 8 9 9 10 10 11 11
REMARK H PARENT
REMARK Flexibility Score: inf
ROOT
ATOM      1  C   UNL     1       5.724  32.256  25.835  1.00  0.00     0.040 C 
ATOM      2  C   UNL     1       6.672  31.893  26.934  1.00  0.00    -0.066 C 
ATOM      3  C   UNL     1       6.710  30.645  27.478  1.00  0.00     0.047 C 
ATOM      4  C   UNL     1       7.713  30.430  28.571  1.00  0.00     0.159 C 
ATOM      5  O   UNL     1       7.875  29.311  29.125  1.00  0.00    -0.295 OA
ATOM      6  C   UNL     1       8.526  31.664  28.967  1.00  0.00     0.067 C 
ATOM      7  C   UNL     1       7.473  32.790  29.071  1.00  0.00     0.021 C 
ATOM      8  C   UNL     1       7.618  32.948  27.541  1.00  0.00     0.022 C 
ATOM      9  C   UNL     1       9.048  32.348  27.671  1.00  0.00    -0.019 C 
ATOM     10  C   UNL     1      10.117  33.430  27.966  1.00  0.00     0.012 C 
ATOM     11  C   UNL     1       9.573  31.445  26.520  1.00  0.00     0.012 C 
ENDROOT
TORSDOF 0
ENDMDL
MODEL 8
REMARK VINA RESULT:    -4.986      2.256      3.211
REMARK INTER + INTRA:          -4.986
REMARK INTER:                  -4.986
REMARK INTRA:                   0.000
REMARK UNBOUND:                 0.000
REMARK SMILES CC1=CC(=O)[C@@H]2C[C@H]1C2(C)C
REMARK SMILES IDX 1 1 2 2 3 3 4 4 5 5 6 6 7 7 8 8 9 9 10 10 11 11
REMARK H PARENT
REMARK Flexibility Score: inf
ROOT
ATOM      1  C   UNL     1      -7.086  34.832  23.086  1.00  0.00     0.040 C 
ATOM      2  C   UNL     1      -7.771  33.553  23.452  1.00  0.00    -0.066 C 
ATOM      3  C   UNL     1      -8.583  33.449  24.540  1.00  0.00     0.047 C 
ATOM      4  C   UNL     1      -9.201  32.104  24.780  1.00  0.00     0.159 C 
ATOM      5  O   UNL     1     -10.002  31.891  25.726  1.00  0.00    -0.295 OA
ATOM      6  C   UNL     1      -8.789  31.009  23.794  1.00  0.00     0.067 C 
ATOM      7  C   UNL     1      -7.256  31.165  23.677  1.00  0.00     0.021 C 
ATOM      8  C   UNL     1      -7.535  32.268  22.631  1.00  0.00     0.022 C 
ATOM      9  C   UNL     1      -8.901  31.576  22.350  1.00  0.00    -0.019 C 
ATOM     10  C   UNL     1      -8.790  30.469  21.272  1.00  0.00     0.012 C 
ATOM     11  C   UNL     1     -10.121  32.475  22.002  1.00  0.00     0.012 C 
ENDROOT
TORSDOF 0
ENDMDL
MODEL 9
REMARK VINA RESULT:    -4.858      1.989      3.599
REMARK INTER + INTRA:          -4.858
REMARK INTER:                  -4.858
REMARK INTRA:                   0.000
REMARK UNBOUND:                 0.000
REMARK SMILES CC1=CC(=O)[C@@H]2C[C@H]1C2(C)C
REMARK SMILES IDX 1 1 2 2 3 3 4 4 5 5 6 6 7 7 8 8 9 9 10 10 11 11
REMARK H PARENT
REMARK Flexibility Score: inf
ROOT
ATOM      1  C   UNL     1      -9.743  31.505  20.757  1.00  0.00     0.040 C 
ATOM      2  C   UNL     1      -8.990  31.219  22.019  1.00  0.00    -0.066 C 
ATOM      3  C   UNL     1      -7.807  30.544  22.022  1.00  0.00     0.047 C 
ATOM      4  C   UNL     1      -7.168  30.334  23.362  1.00  0.00     0.159 C 
ATOM      5  O   UNL     1      -6.055  29.763  23.495  1.00  0.00    -0.295 OA
ATOM      6  C   UNL     1      -7.965  30.862  24.557  1.00  0.00     0.067 C 
ATOM      7  C   UNL     1      -9.409  30.385  24.287  1.00  0.00     0.021 C 
ATOM      8  C   UNL     1      -9.561  31.635  23.390  1.00  0.00     0.022 C 
ATOM      9  C   UNL     1      -8.440  32.307  24.235  1.00  0.00    -0.019 C 
ATOM     10  C   UNL     1      -8.999  33.036  25.483  1.00  0.00     0.012 C 
ATOM     11  C   UNL     1      -7.451  33.266  23.513  1.00  0.00     0.012 C 
ENDROOT
TORSDOF 0
ENDMDL
