MODEL 1
REMARK VINA RESULT:    -5.360      0.000      0.000
REMARK INTER + INTRA:          -5.904
REMARK INTER:                  -5.830
REMARK INTRA:                  -0.074
REMARK UNBOUND:                -0.074
REMARK SMILES CCc1cccc(O)c1
REMARK SMILES IDX 3 1 9 2 7 3 6 4 5 5 4 6 2 7 1 8 8 9
REMARK H PARENT 8 10
REMARK Flexibility Score: inf
ROOT
ATOM      1  C   UNL     1     -28.460  19.395  57.711  1.00  0.00    -0.045 A 
ATOM      2  C   UNL     1     -27.981  19.040  56.439  1.00  0.00     0.049 A 
ATOM      3  C   UNL     1     -27.077  17.977  56.294  1.00  0.00     0.115 A 
ATOM      4  C   UNL     1     -26.645  17.274  57.423  1.00  0.00     0.046 A 
ATOM      5  C   UNL     1     -27.107  17.632  58.692  1.00  0.00     0.004 A 
ATOM      6  C   UNL     1     -28.007  18.691  58.838  1.00  0.00     0.004 A 
ENDROOT
BRANCH   1   7
ATOM      7  C   UNL     1     -29.402  20.557  57.870  1.00  0.00     0.032 C 
ATOM      8  C   UNL     1     -30.135  20.480  59.205  1.00  0.00     0.009 C 
ENDBRANCH   1   7
BRANCH   3   9
ATOM      9  O   UNL     1     -26.603  17.614  55.035  1.00  0.00    -0.508 OA
ATOM     10  H   UNL     1     -25.870  16.922  54.924  1.00  0.00     0.293 HD
ENDBRANCH   3   9
TORSDOF 2
ENDMDL
MODEL 2
REMARK VINA RESULT:    -5.285      2.169      3.262
REMARK INTER + INTRA:          -5.822
REMARK INTER:                  -5.749
REMARK INTRA:                  -0.073
REMARK UNBOUND:                -0.074
REMARK SMILES CCc1cccc(O)c1
REMARK SMILES IDX 3 1 9 2 7 3 6 4 5 5 4 6 2 7 1 8 8 9
REMARK H PARENT 8 10
REMARK Flexibility Score: inf
ROOT
ATOM      1  C   UNL     1     -27.726  19.148  56.557  1.00  0.00    -0.045 A 
ATOM      2  C   UNL     1     -28.072  19.614  57.837  1.00  0.00     0.049 A 
ATOM      3  C   UNL     1     -27.774  18.848  58.974  1.00  0.00     0.115 A 
ATOM      4  C   UNL     1     -27.136  17.611  58.830  1.00  0.00     0.046 A 
ATOM      5  C   UNL     1     -26.802  17.137  57.559  1.00  0.00     0.004 A 
ATOM      6  C   UNL     1     -27.099  17.899  56.426  1.00  0.00     0.004 A 
ENDROOT
BRANCH   1   7
ATOM      7  C   UNL     1     -28.077  19.954  55.336  1.00  0.00     0.032 C 
ATOM      8  C   UNL     1     -28.320  19.042  54.137  1.00  0.00     0.009 C 
ENDBRANCH   1   7
BRANCH   3   9
ATOM      9  O   UNL     1     -28.107  19.306  60.246  1.00  0.00    -0.508 OA
ATOM     10  H   UNL     1     -28.538  20.213  60.387  1.00  0.00     0.293 HD
ENDBRANCH   3   9
TORSDOF 2
ENDMDL
MODEL 3
REMARK VINA RESULT:    -5.282      2.479      3.985
REMARK INTER + INTRA:          -5.819
REMARK INTER:                  -5.765
REMARK INTRA:                  -0.053
REMARK UNBOUND:                -0.074
REMARK SMILES CCc1cccc(O)c1
REMARK SMILES IDX 3 1 9 2 7 3 6 4 5 5 4 6 2 7 1 8 8 9
REMARK H PARENT 8 10
REMARK Flexibility Score: inf
ROOT
ATOM      1  C   UNL     1     -28.629  19.983  56.790  1.00  0.00    -0.045 A 
ATOM      2  C   UNL     1     -28.032  19.535  57.981  1.00  0.00     0.049 A 
ATOM      3  C   UNL     1     -28.703  19.672  59.205  1.00  0.00     0.115 A 
ATOM      4  C   UNL     1     -29.970  20.265  59.240  1.00  0.00     0.046 A 
ATOM      5  C   UNL     1     -30.562  20.725  58.061  1.00  0.00     0.004 A 
ATOM      6  C   UNL     1     -29.894  20.589  56.841  1.00  0.00     0.004 A 
ENDROOT
BRANCH   1   7
ATOM      7  C   UNL     1     -27.895  19.866  55.482  1.00  0.00     0.032 C 
ATOM      8  C   UNL     1     -28.446  18.711  54.653  1.00  0.00     0.009 C 
ENDBRANCH   1   7
BRANCH   3   9
ATOM      9  O   UNL     1     -28.121  19.224  60.388  1.00  0.00    -0.508 OA
ATOM     10  H   UNL     1     -28.470  19.516  61.295  1.00  0.00     0.293 HD
ENDBRANCH   3   9
TORSDOF 2
ENDMDL
MODEL 4
REMARK VINA RESULT:    -5.272      9.195      9.743
REMARK INTER + INTRA:          -5.808
REMARK INTER:                  -5.732
REMARK INTRA:                  -0.076
REMARK UNBOUND:                -0.074
REMARK SMILES CCc1cccc(O)c1
REMARK SMILES IDX 3 1 9 2 7 3 6 4 5 5 4 6 2 7 1 8 8 9
REMARK H PARENT 8 10
REMARK Flexibility Score: inf
ROOT
ATOM      1  C   UNL     1     -34.895  14.326  57.972  1.00  0.00    -0.045 A 
ATOM      2  C   UNL     1     -35.142  13.802  59.252  1.00  0.00     0.049 A 
ATOM      3  C   UNL     1     -36.217  12.925  59.463  1.00  0.00     0.115 A 
ATOM      4  C   UNL     1     -37.050  12.578  58.394  1.00  0.00     0.046 A 
ATOM      5  C   UNL     1     -36.817  13.108  57.122  1.00  0.00     0.004 A 
ATOM      6  C   UNL     1     -35.747  13.982  56.911  1.00  0.00     0.004 A 
ENDROOT
BRANCH   1   7
ATOM      7  C   UNL     1     -33.763  15.294  57.753  1.00  0.00     0.032 C 
ATOM      8  C   UNL     1     -33.722  15.759  56.301  1.00  0.00     0.009 C 
ENDBRANCH   1   7
BRANCH   3   9
ATOM      9  O   UNL     1     -36.464  12.396  60.727  1.00  0.00    -0.508 OA
ATOM     10  H   UNL     1     -37.296  11.850  60.920  1.00  0.00     0.293 HD
ENDBRANCH   3   9
TORSDOF 2
ENDMDL
MODEL 5
REMARK VINA RESULT:    -5.271      2.471      3.926
REMARK INTER + INTRA:          -5.806
REMARK INTER:                  -5.732
REMARK INTRA:                  -0.074
REMARK UNBOUND:                -0.074
REMARK SMILES CCc1cccc(O)c1
REMARK SMILES IDX 3 1 9 2 7 3 6 4 5 5 4 6 2 7 1 8 8 9
REMARK H PARENT 8 10
REMARK Flexibility Score: inf
ROOT
ATOM      1  C   UNL     1     -28.162  19.100  56.671  1.00  0.00    -0.045 A 
ATOM      2  C   UNL     1     -29.057  20.183  56.660  1.00  0.00     0.049 A 
ATOM      3  C   UNL     1     -29.712  20.549  55.475  1.00  0.00     0.115 A 
ATOM      4  C   UNL     1     -29.465  19.837  54.297  1.00  0.00     0.046 A 
ATOM      5  C   UNL     1     -28.566  18.768  54.299  1.00  0.00     0.004 A 
ATOM      6  C   UNL     1     -27.912  18.402  55.479  1.00  0.00     0.004 A 
ENDROOT
BRANCH   1   7
ATOM      7  C   UNL     1     -27.435  18.729  57.935  1.00  0.00     0.032 C 
ATOM      8  C   UNL     1     -26.801  17.347  57.809  1.00  0.00     0.009 C 
ENDBRANCH   1   7
BRANCH   3   9
ATOM      9  O   UNL     1     -30.606  21.617  55.458  1.00  0.00    -0.508 OA
ATOM     10  H   UNL     1     -30.289  22.572  55.332  1.00  0.00     0.293 HD
ENDBRANCH   3   9
TORSDOF 2
ENDMDL
MODEL 6
REMARK VINA RESULT:    -5.254      1.871      3.012
REMARK INTER + INTRA:          -5.788
REMARK INTER:                  -5.725
REMARK INTRA:                  -0.063
REMARK UNBOUND:                -0.074
REMARK SMILES CCc1cccc(O)c1
REMARK SMILES IDX 3 1 9 2 7 3 6 4 5 5 4 6 2 7 1 8 8 9
REMARK H PARENT 8 10
REMARK Flexibility Score: inf
ROOT
ATOM      1  C   UNL     1     -29.516  19.595  56.261  1.00  0.00    -0.045 A 
ATOM      2  C   UNL     1     -28.393  18.751  56.252  1.00  0.00     0.049 A 
ATOM      3  C   UNL     1     -27.718  18.484  55.051  1.00  0.00     0.115 A 
ATOM      4  C   UNL     1     -28.171  19.055  53.858  1.00  0.00     0.046 A 
ATOM      5  C   UNL     1     -29.296  19.884  53.859  1.00  0.00     0.004 A 
ATOM      6  C   UNL     1     -29.970  20.150  55.053  1.00  0.00     0.004 A 
ENDROOT
BRANCH   1   7
ATOM      7  C   UNL     1     -30.260  19.855  57.542  1.00  0.00     0.032 C 
ATOM      8  C   UNL     1     -30.397  21.353  57.795  1.00  0.00     0.009 C 
ENDBRANCH   1   7
BRANCH   3   9
ATOM      9  O   UNL     1     -26.599  17.654  55.035  1.00  0.00    -0.508 OA
ATOM     10  H   UNL     1     -26.676  16.664  54.830  1.00  0.00     0.293 HD
ENDBRANCH   3   9
TORSDOF 2
ENDMDL
MODEL 7
REMARK VINA RESULT:    -5.181      2.181      3.830
REMARK INTER + INTRA:          -5.709
REMARK INTER:                  -5.634
REMARK INTRA:                  -0.076
REMARK UNBOUND:                -0.074
REMARK SMILES CCc1cccc(O)c1
REMARK SMILES IDX 3 1 9 2 7 3 6 4 5 5 4 6 2 7 1 8 8 9
REMARK H PARENT 8 10
REMARK Flexibility Score: inf
ROOT
ATOM      1  C   UNL     1     -28.470  18.887  56.713  1.00  0.00    -0.045 A 
ATOM      2  C   UNL     1     -28.958  19.901  55.871  1.00  0.00     0.049 A 
ATOM      3  C   UNL     1     -30.063  20.672  56.259  1.00  0.00     0.115 A 
ATOM      4  C   UNL     1     -30.687  20.425  57.486  1.00  0.00     0.046 A 
ATOM      5  C   UNL     1     -30.215  19.410  58.321  1.00  0.00     0.004 A 
ATOM      6  C   UNL     1     -29.114  18.639  57.936  1.00  0.00     0.004 A 
ENDROOT
BRANCH   1   7
ATOM      7  C   UNL     1     -27.306  18.037  56.282  1.00  0.00     0.032 C 
ATOM      8  C   UNL     1     -27.019  16.950  57.313  1.00  0.00     0.009 C 
ENDBRANCH   1   7
BRANCH   3   9
ATOM      9  O   UNL     1     -30.548  21.684  55.433  1.00  0.00    -0.508 OA
ATOM     10  H   UNL     1     -31.446  22.123  55.603  1.00  0.00     0.293 HD
ENDBRANCH   3   9
TORSDOF 2
ENDMDL
MODEL 8
REMARK VINA RESULT:    -5.111      7.970      8.455
REMARK INTER + INTRA:          -5.633
REMARK INTER:                  -5.567
REMARK INTRA:                  -0.065
REMARK UNBOUND:                -0.074
REMARK SMILES CCc1cccc(O)c1
REMARK SMILES IDX 3 1 9 2 7 3 6 4 5 5 4 6 2 7 1 8 8 9
REMARK H PARENT 8 10
REMARK Flexibility Score: inf
ROOT
ATOM      1  C   UNL     1     -34.295  14.607  56.975  1.00  0.00    -0.045 A 
ATOM      2  C   UNL     1     -33.577  14.994  58.120  1.00  0.00     0.049 A 
ATOM      3  C   UNL     1     -34.029  14.627  59.396  1.00  0.00     0.115 A 
ATOM      4  C   UNL     1     -35.203  13.879  59.529  1.00  0.00     0.046 A 
ATOM      5  C   UNL     1     -35.928  13.503  58.396  1.00  0.00     0.004 A 
ATOM      6  C   UNL     1     -35.480  13.869  57.123  1.00  0.00     0.004 A 
ENDROOT
BRANCH   1   7
ATOM      7  C   UNL     1     -33.829  15.029  55.608  1.00  0.00     0.032 C 
ATOM      8  C   UNL     1     -34.899  15.858  54.905  1.00  0.00     0.009 C 
ENDBRANCH   1   7
BRANCH   3   9
ATOM      9  O   UNL     1     -33.319  15.002  60.535  1.00  0.00    -0.508 OA
ATOM     10  H   UNL     1     -32.357  14.716  60.678  1.00  0.00     0.293 HD
ENDBRANCH   3   9
TORSDOF 2
ENDMDL
MODEL 9
REMARK VINA RESULT:    -5.015      8.449      9.121
REMARK INTER + INTRA:          -5.529
REMARK INTER:                  -5.454
REMARK INTRA:                  -0.074
REMARK UNBOUND:                -0.074
REMARK SMILES CCc1cccc(O)c1
REMARK SMILES IDX 3 1 9 2 7 3 6 4 5 5 4 6 2 7 1 8 8 9
REMARK H PARENT 8 10
REMARK Flexibility Score: inf
ROOT
ATOM      1  C   UNL     1     -33.265  12.544  57.180  1.00  0.00    -0.045 A 
ATOM      2  C   UNL     1     -34.155  11.987  58.114  1.00  0.00     0.049 A 
ATOM      3  C   UNL     1     -34.963  12.817  58.905  1.00  0.00     0.115 A 
ATOM      4  C   UNL     1     -34.876  14.206  58.767  1.00  0.00     0.046 A 
ATOM      5  C   UNL     1     -33.984  14.766  57.850  1.00  0.00     0.004 A 
ATOM      6  C   UNL     1     -33.177  13.940  57.062  1.00  0.00     0.004 A 
ENDROOT
BRANCH   1   7
ATOM      7  C   UNL     1     -32.374  11.654  56.357  1.00  0.00     0.032 C 
ATOM      8  C   UNL     1     -31.130  12.410  55.899  1.00  0.00     0.009 C 
ENDBRANCH   1   7
BRANCH   3   9
ATOM      9  O   UNL     1     -35.853  12.273  59.828  1.00  0.00    -0.508 OA
ATOM     10  H   UNL     1     -36.764  12.685  59.993  1.00  0.00     0.293 HD
ENDBRANCH   3   9
TORSDOF 2
ENDMDL
