MODEL 1
REMARK VINA RESULT:    -4.869      0.000      0.000
REMARK INTER + INTRA:          -5.629
REMARK INTER:                  -5.581
REMARK INTRA:                  -0.048
REMARK UNBOUND:                -0.048
REMARK SMILES O=C([O-])c1cc(O)c(O)c(O)c1
REMARK SMILES IDX 4 1 5 2 12 3 6 4 10 5 8 6 2 7 1 8 3 9 7 10 11 12 9 14
REMARK H PARENT 7 11 11 13 9 15
REMARK Flexibility Score: inf
ROOT
ATOM      1  C   UNL     1      -0.590 -12.183 -40.339  1.00  0.00     0.005 A 
ATOM      2  C   UNL     1       0.811 -12.102 -40.324  1.00  0.00     0.060 A 
ATOM      3  C   UNL     1      -1.225 -13.189 -39.590  1.00  0.00     0.060 A 
ATOM      4  C   UNL     1       1.571 -13.008 -39.576  1.00  0.00     0.162 A 
ATOM      5  C   UNL     1      -0.471 -14.099 -38.837  1.00  0.00     0.162 A 
ATOM      6  C   UNL     1       0.931 -14.012 -38.828  1.00  0.00     0.200 A 
ENDROOT
BRANCH   1   7
ATOM      7  C   UNL     1      -1.385 -11.220 -41.135  1.00  0.00     0.072 C 
ATOM      8  O   UNL     1      -2.340 -11.617 -41.854  1.00  0.00    -0.545 OA
ATOM      9  O   UNL     1      -1.088  -9.862 -41.098  1.00  0.00    -0.545 OA
ENDBRANCH   1   7
BRANCH   4  10
ATOM     10  O   UNL     1       2.961 -12.894 -39.587  1.00  0.00    -0.504 OA
ATOM     11  H   UNL     1       3.493 -12.696 -38.748  1.00  0.00     0.293 HD
ENDBRANCH   4  10
BRANCH   5  12
ATOM     12  O   UNL     1      -1.111 -15.093 -38.097  1.00  0.00    -0.504 OA
ATOM     13  H   UNL     1      -1.966 -15.530 -38.423  1.00  0.00     0.293 HD
ENDBRANCH   5  12
BRANCH   6  14
ATOM     14  O   UNL     1       1.697 -14.910 -38.084  1.00  0.00    -0.502 OA
ATOM     15  H   UNL     1       2.552 -15.317 -38.444  1.00  0.00     0.293 HD
ENDBRANCH   6  14
TORSDOF 4
ENDMDL
MODEL 2
REMARK VINA RESULT:    -4.854      0.046      2.429
REMARK INTER + INTRA:          -5.612
REMARK INTER:                  -5.563
REMARK INTRA:                  -0.048
REMARK UNBOUND:                -0.048
REMARK SMILES O=C([O-])c1cc(O)c(O)c(O)c1
REMARK SMILES IDX 4 1 5 2 12 3 6 4 10 5 8 6 2 7 1 8 3 9 7 10 11 12 9 14
REMARK H PARENT 7 11 11 13 9 15
REMARK Flexibility Score: inf
ROOT
ATOM      1  C   UNL     1      -0.578 -12.155 -40.342  1.00  0.00     0.005 A 
ATOM      2  C   UNL     1      -1.226 -13.144 -39.586  1.00  0.00     0.060 A 
ATOM      3  C   UNL     1       0.827 -12.094 -40.327  1.00  0.00     0.060 A 
ATOM      4  C   UNL     1      -0.490 -14.060 -38.826  1.00  0.00     0.162 A 
ATOM      5  C   UNL     1       1.571 -13.009 -39.569  1.00  0.00     0.162 A 
ATOM      6  C   UNL     1       0.915 -13.995 -38.816  1.00  0.00     0.200 A 
ENDROOT
BRANCH   1   7
ATOM      7  C   UNL     1      -1.366 -11.190 -41.142  1.00  0.00     0.072 C 
ATOM      8  O   UNL     1      -2.326 -11.583 -41.856  1.00  0.00    -0.545 OA
ATOM      9  O   UNL     1      -1.055  -9.835 -41.117  1.00  0.00    -0.545 OA
ENDBRANCH   1   7
BRANCH   4  10
ATOM     10  O   UNL     1      -1.171 -15.028 -38.089  1.00  0.00    -0.504 OA
ATOM     11  H   UNL     1      -0.810 -15.967 -37.968  1.00  0.00     0.293 HD
ENDBRANCH   4  10
BRANCH   5  12
ATOM     12  O   UNL     1       2.964 -12.939 -39.563  1.00  0.00    -0.504 OA
ATOM     13  H   UNL     1       3.483 -12.737 -38.715  1.00  0.00     0.293 HD
ENDBRANCH   5  12
BRANCH   6  14
ATOM     14  O   UNL     1       1.641 -14.913 -38.055  1.00  0.00    -0.502 OA
ATOM     15  H   UNL     1       1.382 -15.150 -37.105  1.00  0.00     0.293 HD
ENDBRANCH   6  14
TORSDOF 4
ENDMDL
MODEL 3
REMARK VINA RESULT:    -4.817     12.207     13.135
REMARK INTER + INTRA:          -5.570
REMARK INTER:                  -5.517
REMARK INTRA:                  -0.053
REMARK UNBOUND:                -0.048
REMARK SMILES O=C([O-])c1cc(O)c(O)c(O)c1
REMARK SMILES IDX 4 1 5 2 12 3 6 4 10 5 8 6 2 7 1 8 3 9 7 10 11 12 9 14
REMARK H PARENT 7 11 11 13 9 15
REMARK Flexibility Score: inf
ROOT
ATOM      1  C   UNL     1      10.303  -6.044 -40.459  1.00  0.00     0.005 A 
ATOM      2  C   UNL     1      10.083  -4.801 -41.072  1.00  0.00     0.060 A 
ATOM      3  C   UNL     1      10.145  -6.156 -39.066  1.00  0.00     0.060 A 
ATOM      4  C   UNL     1       9.711  -3.685 -40.313  1.00  0.00     0.162 A 
ATOM      5  C   UNL     1       9.773  -5.044 -38.300  1.00  0.00     0.162 A 
ATOM      6  C   UNL     1       9.555  -3.804 -38.921  1.00  0.00     0.200 A 
ENDROOT
BRANCH   1   7
ATOM      7  C   UNL     1      10.696  -7.218 -41.271  1.00  0.00     0.072 C 
ATOM      8  O   UNL     1      10.719  -8.370 -40.762  1.00  0.00    -0.545 OA
ATOM      9  O   UNL     1      11.046  -7.065 -42.608  1.00  0.00    -0.545 OA
ENDBRANCH   1   7
BRANCH   4  10
ATOM     10  O   UNL     1       9.502  -2.468 -40.961  1.00  0.00    -0.504 OA
ATOM     11  H   UNL     1      10.269  -1.877 -41.260  1.00  0.00     0.293 HD
ENDBRANCH   4  10
BRANCH   5  12
ATOM     12  O   UNL     1       9.619  -5.168 -36.919  1.00  0.00    -0.504 OA
ATOM     13  H   UNL     1       9.348  -4.380 -36.341  1.00  0.00     0.293 HD
ENDBRANCH   5  12
BRANCH   6  14
ATOM     14  O   UNL     1       9.184  -2.686 -38.172  1.00  0.00    -0.502 OA
ATOM     15  H   UNL     1       9.840  -1.949 -37.943  1.00  0.00     0.293 HD
ENDBRANCH   6  14
TORSDOF 4
ENDMDL
MODEL 4
REMARK VINA RESULT:    -4.788      7.906      9.080
REMARK INTER + INTRA:          -5.536
REMARK INTER:                  -5.488
REMARK INTRA:                  -0.048
REMARK UNBOUND:                -0.048
REMARK SMILES O=C([O-])c1cc(O)c(O)c(O)c1
REMARK SMILES IDX 4 1 5 2 12 3 6 4 10 5 8 6 2 7 1 8 3 9 7 10 11 12 9 14
REMARK H PARENT 7 11 11 13 9 15
REMARK Flexibility Score: inf
ROOT
ATOM      1  C   UNL     1       4.824  -9.882 -45.764  1.00  0.00     0.005 A 
ATOM      2  C   UNL     1       5.242  -8.591 -46.124  1.00  0.00     0.060 A 
ATOM      3  C   UNL     1       5.618 -10.637 -44.883  1.00  0.00     0.060 A 
ATOM      4  C   UNL     1       6.432  -8.058 -45.615  1.00  0.00     0.162 A 
ATOM      5  C   UNL     1       6.810 -10.109 -44.368  1.00  0.00     0.162 A 
ATOM      6  C   UNL     1       7.221  -8.817 -44.733  1.00  0.00     0.200 A 
ENDROOT
BRANCH   1   7
ATOM      7  C   UNL     1       3.564 -10.438 -46.308  1.00  0.00     0.072 C 
ATOM      8  O   UNL     1       3.533 -11.600 -46.792  1.00  0.00    -0.545 OA
ATOM      9  O   UNL     1       2.397  -9.682 -46.294  1.00  0.00    -0.545 OA
ENDBRANCH   1   7
BRANCH   4  10
ATOM     10  O   UNL     1       6.812  -6.771 -45.997  1.00  0.00    -0.504 OA
ATOM     11  H   UNL     1       6.990  -6.038 -45.319  1.00  0.00     0.293 HD
ENDBRANCH   4  10
BRANCH   5  12
ATOM     12  O   UNL     1       7.589 -10.867 -43.494  1.00  0.00    -0.504 OA
ATOM     13  H   UNL     1       8.046 -10.450 -42.691  1.00  0.00     0.293 HD
ENDBRANCH   5  12
BRANCH   6  14
ATOM     14  O   UNL     1       8.406  -8.276 -44.230  1.00  0.00    -0.502 OA
ATOM     15  H   UNL     1       8.433  -7.751 -43.365  1.00  0.00     0.293 HD
ENDBRANCH   6  14
TORSDOF 4
ENDMDL
MODEL 5
REMARK VINA RESULT:    -4.779      7.955      9.250
REMARK INTER + INTRA:          -5.526
REMARK INTER:                  -5.477
REMARK INTRA:                  -0.048
REMARK UNBOUND:                -0.048
REMARK SMILES O=C([O-])c1cc(O)c(O)c(O)c1
REMARK SMILES IDX 4 1 5 2 12 3 6 4 10 5 8 6 2 7 1 8 3 9 7 10 11 12 9 14
REMARK H PARENT 7 11 11 13 9 15
REMARK Flexibility Score: inf
ROOT
ATOM      1  C   UNL     1       4.863  -9.880 -45.794  1.00  0.00     0.005 A 
ATOM      2  C   UNL     1       5.662 -10.624 -44.913  1.00  0.00     0.060 A 
ATOM      3  C   UNL     1       5.264  -8.580 -46.150  1.00  0.00     0.060 A 
ATOM      4  C   UNL     1       6.843 -10.084 -44.391  1.00  0.00     0.162 A 
ATOM      5  C   UNL     1       6.446  -8.033 -45.633  1.00  0.00     0.162 A 
ATOM      6  C   UNL     1       7.240  -8.784 -44.751  1.00  0.00     0.200 A 
ENDROOT
BRANCH   1   7
ATOM      7  C   UNL     1       3.614 -10.459 -46.340  1.00  0.00     0.072 C 
ATOM      8  O   UNL     1       3.599 -11.633 -46.797  1.00  0.00    -0.545 OA
ATOM      9  O   UNL     1       2.441  -9.714 -46.357  1.00  0.00    -0.545 OA
ENDBRANCH   1   7
BRANCH   4  10
ATOM     10  O   UNL     1       7.610 -10.855 -43.518  1.00  0.00    -0.504 OA
ATOM     11  H   UNL     1       7.642 -10.671 -42.522  1.00  0.00     0.293 HD
ENDBRANCH   4  10
BRANCH   5  12
ATOM     12  O   UNL     1       6.834  -6.743 -45.992  1.00  0.00    -0.504 OA
ATOM     13  H   UNL     1       7.809  -6.496 -46.116  1.00  0.00     0.293 HD
ENDBRANCH   5  12
BRANCH   6  14
ATOM     14  O   UNL     1       8.420  -8.254 -44.226  1.00  0.00    -0.502 OA
ATOM     15  H   UNL     1       8.436  -7.384 -43.707  1.00  0.00     0.293 HD
ENDBRANCH   6  14
TORSDOF 4
ENDMDL
MODEL 6
REMARK VINA RESULT:    -4.727      2.599      3.164
REMARK INTER + INTRA:          -5.467
REMARK INTER:                  -5.418
REMARK INTRA:                  -0.049
REMARK UNBOUND:                -0.048
REMARK SMILES O=C([O-])c1cc(O)c(O)c(O)c1
REMARK SMILES IDX 4 1 5 2 12 3 6 4 10 5 8 6 2 7 1 8 3 9 7 10 11 12 9 14
REMARK H PARENT 7 11 11 13 9 15
REMARK Flexibility Score: inf
ROOT
ATOM      1  C   UNL     1       1.467 -10.683 -38.763  1.00  0.00     0.005 A 
ATOM      2  C   UNL     1       2.000 -11.877 -39.274  1.00  0.00     0.060 A 
ATOM      3  C   UNL     1       0.531 -10.745 -37.717  1.00  0.00     0.060 A 
ATOM      4  C   UNL     1       1.609 -13.115 -38.751  1.00  0.00     0.162 A 
ATOM      5  C   UNL     1       0.134 -11.981 -37.188  1.00  0.00     0.162 A 
ATOM      6  C   UNL     1       0.672 -13.171 -37.704  1.00  0.00     0.200 A 
ENDROOT
BRANCH   1   7
ATOM      7  C   UNL     1       1.888  -9.378 -39.323  1.00  0.00     0.072 C 
ATOM      8  O   UNL     1       3.090  -9.173 -39.636  1.00  0.00    -0.545 OA
ATOM      9  O   UNL     1       0.959  -8.360 -39.510  1.00  0.00    -0.545 OA
ENDBRANCH   1   7
BRANCH   4  10
ATOM     10  O   UNL     1       2.161 -14.279 -39.286  1.00  0.00    -0.504 OA
ATOM     11  H   UNL     1       2.546 -15.011 -38.700  1.00  0.00     0.293 HD
ENDBRANCH   4  10
BRANCH   5  12
ATOM     12  O   UNL     1      -0.795 -12.030 -36.149  1.00  0.00    -0.504 OA
ATOM     13  H   UNL     1      -1.124 -12.911 -35.771  1.00  0.00     0.293 HD
ENDBRANCH   5  12
BRANCH   6  14
ATOM     14  O   UNL     1       0.288 -14.410 -37.189  1.00  0.00    -0.502 OA
ATOM     15  H   UNL     1       0.729 -15.275 -37.480  1.00  0.00     0.293 HD
ENDBRANCH   6  14
TORSDOF 4
ENDMDL
MODEL 7
REMARK VINA RESULT:    -4.720      2.638      3.579
REMARK INTER + INTRA:          -5.458
REMARK INTER:                  -5.407
REMARK INTRA:                  -0.051
REMARK UNBOUND:                -0.048
REMARK SMILES O=C([O-])c1cc(O)c(O)c(O)c1
REMARK SMILES IDX 4 1 5 2 12 3 6 4 10 5 8 6 2 7 1 8 3 9 7 10 11 12 9 14
REMARK H PARENT 7 11 11 13 9 15
REMARK Flexibility Score: inf
ROOT
ATOM      1  C   UNL     1       1.388 -10.639 -38.776  1.00  0.00     0.005 A 
ATOM      2  C   UNL     1       0.483 -10.767 -37.711  1.00  0.00     0.060 A 
ATOM      3  C   UNL     1       1.961 -11.798 -39.329  1.00  0.00     0.060 A 
ATOM      4  C   UNL     1       0.151 -12.028 -37.203  1.00  0.00     0.162 A 
ATOM      5  C   UNL     1       1.633 -13.064 -38.827  1.00  0.00     0.162 A 
ATOM      6  C   UNL     1       0.726 -13.183 -37.760  1.00  0.00     0.200 A 
ENDROOT
BRANCH   1   7
ATOM      7  C   UNL     1       1.733  -9.301 -39.307  1.00  0.00     0.072 C 
ATOM      8  O   UNL     1       1.642  -8.279 -38.576  1.00  0.00    -0.545 OA
ATOM      9  O   UNL     1       2.161  -9.153 -40.621  1.00  0.00    -0.545 OA
ENDBRANCH   1   7
BRANCH   4  10
ATOM     10  O   UNL     1      -0.753 -12.113 -36.144  1.00  0.00    -0.504 OA
ATOM     11  H   UNL     1      -1.250 -12.969 -35.927  1.00  0.00     0.293 HD
ENDBRANCH   4  10
BRANCH   5  12
ATOM     12  O   UNL     1       2.207 -14.207 -39.383  1.00  0.00    -0.504 OA
ATOM     13  H   UNL     1       2.589 -14.946 -38.804  1.00  0.00     0.293 HD
ENDBRANCH   5  12
BRANCH   6  14
ATOM     14  O   UNL     1       0.389 -14.437 -37.247  1.00  0.00    -0.502 OA
ATOM     15  H   UNL     1      -0.342 -15.008 -37.656  1.00  0.00     0.293 HD
ENDBRANCH   6  14
TORSDOF 4
ENDMDL
MODEL 8
REMARK VINA RESULT:    -4.706      6.505      8.038
REMARK INTER + INTRA:          -5.442
REMARK INTER:                  -5.395
REMARK INTRA:                  -0.047
REMARK UNBOUND:                -0.048
REMARK SMILES O=C([O-])c1cc(O)c(O)c(O)c1
REMARK SMILES IDX 4 1 5 2 12 3 6 4 10 5 8 6 2 7 1 8 3 9 7 10 11 12 9 14
REMARK H PARENT 7 11 11 13 9 15
REMARK Flexibility Score: inf
ROOT
ATOM      1  C   UNL     1       4.407  -9.291 -45.736  1.00  0.00     0.005 A 
ATOM      2  C   UNL     1       3.652  -8.340 -45.032  1.00  0.00     0.060 A 
ATOM      3  C   UNL     1       3.961 -10.623 -45.779  1.00  0.00     0.060 A 
ATOM      4  C   UNL     1       2.470  -8.708 -44.379  1.00  0.00     0.162 A 
ATOM      5  C   UNL     1       2.778 -10.999 -45.129  1.00  0.00     0.162 A 
ATOM      6  C   UNL     1       2.028 -10.042 -44.426  1.00  0.00     0.200 A 
ENDROOT
BRANCH   1   7
ATOM      7  C   UNL     1       5.657  -8.892 -46.423  1.00  0.00     0.072 C 
ATOM      8  O   UNL     1       5.653  -7.959 -47.269  1.00  0.00    -0.545 OA
ATOM      9  O   UNL     1       6.853  -9.544 -46.143  1.00  0.00    -0.545 OA
ENDBRANCH   1   7
BRANCH   4  10
ATOM     10  O   UNL     1       1.748  -7.734 -43.690  1.00  0.00    -0.504 OA
ATOM     11  H   UNL     1       2.203  -6.991 -43.172  1.00  0.00     0.293 HD
ENDBRANCH   4  10
BRANCH   5  12
ATOM     12  O   UNL     1       2.345 -12.324 -45.178  1.00  0.00    -0.504 OA
ATOM     13  H   UNL     1       2.324 -12.845 -46.048  1.00  0.00     0.293 HD
ENDBRANCH   5  12
BRANCH   6  14
ATOM     14  O   UNL     1       0.847 -10.399 -43.773  1.00  0.00    -0.502 OA
ATOM     15  H   UNL     1      -0.050 -10.397 -44.242  1.00  0.00     0.293 HD
ENDBRANCH   6  14
TORSDOF 4
ENDMDL
MODEL 9
REMARK VINA RESULT:    -4.653      6.469      8.096
REMARK INTER + INTRA:          -5.381
REMARK INTER:                  -5.334
REMARK INTRA:                  -0.047
REMARK UNBOUND:                -0.048
REMARK SMILES O=C([O-])c1cc(O)c(O)c(O)c1
REMARK SMILES IDX 4 1 5 2 12 3 6 4 10 5 8 6 2 7 1 8 3 9 7 10 11 12 9 14
REMARK H PARENT 7 11 11 13 9 15
REMARK Flexibility Score: inf
ROOT
ATOM      1  C   UNL     1       4.401  -9.310 -45.679  1.00  0.00     0.005 A 
ATOM      2  C   UNL     1       3.972 -10.645 -45.748  1.00  0.00     0.060 A 
ATOM      3  C   UNL     1       3.600  -8.369 -45.008  1.00  0.00     0.060 A 
ATOM      4  C   UNL     1       2.766 -11.039 -45.159  1.00  0.00     0.162 A 
ATOM      5  C   UNL     1       2.391  -8.756 -44.414  1.00  0.00     0.162 A 
ATOM      6  C   UNL     1       1.970 -10.094 -44.488  1.00  0.00     0.200 A 
ENDROOT
BRANCH   1   7
ATOM      7  C   UNL     1       5.679  -8.902 -46.306  1.00  0.00     0.072 C 
ATOM      8  O   UNL     1       5.714  -7.946 -47.125  1.00  0.00    -0.545 OA
ATOM      9  O   UNL     1       6.858  -9.571 -46.000  1.00  0.00    -0.545 OA
ENDBRANCH   1   7
BRANCH   4  10
ATOM     10  O   UNL     1       2.375 -12.375 -45.250  1.00  0.00    -0.504 OA
ATOM     11  H   UNL     1       2.892 -13.052 -45.799  1.00  0.00     0.293 HD
ENDBRANCH   4  10
BRANCH   5  12
ATOM     12  O   UNL     1       1.606  -7.814 -43.750  1.00  0.00    -0.504 OA
ATOM     13  H   UNL     1       0.703  -8.056 -43.358  1.00  0.00     0.293 HD
ENDBRANCH   5  12
BRANCH   6  14
ATOM     14  O   UNL     1       0.768 -10.497 -43.903  1.00  0.00    -0.502 OA
ATOM     15  H   UNL     1       0.712 -11.295 -43.282  1.00  0.00     0.293 HD
ENDBRANCH   6  14
TORSDOF 4
ENDMDL
