MODEL 1
REMARK VINA RESULT:   152.416      0.000      0.000
REMARK INTER + INTRA:         166.583
REMARK INTER:                 165.782
REMARK INTRA:                   0.801
REMARK UNBOUND:                 0.801
REMARK SMILES C[C@@H]1[C@H](C)CC[C@@]2(C(=O)[O-])CC[C@]3(C)C(=CC[C@@H]4[C@@]5(C)CC[C@@H](O)C(C)(C)[C@H]5CC[C@@]43C)[C@@H]12
REMARK SMILES IDX 7 1 6 2 11 3 33 4 5 5 12 6 15 7 2 8 3 9 13 10 16 11 1 12
REMARK SMILES IDX 4 13 14 14 31 15 17 16 18 17 30 18 32 19 19 20 29 21 28 22
REMARK SMILES IDX 21 23 20 24 25 25 22 26 23 27 26 28 27 29 8 30 9 31 10 32
REMARK SMILES IDX 24 33
REMARK H PARENT 24 34
REMARK Flexibility Score: inf
ROOT
ATOM      1  C   UNL     1     -29.116  22.621 -13.618  1.00  0.00     0.017 C 
ATOM      2  C   UNL     1     -29.668  21.179 -13.480  1.00  0.00     0.014 C 
ATOM      3  C   UNL     1     -28.635  22.850 -15.069  1.00  0.00     0.014 C 
ATOM      4  C   UNL     1     -30.221  23.685 -13.254  1.00  0.00     0.030 C 
ATOM      5  C   UNL     1     -30.908  20.877 -14.340  1.00  0.00     0.004 C 
ATOM      6  C   UNL     1     -27.959  24.202 -15.263  1.00  0.00     0.013 C 
ATOM      7  C   UNL     1     -29.993  25.068 -13.902  1.00  0.00    -0.063 C 
ATOM      8  C   UNL     1     -31.709  23.174 -13.471  1.00  0.00    -0.003 C 
ATOM      9  C   UNL     1     -31.833  22.091 -14.573  1.00  0.00    -0.011 C 
ATOM     10  C   UNL     1     -28.725  25.461 -14.681  1.00  0.00    -0.006 C 
ATOM     11  C   UNL     1     -30.832  26.052 -13.532  1.00  0.00    -0.027 C 
ATOM     12  C   UNL     1     -32.358  22.740 -12.136  1.00  0.00     0.008 C 
ATOM     13  C   UNL     1     -33.282  21.634 -14.813  1.00  0.00     0.008 C 
ATOM     14  C   UNL     1     -27.780  26.097 -13.612  1.00  0.00     0.017 C 
ATOM     15  C   UNL     1     -29.076  26.537 -15.832  1.00  0.00    -0.020 C 
ATOM     16  C   UNL     1     -31.015  27.322 -14.294  1.00  0.00     0.032 C 
ATOM     17  C   UNL     1     -29.862  27.785 -15.241  1.00  0.00     0.006 C 
ATOM     18  C   UNL     1     -30.000  25.886 -16.896  1.00  0.00     0.008 C 
ATOM     19  C   UNL     1     -27.734  27.005 -16.496  1.00  0.00     0.012 C 
ATOM     20  C   UNL     1     -30.415  28.851 -16.316  1.00  0.00    -0.025 C 
ATOM     21  C   UNL     1     -30.445  26.847 -18.001  1.00  0.00     0.005 C 
ATOM     22  C   UNL     1     -31.188  28.126 -17.505  1.00  0.00     0.003 C 
ATOM     23  C   UNL     1     -29.261  29.795 -16.836  1.00  0.00     0.010 C 
ATOM     24  C   UNL     1     -31.410  29.812 -15.576  1.00  0.00     0.012 C 
ATOM     25  C   UNL     1     -31.630  29.097 -18.713  1.00  0.00    -0.006 C 
ATOM     26  C   UNL     1     -29.274  30.052 -18.348  1.00  0.00     0.033 C 
ATOM     27  C   UNL     1     -30.693  30.355 -18.836  1.00  0.00     0.120 C 
ATOM     28  C   UNL     1     -33.085  29.588 -18.480  1.00  0.00     0.014 C 
ATOM     29  C   UNL     1     -31.681  28.353 -20.085  1.00  0.00     0.014 C 
ENDROOT
BRANCH   1  30
ATOM     30  C   UNL     1     -27.920  22.691 -12.665  1.00  0.00     0.048 C 
ATOM     31  O   UNL     1     -27.548  23.787 -12.167  1.00  0.00    -0.550 OA
ATOM     32  O   UNL     1     -27.310  21.522 -12.221  1.00  0.00    -0.550 OA
ENDBRANCH   1  30
BRANCH  27  33
ATOM     33  O   UNL     1     -30.638  30.832 -20.159  1.00  0.00    -0.393 OA
ATOM     34  H   UNL     1     -31.572  30.908 -20.487  1.00  0.00     0.210 HD
ENDBRANCH  27  33
TORSDOF 2
ENDMDL
