MODEL 1
REMARK VINA RESULT:    -2.875      0.000      0.000
REMARK INTER + INTRA:          -3.661
REMARK INTER:                  -3.547
REMARK INTRA:                  -0.115
REMARK UNBOUND:                -0.115
REMARK SMILES CCCCCC(=O)[O-]
REMARK SMILES IDX 4 1 5 2 6 3 7 4 8 5 3 6 2 7 1 8
REMARK H PARENT
REMARK Flexibility Score: inf
ROOT
ATOM      1  C   UNL     1      63.763 129.902  -6.448  1.00  0.00     0.006 C 
ENDROOT
BRANCH   1   2
ATOM      2  C   UNL     1      65.246 129.700  -6.776  1.00  0.00     0.053 C 
BRANCH   2   3
ATOM      3  C   UNL     1      65.943 129.012  -5.646  1.00  0.00     0.041 C 
ATOM      4  O   UNL     1      67.125 128.601  -5.787  1.00  0.00    -0.550 OA
ATOM      5  O   UNL     1      65.306 128.870  -4.420  1.00  0.00    -0.550 OA
ENDBRANCH   2   3
ENDBRANCH   1   2
BRANCH   1   6
ATOM      6  C   UNL     1      62.947 130.150  -7.722  1.00  0.00     0.000 C 
BRANCH   6   7
ATOM      7  C   UNL     1      61.821 129.119  -7.863  1.00  0.00    -0.003 C 
ATOM      8  C   UNL     1      61.793 128.166  -6.673  1.00  0.00     0.004 C 
ENDBRANCH   6   7
ENDBRANCH   1   6
TORSDOF 4
ENDMDL
MODEL 2
REMARK VINA RESULT:    -2.543     22.472     23.115
REMARK INTER + INTRA:          -3.252
REMARK INTER:                  -3.143
REMARK INTRA:                  -0.109
REMARK UNBOUND:                -0.115
REMARK SMILES CCCCCC(=O)[O-]
REMARK SMILES IDX 4 1 5 2 6 3 7 4 8 5 3 6 2 7 1 8
REMARK H PARENT
REMARK Flexibility Score: inf
ROOT
ATOM      1  C   UNL     1      52.950 147.242   0.639  1.00  0.00     0.006 C 
ENDROOT
BRANCH   1   2
ATOM      2  C   UNL     1      54.158 148.027   0.119  1.00  0.00     0.053 C 
BRANCH   2   3
ATOM      3  C   UNL     1      54.141 148.084  -1.376  1.00  0.00     0.041 C 
ATOM      4  O   UNL     1      55.220 148.062  -2.023  1.00  0.00    -0.550 OA
ATOM      5  O   UNL     1      52.930 148.112  -2.056  1.00  0.00    -0.550 OA
ENDBRANCH   2   3
ENDBRANCH   1   2
BRANCH   1   6
ATOM      6  C   UNL     1      52.073 148.117   1.543  1.00  0.00     0.000 C 
BRANCH   6   7
ATOM      7  C   UNL     1      50.619 148.125   1.058  1.00  0.00    -0.003 C 
ATOM      8  C   UNL     1      49.646 148.051   2.231  1.00  0.00     0.004 C 
ENDBRANCH   6   7
ENDBRANCH   1   6
TORSDOF 4
ENDMDL
MODEL 3
REMARK VINA RESULT:    -1.466     21.309     22.032
REMARK INTER + INTRA:          -1.923
REMARK INTER:                  -1.831
REMARK INTRA:                  -0.091
REMARK UNBOUND:                -0.115
REMARK SMILES CCCCCC(=O)[O-]
REMARK SMILES IDX 4 1 5 2 6 3 7 4 8 5 3 6 2 7 1 8
REMARK H PARENT
REMARK Flexibility Score: inf
ROOT
ATOM      1  C   UNL     1      52.945 147.565  -3.034  1.00  0.00     0.006 C 
ENDROOT
BRANCH   1   2
ATOM      2  C   UNL     1      52.621 148.125  -1.645  1.00  0.00     0.053 C 
BRANCH   2   3
ATOM      3  C   UNL     1      53.475 147.471  -0.606  1.00  0.00     0.041 C 
ATOM      4  O   UNL     1      54.720 147.377  -0.775  1.00  0.00    -0.550 OA
ATOM      5  O   UNL     1      52.904 147.008   0.573  1.00  0.00    -0.550 OA
ENDBRANCH   2   3
ENDBRANCH   1   2
BRANCH   1   6
ATOM      6  C   UNL     1      51.981 148.122  -4.089  1.00  0.00     0.000 C 
BRANCH   6   7
ATOM      7  C   UNL     1      52.624 148.112  -5.481  1.00  0.00    -0.003 C 
ATOM      8  C   UNL     1      54.130 147.883  -5.391  1.00  0.00     0.004 C 
ENDBRANCH   6   7
ENDBRANCH   1   6
TORSDOF 4
ENDMDL
MODEL 4
REMARK VINA RESULT:    -0.415     16.063     16.891
REMARK INTER + INTRA:          -0.626
REMARK INTER:                  -0.515
REMARK INTRA:                  -0.111
REMARK UNBOUND:                -0.115
REMARK SMILES CCCCCC(=O)[O-]
REMARK SMILES IDX 4 1 5 2 6 3 7 4 8 5 3 6 2 7 1 8
REMARK H PARENT
REMARK Flexibility Score: inf
ROOT
ATOM      1  C   UNL     1      53.394 140.946   0.386  1.00  0.00     0.006 C 
ENDROOT
BRANCH   1   2
ATOM      2  C   UNL     1      53.254 139.444   0.120  1.00  0.00     0.053 C 
BRANCH   2   3
ATOM      3  C   UNL     1      52.112 138.878   0.902  1.00  0.00     0.041 C 
ATOM      4  O   UNL     1      51.123 138.375   0.307  1.00  0.00    -0.550 OA
ATOM      5  O   UNL     1      52.161 138.862   2.291  1.00  0.00    -0.550 OA
ENDBRANCH   2   3
ENDBRANCH   1   2
BRANCH   1   6
ATOM      6  C   UNL     1      54.583 141.533  -0.385  1.00  0.00     0.000 C 
BRANCH   6   7
ATOM      7  C   UNL     1      55.569 140.433  -0.794  1.00  0.00    -0.003 C 
ATOM      8  C   UNL     1      56.368 140.840  -2.028  1.00  0.00     0.004 C 
ENDBRANCH   6   7
ENDBRANCH   1   6
TORSDOF 4
ENDMDL
