MODEL 1
REMARK VINA RESULT:    10.534      0.000      0.000
REMARK INTER + INTRA:          17.077
REMARK INTER:                  17.001
REMARK INTRA:                   0.077
REMARK UNBOUND:                 0.077
REMARK SMILES C[C@H]1O[C@H](OC[C@@H]2O[C@@H](Oc3c(-c4ccc(O)c(O)c4)oc4cc(O)cc(O)c4c3=O)[C@H](O)[C@@H](O)[C@H]2O)[C@@H](O)[C@@H](O)[C@@H]1O
REMARK SMILES IDX 7 1 36 2 34 3 32 4 9 5 8 6 6 7 5 8 4 9 1 10 2 11 42 12 3 13
REMARK SMILES IDX 40 14 38 15 43 16 41 18 39 20 37 22 35 24 10 26 11 27 12 28
REMARK SMILES IDX 30 29 21 30 29 31 31 32 22 33 27 34 23 35 26 36 24 37 13 38
REMARK SMILES IDX 20 39 14 40 18 41 15 42 16 43 19 44 17 46 28 48 25 50 33 52
REMARK H PARENT 43 17 41 19 39 21 37 23 35 25 19 45 17 47 28 49 25 51 33 53
REMARK Flexibility Score: inf
ROOT
ATOM      1  C   UNL     1      -0.011 -18.108  14.084  1.00  0.00     0.180 C 
ATOM      2  C   UNL     1      -0.517 -17.315  15.457  1.00  0.00     0.177 C 
ATOM      3  C   UNL     1      -2.120 -17.301  15.421  1.00  0.00     0.180 C 
ATOM      4  C   UNL     1      -2.598 -16.689  14.109  1.00  0.00     0.214 C 
ATOM      5  C   UNL     1      -1.769 -16.723  12.745  1.00  0.00     0.339 C 
ATOM      6  O   UNL     1      -0.432 -17.273  12.968  1.00  0.00    -0.332 OA
ENDROOT
BRANCH   1   7
ATOM      7  C   UNL     1       1.392 -18.951  13.723  1.00  0.00     0.198 C 
BRANCH   7   8
ATOM      8  O   UNL     1       2.577 -18.856  14.727  1.00  0.00    -0.347 OA
BRANCH   8   9
ATOM      9  C   UNL     1       2.654 -18.284  16.108  1.00  0.00     0.281 C 
ATOM     10  C   UNL     1       5.825 -19.125  18.124  1.00  0.00     0.041 C 
ATOM     11  C   UNL     1       4.948 -18.388  16.948  1.00  0.00     0.150 C 
ATOM     12  C   UNL     1       5.158 -16.838  16.629  1.00  0.00     0.174 C 
ATOM     13  O   UNL     1       3.610 -18.861  17.097  1.00  0.00    -0.344 OA
ATOM     14  C   UNL     1       3.900 -16.009  16.047  1.00  0.00     0.179 C 
ATOM     15  C   UNL     1       2.483 -16.709  16.389  1.00  0.00     0.202 C 
BRANCH  12  16
ATOM     16  O   UNL     1       6.295 -16.760  15.735  1.00  0.00    -0.388 OA
ATOM     17  H   UNL     1       6.015 -17.266  14.976  1.00  0.00     0.211 HD
ENDBRANCH  12  16
BRANCH  14  18
ATOM     18  O   UNL     1       4.054 -14.595  16.381  1.00  0.00    -0.387 OA
ATOM     19  H   UNL     1       3.689 -14.435  17.318  1.00  0.00     0.211 HD
ENDBRANCH  14  18
BRANCH  15  20
ATOM     20  O   UNL     1       2.350 -16.598  17.842  1.00  0.00    -0.385 OA
ATOM     21  H   UNL     1       1.536 -17.116  18.157  1.00  0.00     0.211 HD
ENDBRANCH  15  20
ENDBRANCH   8   9
ENDBRANCH   7   8
ENDBRANCH   1   7
BRANCH   2  22
ATOM     22  O   UNL     1      -0.191 -17.992  16.646  1.00  0.00    -0.387 OA
ATOM     23  H   UNL     1       0.819 -17.682  16.849  1.00  0.00     0.211 HD
ENDBRANCH   2  22
BRANCH   3  24
ATOM     24  O   UNL     1      -2.640 -18.651  15.512  1.00  0.00    -0.387 OA
ATOM     25  H   UNL     1      -3.671 -18.616  15.371  1.00  0.00     0.211 HD
ENDBRANCH   3  24
BRANCH   5  26
ATOM     26  O   UNL     1      -2.545 -17.414  11.560  1.00  0.00    -0.454 OA
BRANCH  26  27
ATOM     27  C   UNL     1      -2.699 -16.750  10.264  1.00  0.00     0.214 A 
ATOM     28  C   UNL     1      -1.899 -15.676   9.720  1.00  0.00     0.180 A 
ATOM     29  C   UNL     1      -3.874 -17.113   9.645  1.00  0.00     0.239 A 
ATOM     30  O   UNL     1      -2.310 -15.155   8.616  1.00  0.00    -0.452 OA
ATOM     31  C   UNL     1      -4.370 -16.397   8.563  1.00  0.00     0.111 A 
ATOM     32  O   UNL     1      -4.265 -18.285   9.745  1.00  0.00    -0.285 OA
ATOM     33  C   UNL     1      -3.452 -15.423   7.976  1.00  0.00     0.146 A 
ATOM     34  C   UNL     1      -5.578 -16.761   7.830  1.00  0.00     0.134 A 
ATOM     35  C   UNL     1      -3.740 -14.856   6.739  1.00  0.00     0.094 A 
ATOM     36  C   UNL     1      -5.735 -16.215   6.570  1.00  0.00     0.093 A 
ATOM     37  C   UNL     1      -4.800 -15.359   5.946  1.00  0.00     0.123 A 
BRANCH  28  38
ATOM     38  C   UNL     1      -0.701 -14.882  10.233  1.00  0.00     0.025 A 
ATOM     39  C   UNL     1      -0.736 -14.173  11.436  1.00  0.00     0.062 A 
ATOM     40  C   UNL     1       0.151 -14.112   9.330  1.00  0.00     0.016 A 
ATOM     41  C   UNL     1      -1.416 -12.974  11.064  1.00  0.00     0.158 A 
ATOM     42  C   UNL     1       0.139 -12.627   9.443  1.00  0.00     0.051 A 
ATOM     43  C   UNL     1      -0.502 -12.026  10.512  1.00  0.00     0.157 A 
BRANCH  41  44
ATOM     44  O   UNL     1      -2.423 -13.201  10.139  1.00  0.00    -0.504 OA
ATOM     45  H   UNL     1      -2.436 -12.815  11.092  1.00  0.00     0.293 HD
ENDBRANCH  41  44
BRANCH  43  46
ATOM     46  O   UNL     1      -0.544 -10.665  10.775  1.00  0.00    -0.504 OA
ATOM     47  H   UNL     1       0.168  -9.951  10.504  1.00  0.00     0.293 HD
ENDBRANCH  43  46
ENDBRANCH  28  38
BRANCH  34  48
ATOM     48  O   UNL     1      -6.616 -17.702   8.146  1.00  0.00    -0.507 OA
ATOM     49  H   UNL     1      -7.559 -17.349   8.275  1.00  0.00     0.293 HD
ENDBRANCH  34  48
BRANCH  37  50
ATOM     50  O   UNL     1      -4.848 -15.146   4.575  1.00  0.00    -0.508 OA
ATOM     51  H   UNL     1      -5.536 -15.581   4.063  1.00  0.00     0.293 HD
ENDBRANCH  37  50
ENDBRANCH  26  27
ENDBRANCH   5  26
BRANCH   4  52
ATOM     52  O   UNL     1      -3.372 -15.522  14.318  1.00  0.00    -0.384 OA
ATOM     53  H   UNL     1      -4.366 -15.671  14.101  1.00  0.00     0.211 HD
ENDBRANCH   4  52
TORSDOF 16
ENDMDL
MODEL 2
REMARK VINA RESULT:    12.832      2.054      9.324
REMARK INTER + INTRA:          20.785
REMARK INTER:                  16.329
REMARK INTRA:                   4.456
REMARK UNBOUND:                 0.077
REMARK SMILES C[C@H]1O[C@H](OC[C@@H]2O[C@@H](Oc3c(-c4ccc(O)c(O)c4)oc4cc(O)cc(O)c4c3=O)[C@H](O)[C@@H](O)[C@H]2O)[C@@H](O)[C@@H](O)[C@@H]1O
REMARK SMILES IDX 7 1 36 2 34 3 32 4 9 5 8 6 6 7 5 8 4 9 1 10 2 11 42 12 3 13
REMARK SMILES IDX 40 14 38 15 43 16 41 18 39 20 37 22 35 24 10 26 11 27 12 28
REMARK SMILES IDX 30 29 21 30 29 31 31 32 22 33 27 34 23 35 26 36 24 37 13 38
REMARK SMILES IDX 20 39 14 40 18 41 15 42 16 43 19 44 17 46 28 48 25 50 33 52
REMARK H PARENT 43 17 41 19 39 21 37 23 35 25 19 45 17 47 28 49 25 51 33 53
REMARK Flexibility Score: inf
ROOT
ATOM      1  C   UNL     1      -4.133 -15.282  11.279  1.00  0.00     0.180 C 
ATOM      2  C   UNL     1      -3.447 -13.766  11.310  1.00  0.00     0.177 C 
ATOM      3  C   UNL     1      -2.062 -13.898  12.108  1.00  0.00     0.180 C 
ATOM      4  C   UNL     1      -2.316 -14.520  13.477  1.00  0.00     0.214 C 
ATOM      5  C   UNL     1      -3.526 -15.510  13.806  1.00  0.00     0.339 C 
ATOM      6  O   UNL     1      -4.438 -15.606  12.666  1.00  0.00    -0.332 OA
ENDROOT
BRANCH   1   7
ATOM      7  C   UNL     1      -5.220 -16.005  10.228  1.00  0.00     0.198 C 
BRANCH   7   8
ATOM      8  O   UNL     1      -5.784 -15.146   9.060  1.00  0.00    -0.347 OA
BRANCH   8   9
ATOM      9  C   UNL     1      -5.094 -14.284   8.050  1.00  0.00     0.281 C 
ATOM     10  C   UNL     1      -1.416 -15.151   7.307  1.00  0.00     0.041 C 
ATOM     11  C   UNL     1      -3.043 -15.364   7.268  1.00  0.00     0.150 C 
ATOM     12  C   UNL     1      -3.770 -15.822   5.923  1.00  0.00     0.174 C 
ATOM     13  O   UNL     1      -3.603 -14.266   7.987  1.00  0.00    -0.344 OA
ATOM     14  C   UNL     1      -5.300 -15.356   5.696  1.00  0.00     0.179 C 
ATOM     15  C   UNL     1      -5.690 -14.056   6.574  1.00  0.00     0.202 C 
BRANCH  12  16
ATOM     16  O   UNL     1      -3.649 -17.264   5.869  1.00  0.00    -0.388 OA
ATOM     17  H   UNL     1      -2.706 -17.408   5.885  1.00  0.00     0.211 HD
ENDBRANCH  12  16
BRANCH  14  18
ATOM     18  O   UNL     1      -5.588 -15.318   4.264  1.00  0.00    -0.387 OA
ATOM     19  H   UNL     1      -5.887 -14.378   4.012  1.00  0.00     0.211 HD
ENDBRANCH  14  18
BRANCH  15  20
ATOM     20  O   UNL     1      -4.892 -12.967   6.008  1.00  0.00    -0.385 OA
ATOM     21  H   UNL     1      -5.305 -12.651   5.135  1.00  0.00     0.211 HD
ENDBRANCH  15  20
ENDBRANCH   8   9
ENDBRANCH   7   8
ENDBRANCH   1   7
BRANCH   2  22
ATOM     22  O   UNL     1      -3.083 -13.290  10.037  1.00  0.00    -0.387 OA
ATOM     23  H   UNL     1      -2.298 -12.583  10.242  1.00  0.00     0.211 HD
ENDBRANCH   2  22
BRANCH   3  24
ATOM     24  O   UNL     1      -1.141 -14.751  11.382  1.00  0.00    -0.387 OA
ATOM     25  H   UNL     1      -1.030 -14.370  10.420  1.00  0.00     0.211 HD
ENDBRANCH   3  24
BRANCH   5  26
ATOM     26  O   UNL     1      -3.054 -16.909  14.356  1.00  0.00    -0.454 OA
BRANCH  26  27
ATOM     27  C   UNL     1      -1.712 -17.422  14.075  1.00  0.00     0.214 A 
ATOM     28  C   UNL     1      -1.317 -18.347  13.037  1.00  0.00     0.180 A 
ATOM     29  C   UNL     1      -0.824 -17.090  15.074  1.00  0.00     0.239 A 
ATOM     30  O   UNL     1      -0.099 -18.764  13.071  1.00  0.00    -0.452 OA
ATOM     31  C   UNL     1       0.416 -17.710  15.172  1.00  0.00     0.111 A 
ATOM     32  O   UNL     1      -0.917 -15.977  15.613  1.00  0.00    -0.285 OA
ATOM     33  C   UNL     1       0.809 -18.521  14.021  1.00  0.00     0.146 A 
ATOM     34  C   UNL     1       1.422 -17.366  16.172  1.00  0.00     0.134 A 
ATOM     35  C   UNL     1       2.123 -18.957  13.896  1.00  0.00     0.094 A 
ATOM     36  C   UNL     1       2.720 -17.767  15.918  1.00  0.00     0.093 A 
ATOM     37  C   UNL     1       3.132 -18.456  14.755  1.00  0.00     0.123 A 
BRANCH  28  38
ATOM     38  C   UNL     1      -2.070 -19.090  11.937  1.00  0.00     0.025 A 
ATOM     39  C   UNL     1      -1.622 -19.118  10.614  1.00  0.00     0.062 A 
ATOM     40  C   UNL     1      -3.529 -19.090  11.874  1.00  0.00     0.016 A 
ATOM     41  C   UNL     1      -2.066 -17.856  10.115  1.00  0.00     0.158 A 
ATOM     42  C   UNL     1      -4.187 -18.386  10.738  1.00  0.00     0.051 A 
ATOM     43  C   UNL     1      -3.422 -17.936   9.675  1.00  0.00     0.157 A 
BRANCH  41  44
ATOM     44  O   UNL     1      -1.971 -16.848  11.062  1.00  0.00    -0.504 OA
ATOM     45  H   UNL     1      -2.777 -17.350  10.668  1.00  0.00     0.293 HD
ENDBRANCH  41  44
BRANCH  43  46
ATOM     46  O   UNL     1      -3.903 -17.321   8.530  1.00  0.00    -0.504 OA
ATOM     47  H   UNL     1      -3.369 -17.113   7.657  1.00  0.00     0.293 HD
ENDBRANCH  43  46
ENDBRANCH  28  38
BRANCH  34  48
ATOM     48  O   UNL     1       1.324 -16.566  17.360  1.00  0.00    -0.507 OA
ATOM     49  H   UNL     1       0.434 -16.539  17.846  1.00  0.00     0.293 HD
ENDBRANCH  34  48
BRANCH  37  50
ATOM     50  O   UNL     1       4.476 -18.504  14.406  1.00  0.00    -0.508 OA
ATOM     51  H   UNL     1       4.896 -17.707  14.073  1.00  0.00     0.293 HD
ENDBRANCH  37  50
ENDBRANCH  26  27
ENDBRANCH   5  26
BRANCH   4  52
ATOM     52  O   UNL     1      -1.938 -13.655  14.532  1.00  0.00    -0.384 OA
ATOM     53  H   UNL     1      -1.929 -14.132  15.442  1.00  0.00     0.211 HD
ENDBRANCH   4  52
TORSDOF 16
ENDMDL
MODEL 3
REMARK VINA RESULT:    13.444      2.145      9.295
REMARK INTER + INTRA:          21.772
REMARK INTER:                  18.233
REMARK INTRA:                   3.539
REMARK UNBOUND:                 0.077
REMARK SMILES C[C@H]1O[C@H](OC[C@@H]2O[C@@H](Oc3c(-c4ccc(O)c(O)c4)oc4cc(O)cc(O)c4c3=O)[C@H](O)[C@@H](O)[C@H]2O)[C@@H](O)[C@@H](O)[C@@H]1O
REMARK SMILES IDX 7 1 36 2 34 3 32 4 9 5 8 6 6 7 5 8 4 9 1 10 2 11 42 12 3 13
REMARK SMILES IDX 40 14 38 15 43 16 41 18 39 20 37 22 35 24 10 26 11 27 12 28
REMARK SMILES IDX 30 29 21 30 29 31 31 32 22 33 27 34 23 35 26 36 24 37 13 38
REMARK SMILES IDX 20 39 14 40 18 41 15 42 16 43 19 44 17 46 28 48 25 50 33 52
REMARK H PARENT 43 17 41 19 39 21 37 23 35 25 19 45 17 47 28 49 25 51 33 53
REMARK Flexibility Score: inf
ROOT
ATOM      1  C   UNL     1      -2.201 -14.313  10.292  1.00  0.00     0.180 C 
ATOM      2  C   UNL     1      -2.002 -12.754  10.838  1.00  0.00     0.177 C 
ATOM      3  C   UNL     1      -1.702 -12.847  12.411  1.00  0.00     0.180 C 
ATOM      4  C   UNL     1      -2.810 -13.636  13.099  1.00  0.00     0.214 C 
ATOM      5  C   UNL     1      -3.691 -14.761  12.385  1.00  0.00     0.339 C 
ATOM      6  O   UNL     1      -3.398 -14.814  10.953  1.00  0.00    -0.332 OA
ENDROOT
BRANCH   1   7
ATOM      7  C   UNL     1      -1.997 -15.012   8.782  1.00  0.00     0.198 C 
BRANCH   7   8
ATOM      8  O   UNL     1      -2.618 -14.286   7.554  1.00  0.00    -0.347 OA
BRANCH   8   9
ATOM      9  C   UNL     1      -4.011 -13.803   7.297  1.00  0.00     0.281 C 
ATOM     10  C   UNL     1      -5.757 -15.231   4.176  1.00  0.00     0.041 C 
ATOM     11  C   UNL     1      -5.139 -15.268   5.696  1.00  0.00     0.150 C 
ATOM     12  C   UNL     1      -5.937 -15.984   6.879  1.00  0.00     0.174 C 
ATOM     13  O   UNL     1      -4.613 -13.964   5.941  1.00  0.00    -0.344 OA
ATOM     14  C   UNL     1      -5.716 -15.430   8.381  1.00  0.00     0.179 C 
ATOM     15  C   UNL     1      -5.169 -13.909   8.408  1.00  0.00     0.202 C 
BRANCH  12  16
ATOM     16  O   UNL     1      -5.616 -17.393   6.789  1.00  0.00    -0.388 OA
ATOM     17  H   UNL     1      -6.168 -17.701   6.074  1.00  0.00     0.211 HD
ENDBRANCH  12  16
BRANCH  14  18
ATOM     18  O   UNL     1      -6.893 -15.741   9.190  1.00  0.00    -0.387 OA
ATOM     19  H   UNL     1      -7.729 -15.498   8.663  1.00  0.00     0.211 HD
ENDBRANCH  14  18
BRANCH  15  20
ATOM     20  O   UNL     1      -6.271 -13.103   7.884  1.00  0.00    -0.385 OA
ATOM     21  H   UNL     1      -6.107 -12.885   6.905  1.00  0.00     0.211 HD
ENDBRANCH  15  20
ENDBRANCH   8   9
ENDBRANCH   7   8
ENDBRANCH   1   7
BRANCH   2  22
ATOM     22  O   UNL     1      -0.874 -12.111  10.296  1.00  0.00    -0.387 OA
ATOM     23  H   UNL     1      -0.929 -11.115  10.700  1.00  0.00     0.211 HD
ENDBRANCH   2  22
BRANCH   3  24
ATOM     24  O   UNL     1      -0.443 -13.528  12.645  1.00  0.00    -0.387 OA
ATOM     25  H   UNL     1       0.319 -12.968  12.209  1.00  0.00     0.211 HD
ENDBRANCH   3  24
BRANCH   5  26
ATOM     26  O   UNL     1      -3.606 -16.164  13.098  1.00  0.00    -0.454 OA
BRANCH  26  27
ATOM     27  C   UNL     1      -2.360 -16.932  13.117  1.00  0.00     0.214 A 
ATOM     28  C   UNL     1      -1.980 -18.024  12.249  1.00  0.00     0.180 A 
ATOM     29  C   UNL     1      -1.607 -16.649  14.235  1.00  0.00     0.239 A 
ATOM     30  O   UNL     1      -0.889 -18.641  12.544  1.00  0.00    -0.452 OA
ATOM     31  C   UNL     1      -0.545 -17.462  14.612  1.00  0.00     0.111 A 
ATOM     32  O   UNL     1      -1.575 -15.484  14.655  1.00  0.00    -0.285 OA
ATOM     33  C   UNL     1      -0.126 -18.455  13.625  1.00  0.00     0.146 A 
ATOM     34  C   UNL     1       0.324 -17.188  15.753  1.00  0.00     0.134 A 
ATOM     35  C   UNL     1       1.081 -19.125  13.784  1.00  0.00     0.094 A 
ATOM     36  C   UNL     1       1.544 -17.836  15.780  1.00  0.00     0.093 A 
ATOM     37  C   UNL     1       2.007 -18.714  14.774  1.00  0.00     0.123 A 
BRANCH  28  38
ATOM     38  C   UNL     1      -2.665 -18.744  11.089  1.00  0.00     0.025 A 
ATOM     39  C   UNL     1      -1.975 -19.125   9.936  1.00  0.00     0.062 A 
ATOM     40  C   UNL     1      -4.016 -18.391  10.660  1.00  0.00     0.016 A 
ATOM     41  C   UNL     1      -1.924 -17.906   9.195  1.00  0.00     0.158 A 
ATOM     42  C   UNL     1      -4.189 -17.765   9.319  1.00  0.00     0.051 A 
ATOM     43  C   UNL     1      -3.122 -17.723   8.439  1.00  0.00     0.157 A 
BRANCH  41  44
ATOM     44  O   UNL     1      -1.746 -16.798  10.009  1.00  0.00    -0.504 OA
ATOM     45  H   UNL     1      -2.005 -17.772  10.216  1.00  0.00     0.293 HD
ENDBRANCH  41  44
BRANCH  43  46
ATOM     46  O   UNL     1      -3.153 -17.228   7.145  1.00  0.00    -0.504 OA
ATOM     47  H   UNL     1      -2.802 -17.701   6.283  1.00  0.00     0.293 HD
ENDBRANCH  43  46
ENDBRANCH  28  38
BRANCH  34  48
ATOM     48  O   UNL     1       0.182 -16.253  16.833  1.00  0.00    -0.507 OA
ATOM     49  H   UNL     1       0.210 -15.263  16.616  1.00  0.00     0.293 HD
ENDBRANCH  34  48
BRANCH  37  50
ATOM     50  O   UNL     1       3.356 -19.036  14.689  1.00  0.00    -0.508 OA
ATOM     51  H   UNL     1       3.833 -18.819  13.884  1.00  0.00     0.293 HD
ENDBRANCH  37  50
ENDBRANCH  26  27
ENDBRANCH   5  26
BRANCH   4  52
ATOM     52  O   UNL     1      -3.490 -12.861  14.069  1.00  0.00    -0.384 OA
ATOM     53  H   UNL     1      -3.575 -13.351  14.968  1.00  0.00     0.211 HD
ENDBRANCH   4  52
TORSDOF 16
ENDMDL
