MODEL 1
REMARK VINA RESULT:     6.543      0.000      0.000
REMARK INTER + INTRA:           8.023
REMARK INTER:                   7.499
REMARK INTRA:                   0.524
REMARK UNBOUND:                 0.524
REMARK SMILES O=C([O-])C=Cc1ccc(O)cc1
REMARK SMILES IDX 6 1 7 2 12 3 8 4 11 5 9 6 5 7 4 8 2 9 1 10 3 11 10 12
REMARK H PARENT 10 13
REMARK Flexibility Score: inf
ROOT
ATOM      1  C   UNL     1      12.529  12.727  29.672  1.00  0.00    -0.025 A 
ATOM      2  C   UNL     1      12.624  11.336  29.521  1.00  0.00     0.012 A 
ATOM      3  C   UNL     1      11.487  13.265  30.447  1.00  0.00     0.012 A 
ATOM      4  C   UNL     1      11.662  10.496  30.092  1.00  0.00     0.047 A 
ATOM      5  C   UNL     1      10.525  12.425  31.016  1.00  0.00     0.047 A 
ATOM      6  C   UNL     1      10.609  11.038  30.837  1.00  0.00     0.115 A 
ENDROOT
BRANCH   1   7
ATOM      7  C   UNL     1      13.587  13.590  29.106  1.00  0.00     0.010 C 
ATOM      8  C   UNL     1      13.475  14.322  27.986  1.00  0.00     0.025 C 
BRANCH   8   9
ATOM      9  C   UNL     1      12.359  14.249  27.024  1.00  0.00     0.064 C 
ATOM     10  O   UNL     1      11.294  13.669  27.360  1.00  0.00    -0.545 OA
ATOM     11  O   UNL     1      12.429  14.870  25.783  1.00  0.00    -0.545 OA
ENDBRANCH   8   9
ENDBRANCH   1   7
BRANCH   6  12
ATOM     12  O   UNL     1       9.656  10.190  31.398  1.00  0.00    -0.508 OA
ATOM     13  H   UNL     1       9.627   9.203  31.172  1.00  0.00     0.293 HD
ENDBRANCH   6  12
TORSDOF 3
ENDMDL
MODEL 2
REMARK VINA RESULT:     7.167      2.219      2.830
REMARK INTER + INTRA:           8.738
REMARK INTER:                   8.356
REMARK INTRA:                   0.382
REMARK UNBOUND:                 0.524
REMARK SMILES O=C([O-])C=Cc1ccc(O)cc1
REMARK SMILES IDX 6 1 7 2 12 3 8 4 11 5 9 6 5 7 4 8 2 9 1 10 3 11 10 12
REMARK H PARENT 10 13
REMARK Flexibility Score: inf
ROOT
ATOM      1  C   UNL     1      12.253  12.692  29.559  1.00  0.00    -0.025 A 
ATOM      2  C   UNL     1      10.888  13.010  29.515  1.00  0.00     0.012 A 
ATOM      3  C   UNL     1      12.670  11.538  30.245  1.00  0.00     0.012 A 
ATOM      4  C   UNL     1       9.956  12.216  30.191  1.00  0.00     0.047 A 
ATOM      5  C   UNL     1      11.737  10.746  30.922  1.00  0.00     0.047 A 
ATOM      6  C   UNL     1      10.378  11.084  30.899  1.00  0.00     0.115 A 
ENDROOT
BRANCH   1   7
ATOM      7  C   UNL     1      13.212  13.516  28.792  1.00  0.00     0.010 C 
ATOM      8  C   UNL     1      13.830  14.615  29.250  1.00  0.00     0.025 C 
BRANCH   8   9
ATOM      9  C   UNL     1      13.523  15.305  30.517  1.00  0.00     0.064 C 
ATOM     10  O   UNL     1      13.889  16.499  30.671  1.00  0.00    -0.545 OA
ATOM     11  O   UNL     1      12.776  14.691  31.516  1.00  0.00    -0.545 OA
ENDBRANCH   8   9
ENDBRANCH   1   7
BRANCH   6  12
ATOM     12  O   UNL     1       9.439  10.303  31.569  1.00  0.00    -0.508 OA
ATOM     13  H   UNL     1       8.747  10.717  32.182  1.00  0.00     0.293 HD
ENDBRANCH   6  12
TORSDOF 3
ENDMDL
MODEL 3
REMARK VINA RESULT:     7.258      2.237      2.595
REMARK INTER + INTRA:           8.842
REMARK INTER:                   8.388
REMARK INTRA:                   0.454
REMARK UNBOUND:                 0.524
REMARK SMILES O=C([O-])C=Cc1ccc(O)cc1
REMARK SMILES IDX 6 1 7 2 12 3 8 4 11 5 9 6 5 7 4 8 2 9 1 10 3 11 10 12
REMARK H PARENT 10 13
REMARK Flexibility Score: inf
ROOT
ATOM      1  C   UNL     1      12.220  12.693  29.467  1.00  0.00    -0.025 A 
ATOM      2  C   UNL     1      12.658  11.567  30.179  1.00  0.00     0.012 A 
ATOM      3  C   UNL     1      10.856  13.036  29.491  1.00  0.00     0.012 A 
ATOM      4  C   UNL     1      11.740  10.764  30.864  1.00  0.00     0.047 A 
ATOM      5  C   UNL     1       9.940  12.231  30.175  1.00  0.00     0.047 A 
ATOM      6  C   UNL     1      10.380  11.091  30.861  1.00  0.00     0.115 A 
ENDROOT
BRANCH   1   7
ATOM      7  C   UNL     1      13.214  13.557  28.796  1.00  0.00     0.010 C 
ATOM      8  C   UNL     1      13.804  14.631  29.342  1.00  0.00     0.025 C 
BRANCH   8   9
ATOM      9  C   UNL     1      13.430  15.252  30.626  1.00  0.00     0.064 C 
ATOM     10  O   UNL     1      13.737  16.453  30.841  1.00  0.00    -0.545 OA
ATOM     11  O   UNL     1      12.682  14.565  31.575  1.00  0.00    -0.545 OA
ENDBRANCH   8   9
ENDBRANCH   1   7
BRANCH   6  12
ATOM     12  O   UNL     1       9.476  10.281  31.546  1.00  0.00    -0.508 OA
ATOM     13  H   UNL     1       9.236   9.356  31.211  1.00  0.00     0.293 HD
ENDBRANCH   6  12
TORSDOF 3
ENDMDL
MODEL 4
REMARK VINA RESULT:     7.986      2.268      2.612
REMARK INTER + INTRA:           9.677
REMARK INTER:                   8.919
REMARK INTRA:                   0.757
REMARK UNBOUND:                 0.524
REMARK SMILES O=C([O-])C=Cc1ccc(O)cc1
REMARK SMILES IDX 6 1 7 2 12 3 8 4 11 5 9 6 5 7 4 8 2 9 1 10 3 11 10 12
REMARK H PARENT 10 13
REMARK Flexibility Score: inf
ROOT
ATOM      1  C   UNL     1      11.975  12.874  29.791  1.00  0.00    -0.025 A 
ATOM      2  C   UNL     1      12.295  12.339  31.047  1.00  0.00     0.012 A 
ATOM      3  C   UNL     1      10.784  12.480  29.158  1.00  0.00     0.012 A 
ATOM      4  C   UNL     1      11.464  11.383  31.639  1.00  0.00     0.047 A 
ATOM      5  C   UNL     1       9.954  11.523  29.751  1.00  0.00     0.047 A 
ATOM      6  C   UNL     1      10.294  10.970  30.993  1.00  0.00     0.115 A 
ENDROOT
BRANCH   1   7
ATOM      7  C   UNL     1      12.841  13.922  29.209  1.00  0.00     0.010 C 
ATOM      8  C   UNL     1      14.080  13.728  28.731  1.00  0.00     0.025 C 
BRANCH   8   9
ATOM      9  C   UNL     1      14.868  12.490  28.873  1.00  0.00     0.064 C 
ATOM     10  O   UNL     1      16.122  12.546  28.790  1.00  0.00    -0.545 OA
ATOM     11  O   UNL     1      14.264  11.274  29.170  1.00  0.00    -0.545 OA
ENDBRANCH   8   9
ENDBRANCH   1   7
BRANCH   6  12
ATOM     12  O   UNL     1       9.476  10.016  31.593  1.00  0.00    -0.508 OA
ATOM     13  H   UNL     1       9.841   9.355  32.268  1.00  0.00     0.293 HD
ENDBRANCH   6  12
TORSDOF 3
ENDMDL
MODEL 5
REMARK VINA RESULT:     8.233      1.160      4.627
REMARK INTER + INTRA:           9.960
REMARK INTER:                   9.186
REMARK INTRA:                   0.774
REMARK UNBOUND:                 0.524
REMARK SMILES O=C([O-])C=Cc1ccc(O)cc1
REMARK SMILES IDX 6 1 7 2 12 3 8 4 11 5 9 6 5 7 4 8 2 9 1 10 3 11 10 12
REMARK H PARENT 10 13
REMARK Flexibility Score: inf
ROOT
ATOM      1  C   UNL     1      12.476  13.214  29.656  1.00  0.00    -0.025 A 
ATOM      2  C   UNL     1      11.402  13.117  28.761  1.00  0.00     0.012 A 
ATOM      3  C   UNL     1      13.627  13.928  29.276  1.00  0.00     0.012 A 
ATOM      4  C   UNL     1      11.494  13.679  27.483  1.00  0.00     0.047 A 
ATOM      5  C   UNL     1      13.718  14.488  27.998  1.00  0.00     0.047 A 
ATOM      6  C   UNL     1      12.652  14.363  27.097  1.00  0.00     0.115 A 
ENDROOT
BRANCH   1   7
ATOM      7  C   UNL     1      12.335  12.659  31.019  1.00  0.00     0.010 C 
ATOM      8  C   UNL     1      11.621  11.570  31.343  1.00  0.00     0.025 C 
BRANCH   8   9
ATOM      9  C   UNL     1      10.703  10.849  30.443  1.00  0.00     0.064 C 
ATOM     10  O   UNL     1       9.464  10.905  30.654  1.00  0.00    -0.545 OA
ATOM     11  O   UNL     1      11.168  10.169  29.323  1.00  0.00    -0.545 OA
ENDBRANCH   8   9
ENDBRANCH   1   7
BRANCH   6  12
ATOM     12  O   UNL     1      12.732  14.916  25.822  1.00  0.00    -0.508 OA
ATOM     13  H   UNL     1      12.048  15.587  25.491  1.00  0.00     0.293 HD
ENDBRANCH   6  12
TORSDOF 3
ENDMDL
MODEL 6
REMARK VINA RESULT:     8.991      2.111      4.642
REMARK INTER + INTRA:          10.829
REMARK INTER:                  10.027
REMARK INTRA:                   0.803
REMARK UNBOUND:                 0.524
REMARK SMILES O=C([O-])C=Cc1ccc(O)cc1
REMARK SMILES IDX 6 1 7 2 12 3 8 4 11 5 9 6 5 7 4 8 2 9 1 10 3 11 10 12
REMARK H PARENT 10 13
REMARK Flexibility Score: inf
ROOT
ATOM      1  C   UNL     1      12.782  12.805  29.779  1.00  0.00    -0.025 A 
ATOM      2  C   UNL     1      12.390  13.375  30.999  1.00  0.00     0.012 A 
ATOM      3  C   UNL     1      13.584  13.550  28.897  1.00  0.00     0.012 A 
ATOM      4  C   UNL     1      12.750  14.690  31.312  1.00  0.00     0.047 A 
ATOM      5  C   UNL     1      13.942  14.865  29.210  1.00  0.00     0.047 A 
ATOM      6  C   UNL     1      13.524  15.439  30.418  1.00  0.00     0.115 A 
ENDROOT
BRANCH   1   7
ATOM      7  C   UNL     1      12.435  11.397  29.494  1.00  0.00     0.010 C 
ATOM      8  C   UNL     1      11.266  10.809  29.794  1.00  0.00     0.025 C 
BRANCH   8   9
ATOM      9  C   UNL     1      10.200  11.399  30.625  1.00  0.00     0.064 C 
ATOM     10  O   UNL     1       9.850  10.814  31.682  1.00  0.00    -0.545 OA
ATOM     11  O   UNL     1       9.623  12.623  30.305  1.00  0.00    -0.545 OA
ENDBRANCH   8   9
ENDBRANCH   1   7
BRANCH   6  12
ATOM     12  O   UNL     1      13.874  16.748  30.741  1.00  0.00    -0.508 OA
ATOM     13  H   UNL     1      14.817  16.991  31.018  1.00  0.00     0.293 HD
ENDBRANCH   6  12
TORSDOF 3
ENDMDL
MODEL 7
REMARK VINA RESULT:     9.532      2.322      4.685
REMARK INTER + INTRA:          11.449
REMARK INTER:                  10.067
REMARK INTRA:                   1.382
REMARK UNBOUND:                 0.524
REMARK SMILES O=C([O-])C=Cc1ccc(O)cc1
REMARK SMILES IDX 6 1 7 2 12 3 8 4 11 5 9 6 5 7 4 8 2 9 1 10 3 11 10 12
REMARK H PARENT 10 13
REMARK Flexibility Score: inf
ROOT
ATOM      1  C   UNL     1      11.973  12.694  29.296  1.00  0.00    -0.025 A 
ATOM      2  C   UNL     1      12.685  11.504  29.503  1.00  0.00     0.012 A 
ATOM      3  C   UNL     1      12.654  13.830  28.825  1.00  0.00     0.012 A 
ATOM      4  C   UNL     1      14.067  11.463  29.295  1.00  0.00     0.047 A 
ATOM      5  C   UNL     1      14.036  13.788  28.618  1.00  0.00     0.047 A 
ATOM      6  C   UNL     1      14.747  12.605  28.856  1.00  0.00     0.115 A 
ENDROOT
BRANCH   1   7
ATOM      7  C   UNL     1      10.505  12.698  29.471  1.00  0.00     0.010 C 
ATOM      8  C   UNL     1       9.836  12.042  30.431  1.00  0.00     0.025 C 
BRANCH   8   9
ATOM      9  C   UNL     1      10.418  11.054  31.358  1.00  0.00     0.064 C 
ATOM     10  O   UNL     1       9.806   9.976  31.572  1.00  0.00    -0.545 OA
ATOM     11  O   UNL     1      11.663  11.253  31.944  1.00  0.00    -0.545 OA
ENDBRANCH   8   9
ENDBRANCH   1   7
BRANCH   6  12
ATOM     12  O   UNL     1      16.124  12.550  28.654  1.00  0.00    -0.508 OA
ATOM     13  H   UNL     1      16.523  12.537  27.723  1.00  0.00     0.293 HD
ENDBRANCH   6  12
TORSDOF 3
ENDMDL
