MODEL 1
REMARK VINA RESULT:    -4.550      0.000      0.000
REMARK INTER + INTRA:          -4.905
REMARK INTER:                  -4.816
REMARK INTRA:                  -0.088
REMARK UNBOUND:                -0.088
REMARK SMILES C=C(C)[C@@H]1CC=C(C)C(=O)C1
REMARK SMILES IDX 8 1 7 2 6 3 5 4 4 5 11 6 9 7 10 8 2 9 1 10 3 11
REMARK H PARENT
REMARK Flexibility Score: inf
ROOT
ATOM      1  C   UNL     1      19.062  13.390  52.621  1.00  0.00     0.048 C 
ATOM      2  C   UNL     1      18.086  12.464  51.948  1.00  0.00    -0.012 C 
ATOM      3  C   UNL     1      17.874  11.232  52.443  1.00  0.00    -0.019 C 
ATOM      4  C   UNL     1      16.849  10.299  51.852  1.00  0.00     0.036 C 
ATOM      5  C   UNL     1      16.678  10.545  50.341  1.00  0.00     0.025 C 
ATOM      6  C   UNL     1      16.344  12.025  50.073  1.00  0.00     0.089 C 
ATOM      7  C   UNL     1      17.341  12.925  50.751  1.00  0.00     0.158 C 
ATOM      8  O   UNL     1      17.505  14.096  50.317  1.00  0.00    -0.295 OA
ENDROOT
BRANCH   5   9
ATOM      9  C   UNL     1      15.635   9.616  49.734  1.00  0.00    -0.077 C 
ATOM     10  C   UNL     1      15.954   8.752  48.754  1.00  0.00     0.008 C 
ATOM     11  C   UNL     1      14.212   9.651  50.228  1.00  0.00     0.039 C 
ENDBRANCH   5   9
TORSDOF 1
ENDMDL
MODEL 2
REMARK VINA RESULT:    -4.529     17.063     18.372
REMARK INTER + INTRA:          -4.882
REMARK INTER:                  -4.786
REMARK INTRA:                  -0.097
REMARK UNBOUND:                -0.088
REMARK SMILES C=C(C)[C@@H]1CC=C(C)C(=O)C1
REMARK SMILES IDX 8 1 7 2 6 3 5 4 4 5 11 6 9 7 10 8 2 9 1 10 3 11
REMARK H PARENT
REMARK Flexibility Score: inf
ROOT
ATOM      1  C   UNL     1      19.116  21.604  33.603  1.00  0.00     0.048 C 
ATOM      2  C   UNL     1      18.210  21.870  34.774  1.00  0.00    -0.012 C 
ATOM      3  C   UNL     1      17.303  22.860  34.714  1.00  0.00    -0.019 C 
ATOM      4  C   UNL     1      16.321  23.113  35.829  1.00  0.00     0.036 C 
ATOM      5  C   UNL     1      16.915  22.715  37.194  1.00  0.00     0.025 C 
ATOM      6  C   UNL     1      17.398  21.253  37.163  1.00  0.00     0.089 C 
ATOM      7  C   UNL     1      18.307  21.020  35.986  1.00  0.00     0.158 C 
ATOM      8  O   UNL     1      19.125  20.063  36.024  1.00  0.00    -0.295 OA
ENDROOT
BRANCH   5   9
ATOM      9  C   UNL     1      15.927  22.956  38.329  1.00  0.00    -0.077 C 
ATOM     10  C   UNL     1      15.614  21.982  39.202  1.00  0.00     0.008 C 
ATOM     11  C   UNL     1      15.277  24.305  38.492  1.00  0.00     0.039 C 
ENDBRANCH   5   9
TORSDOF 1
ENDMDL
MODEL 3
REMARK VINA RESULT:    -4.418      1.551      4.264
REMARK INTER + INTRA:          -4.764
REMARK INTER:                  -4.668
REMARK INTRA:                  -0.096
REMARK UNBOUND:                -0.088
REMARK SMILES C=C(C)[C@@H]1CC=C(C)C(=O)C1
REMARK SMILES IDX 8 1 7 2 6 3 5 4 4 5 11 6 9 7 10 8 2 9 1 10 3 11
REMARK H PARENT
REMARK Flexibility Score: inf
ROOT
ATOM      1  C   UNL     1      14.527   9.659  48.543  1.00  0.00     0.048 C 
ATOM      2  C   UNL     1      15.560  10.307  49.423  1.00  0.00    -0.012 C 
ATOM      3  C   UNL     1      15.748   9.867  50.680  1.00  0.00    -0.019 C 
ATOM      4  C   UNL     1      16.825  10.431  51.571  1.00  0.00     0.036 C 
ATOM      5  C   UNL     1      17.104  11.909  51.240  1.00  0.00     0.025 C 
ATOM      6  C   UNL     1      17.441  12.069  49.745  1.00  0.00     0.089 C 
ATOM      7  C   UNL     1      16.387  11.418  48.891  1.00  0.00     0.158 C 
ATOM      8  O   UNL     1      16.243  11.798  47.698  1.00  0.00    -0.295 OA
ENDROOT
BRANCH   5   9
ATOM      9  C   UNL     1      18.199  12.488  52.127  1.00  0.00    -0.077 C 
ATOM     10  C   UNL     1      18.742  11.770  53.125  1.00  0.00     0.008 C 
ATOM     11  C   UNL     1      18.695  13.891  51.896  1.00  0.00     0.039 C 
ENDBRANCH   5   9
TORSDOF 1
ENDMDL
MODEL 4
REMARK VINA RESULT:    -4.389     16.570     17.753
REMARK INTER + INTRA:          -4.734
REMARK INTER:                  -4.638
REMARK INTRA:                  -0.096
REMARK UNBOUND:                -0.088
REMARK SMILES C=C(C)[C@@H]1CC=C(C)C(=O)C1
REMARK SMILES IDX 8 1 7 2 6 3 5 4 4 5 11 6 9 7 10 8 2 9 1 10 3 11
REMARK H PARENT
REMARK Flexibility Score: inf
ROOT
ATOM      1  C   UNL     1      19.125  21.238  33.349  1.00  0.00     0.048 C 
ATOM      2  C   UNL     1      18.640  21.252  34.772  1.00  0.00    -0.012 C 
ATOM      3  C   UNL     1      19.115  20.358  35.656  1.00  0.00    -0.019 C 
ATOM      4  C   UNL     1      18.719  20.384  37.110  1.00  0.00     0.036 C 
ATOM      5  C   UNL     1      17.292  20.937  37.289  1.00  0.00     0.025 C 
ATOM      6  C   UNL     1      17.167  22.321  36.625  1.00  0.00     0.089 C 
ATOM      7  C   UNL     1      17.652  22.273  35.201  1.00  0.00     0.158 C 
ATOM      8  O   UNL     1      17.243  23.140  34.385  1.00  0.00    -0.295 OA
ENDROOT
BRANCH   5   9
ATOM      9  C   UNL     1      16.885  20.979  38.756  1.00  0.00    -0.077 C 
ATOM     10  C   UNL     1      17.543  20.265  39.686  1.00  0.00     0.008 C 
ATOM     11  C   UNL     1      15.722  21.832  39.193  1.00  0.00     0.039 C 
ENDBRANCH   5   9
TORSDOF 1
ENDMDL
MODEL 5
REMARK VINA RESULT:    -4.342      1.429      2.316
REMARK INTER + INTRA:          -4.684
REMARK INTER:                  -4.594
REMARK INTRA:                  -0.090
REMARK UNBOUND:                -0.088
REMARK SMILES C=C(C)[C@@H]1CC=C(C)C(=O)C1
REMARK SMILES IDX 8 1 7 2 6 3 5 4 4 5 11 6 9 7 10 8 2 9 1 10 3 11
REMARK H PARENT
REMARK Flexibility Score: inf
ROOT
ATOM      1  C   UNL     1      18.945  13.589  51.950  1.00  0.00     0.048 C 
ATOM      2  C   UNL     1      17.991  12.581  51.373  1.00  0.00    -0.012 C 
ATOM      3  C   UNL     1      17.351  12.839  50.219  1.00  0.00    -0.019 C 
ATOM      4  C   UNL     1      16.449  11.828  49.561  1.00  0.00     0.036 C 
ATOM      5  C   UNL     1      15.779  10.916  50.607  1.00  0.00     0.025 C 
ATOM      6  C   UNL     1      16.845  10.254  51.501  1.00  0.00     0.089 C 
ATOM      7  C   UNL     1      17.778  11.288  52.070  1.00  0.00     0.158 C 
ATOM      8  O   UNL     1      18.413  11.026  53.125  1.00  0.00    -0.295 OA
ENDROOT
BRANCH   5   9
ATOM      9  C   UNL     1      14.873   9.881  49.952  1.00  0.00    -0.077 C 
ATOM     10  C   UNL     1      13.641   9.629  50.429  1.00  0.00     0.008 C 
ATOM     11  C   UNL     1      15.349   9.114  48.746  1.00  0.00     0.039 C 
ENDBRANCH   5   9
TORSDOF 1
ENDMDL
MODEL 6
REMARK VINA RESULT:    -4.307      2.023      4.601
REMARK INTER + INTRA:          -4.647
REMARK INTER:                  -4.551
REMARK INTRA:                  -0.096
REMARK UNBOUND:                -0.088
REMARK SMILES C=C(C)[C@@H]1CC=C(C)C(=O)C1
REMARK SMILES IDX 8 1 7 2 6 3 5 4 4 5 11 6 9 7 10 8 2 9 1 10 3 11
REMARK H PARENT
REMARK Flexibility Score: inf
ROOT
ATOM      1  C   UNL     1      15.258  10.643  47.452  1.00  0.00     0.048 C 
ATOM      2  C   UNL     1      15.977  11.148  48.672  1.00  0.00    -0.012 C 
ATOM      3  C   UNL     1      16.752  12.244  48.594  1.00  0.00    -0.019 C 
ATOM      4  C   UNL     1      17.427  12.834  49.805  1.00  0.00     0.036 C 
ATOM      5  C   UNL     1      17.765  11.744  50.840  1.00  0.00     0.025 C 
ATOM      6  C   UNL     1      16.501  10.945  51.208  1.00  0.00     0.089 C 
ATOM      7  C   UNL     1      15.808  10.446  49.969  1.00  0.00     0.158 C 
ATOM      8  O   UNL     1      15.045   9.448  50.052  1.00  0.00    -0.295 OA
ENDROOT
BRANCH   5   9
ATOM      9  C   UNL     1      18.438  12.330  52.075  1.00  0.00    -0.077 C 
ATOM     10  C   UNL     1      18.779  11.555  53.119  1.00  0.00     0.008 C 
ATOM     11  C   UNL     1      18.735  13.805  52.146  1.00  0.00     0.039 C 
ENDBRANCH   5   9
TORSDOF 1
ENDMDL
MODEL 7
REMARK VINA RESULT:    -4.269      1.902      4.889
REMARK INTER + INTRA:          -4.607
REMARK INTER:                  -4.511
REMARK INTRA:                  -0.096
REMARK UNBOUND:                -0.088
REMARK SMILES C=C(C)[C@@H]1CC=C(C)C(=O)C1
REMARK SMILES IDX 8 1 7 2 6 3 5 4 4 5 11 6 9 7 10 8 2 9 1 10 3 11
REMARK H PARENT
REMARK Flexibility Score: inf
ROOT
ATOM      1  C   UNL     1      16.141   9.538  50.111  1.00  0.00     0.048 C 
ATOM      2  C   UNL     1      16.725  10.860  50.526  1.00  0.00    -0.012 C 
ATOM      3  C   UNL     1      16.627  11.926  49.713  1.00  0.00    -0.019 C 
ATOM      4  C   UNL     1      17.125  13.289  50.119  1.00  0.00     0.036 C 
ATOM      5  C   UNL     1      18.324  13.181  51.079  1.00  0.00     0.025 C 
ATOM      6  C   UNL     1      17.960  12.307  52.294  1.00  0.00     0.089 C 
ATOM      7  C   UNL     1      17.387  10.989  51.848  1.00  0.00     0.158 C 
ATOM      8  O   UNL     1      17.436  10.003  52.629  1.00  0.00    -0.295 OA
ENDROOT
BRANCH   5   9
ATOM      9  C   UNL     1      18.829  14.553  51.506  1.00  0.00    -0.077 C 
ATOM     10  C   UNL     1      19.021  14.856  52.802  1.00  0.00     0.008 C 
ATOM     11  C   UNL     1      19.125  15.605  50.469  1.00  0.00     0.039 C 
ENDBRANCH   5   9
TORSDOF 1
ENDMDL
MODEL 8
REMARK VINA RESULT:    -4.204     16.869     18.088
REMARK INTER + INTRA:          -4.538
REMARK INTER:                  -4.443
REMARK INTRA:                  -0.095
REMARK UNBOUND:                -0.088
REMARK SMILES C=C(C)[C@@H]1CC=C(C)C(=O)C1
REMARK SMILES IDX 8 1 7 2 6 3 5 4 4 5 11 6 9 7 10 8 2 9 1 10 3 11
REMARK H PARENT
REMARK Flexibility Score: inf
ROOT
ATOM      1  C   UNL     1      13.599  21.963  38.803  1.00  0.00     0.048 C 
ATOM      2  C   UNL     1      14.731  21.802  37.826  1.00  0.00    -0.012 C 
ATOM      3  C   UNL     1      15.648  20.837  38.007  1.00  0.00    -0.019 C 
ATOM      4  C   UNL     1      16.752  20.586  37.013  1.00  0.00     0.036 C 
ATOM      5  C   UNL     1      17.158  21.886  36.292  1.00  0.00     0.025 C 
ATOM      6  C   UNL     1      15.926  22.545  35.643  1.00  0.00     0.089 C 
ATOM      7  C   UNL     1      14.816  22.699  36.647  1.00  0.00     0.158 C 
ATOM      8  O   UNL     1      13.929  23.572  36.451  1.00  0.00    -0.295 OA
ENDROOT
BRANCH   5   9
ATOM      9  C   UNL     1      18.266  21.643  35.276  1.00  0.00    -0.077 C 
ATOM     10  C   UNL     1      19.109  20.603  35.395  1.00  0.00     0.008 C 
ATOM     11  C   UNL     1      18.437  22.578  34.107  1.00  0.00     0.039 C 
ENDBRANCH   5   9
TORSDOF 1
ENDMDL
MODEL 9
REMARK VINA RESULT:    -1.673     17.223     18.390
REMARK INTER + INTRA:          -1.859
REMARK INTER:                  -1.765
REMARK INTRA:                  -0.094
REMARK UNBOUND:                -0.088
REMARK SMILES C=C(C)[C@@H]1CC=C(C)C(=O)C1
REMARK SMILES IDX 8 1 7 2 6 3 5 4 4 5 11 6 9 7 10 8 2 9 1 10 3 11
REMARK H PARENT
REMARK Flexibility Score: inf
ROOT
ATOM      1  C   UNL     1      19.125  20.308  36.197  1.00  0.00     0.048 C 
ATOM      2  C   UNL     1      17.876  21.130  36.357  1.00  0.00    -0.012 C 
ATOM      3  C   UNL     1      17.091  20.964  37.435  1.00  0.00    -0.019 C 
ATOM      4  C   UNL     1      15.875  21.819  37.678  1.00  0.00     0.036 C 
ATOM      5  C   UNL     1      15.244  22.280  36.351  1.00  0.00     0.025 C 
ATOM      6  C   UNL     1      16.294  22.993  35.478  1.00  0.00     0.089 C 
ATOM      7  C   UNL     1      17.527  22.143  35.330  1.00  0.00     0.158 C 
ATOM      8  O   UNL     1      18.288  22.332  34.344  1.00  0.00    -0.295 OA
ENDROOT
BRANCH   5   9
ATOM      9  C   UNL     1      14.020  23.156  36.584  1.00  0.00    -0.077 C 
ATOM     10  C   UNL     1      13.977  24.044  37.592  1.00  0.00     0.008 C 
ATOM     11  C   UNL     1      12.823  23.038  35.676  1.00  0.00     0.039 C 
ENDBRANCH   5   9
TORSDOF 1
ENDMDL
