MODEL 1
REMARK VINA RESULT:     7.058      0.000      0.000
REMARK INTER + INTRA:           9.232
REMARK INTER:                   9.533
REMARK INTRA:                  -0.301
REMARK UNBOUND:                -0.301
REMARK SMILES COc1ccc(-c2cc(=O)c3c(OC)c(OC)c(OC)c(OC)c3o2)cc1
REMARK SMILES IDX 7 1 8 2 9 3 10 4 11 5 24 6 25 7 21 8 18 9 15 10 12 11 6 12
REMARK SMILES IDX 3 13 4 14 27 15 5 16 26 17 2 18 1 19 22 20 23 21 13 22 14 23
REMARK SMILES IDX 19 24 20 25 16 26 17 27
REMARK H PARENT
REMARK Flexibility Score: inf
ROOT
ATOM      1  C   UNL     1      15.769  11.231   2.597  1.00  0.00     0.138 A 
ATOM      2  C   UNL     1      17.131  11.375   2.889  1.00  0.00     0.100 A 
ATOM      3  C   UNL     1      17.785  10.381   3.614  1.00  0.00     0.197 A 
ATOM      4  O   UNL     1      19.010  10.531   3.869  1.00  0.00    -0.289 OA
ATOM      5  C   UNL     1      17.070   9.236   4.045  1.00  0.00     0.115 A 
ATOM      6  C   UNL     1      15.709   9.153   3.688  1.00  0.00     0.188 A 
ATOM      7  O   UNL     1      15.131  10.135   2.997  1.00  0.00    -0.452 OA
ATOM      8  C   UNL     1      14.938   8.052   4.072  1.00  0.00     0.209 A 
ATOM      9  C   UNL     1      15.497   7.036   4.881  1.00  0.00     0.211 A 
ATOM     10  C   UNL     1      16.877   7.089   5.217  1.00  0.00     0.208 A 
ATOM     11  C   UNL     1      17.665   8.199   4.803  1.00  0.00     0.179 A 
ENDROOT
BRANCH   1  12
ATOM     12  C   UNL     1      15.015  12.266   1.845  1.00  0.00     0.018 A 
ATOM     13  C   UNL     1      13.530  14.203   0.421  1.00  0.00     0.118 A 
ATOM     14  C   UNL     1      13.161  12.855   0.381  1.00  0.00     0.047 A 
ATOM     15  C   UNL     1      14.646  14.584   1.188  1.00  0.00     0.047 A 
ATOM     16  C   UNL     1      13.891  11.895   1.088  1.00  0.00     0.016 A 
ATOM     17  C   UNL     1      15.378  13.627   1.896  1.00  0.00     0.016 A 
BRANCH  13  18
ATOM     18  O   UNL     1      12.765  15.125  -0.308  1.00  0.00    -0.497 OA
ATOM     19  C   UNL     1      11.712  14.770  -1.198  1.00  0.00     0.278 C 
ENDBRANCH  13  18
ENDBRANCH   1  12
BRANCH   8  20
ATOM     20  O   UNL     1      13.608   7.978   3.651  1.00  0.00    -0.490 OA
ATOM     21  C   UNL     1      13.234   7.318   2.445  1.00  0.00     0.278 C 
ENDBRANCH   8  20
BRANCH  11  22
ATOM     22  O   UNL     1      19.036   8.323   5.120  1.00  0.00    -0.492 OA
ATOM     23  C   UNL     1      19.631   8.392   6.411  1.00  0.00     0.278 C 
ENDBRANCH  11  22
BRANCH   9  24
ATOM     24  O   UNL     1      14.726   5.964   5.370  1.00  0.00    -0.490 OA
ATOM     25  C   UNL     1      13.457   6.036   6.010  1.00  0.00     0.279 C 
ENDBRANCH   9  24
BRANCH  10  26
ATOM     26  O   UNL     1      17.509   6.072   5.960  1.00  0.00    -0.490 OA
ATOM     27  C   UNL     1      17.804   4.742   5.545  1.00  0.00     0.278 C 
ENDBRANCH  10  26
TORSDOF 6
ENDMDL
MODEL 2
REMARK VINA RESULT:     8.441      0.911      3.443
REMARK INTER + INTRA:          11.101
REMARK INTER:                  10.678
REMARK INTRA:                   0.423
REMARK UNBOUND:                -0.301
REMARK SMILES COc1ccc(-c2cc(=O)c3c(OC)c(OC)c(OC)c(OC)c3o2)cc1
REMARK SMILES IDX 7 1 8 2 9 3 10 4 11 5 24 6 25 7 21 8 18 9 15 10 12 11 6 12
REMARK SMILES IDX 3 13 4 14 27 15 5 16 26 17 2 18 1 19 22 20 23 21 13 22 14 23
REMARK SMILES IDX 19 24 20 25 16 26 17 27
REMARK H PARENT
REMARK Flexibility Score: inf
ROOT
ATOM      1  C   UNL     1      14.851  10.509   2.609  1.00  0.00     0.138 A 
ATOM      2  C   UNL     1      13.879   9.527   2.836  1.00  0.00     0.100 A 
ATOM      3  C   UNL     1      14.207   8.399   3.585  1.00  0.00     0.197 A 
ATOM      4  O   UNL     1      13.319   7.525   3.775  1.00  0.00    -0.289 OA
ATOM      5  C   UNL     1      15.514   8.257   4.111  1.00  0.00     0.115 A 
ATOM      6  C   UNL     1      16.427   9.302   3.861  1.00  0.00     0.188 A 
ATOM      7  O   UNL     1      16.062  10.358   3.135  1.00  0.00    -0.452 OA
ATOM      8  C   UNL     1      17.735   9.238   4.352  1.00  0.00     0.209 A 
ATOM      9  C   UNL     1      18.180   8.092   5.051  1.00  0.00     0.211 A 
ATOM     10  C   UNL     1      17.260   7.048   5.340  1.00  0.00     0.208 A 
ATOM     11  C   UNL     1      15.922   7.128   4.862  1.00  0.00     0.179 A 
ENDROOT
BRANCH   1  12
ATOM     12  C   UNL     1      14.564  11.723   1.803  1.00  0.00     0.018 A 
ATOM     13  C   UNL     1      13.958  14.015   0.266  1.00  0.00     0.118 A 
ATOM     14  C   UNL     1      13.221  12.839   0.107  1.00  0.00     0.047 A 
ATOM     15  C   UNL     1      15.001  14.046   1.210  1.00  0.00     0.047 A 
ATOM     16  C   UNL     1      13.515  11.705   0.869  1.00  0.00     0.016 A 
ATOM     17  C   UNL     1      15.298  12.914   1.973  1.00  0.00     0.016 A 
BRANCH  13  18
ATOM     18  O   UNL     1      13.624  15.124  -0.525  1.00  0.00    -0.497 OA
ATOM     19  C   UNL     1      13.465  15.084  -1.939  1.00  0.00     0.278 C 
ENDBRANCH  13  18
ENDBRANCH   1  12
BRANCH   8  20
ATOM     20  O   UNL     1      18.593  10.319   4.134  1.00  0.00    -0.490 OA
ATOM     21  C   UNL     1      19.104  10.627   2.840  1.00  0.00     0.278 C 
ENDBRANCH   8  20
BRANCH  11  22
ATOM     22  O   UNL     1      14.965   6.117   5.098  1.00  0.00    -0.492 OA
ATOM     23  C   UNL     1      13.878   6.141   6.016  1.00  0.00     0.278 C 
ENDBRANCH  11  22
BRANCH   9  24
ATOM     24  O   UNL     1      19.515   7.949   5.473  1.00  0.00    -0.490 OA
ATOM     25  C   UNL     1      20.097   8.440   6.676  1.00  0.00     0.279 C 
ENDBRANCH   9  24
BRANCH  10  26
ATOM     26  O   UNL     1      17.624   5.914   6.094  1.00  0.00    -0.490 OA
ATOM     27  C   UNL     1      17.780   4.575   5.637  1.00  0.00     0.278 C 
ENDBRANCH  10  26
TORSDOF 6
ENDMDL
MODEL 3
REMARK VINA RESULT:     9.638      2.495      8.365
REMARK INTER + INTRA:          12.718
REMARK INTER:                  13.140
REMARK INTRA:                  -0.422
REMARK UNBOUND:                -0.301
REMARK SMILES COc1ccc(-c2cc(=O)c3c(OC)c(OC)c(OC)c(OC)c3o2)cc1
REMARK SMILES IDX 7 1 8 2 9 3 10 4 11 5 24 6 25 7 21 8 18 9 15 10 12 11 6 12
REMARK SMILES IDX 3 13 4 14 27 15 5 16 26 17 2 18 1 19 22 20 23 21 13 22 14 23
REMARK SMILES IDX 19 24 20 25 16 26 17 27
REMARK H PARENT
REMARK Flexibility Score: inf
ROOT
ATOM      1  C   UNL     1      19.228   8.052   6.794  1.00  0.00     0.138 A 
ATOM      2  C   UNL     1      18.380   6.960   7.019  1.00  0.00     0.100 A 
ATOM      3  C   UNL     1      17.222   6.824   6.258  1.00  0.00     0.197 A 
ATOM      4  O   UNL     1      16.470   5.837   6.478  1.00  0.00    -0.289 OA
ATOM      5  C   UNL     1      16.914   7.786   5.264  1.00  0.00     0.115 A 
ATOM      6  C   UNL     1      17.831   8.841   5.081  1.00  0.00     0.188 A 
ATOM      7  O   UNL     1      18.923   8.925   5.839  1.00  0.00    -0.452 OA
ATOM      8  C   UNL     1      17.600   9.826   4.116  1.00  0.00     0.209 A 
ATOM      9  C   UNL     1      16.408   9.815   3.355  1.00  0.00     0.211 A 
ATOM     10  C   UNL     1      15.493   8.738   3.505  1.00  0.00     0.208 A 
ATOM     11  C   UNL     1      15.743   7.722   4.469  1.00  0.00     0.179 A 
ENDROOT
BRANCH   1  12
ATOM     12  C   UNL     1      20.466   8.259   7.588  1.00  0.00     0.018 A 
ATOM     13  C   UNL     1      22.819   8.713   9.086  1.00  0.00     0.118 A 
ATOM     14  C   UNL     1      22.498   9.534   8.001  1.00  0.00     0.047 A 
ATOM     15  C   UNL     1      21.949   7.662   9.428  1.00  0.00     0.047 A 
ATOM     16  C   UNL     1      21.333   9.315   7.261  1.00  0.00     0.016 A 
ATOM     17  C   UNL     1      20.783   7.440   8.690  1.00  0.00     0.016 A 
BRANCH  13  18
ATOM     18  O   UNL     1      24.001   8.974   9.794  1.00  0.00    -0.497 OA
ATOM     19  C   UNL     1      25.216   9.413   9.195  1.00  0.00     0.278 C 
ENDBRANCH  13  18
ENDBRANCH   1  12
BRANCH   8  20
ATOM     20  O   UNL     1      18.560  10.823   3.924  1.00  0.00    -0.490 OA
ATOM     21  C   UNL     1      19.337  10.903   2.733  1.00  0.00     0.278 C 
ENDBRANCH   8  20
BRANCH  11  22
ATOM     22  O   UNL     1      14.866   6.637   4.682  1.00  0.00    -0.492 OA
ATOM     23  C   UNL     1      13.615   6.645   5.360  1.00  0.00     0.278 C 
ENDBRANCH  11  22
BRANCH   9  24
ATOM     24  O   UNL     1      16.094  10.843   2.446  1.00  0.00    -0.490 OA
ATOM     25  C   UNL     1      15.584  12.137   2.751  1.00  0.00     0.279 C 
ENDBRANCH   9  24
BRANCH  10  26
ATOM     26  O   UNL     1      14.324   8.633   2.725  1.00  0.00    -0.490 OA
ATOM     27  C   UNL     1      14.010   7.644   1.749  1.00  0.00     0.278 C 
ENDBRANCH  10  26
TORSDOF 6
ENDMDL
MODEL 4
REMARK VINA RESULT:     9.896      4.136      7.971
REMARK INTER + INTRA:          13.066
REMARK INTER:                  12.102
REMARK INTRA:                   0.964
REMARK UNBOUND:                -0.301
REMARK SMILES COc1ccc(-c2cc(=O)c3c(OC)c(OC)c(OC)c(OC)c3o2)cc1
REMARK SMILES IDX 7 1 8 2 9 3 10 4 11 5 24 6 25 7 21 8 18 9 15 10 12 11 6 12
REMARK SMILES IDX 3 13 4 14 27 15 5 16 26 17 2 18 1 19 22 20 23 21 13 22 14 23
REMARK SMILES IDX 19 24 20 25 16 26 17 27
REMARK H PARENT
REMARK Flexibility Score: inf
ROOT
ATOM      1  C   UNL     1      17.973   7.783   5.632  1.00  0.00     0.138 A 
ATOM      2  C   UNL     1      16.744   8.440   5.773  1.00  0.00     0.100 A 
ATOM      3  C   UNL     1      15.788   8.327   4.766  1.00  0.00     0.197 A 
ATOM      4  O   UNL     1      14.690   8.927   4.910  1.00  0.00    -0.289 OA
ATOM      5  C   UNL     1      16.065   7.550   3.614  1.00  0.00     0.115 A 
ATOM      6  C   UNL     1      17.315   6.900   3.559  1.00  0.00     0.188 A 
ATOM      7  O   UNL     1      18.195   7.044   4.549  1.00  0.00    -0.452 OA
ATOM      8  C   UNL     1      17.659   6.111   2.457  1.00  0.00     0.209 A 
ATOM      9  C   UNL     1      16.785   6.008   1.351  1.00  0.00     0.211 A 
ATOM     10  C   UNL     1      15.508   6.629   1.409  1.00  0.00     0.208 A 
ATOM     11  C   UNL     1      15.149   7.410   2.543  1.00  0.00     0.179 A 
ENDROOT
BRANCH   1  12
ATOM     12  C   UNL     1      19.037   7.883   6.663  1.00  0.00     0.018 A 
ATOM     13  C   UNL     1      21.061   8.011   8.631  1.00  0.00     0.118 A 
ATOM     14  C   UNL     1      20.120   6.977   8.646  1.00  0.00     0.047 A 
ATOM     15  C   UNL     1      20.992   8.983   7.616  1.00  0.00     0.047 A 
ATOM     16  C   UNL     1      19.121   6.908   7.671  1.00  0.00     0.016 A 
ATOM     17  C   UNL     1      19.994   8.917   6.640  1.00  0.00     0.016 A 
BRANCH  13  18
ATOM     18  O   UNL     1      22.042   8.035   9.633  1.00  0.00    -0.497 OA
ATOM     19  C   UNL     1      22.154   7.067  10.671  1.00  0.00     0.278 C 
ENDBRANCH  13  18
ENDBRANCH   1  12
BRANCH   8  20
ATOM     20  O   UNL     1      18.883   5.436   2.466  1.00  0.00    -0.490 OA
ATOM     21  C   UNL     1      20.122   6.121   2.615  1.00  0.00     0.278 C 
ENDBRANCH   8  20
BRANCH  11  22
ATOM     22  O   UNL     1      13.905   8.069   2.655  1.00  0.00    -0.492 OA
ATOM     23  C   UNL     1      12.721   7.597   3.287  1.00  0.00     0.278 C 
ENDBRANCH  11  22
BRANCH   9  24
ATOM     24  O   UNL     1      17.139   5.305   0.184  1.00  0.00    -0.490 OA
ATOM     25  C   UNL     1      16.461   4.194  -0.393  1.00  0.00     0.279 C 
ENDBRANCH   9  24
BRANCH  10  26
ATOM     26  O   UNL     1      14.564   6.504   0.370  1.00  0.00    -0.490 OA
ATOM     27  C   UNL     1      14.727   6.842  -1.004  1.00  0.00     0.278 C 
ENDBRANCH  10  26
TORSDOF 6
ENDMDL
