MODEL 1
REMARK VINA RESULT:    -5.371      0.000      0.000
REMARK INTER + INTRA:         -12.169
REMARK INTER:                 -10.394
REMARK INTRA:                  -1.775
REMARK UNBOUND:                -1.775
REMARK SMILES CCCCCCCCCCCCCCCCCC(=O)[O-]
REMARK SMILES IDX 10 1 11 2 12 3 13 4 14 5 15 6 16 7 17 8 18 9 19 10 20 11
REMARK SMILES IDX 9 12 8 13 7 14 6 15 5 16 4 17 3 18 2 19 1 20
REMARK H PARENT
REMARK Flexibility Score: inf
ROOT
ATOM      1  C   UNL     1       4.853  22.560  -7.373  1.00  0.00     0.000 C 
ENDROOT
BRANCH   1   2
ATOM      2  C   UNL     1       4.295  22.886  -8.765  1.00  0.00     0.000 C 
BRANCH   2   3
ATOM      3  C   UNL     1       5.163  22.265  -9.869  1.00  0.00     0.000 C 
BRANCH   3   4
ATOM      4  C   UNL     1       5.689  23.316 -10.862  1.00  0.00     0.000 C 
BRANCH   4   5
ATOM      5  C   UNL     1       4.866  24.612 -10.836  1.00  0.00     0.000 C 
BRANCH   5   6
ATOM      6  C   UNL     1       4.202  24.871 -12.197  1.00  0.00     0.000 C 
BRANCH   6   7
ATOM      7  C   UNL     1       4.197  26.359 -12.583  1.00  0.00     0.006 C 
BRANCH   7   8
ATOM      8  C   UNL     1       4.824  27.256 -11.506  1.00  0.00     0.053 C 
BRANCH   8   9
ATOM      9  C   UNL     1       4.548  28.698 -11.800  1.00  0.00     0.041 C 
ATOM     10  O   UNL     1       5.387  29.385 -12.439  1.00  0.00    -0.550 OA
ATOM     11  O   UNL     1       3.352  29.275 -11.393  1.00  0.00    -0.550 OA
ENDBRANCH   8   9
ENDBRANCH   7   8
ENDBRANCH   6   7
ENDBRANCH   5   6
ENDBRANCH   4   5
ENDBRANCH   3   4
ENDBRANCH   2   3
ENDBRANCH   1   2
BRANCH   1  12
ATOM     12  C   UNL     1       5.489  23.804  -6.733  1.00  0.00     0.000 C 
BRANCH  12  13
ATOM     13  C   UNL     1       7.009  23.675  -6.554  1.00  0.00    -0.000 C 
BRANCH  13  14
ATOM     14  C   UNL     1       7.782  23.887  -7.867  1.00  0.00    -0.000 C 
BRANCH  14  15
ATOM     15  C   UNL     1       8.679  22.688  -8.216  1.00  0.00    -0.000 C 
BRANCH  15  16
ATOM     16  C   UNL     1       9.114  22.693  -9.693  1.00  0.00    -0.000 C 
BRANCH  16  17
ATOM     17  C   UNL     1      10.635  22.550  -9.856  1.00  0.00    -0.000 C 
BRANCH  17  18
ATOM     18  C   UNL     1      11.408  23.079  -8.636  1.00  0.00    -0.000 C 
BRANCH  18  19
ATOM     19  C   UNL     1      12.103  24.421  -8.911  1.00  0.00    -0.003 C 
ATOM     20  C   UNL     1      11.960  24.878 -10.363  1.00  0.00     0.004 C 
ENDBRANCH  18  19
ENDBRANCH  17  18
ENDBRANCH  16  17
ENDBRANCH  15  16
ENDBRANCH  14  15
ENDBRANCH  13  14
ENDBRANCH  12  13
ENDBRANCH   1  12
TORSDOF 16
ENDMDL
MODEL 2
REMARK VINA RESULT:    -5.208      3.162      7.284
REMARK INTER + INTRA:         -11.855
REMARK INTER:                  -9.952
REMARK INTRA:                  -1.903
REMARK UNBOUND:                -1.775
REMARK SMILES CCCCCCCCCCCCCCCCCC(=O)[O-]
REMARK SMILES IDX 10 1 11 2 12 3 13 4 14 5 15 6 16 7 17 8 18 9 19 10 20 11
REMARK SMILES IDX 9 12 8 13 7 14 6 15 5 16 4 17 3 18 2 19 1 20
REMARK H PARENT
REMARK Flexibility Score: inf
ROOT
ATOM      1  C   UNL     1      12.055  24.590  -8.515  1.00  0.00     0.000 C 
ENDROOT
BRANCH   1   2
ATOM      2  C   UNL     1      13.058  23.529  -8.043  1.00  0.00     0.000 C 
BRANCH   2   3
ATOM      3  C   UNL     1      12.433  22.606  -6.986  1.00  0.00     0.000 C 
BRANCH   3   4
ATOM      4  C   UNL     1      12.124  21.205  -7.539  1.00  0.00     0.000 C 
BRANCH   4   5
ATOM      5  C   UNL     1      10.698  20.745  -7.207  1.00  0.00     0.000 C 
BRANCH   5   6
ATOM      6  C   UNL     1       9.978  21.773  -6.322  1.00  0.00     0.000 C 
BRANCH   6   7
ATOM      7  C   UNL     1       8.567  21.323  -5.913  1.00  0.00     0.006 C 
BRANCH   7   8
ATOM      8  C   UNL     1       7.914  22.263  -4.890  1.00  0.00     0.053 C 
BRANCH   8   9
ATOM      9  C   UNL     1       6.872  23.112  -5.548  1.00  0.00     0.041 C 
ATOM     10  O   UNL     1       5.685  22.703  -5.637  1.00  0.00    -0.550 OA
ATOM     11  O   UNL     1       7.205  24.368  -6.039  1.00  0.00    -0.550 OA
ENDBRANCH   8   9
ENDBRANCH   7   8
ENDBRANCH   6   7
ENDBRANCH   5   6
ENDBRANCH   4   5
ENDBRANCH   3   4
ENDBRANCH   2   3
ENDBRANCH   1   2
BRANCH   1  12
ATOM     12  C   UNL     1      11.765  24.441 -10.016  1.00  0.00     0.000 C 
BRANCH  12  13
ATOM     13  C   UNL     1      10.823  23.269 -10.331  1.00  0.00    -0.000 C 
BRANCH  13  14
ATOM     14  C   UNL     1       9.475  23.377  -9.598  1.00  0.00    -0.000 C 
BRANCH  14  15
ATOM     15  C   UNL     1       8.709  22.044  -9.589  1.00  0.00    -0.000 C 
BRANCH  15  16
ATOM     16  C   UNL     1       7.274  22.192 -10.127  1.00  0.00    -0.000 C 
BRANCH  16  17
ATOM     17  C   UNL     1       6.504  23.331  -9.440  1.00  0.00    -0.000 C 
BRANCH  17  18
ATOM     18  C   UNL     1       5.075  23.488  -9.989  1.00  0.00    -0.000 C 
BRANCH  18  19
ATOM     19  C   UNL     1       4.924  24.712 -10.905  1.00  0.00    -0.003 C 
ATOM     20  C   UNL     1       4.531  24.341 -12.334  1.00  0.00     0.004 C 
ENDBRANCH  18  19
ENDBRANCH  17  18
ENDBRANCH  16  17
ENDBRANCH  15  16
ENDBRANCH  14  15
ENDBRANCH  13  14
ENDBRANCH  12  13
ENDBRANCH   1  12
TORSDOF 16
ENDMDL
MODEL 3
REMARK VINA RESULT:    -5.177      5.127      8.889
REMARK INTER + INTRA:         -11.795
REMARK INTER:                 -10.283
REMARK INTRA:                  -1.511
REMARK UNBOUND:                -1.775
REMARK SMILES CCCCCCCCCCCCCCCCCC(=O)[O-]
REMARK SMILES IDX 10 1 11 2 12 3 13 4 14 5 15 6 16 7 17 8 18 9 19 10 20 11
REMARK SMILES IDX 9 12 8 13 7 14 6 15 5 16 4 17 3 18 2 19 1 20
REMARK H PARENT
REMARK Flexibility Score: inf
ROOT
ATOM      1  C   UNL     1       9.916  21.780  -8.583  1.00  0.00     0.000 C 
ENDROOT
BRANCH   1   2
ATOM      2  C   UNL     1      11.156  22.477  -8.008  1.00  0.00     0.000 C 
BRANCH   2   3
ATOM      3  C   UNL     1      11.517  23.728  -8.823  1.00  0.00     0.000 C 
BRANCH   3   4
ATOM      4  C   UNL     1      12.823  24.384  -8.343  1.00  0.00     0.000 C 
BRANCH   4   5
ATOM      5  C   UNL     1      13.673  23.438  -7.483  1.00  0.00     0.000 C 
BRANCH   5   6
ATOM      6  C   UNL     1      14.744  24.216  -6.704  1.00  0.00     0.000 C 
BRANCH   6   7
ATOM      7  C   UNL     1      15.044  23.599  -5.328  1.00  0.00     0.006 C 
BRANCH   7   8
ATOM      8  C   UNL     1      13.889  22.738  -4.796  1.00  0.00     0.053 C 
BRANCH   8   9
ATOM      9  C   UNL     1      13.673  22.995  -3.337  1.00  0.00     0.041 C 
ATOM     10  O   UNL     1      12.577  22.691  -2.797  1.00  0.00    -0.550 OA
ATOM     11  O   UNL     1      14.691  23.544  -2.568  1.00  0.00    -0.550 OA
ENDBRANCH   8   9
ENDBRANCH   7   8
ENDBRANCH   6   7
ENDBRANCH   5   6
ENDBRANCH   4   5
ENDBRANCH   3   4
ENDBRANCH   2   3
ENDBRANCH   1   2
BRANCH   1  12
ATOM     12  C   UNL     1       8.948  22.804  -9.197  1.00  0.00     0.000 C 
BRANCH  12  13
ATOM     13  C   UNL     1       7.766  22.147  -9.926  1.00  0.00    -0.000 C 
BRANCH  13  14
ATOM     14  C   UNL     1       6.498  23.018  -9.908  1.00  0.00    -0.000 C 
BRANCH  14  15
ATOM     15  C   UNL     1       6.282  23.703  -8.549  1.00  0.00    -0.000 C 
BRANCH  15  16
ATOM     16  C   UNL     1       5.232  22.977  -7.688  1.00  0.00    -0.000 C 
BRANCH  16  17
ATOM     17  C   UNL     1       5.484  23.155  -6.182  1.00  0.00    -0.000 C 
BRANCH  17  18
ATOM     18  C   UNL     1       6.884  23.720  -5.885  1.00  0.00    -0.000 C 
BRANCH  18  19
ATOM     19  C   UNL     1       7.936  22.618  -5.685  1.00  0.00    -0.003 C 
ATOM     20  C   UNL     1       7.653  21.740  -4.466  1.00  0.00     0.004 C 
ENDBRANCH  18  19
ENDBRANCH  17  18
ENDBRANCH  16  17
ENDBRANCH  15  16
ENDBRANCH  14  15
ENDBRANCH  13  14
ENDBRANCH  12  13
ENDBRANCH   1  12
TORSDOF 16
ENDMDL
MODEL 4
REMARK VINA RESULT:    -5.165      4.611      7.905
REMARK INTER + INTRA:         -11.771
REMARK INTER:                  -9.985
REMARK INTRA:                  -1.786
REMARK UNBOUND:                -1.775
REMARK SMILES CCCCCCCCCCCCCCCCCC(=O)[O-]
REMARK SMILES IDX 10 1 11 2 12 3 13 4 14 5 15 6 16 7 17 8 18 9 19 10 20 11
REMARK SMILES IDX 9 12 8 13 7 14 6 15 5 16 4 17 3 18 2 19 1 20
REMARK H PARENT
REMARK Flexibility Score: inf
ROOT
ATOM      1  C   UNL     1       9.398  22.195  -6.741  1.00  0.00     0.000 C 
ENDROOT
BRANCH   1   2
ATOM      2  C   UNL     1      10.270  21.284  -7.615  1.00  0.00     0.000 C 
BRANCH   2   3
ATOM      3  C   UNL     1      10.687  21.995  -8.912  1.00  0.00     0.000 C 
BRANCH   3   4
ATOM      4  C   UNL     1      10.173  23.443  -8.979  1.00  0.00     0.000 C 
BRANCH   4   5
ATOM      5  C   UNL     1      11.313  24.471  -8.979  1.00  0.00     0.000 C 
BRANCH   5   6
ATOM      6  C   UNL     1      12.663  23.796  -8.694  1.00  0.00     0.000 C 
BRANCH   6   7
ATOM      7  C   UNL     1      13.419  24.446  -7.524  1.00  0.00     0.006 C 
BRANCH   7   8
ATOM      8  C   UNL     1      14.717  23.709  -7.168  1.00  0.00     0.053 C 
BRANCH   8   9
ATOM      9  C   UNL     1      14.582  23.015  -5.849  1.00  0.00     0.041 C 
ATOM     10  O   UNL     1      15.583  22.881  -5.098  1.00  0.00    -0.550 OA
ATOM     11  O   UNL     1      13.344  22.539  -5.436  1.00  0.00    -0.550 OA
ENDBRANCH   8   9
ENDBRANCH   7   8
ENDBRANCH   6   7
ENDBRANCH   5   6
ENDBRANCH   4   5
ENDBRANCH   3   4
ENDBRANCH   2   3
ENDBRANCH   1   2
BRANCH   1  12
ATOM     12  C   UNL     1       8.827  21.421  -5.543  1.00  0.00     0.000 C 
BRANCH  12  13
ATOM     13  C   UNL     1       7.670  22.158  -4.851  1.00  0.00    -0.000 C 
BRANCH  13  14
ATOM     14  C   UNL     1       7.102  23.306  -5.703  1.00  0.00    -0.000 C 
BRANCH  14  15
ATOM     15  C   UNL     1       5.604  23.129  -5.996  1.00  0.00    -0.000 C 
BRANCH  15  16
ATOM     16  C   UNL     1       5.296  23.143  -7.504  1.00  0.00    -0.000 C 
BRANCH  16  17
ATOM     17  C   UNL     1       6.475  23.674  -8.337  1.00  0.00    -0.000 C 
BRANCH  17  18
ATOM     18  C   UNL     1       6.629  22.929  -9.675  1.00  0.00    -0.000 C 
BRANCH  18  19
ATOM     19  C   UNL     1       5.303  22.807 -10.441  1.00  0.00    -0.003 C 
ATOM     20  C   UNL     1       4.866  24.122 -11.087  1.00  0.00     0.004 C 
ENDBRANCH  18  19
ENDBRANCH  17  18
ENDBRANCH  16  17
ENDBRANCH  15  16
ENDBRANCH  14  15
ENDBRANCH  13  14
ENDBRANCH  12  13
ENDBRANCH   1  12
TORSDOF 16
ENDMDL
MODEL 5
REMARK VINA RESULT:    -5.153      2.898      6.075
REMARK INTER + INTRA:         -11.747
REMARK INTER:                  -9.494
REMARK INTRA:                  -2.254
REMARK UNBOUND:                -1.775
REMARK SMILES CCCCCCCCCCCCCCCCCC(=O)[O-]
REMARK SMILES IDX 10 1 11 2 12 3 13 4 14 5 15 6 16 7 17 8 18 9 19 10 20 11
REMARK SMILES IDX 9 12 8 13 7 14 6 15 5 16 4 17 3 18 2 19 1 20
REMARK H PARENT
REMARK Flexibility Score: inf
ROOT
ATOM      1  C   UNL     1      13.469  23.969  -7.762  1.00  0.00     0.000 C 
ENDROOT
BRANCH   1   2
ATOM      2  C   UNL     1      12.107  24.424  -8.304  1.00  0.00     0.000 C 
BRANCH   2   3
ATOM      3  C   UNL     1      12.117  24.493  -9.839  1.00  0.00     0.000 C 
BRANCH   3   4
ATOM      4  C   UNL     1      10.989  23.660 -10.470  1.00  0.00     0.000 C 
BRANCH   4   5
ATOM      5  C   UNL     1       9.774  23.518  -9.542  1.00  0.00     0.000 C 
BRANCH   5   6
ATOM      6  C   UNL     1       8.756  22.520 -10.115  1.00  0.00     0.000 C 
BRANCH   6   7
ATOM      7  C   UNL     1       7.443  22.486  -9.317  1.00  0.00     0.006 C 
BRANCH   7   8
ATOM      8  C   UNL     1       6.550  23.705  -9.586  1.00  0.00     0.053 C 
BRANCH   8   9
ATOM      9  C   UNL     1       5.177  23.269  -9.993  1.00  0.00     0.041 C 
ATOM     10  O   UNL     1       4.362  24.104 -10.465  1.00  0.00    -0.550 OA
ATOM     11  O   UNL     1       4.806  21.936  -9.877  1.00  0.00    -0.550 OA
ENDBRANCH   8   9
ENDBRANCH   7   8
ENDBRANCH   6   7
ENDBRANCH   5   6
ENDBRANCH   4   5
ENDBRANCH   3   4
ENDBRANCH   2   3
ENDBRANCH   1   2
BRANCH   1  12
ATOM     12  C   UNL     1      13.411  22.507  -7.293  1.00  0.00     0.000 C 
BRANCH  12  13
ATOM     13  C   UNL     1      12.064  22.135  -6.656  1.00  0.00    -0.000 C 
BRANCH  13  14
ATOM     14  C   UNL     1      11.320  21.038  -7.436  1.00  0.00    -0.000 C 
BRANCH  14  15
ATOM     15  C   UNL     1       9.862  20.881  -6.975  1.00  0.00    -0.000 C 
BRANCH  15  16
ATOM     16  C   UNL     1       9.363  22.107  -6.188  1.00  0.00    -0.000 C 
BRANCH  16  17
ATOM     17  C   UNL     1       8.285  21.741  -5.155  1.00  0.00    -0.000 C 
BRANCH  17  18
ATOM     18  C   UNL     1       6.952  22.463  -5.418  1.00  0.00    -0.000 C 
BRANCH  18  19
ATOM     19  C   UNL     1       7.141  23.819  -6.115  1.00  0.00    -0.003 C 
ATOM     20  C   UNL     1       6.482  24.973  -5.360  1.00  0.00     0.004 C 
ENDBRANCH  18  19
ENDBRANCH  17  18
ENDBRANCH  16  17
ENDBRANCH  15  16
ENDBRANCH  14  15
ENDBRANCH  13  14
ENDBRANCH  12  13
ENDBRANCH   1  12
TORSDOF 16
ENDMDL
MODEL 6
REMARK VINA RESULT:    -5.093      4.978      8.354
REMARK INTER + INTRA:         -11.632
REMARK INTER:                 -10.086
REMARK INTRA:                  -1.546
REMARK UNBOUND:                -1.775
REMARK SMILES CCCCCCCCCCCCCCCCCC(=O)[O-]
REMARK SMILES IDX 10 1 11 2 12 3 13 4 14 5 15 6 16 7 17 8 18 9 19 10 20 11
REMARK SMILES IDX 9 12 8 13 7 14 6 15 5 16 4 17 3 18 2 19 1 20
REMARK H PARENT
REMARK Flexibility Score: inf
ROOT
ATOM      1  C   UNL     1       8.874  23.354  -8.308  1.00  0.00     0.000 C 
ENDROOT
BRANCH   1   2
ATOM      2  C   UNL     1       9.505  22.423  -7.265  1.00  0.00     0.000 C 
BRANCH   2   3
ATOM      3  C   UNL     1      10.017  21.129  -7.916  1.00  0.00     0.000 C 
BRANCH   3   4
ATOM      4  C   UNL     1      11.535  20.949  -7.748  1.00  0.00     0.000 C 
BRANCH   4   5
ATOM      5  C   UNL     1      12.164  22.048  -6.880  1.00  0.00     0.000 C 
BRANCH   5   6
ATOM      6  C   UNL     1      13.622  22.307  -7.290  1.00  0.00     0.000 C 
BRANCH   6   7
ATOM      7  C   UNL     1      13.941  23.803  -7.439  1.00  0.00     0.006 C 
BRANCH   7   8
ATOM      8  C   UNL     1      15.391  24.144  -7.067  1.00  0.00     0.053 C 
BRANCH   8   9
ATOM      9  C   UNL     1      15.438  24.891  -5.771  1.00  0.00     0.041 C 
ATOM     10  O   UNL     1      15.129  24.314  -4.696  1.00  0.00    -0.550 OA
ATOM     11  O   UNL     1      15.848  26.218  -5.747  1.00  0.00    -0.550 OA
ENDBRANCH   8   9
ENDBRANCH   7   8
ENDBRANCH   6   7
ENDBRANCH   5   6
ENDBRANCH   4   5
ENDBRANCH   3   4
ENDBRANCH   2   3
ENDBRANCH   1   2
BRANCH   1  12
ATOM     12  C   UNL     1       9.030  22.778  -9.724  1.00  0.00     0.000 C 
BRANCH  12  13
ATOM     13  C   UNL     1       7.733  22.158 -10.264  1.00  0.00    -0.000 C 
BRANCH  13  14
ATOM     14  C   UNL     1       6.519  23.091 -10.111  1.00  0.00    -0.000 C 
BRANCH  14  15
ATOM     15  C   UNL     1       5.194  22.316 -10.030  1.00  0.00    -0.000 C 
BRANCH  15  16
ATOM     16  C   UNL     1       4.446  22.574  -8.709  1.00  0.00    -0.000 C 
BRANCH  16  17
ATOM     17  C   UNL     1       5.230  23.496  -7.762  1.00  0.00    -0.000 C 
BRANCH  17  18
ATOM     18  C   UNL     1       5.326  22.925  -6.336  1.00  0.00    -0.000 C 
BRANCH  18  19
ATOM     19  C   UNL     1       6.476  23.545  -5.527  1.00  0.00    -0.003 C 
ATOM     20  C   UNL     1       6.447  25.073  -5.527  1.00  0.00     0.004 C 
ENDBRANCH  18  19
ENDBRANCH  17  18
ENDBRANCH  16  17
ENDBRANCH  15  16
ENDBRANCH  14  15
ENDBRANCH  13  14
ENDBRANCH  12  13
ENDBRANCH   1  12
TORSDOF 16
ENDMDL
MODEL 7
REMARK VINA RESULT:    -5.081      5.521      9.227
REMARK INTER + INTRA:         -11.609
REMARK INTER:                 -10.643
REMARK INTRA:                  -0.965
REMARK UNBOUND:                -1.775
REMARK SMILES CCCCCCCCCCCCCCCCCC(=O)[O-]
REMARK SMILES IDX 10 1 11 2 12 3 13 4 14 5 15 6 16 7 17 8 18 9 19 10 20 11
REMARK SMILES IDX 9 12 8 13 7 14 6 15 5 16 4 17 3 18 2 19 1 20
REMARK H PARENT
REMARK Flexibility Score: inf
ROOT
ATOM      1  C   UNL     1       3.650  22.483  -7.955  1.00  0.00     0.000 C 
ENDROOT
BRANCH   1   2
ATOM      2  C   UNL     1       4.384  22.818  -9.261  1.00  0.00     0.000 C 
BRANCH   2   3
ATOM      3  C   UNL     1       5.831  23.256  -8.986  1.00  0.00     0.000 C 
BRANCH   3   4
ATOM      4  C   UNL     1       6.822  22.683 -10.013  1.00  0.00     0.000 C 
BRANCH   4   5
ATOM      5  C   UNL     1       8.264  22.659  -9.486  1.00  0.00     0.000 C 
BRANCH   5   6
ATOM      6  C   UNL     1       8.327  23.141  -8.029  1.00  0.00     0.000 C 
BRANCH   6   7
ATOM      7  C   UNL     1       9.244  22.272  -7.154  1.00  0.00     0.006 C 
BRANCH   7   8
ATOM      8  C   UNL     1      10.589  21.960  -7.825  1.00  0.00     0.053 C 
BRANCH   8   9
ATOM      9  C   UNL     1      10.917  20.506  -7.691  1.00  0.00     0.041 C 
ATOM     10  O   UNL     1      10.060  19.702  -7.241  1.00  0.00    -0.550 OA
ATOM     11  O   UNL     1      12.161  20.033  -8.090  1.00  0.00    -0.550 OA
ENDBRANCH   8   9
ENDBRANCH   7   8
ENDBRANCH   6   7
ENDBRANCH   5   6
ENDBRANCH   4   5
ENDBRANCH   3   4
ENDBRANCH   2   3
ENDBRANCH   1   2
BRANCH   1  12
ATOM     12  C   UNL     1       2.374  21.675  -8.236  1.00  0.00     0.000 C 
BRANCH  12  13
ATOM     13  C   UNL     1       1.311  21.834  -7.138  1.00  0.00    -0.000 C 
BRANCH  13  14
ATOM     14  C   UNL     1       0.277  20.695  -7.143  1.00  0.00    -0.000 C 
BRANCH  14  15
ATOM     15  C   UNL     1       0.893  19.350  -7.560  1.00  0.00    -0.000 C 
BRANCH  15  16
ATOM     16  C   UNL     1       0.402  18.886  -8.944  1.00  0.00    -0.000 C 
BRANCH  16  17
ATOM     17  C   UNL     1      -1.046  18.371  -8.910  1.00  0.00    -0.000 C 
BRANCH  17  18
ATOM     18  C   UNL     1      -1.915  18.992 -10.018  1.00  0.00    -0.000 C 
BRANCH  18  19
ATOM     19  C   UNL     1      -2.066  20.514  -9.869  1.00  0.00    -0.003 C 
ATOM     20  C   UNL     1      -1.802  21.268 -11.172  1.00  0.00     0.004 C 
ENDBRANCH  18  19
ENDBRANCH  17  18
ENDBRANCH  16  17
ENDBRANCH  15  16
ENDBRANCH  14  15
ENDBRANCH  13  14
ENDBRANCH  12  13
ENDBRANCH   1  12
TORSDOF 16
ENDMDL
MODEL 8
REMARK VINA RESULT:    -5.027      5.352      8.897
REMARK INTER + INTRA:         -11.504
REMARK INTER:                  -9.844
REMARK INTRA:                  -1.660
REMARK UNBOUND:                -1.775
REMARK SMILES CCCCCCCCCCCCCCCCCC(=O)[O-]
REMARK SMILES IDX 10 1 11 2 12 3 13 4 14 5 15 6 16 7 17 8 18 9 19 10 20 11
REMARK SMILES IDX 9 12 8 13 7 14 6 15 5 16 4 17 3 18 2 19 1 20
REMARK H PARENT
REMARK Flexibility Score: inf
ROOT
ATOM      1  C   UNL     1      10.213  20.723  -7.499  1.00  0.00     0.000 C 
ENDROOT
BRANCH   1   2
ATOM      2  C   UNL     1      11.537  21.235  -8.082  1.00  0.00     0.000 C 
BRANCH   2   3
ATOM      3  C   UNL     1      11.408  22.689  -8.559  1.00  0.00     0.000 C 
BRANCH   3   4
ATOM      4  C   UNL     1      12.477  23.607  -7.942  1.00  0.00     0.000 C 
BRANCH   4   5
ATOM      5  C   UNL     1      13.626  22.817  -7.298  1.00  0.00     0.000 C 
BRANCH   5   6
ATOM      6  C   UNL     1      14.836  23.726  -7.031  1.00  0.00     0.000 C 
BRANCH   6   7
ATOM      7  C   UNL     1      15.093  23.948  -5.532  1.00  0.00     0.006 C 
BRANCH   7   8
ATOM      8  C   UNL     1      14.286  22.993  -4.640  1.00  0.00     0.053 C 
BRANCH   8   9
ATOM      9  C   UNL     1      14.450  23.359  -3.198  1.00  0.00     0.041 C 
ATOM     10  O   UNL     1      15.594  23.362  -2.672  1.00  0.00    -0.550 OA
ATOM     11  O   UNL     1      13.343  23.722  -2.441  1.00  0.00    -0.550 OA
ENDBRANCH   8   9
ENDBRANCH   7   8
ENDBRANCH   6   7
ENDBRANCH   5   6
ENDBRANCH   4   5
ENDBRANCH   3   4
ENDBRANCH   2   3
ENDBRANCH   1   2
BRANCH   1  12
ATOM     12  C   UNL     1       9.479  21.842  -6.744  1.00  0.00     0.000 C 
BRANCH  12  13
ATOM     13  C   UNL     1       9.019  21.415  -5.342  1.00  0.00    -0.000 C 
BRANCH  13  14
ATOM     14  C   UNL     1       7.730  22.127  -4.897  1.00  0.00    -0.000 C 
BRANCH  14  15
ATOM     15  C   UNL     1       7.321  23.250  -5.864  1.00  0.00    -0.000 C 
BRANCH  15  16
ATOM     16  C   UNL     1       5.795  23.333  -6.051  1.00  0.00    -0.000 C 
BRANCH  16  17
ATOM     17  C   UNL     1       5.373  23.144  -7.517  1.00  0.00    -0.000 C 
BRANCH  17  18
ATOM     18  C   UNL     1       6.452  23.626  -8.504  1.00  0.00    -0.000 C 
BRANCH  18  19
ATOM     19  C   UNL     1       6.545  22.742  -9.757  1.00  0.00    -0.003 C 
ATOM     20  C   UNL     1       7.982  22.359 -10.109  1.00  0.00     0.004 C 
ENDBRANCH  18  19
ENDBRANCH  17  18
ENDBRANCH  16  17
ENDBRANCH  15  16
ENDBRANCH  14  15
ENDBRANCH  13  14
ENDBRANCH  12  13
ENDBRANCH   1  12
TORSDOF 16
ENDMDL
MODEL 9
REMARK VINA RESULT:    -4.994      5.618      9.649
REMARK INTER + INTRA:         -11.441
REMARK INTER:                 -10.046
REMARK INTRA:                  -1.395
REMARK UNBOUND:                -1.775
REMARK SMILES CCCCCCCCCCCCCCCCCC(=O)[O-]
REMARK SMILES IDX 10 1 11 2 12 3 13 4 14 5 15 6 16 7 17 8 18 9 19 10 20 11
REMARK SMILES IDX 9 12 8 13 7 14 6 15 5 16 4 17 3 18 2 19 1 20
REMARK H PARENT
REMARK Flexibility Score: inf
ROOT
ATOM      1  C   UNL     1      11.636  22.077  -6.902  1.00  0.00     0.000 C 
ENDROOT
BRANCH   1   2
ATOM      2  C   UNL     1      13.164  22.214  -6.940  1.00  0.00     0.000 C 
BRANCH   2   3
ATOM      3  C   UNL     1      13.584  23.601  -7.449  1.00  0.00     0.000 C 
BRANCH   3   4
ATOM      4  C   UNL     1      14.937  24.052  -6.875  1.00  0.00     0.000 C 
BRANCH   4   5
ATOM      5  C   UNL     1      15.733  22.888  -6.266  1.00  0.00     0.000 C 
BRANCH   5   6
ATOM      6  C   UNL     1      16.055  23.155  -4.788  1.00  0.00     0.000 C 
BRANCH   6   7
ATOM      7  C   UNL     1      15.061  24.124  -4.128  1.00  0.00     0.006 C 
BRANCH   7   8
ATOM      8  C   UNL     1      14.829  23.820  -2.641  1.00  0.00     0.053 C 
BRANCH   8   9
ATOM      9  C   UNL     1      13.547  23.071  -2.453  1.00  0.00     0.041 C 
ATOM     10  O   UNL     1      12.890  22.679  -3.453  1.00  0.00    -0.550 OA
ATOM     11  O   UNL     1      13.091  22.782  -1.173  1.00  0.00    -0.550 OA
ENDBRANCH   8   9
ENDBRANCH   7   8
ENDBRANCH   6   7
ENDBRANCH   5   6
ENDBRANCH   4   5
ENDBRANCH   3   4
ENDBRANCH   2   3
ENDBRANCH   1   2
BRANCH   1  12
ATOM     12  C   UNL     1      11.068  21.877  -8.316  1.00  0.00     0.000 C 
BRANCH  12  13
ATOM     13  C   UNL     1       9.533  21.888  -8.351  1.00  0.00    -0.000 C 
BRANCH  13  14
ATOM     14  C   UNL     1       8.969  22.800  -9.454  1.00  0.00    -0.000 C 
BRANCH  14  15
ATOM     15  C   UNL     1       7.670  22.247 -10.061  1.00  0.00    -0.000 C 
BRANCH  15  16
ATOM     16  C   UNL     1       6.462  23.164  -9.790  1.00  0.00    -0.000 C 
BRANCH  16  17
ATOM     17  C   UNL     1       6.700  24.112  -8.604  1.00  0.00    -0.000 C 
BRANCH  17  18
ATOM     18  C   UNL     1       6.075  23.587  -7.300  1.00  0.00    -0.000 C 
BRANCH  18  19
ATOM     19  C   UNL     1       6.908  23.943  -6.059  1.00  0.00    -0.003 C 
ATOM     20  C   UNL     1       7.384  22.712  -5.288  1.00  0.00     0.004 C 
ENDBRANCH  18  19
ENDBRANCH  17  18
ENDBRANCH  16  17
ENDBRANCH  15  16
ENDBRANCH  14  15
ENDBRANCH  13  14
ENDBRANCH  12  13
ENDBRANCH   1  12
TORSDOF 16
ENDMDL
