MODEL 1
REMARK VINA RESULT:    -6.290      0.000      0.000
REMARK INTER + INTRA:          -9.546
REMARK INTER:                  -8.496
REMARK INTRA:                  -1.050
REMARK UNBOUND:                -1.050
REMARK SMILES CC(=O)CCC=C(C)CCC=C(C)C
REMARK SMILES IDX 7 1 6 2 8 3 9 4 10 5 11 6 13 7 12 8 14 9 5 10 4 11 2 12 3 13
REMARK SMILES IDX 1 14
REMARK H PARENT
REMARK Flexibility Score: inf
ROOT
ATOM      1  C   UNL     1      -1.502  11.882  21.253  1.00  0.00    -0.077 C 
ATOM      2  C   UNL     1      -1.049  11.456  22.454  1.00  0.00    -0.028 C 
ATOM      3  C   UNL     1      -0.569  12.142  20.093  1.00  0.00     0.039 C 
ENDROOT
BRANCH   1   4
ATOM      4  C   UNL     1      -2.989  12.089  21.063  1.00  0.00     0.034 C 
BRANCH   4   5
ATOM      5  C   UNL     1      -3.494  13.248  21.928  1.00  0.00     0.032 C 
BRANCH   5   6
ATOM      6  C   UNL     1      -3.031  14.572  21.375  1.00  0.00    -0.028 C 
ATOM      7  C   UNL     1      -1.868  16.737  21.365  1.00  0.00     0.039 C 
ATOM      8  C   UNL     1      -2.293  15.471  22.063  1.00  0.00    -0.080 C 
ATOM      9  C   UNL     1      -1.901  15.248  23.505  1.00  0.00     0.039 C 
ENDBRANCH   5   6
ENDBRANCH   4   5
ENDBRANCH   1   4
BRANCH   2  10
ATOM     10  C   UNL     1       0.408  11.245  22.795  1.00  0.00     0.035 C 
BRANCH  10  11
ATOM     11  C   UNL     1       0.629   9.961  23.607  1.00  0.00     0.079 C 
BRANCH  11  12
ATOM     12  C   UNL     1       0.130   8.742  22.874  1.00  0.00     0.130 C 
ATOM     13  O   UNL     1      -0.794   8.093  23.340  1.00  0.00    -0.300 OA
ATOM     14  C   UNL     1       0.755   8.298  21.584  1.00  0.00     0.087 C 
ENDBRANCH  11  12
ENDBRANCH  10  11
ENDBRANCH   2  10
TORSDOF 6
ENDMDL
MODEL 2
REMARK VINA RESULT:    -6.244      3.282      4.859
REMARK INTER + INTRA:          -9.484
REMARK INTER:                  -8.098
REMARK INTRA:                  -1.386
REMARK UNBOUND:                -1.050
REMARK SMILES CC(=O)CCC=C(C)CCC=C(C)C
REMARK SMILES IDX 7 1 6 2 8 3 9 4 10 5 11 6 13 7 12 8 14 9 5 10 4 11 2 12 3 13
REMARK SMILES IDX 1 14
REMARK H PARENT
REMARK Flexibility Score: inf
ROOT
ATOM      1  C   UNL     1      -1.994  16.274  21.427  1.00  0.00    -0.077 C 
ATOM      2  C   UNL     1      -2.274  15.492  22.495  1.00  0.00    -0.028 C 
ATOM      3  C   UNL     1      -0.811  17.212  21.412  1.00  0.00     0.039 C 
ENDROOT
BRANCH   1   4
ATOM      4  C   UNL     1      -2.886  16.192  20.207  1.00  0.00     0.034 C 
BRANCH   4   5
ATOM      5  C   UNL     1      -3.095  14.736  19.779  1.00  0.00     0.032 C 
BRANCH   5   6
ATOM      6  C   UNL     1      -1.825  14.158  19.209  1.00  0.00    -0.028 C 
ATOM      7  C   UNL     1       0.017  12.549  18.963  1.00  0.00     0.039 C 
ATOM      8  C   UNL     1      -1.231  13.030  19.658  1.00  0.00    -0.080 C 
ATOM      9  C   UNL     1      -1.771  12.257  20.838  1.00  0.00     0.039 C 
ENDBRANCH   5   6
ENDBRANCH   4   5
ENDBRANCH   1   4
BRANCH   2  10
ATOM     10  C   UNL     1      -1.495  15.498  23.790  1.00  0.00     0.035 C 
BRANCH  10  11
ATOM     11  C   UNL     1      -0.450  14.374  23.839  1.00  0.00     0.079 C 
BRANCH  11  12
ATOM     12  C   UNL     1       0.862  14.803  23.232  1.00  0.00     0.130 C 
ATOM     13  O   UNL     1       1.448  15.775  23.686  1.00  0.00    -0.300 OA
ATOM     14  C   UNL     1       1.461  14.068  22.069  1.00  0.00     0.087 C 
ENDBRANCH  11  12
ENDBRANCH  10  11
ENDBRANCH   2  10
TORSDOF 6
ENDMDL
MODEL 3
REMARK VINA RESULT:    -6.207      1.818      3.106
REMARK INTER + INTRA:          -9.434
REMARK INTER:                  -7.949
REMARK INTRA:                  -1.485
REMARK UNBOUND:                -1.050
REMARK SMILES CC(=O)CCC=C(C)CCC=C(C)C
REMARK SMILES IDX 7 1 6 2 8 3 9 4 10 5 11 6 13 7 12 8 14 9 5 10 4 11 2 12 3 13
REMARK SMILES IDX 1 14
REMARK H PARENT
REMARK Flexibility Score: inf
ROOT
ATOM      1  C   UNL     1      -2.517  14.304  19.954  1.00  0.00    -0.077 C 
ATOM      2  C   UNL     1      -3.279  13.558  20.785  1.00  0.00    -0.028 C 
ATOM      3  C   UNL     1      -1.427  13.693  19.105  1.00  0.00     0.039 C 
ENDROOT
BRANCH   1   4
ATOM      4  C   UNL     1      -2.776  15.792  19.862  1.00  0.00     0.034 C 
BRANCH   4   5
ATOM      5  C   UNL     1      -2.607  16.462  21.229  1.00  0.00     0.032 C 
BRANCH   5   6
ATOM      6  C   UNL     1      -1.148  16.564  21.598  1.00  0.00    -0.028 C 
ATOM      7  C   UNL     1       0.882  16.165  22.924  1.00  0.00     0.039 C 
ATOM      8  C   UNL     1      -0.601  16.015  22.705  1.00  0.00    -0.080 C 
ATOM      9  C   UNL     1      -1.434  15.276  23.727  1.00  0.00     0.039 C 
ENDBRANCH   5   6
ENDBRANCH   4   5
ENDBRANCH   1   4
BRANCH   2  10
ATOM     10  C   UNL     1      -3.107  12.073  21.005  1.00  0.00     0.035 C 
BRANCH  10  11
ATOM     11  C   UNL     1      -2.447  11.763  22.356  1.00  0.00     0.079 C 
BRANCH  11  12
ATOM     12  C   UNL     1      -1.013  11.328  22.192  1.00  0.00     0.130 C 
ATOM     13  O   UNL     1      -0.747  10.138  22.116  1.00  0.00    -0.300 OA
ATOM     14  C   UNL     1       0.103  12.330  22.131  1.00  0.00     0.087 C 
ENDBRANCH  11  12
ENDBRANCH  10  11
ENDBRANCH   2  10
TORSDOF 6
ENDMDL
MODEL 4
REMARK VINA RESULT:    -6.166      3.285      6.547
REMARK INTER + INTRA:          -9.379
REMARK INTER:                  -8.366
REMARK INTRA:                  -1.013
REMARK UNBOUND:                -1.050
REMARK SMILES CC(=O)CCC=C(C)CCC=C(C)C
REMARK SMILES IDX 7 1 6 2 8 3 9 4 10 5 11 6 13 7 12 8 14 9 5 10 4 11 2 12 3 13
REMARK SMILES IDX 1 14
REMARK H PARENT
REMARK Flexibility Score: inf
ROOT
ATOM      1  C   UNL     1       1.301  13.433  21.388  1.00  0.00    -0.077 C 
ATOM      2  C   UNL     1       0.803  13.906  22.553  1.00  0.00    -0.028 C 
ATOM      3  C   UNL     1       0.403  12.991  20.256  1.00  0.00     0.039 C 
ENDROOT
BRANCH   1   4
ATOM      4  C   UNL     1       2.802  13.359  21.210  1.00  0.00     0.034 C 
BRANCH   4   5
ATOM      5  C   UNL     1       3.399  12.232  22.058  1.00  0.00     0.032 C 
BRANCH   5   6
ATOM      6  C   UNL     1       3.234  10.900  21.370  1.00  0.00    -0.028 C 
ATOM      7  C   UNL     1       2.474   8.581  21.085  1.00  0.00     0.039 C 
ATOM      8  C   UNL     1       2.595   9.837  21.907  1.00  0.00    -0.080 C 
ATOM      9  C   UNL     1       2.019   9.872  23.304  1.00  0.00     0.039 C 
ENDBRANCH   5   6
ENDBRANCH   4   5
ENDBRANCH   1   4
BRANCH   2  10
ATOM     10  C   UNL     1      -0.669  13.998  22.882  1.00  0.00     0.035 C 
BRANCH  10  11
ATOM     11  C   UNL     1      -1.097  15.435  23.213  1.00  0.00     0.079 C 
BRANCH  11  12
ATOM     12  C   UNL     1      -1.198  16.288  21.973  1.00  0.00     0.130 C 
ATOM     13  O   UNL     1      -0.363  17.155  21.767  1.00  0.00    -0.300 OA
ATOM     14  C   UNL     1      -2.316  16.104  20.989  1.00  0.00     0.087 C 
ENDBRANCH  11  12
ENDBRANCH  10  11
ENDBRANCH   2  10
TORSDOF 6
ENDMDL
MODEL 5
REMARK VINA RESULT:    -6.144      1.964      2.798
REMARK INTER + INTRA:          -9.349
REMARK INTER:                  -8.404
REMARK INTRA:                  -0.944
REMARK UNBOUND:                -1.050
REMARK SMILES CC(=O)CCC=C(C)CCC=C(C)C
REMARK SMILES IDX 7 1 6 2 8 3 9 4 10 5 11 6 13 7 12 8 14 9 5 10 4 11 2 12 3 13
REMARK SMILES IDX 1 14
REMARK H PARENT
REMARK Flexibility Score: inf
ROOT
ATOM      1  C   UNL     1      -0.644   9.843  22.888  1.00  0.00    -0.077 C 
ATOM      2  C   UNL     1       0.489  10.542  23.130  1.00  0.00    -0.028 C 
ATOM      3  C   UNL     1      -0.685   8.335  22.969  1.00  0.00     0.039 C 
ENDROOT
BRANCH   1   4
ATOM      4  C   UNL     1      -1.909  10.598  22.540  1.00  0.00     0.034 C 
BRANCH   4   5
ATOM      5  C   UNL     1      -1.597  11.810  21.656  1.00  0.00     0.032 C 
BRANCH   5   6
ATOM      6  C   UNL     1      -2.206  13.064  22.232  1.00  0.00    -0.028 C 
ATOM      7  C   UNL     1      -2.246  15.339  23.159  1.00  0.00     0.039 C 
ATOM      8  C   UNL     1      -1.497  14.139  22.640  1.00  0.00    -0.080 C 
ATOM      9  C   UNL     1       0.013  14.161  22.606  1.00  0.00     0.039 C 
ENDBRANCH   5   6
ENDBRANCH   4   5
ENDBRANCH   1   4
BRANCH   2  10
ATOM     10  C   UNL     1       1.828   9.919  23.450  1.00  0.00     0.035 C 
BRANCH  10  11
ATOM     11  C   UNL     1       2.888  10.257  22.391  1.00  0.00     0.079 C 
BRANCH  11  12
ATOM     12  C   UNL     1       2.702   9.443  21.135  1.00  0.00     0.130 C 
ATOM     13  O   UNL     1       2.488   8.243  21.220  1.00  0.00    -0.300 OA
ATOM     14  C   UNL     1       2.789  10.075  19.777  1.00  0.00     0.087 C 
ENDBRANCH  11  12
ENDBRANCH  10  11
ENDBRANCH   2  10
TORSDOF 6
ENDMDL
MODEL 6
REMARK VINA RESULT:    -6.133      3.140      6.226
REMARK INTER + INTRA:          -9.334
REMARK INTER:                  -8.367
REMARK INTRA:                  -0.967
REMARK UNBOUND:                -1.050
REMARK SMILES CC(=O)CCC=C(C)CCC=C(C)C
REMARK SMILES IDX 7 1 6 2 8 3 9 4 10 5 11 6 13 7 12 8 14 9 5 10 4 11 2 12 3 13
REMARK SMILES IDX 1 14
REMARK H PARENT
REMARK Flexibility Score: inf
ROOT
ATOM      1  C   UNL     1       0.730  15.258  22.896  1.00  0.00    -0.077 C 
ATOM      2  C   UNL     1      -0.392  14.554  23.174  1.00  0.00    -0.028 C 
ATOM      3  C   UNL     1       0.752  16.768  22.923  1.00  0.00     0.039 C 
ENDROOT
BRANCH   1   4
ATOM      4  C   UNL     1       2.000  14.507  22.561  1.00  0.00     0.034 C 
BRANCH   4   5
ATOM      5  C   UNL     1       1.708  13.320  21.638  1.00  0.00     0.032 C 
BRANCH   5   6
ATOM      6  C   UNL     1       2.304  12.051  22.192  1.00  0.00    -0.028 C 
ATOM      7  C   UNL     1       2.319   9.767  23.098  1.00  0.00     0.039 C 
ATOM      8  C   UNL     1       1.583  10.984  22.603  1.00  0.00    -0.080 C 
ATOM      9  C   UNL     1       0.072  10.989  22.594  1.00  0.00     0.039 C 
ENDBRANCH   5   6
ENDBRANCH   4   5
ENDBRANCH   1   4
BRANCH   2  10
ATOM     10  C   UNL     1      -1.736  15.171  23.485  1.00  0.00     0.035 C 
BRANCH  10  11
ATOM     11  C   UNL     1      -2.783  14.843  22.411  1.00  0.00     0.079 C 
BRANCH  11  12
ATOM     12  C   UNL     1      -2.575  15.660  21.161  1.00  0.00     0.130 C 
ATOM     13  O   UNL     1      -2.413  16.868  21.248  1.00  0.00    -0.300 OA
ATOM     14  C   UNL     1      -2.577  15.021  19.803  1.00  0.00     0.087 C 
ENDBRANCH  11  12
ENDBRANCH  10  11
ENDBRANCH   2  10
TORSDOF 6
ENDMDL
MODEL 7
REMARK VINA RESULT:    -6.101      1.357      1.718
REMARK INTER + INTRA:          -9.292
REMARK INTER:                  -8.433
REMARK INTRA:                  -0.859
REMARK UNBOUND:                -1.050
REMARK SMILES CC(=O)CCC=C(C)CCC=C(C)C
REMARK SMILES IDX 7 1 6 2 8 3 9 4 10 5 11 6 13 7 12 8 14 9 5 10 4 11 2 12 3 13
REMARK SMILES IDX 1 14
REMARK H PARENT
REMARK Flexibility Score: inf
ROOT
ATOM      1  C   UNL     1      -2.401  11.557  21.629  1.00  0.00    -0.077 C 
ATOM      2  C   UNL     1      -1.074  11.766  21.471  1.00  0.00    -0.028 C 
ATOM      3  C   UNL     1      -2.938  10.504  22.571  1.00  0.00     0.039 C 
ENDROOT
BRANCH   1   4
ATOM      4  C   UNL     1      -3.375  12.414  20.850  1.00  0.00     0.034 C 
BRANCH   4   5
ATOM      5  C   UNL     1      -3.746  13.675  21.638  1.00  0.00     0.032 C 
BRANCH   5   6
ATOM      6  C   UNL     1      -2.938  14.858  21.166  1.00  0.00    -0.028 C 
ATOM      7  C   UNL     1      -1.351  16.726  21.338  1.00  0.00     0.039 C 
ATOM      8  C   UNL     1      -2.127  15.594  21.959  1.00  0.00    -0.080 C 
ATOM      9  C   UNL     1      -1.995  15.322  23.439  1.00  0.00     0.039 C 
ENDBRANCH   5   6
ENDBRANCH   4   5
ENDBRANCH   1   4
BRANCH   2  10
ATOM     10  C   UNL     1       0.008  10.961  22.154  1.00  0.00     0.035 C 
BRANCH  10  11
ATOM     11  C   UNL     1       0.901  10.224  21.146  1.00  0.00     0.079 C 
BRANCH  11  12
ATOM     12  C   UNL     1       1.109   8.782  21.533  1.00  0.00     0.130 C 
ATOM     13  O   UNL     1       2.173   8.237  21.283  1.00  0.00    -0.300 OA
ATOM     14  C   UNL     1       0.027   7.993  22.210  1.00  0.00     0.087 C 
ENDBRANCH  11  12
ENDBRANCH  10  11
ENDBRANCH   2  10
TORSDOF 6
ENDMDL
MODEL 8
REMARK VINA RESULT:    -6.058      2.625      3.696
REMARK INTER + INTRA:          -9.233
REMARK INTER:                  -7.861
REMARK INTRA:                  -1.372
REMARK UNBOUND:                -1.050
REMARK SMILES CC(=O)CCC=C(C)CCC=C(C)C
REMARK SMILES IDX 7 1 6 2 8 3 9 4 10 5 11 6 13 7 12 8 14 9 5 10 4 11 2 12 3 13
REMARK SMILES IDX 1 14
REMARK H PARENT
REMARK Flexibility Score: inf
ROOT
ATOM      1  C   UNL     1      -2.243  14.227  20.042  1.00  0.00    -0.077 C 
ATOM      2  C   UNL     1      -1.129  13.762  19.432  1.00  0.00    -0.028 C 
ATOM      3  C   UNL     1      -3.065  13.363  20.971  1.00  0.00     0.039 C 
ENDROOT
BRANCH   1   4
ATOM      4  C   UNL     1      -2.668  15.659  19.798  1.00  0.00     0.034 C 
BRANCH   4   5
ATOM      5  C   UNL     1      -2.640  16.467  21.099  1.00  0.00     0.032 C 
BRANCH   5   6
ATOM      6  C   UNL     1      -1.221  16.758  21.518  1.00  0.00    -0.028 C 
ATOM      7  C   UNL     1       0.808  16.599  22.895  1.00  0.00     0.039 C 
ATOM      8  C   UNL     1      -0.632  16.251  22.624  1.00  0.00    -0.080 C 
ATOM      9  C   UNL     1      -1.380  15.367  23.594  1.00  0.00     0.039 C 
ENDBRANCH   5   6
ENDBRANCH   4   5
ENDBRANCH   1   4
BRANCH   2  10
ATOM     10  C   UNL     1      -0.612  12.347  19.554  1.00  0.00     0.035 C 
BRANCH  10  11
ATOM     11  C   UNL     1       0.882  12.309  19.906  1.00  0.00     0.079 C 
BRANCH  11  12
ATOM     12  C   UNL     1       1.146  12.858  21.286  1.00  0.00     0.130 C 
ATOM     13  O   UNL     1       1.999  13.719  21.440  1.00  0.00    -0.300 OA
ATOM     14  C   UNL     1       0.390  12.358  22.482  1.00  0.00     0.087 C 
ENDBRANCH  11  12
ENDBRANCH  10  11
ENDBRANCH   2  10
TORSDOF 6
ENDMDL
