MODEL 1
REMARK VINA RESULT:    -4.495      0.000      0.000
REMARK INTER + INTRA:          -6.297
REMARK INTER:                  -6.071
REMARK INTRA:                  -0.225
REMARK UNBOUND:                -0.225
REMARK SMILES CCCCCCCC(=O)[O-]
REMARK SMILES IDX 5 1 6 2 7 3 8 4 9 5 10 6 4 7 3 8 2 9 1 10
REMARK H PARENT
REMARK Flexibility Score: inf
ROOT
ATOM      1  C   UNL     1       5.322  -2.442 -13.155  1.00  0.00     0.000 C 
ENDROOT
BRANCH   1   2
ATOM      2  C   UNL     1       4.263  -3.270 -13.903  1.00  0.00     0.006 C 
BRANCH   2   3
ATOM      3  C   UNL     1       2.859  -2.659 -13.817  1.00  0.00     0.053 C 
BRANCH   3   4
ATOM      4  C   UNL     1       2.004  -3.449 -12.876  1.00  0.00     0.041 C 
ATOM      5  O   UNL     1       0.906  -3.924 -13.267  1.00  0.00    -0.550 OA
ATOM      6  O   UNL     1       2.444  -3.700 -11.582  1.00  0.00    -0.550 OA
ENDBRANCH   3   4
ENDBRANCH   2   3
ENDBRANCH   1   2
BRANCH   1   7
ATOM      7  C   UNL     1       5.947  -3.140 -11.929  1.00  0.00     0.000 C 
BRANCH   7   8
ATOM      8  C   UNL     1       7.224  -2.477 -11.377  1.00  0.00    -0.000 C 
BRANCH   8   9
ATOM      9  C   UNL     1       7.426  -2.629  -9.859  1.00  0.00    -0.003 C 
ATOM     10  C   UNL     1       6.206  -3.218  -9.152  1.00  0.00     0.004 C 
ENDBRANCH   8   9
ENDBRANCH   7   8
ENDBRANCH   1   7
TORSDOF 6
ENDMDL
MODEL 2
REMARK VINA RESULT:    -4.385     12.269     13.546
REMARK INTER + INTRA:          -6.149
REMARK INTER:                  -5.729
REMARK INTRA:                  -0.420
REMARK UNBOUND:                -0.225
REMARK SMILES CCCCCCCC(=O)[O-]
REMARK SMILES IDX 5 1 6 2 7 3 8 4 9 5 10 6 4 7 3 8 2 9 1 10
REMARK H PARENT
REMARK Flexibility Score: inf
ROOT
ATOM      1  C   UNL     1      12.871   8.244 -16.614  1.00  0.00     0.000 C 
ENDROOT
BRANCH   1   2
ATOM      2  C   UNL     1      12.428   7.515 -15.334  1.00  0.00     0.006 C 
BRANCH   2   3
ATOM      3  C   UNL     1      12.155   6.022 -15.563  1.00  0.00     0.053 C 
BRANCH   3   4
ATOM      4  C   UNL     1      11.039   5.555 -14.683  1.00  0.00     0.041 C 
ATOM      5  O   UNL     1      10.923   4.334 -14.402  1.00  0.00    -0.550 OA
ATOM      6  O   UNL     1      10.155   6.476 -14.134  1.00  0.00    -0.550 OA
ENDBRANCH   3   4
ENDBRANCH   2   3
ENDBRANCH   1   2
BRANCH   1   7
ATOM      7  C   UNL     1      11.743   8.978 -17.368  1.00  0.00     0.000 C 
BRANCH   7   8
ATOM      8  C   UNL     1      10.388   9.026 -16.636  1.00  0.00    -0.000 C 
BRANCH   8   9
ATOM      9  C   UNL     1       9.265   8.210 -17.302  1.00  0.00    -0.003 C 
ATOM     10  C   UNL     1       8.993   8.639 -18.743  1.00  0.00     0.004 C 
ENDBRANCH   8   9
ENDBRANCH   7   8
ENDBRANCH   1   7
TORSDOF 6
ENDMDL
MODEL 3
REMARK VINA RESULT:    -4.365     10.559     11.637
REMARK INTER + INTRA:          -6.122
REMARK INTER:                  -5.641
REMARK INTRA:                  -0.481
REMARK UNBOUND:                -0.225
REMARK SMILES CCCCCCCC(=O)[O-]
REMARK SMILES IDX 5 1 6 2 7 3 8 4 9 5 10 6 4 7 3 8 2 9 1 10
REMARK H PARENT
REMARK Flexibility Score: inf
ROOT
ATOM      1  C   UNL     1      10.259   5.983 -10.182  1.00  0.00     0.000 C 
ENDROOT
BRANCH   1   2
ATOM      2  C   UNL     1       9.683   5.859 -11.603  1.00  0.00     0.006 C 
BRANCH   2   3
ATOM      3  C   UNL     1       9.538   7.214 -12.308  1.00  0.00     0.053 C 
BRANCH   3   4
ATOM      4  C   UNL     1       8.093   7.574 -12.454  1.00  0.00     0.041 C 
ATOM      5  O   UNL     1       7.210   6.678 -12.408  1.00  0.00    -0.550 OA
ATOM      6  O   UNL     1       7.719   8.905 -12.593  1.00  0.00    -0.550 OA
ENDBRANCH   3   4
ENDBRANCH   2   3
ENDBRANCH   1   2
BRANCH   1   7
ATOM      7  C   UNL     1      11.575   6.780 -10.081  1.00  0.00     0.000 C 
BRANCH   7   8
ATOM      8  C   UNL     1      12.851   5.986 -10.424  1.00  0.00    -0.000 C 
BRANCH   8   9
ATOM      9  C   UNL     1      13.429   6.265 -11.822  1.00  0.00    -0.003 C 
ATOM     10  C   UNL     1      13.198   5.115 -12.802  1.00  0.00     0.004 C 
ENDBRANCH   8   9
ENDBRANCH   7   8
ENDBRANCH   1   7
TORSDOF 6
ENDMDL
MODEL 4
REMARK VINA RESULT:    -4.365     13.617     14.870
REMARK INTER + INTRA:          -6.121
REMARK INTER:                  -5.688
REMARK INTRA:                  -0.434
REMARK UNBOUND:                -0.225
REMARK SMILES CCCCCCCC(=O)[O-]
REMARK SMILES IDX 5 1 6 2 7 3 8 4 9 5 10 6 4 7 3 8 2 9 1 10
REMARK H PARENT
REMARK Flexibility Score: inf
ROOT
ATOM      1  C   UNL     1      11.962   8.619 -17.087  1.00  0.00     0.000 C 
ENDROOT
BRANCH   1   2
ATOM      2  C   UNL     1      13.208   8.172 -16.302  1.00  0.00     0.006 C 
BRANCH   2   3
ATOM      3  C   UNL     1      13.048   8.337 -14.786  1.00  0.00     0.053 C 
BRANCH   3   4
ATOM      4  C   UNL     1      14.238   9.038 -14.209  1.00  0.00     0.041 C 
ATOM      5  O   UNL     1      14.086   9.914 -13.318  1.00  0.00    -0.550 OA
ATOM      6  O   UNL     1      15.518   8.689 -14.623  1.00  0.00    -0.550 OA
ENDBRANCH   3   4
ENDBRANCH   2   3
ENDBRANCH   1   2
BRANCH   1   7
ATOM      7  C   UNL     1      10.664   8.696 -16.257  1.00  0.00     0.000 C 
BRANCH   7   8
ATOM      8  C   UNL     1       9.522   7.780 -16.739  1.00  0.00    -0.000 C 
BRANCH   8   9
ATOM      9  C   UNL     1       9.154   6.642 -15.771  1.00  0.00    -0.003 C 
ATOM     10  C   UNL     1      10.312   5.679 -15.517  1.00  0.00     0.004 C 
ENDBRANCH   8   9
ENDBRANCH   7   8
ENDBRANCH   1   7
TORSDOF 6
ENDMDL
MODEL 5
REMARK VINA RESULT:    -4.343     12.491     13.730
REMARK INTER + INTRA:          -6.092
REMARK INTER:                  -5.502
REMARK INTRA:                  -0.589
REMARK UNBOUND:                -0.225
REMARK SMILES CCCCCCCC(=O)[O-]
REMARK SMILES IDX 5 1 6 2 7 3 8 4 9 5 10 6 4 7 3 8 2 9 1 10
REMARK H PARENT
REMARK Flexibility Score: inf
ROOT
ATOM      1  C   UNL     1       9.709   5.990 -15.946  1.00  0.00     0.000 C 
ENDROOT
BRANCH   1   2
ATOM      2  C   UNL     1      10.934   5.789 -15.038  1.00  0.00     0.006 C 
BRANCH   2   3
ATOM      3  C   UNL     1      12.255   6.146 -15.731  1.00  0.00     0.053 C 
BRANCH   3   4
ATOM      4  C   UNL     1      12.521   7.614 -15.620  1.00  0.00     0.041 C 
ATOM      5  O   UNL     1      13.210   8.201 -16.495  1.00  0.00    -0.550 OA
ATOM      6  O   UNL     1      11.969   8.344 -14.574  1.00  0.00    -0.550 OA
ENDBRANCH   3   4
ENDBRANCH   2   3
ENDBRANCH   1   2
BRANCH   1   7
ATOM      7  C   UNL     1       8.678   7.015 -15.430  1.00  0.00     0.000 C 
BRANCH   7   8
ATOM      8  C   UNL     1       8.754   8.408 -16.086  1.00  0.00    -0.000 C 
BRANCH   8   9
ATOM      9  C   UNL     1       8.887   8.394 -17.619  1.00  0.00    -0.003 C 
ATOM     10  C   UNL     1      10.193   9.018 -18.109  1.00  0.00     0.004 C 
ENDBRANCH   8   9
ENDBRANCH   7   8
ENDBRANCH   1   7
TORSDOF 6
ENDMDL
MODEL 6
REMARK VINA RESULT:    -4.326     10.432     11.606
REMARK INTER + INTRA:          -6.069
REMARK INTER:                  -5.439
REMARK INTRA:                  -0.630
REMARK UNBOUND:                -0.225
REMARK SMILES CCCCCCCC(=O)[O-]
REMARK SMILES IDX 5 1 6 2 7 3 8 4 9 5 10 6 4 7 3 8 2 9 1 10
REMARK H PARENT
REMARK Flexibility Score: inf
ROOT
ATOM      1  C   UNL     1      12.828   6.023 -11.136  1.00  0.00     0.000 C 
ENDROOT
BRANCH   1   2
ATOM      2  C   UNL     1      13.063   5.265 -12.453  1.00  0.00     0.006 C 
BRANCH   2   3
ATOM      3  C   UNL     1      12.382   5.933 -13.655  1.00  0.00     0.053 C 
BRANCH   3   4
ATOM      4  C   UNL     1      11.405   4.994 -14.289  1.00  0.00     0.041 C 
ATOM      5  O   UNL     1      10.969   5.222 -15.448  1.00  0.00    -0.550 OA
ATOM      6  O   UNL     1      11.014   3.841 -13.620  1.00  0.00    -0.550 OA
ENDBRANCH   3   4
ENDBRANCH   2   3
ENDBRANCH   1   2
BRANCH   1   7
ATOM      7  C   UNL     1      11.498   6.801 -11.060  1.00  0.00     0.000 C 
BRANCH   7   8
ATOM      8  C   UNL     1      10.317   6.021 -10.450  1.00  0.00    -0.000 C 
BRANCH   8   9
ATOM      9  C   UNL     1       9.109   5.841 -11.387  1.00  0.00    -0.003 C 
ATOM     10  C   UNL     1       8.902   7.028 -12.327  1.00  0.00     0.004 C 
ENDBRANCH   8   9
ENDBRANCH   7   8
ENDBRANCH   1   7
TORSDOF 6
ENDMDL
MODEL 7
REMARK VINA RESULT:    -4.306     10.758     11.984
REMARK INTER + INTRA:          -6.042
REMARK INTER:                  -5.416
REMARK INTRA:                  -0.626
REMARK UNBOUND:                -0.225
REMARK SMILES CCCCCCCC(=O)[O-]
REMARK SMILES IDX 5 1 6 2 7 3 8 4 9 5 10 6 4 7 3 8 2 9 1 10
REMARK H PARENT
REMARK Flexibility Score: inf
ROOT
ATOM      1  C   UNL     1      13.257   5.254 -12.479  1.00  0.00     0.000 C 
ENDROOT
BRANCH   1   2
ATOM      2  C   UNL     1      12.114   5.321 -13.506  1.00  0.00     0.006 C 
BRANCH   2   3
ATOM      3  C   UNL     1      10.728   5.169 -12.866  1.00  0.00     0.053 C 
BRANCH   3   4
ATOM      4  C   UNL     1      10.098   6.511 -12.663  1.00  0.00     0.041 C 
ATOM      5  O   UNL     1      10.509   7.508 -13.312  1.00  0.00    -0.550 OA
ATOM      6  O   UNL     1       9.025   6.650 -11.791  1.00  0.00    -0.550 OA
ENDBRANCH   3   4
ENDBRANCH   2   3
ENDBRANCH   1   2
BRANCH   1   7
ATOM      7  C   UNL     1      13.874   6.616 -12.102  1.00  0.00     0.000 C 
BRANCH   7   8
ATOM      8  C   UNL     1      13.595   7.086 -10.661  1.00  0.00    -0.000 C 
BRANCH   8   9
ATOM      9  C   UNL     1      13.016   6.007  -9.729  1.00  0.00    -0.003 C 
ATOM     10  C   UNL     1      11.575   6.294  -9.308  1.00  0.00     0.004 C 
ENDBRANCH   8   9
ENDBRANCH   7   8
ENDBRANCH   1   7
TORSDOF 6
ENDMDL
MODEL 8
REMARK VINA RESULT:    -4.291     11.944     12.962
REMARK INTER + INTRA:          -6.021
REMARK INTER:                  -5.378
REMARK INTRA:                  -0.644
REMARK UNBOUND:                -0.225
REMARK SMILES CCCCCCCC(=O)[O-]
REMARK SMILES IDX 5 1 6 2 7 3 8 4 9 5 10 6 4 7 3 8 2 9 1 10
REMARK H PARENT
REMARK Flexibility Score: inf
ROOT
ATOM      1  C   UNL     1       9.661   7.632 -16.619  1.00  0.00     0.000 C 
ENDROOT
BRANCH   1   2
ATOM      2  C   UNL     1       9.826   6.171 -16.164  1.00  0.00     0.006 C 
BRANCH   2   3
ATOM      3  C   UNL     1      10.298   6.050 -14.710  1.00  0.00     0.053 C 
BRANCH   3   4
ATOM      4  C   UNL     1      11.432   5.078 -14.609  1.00  0.00     0.041 C 
ATOM      5  O   UNL     1      12.126   4.808 -15.623  1.00  0.00    -0.550 OA
ATOM      6  O   UNL     1      11.750   4.507 -13.383  1.00  0.00    -0.550 OA
ENDBRANCH   3   4
ENDBRANCH   2   3
ENDBRANCH   1   2
BRANCH   1   7
ATOM      7  C   UNL     1      10.770   8.591 -16.142  1.00  0.00     0.000 C 
BRANCH   7   8
ATOM      8  C   UNL     1      12.059   8.574 -16.988  1.00  0.00    -0.000 C 
BRANCH   8   9
ATOM      9  C   UNL     1      13.312   8.076 -16.246  1.00  0.00    -0.003 C 
ATOM     10  C   UNL     1      13.274   8.373 -14.747  1.00  0.00     0.004 C 
ENDBRANCH   8   9
ENDBRANCH   7   8
ENDBRANCH   1   7
TORSDOF 6
ENDMDL
MODEL 9
REMARK VINA RESULT:    -4.275     13.360     14.606
REMARK INTER + INTRA:          -6.000
REMARK INTER:                  -5.533
REMARK INTRA:                  -0.467
REMARK UNBOUND:                -0.225
REMARK SMILES CCCCCCCC(=O)[O-]
REMARK SMILES IDX 5 1 6 2 7 3 8 4 9 5 10 6 4 7 3 8 2 9 1 10
REMARK H PARENT
REMARK Flexibility Score: inf
ROOT
ATOM      1  C   UNL     1      12.268   7.038 -15.807  1.00  0.00     0.000 C 
ENDROOT
BRANCH   1   2
ATOM      2  C   UNL     1      12.257   7.216 -14.279  1.00  0.00     0.006 C 
BRANCH   2   3
ATOM      3  C   UNL     1      12.573   8.652 -13.844  1.00  0.00     0.053 C 
BRANCH   3   4
ATOM      4  C   UNL     1      11.341   9.321 -13.320  1.00  0.00     0.041 C 
ATOM      5  O   UNL     1      10.207   8.818 -13.535  1.00  0.00    -0.550 OA
ATOM      6  O   UNL     1      11.449  10.475 -12.553  1.00  0.00    -0.550 OA
ENDBRANCH   3   4
ENDBRANCH   2   3
ENDBRANCH   1   2
BRANCH   1   7
ATOM      7  C   UNL     1      12.793   8.253 -16.599  1.00  0.00     0.000 C 
BRANCH   7   8
ATOM      8  C   UNL     1      11.738   8.985 -17.452  1.00  0.00    -0.000 C 
BRANCH   8   9
ATOM      9  C   UNL     1      10.278   8.623 -17.125  1.00  0.00    -0.003 C 
ATOM     10  C   UNL     1       9.377   8.615 -18.359  1.00  0.00     0.004 C 
ENDBRANCH   8   9
ENDBRANCH   7   8
ENDBRANCH   1   7
TORSDOF 6
ENDMDL
