MODEL 1
REMARK VINA RESULT:    -6.172      0.000      0.000
REMARK INTER + INTRA:          -6.908
REMARK INTER:                  -6.894
REMARK INTRA:                  -0.014
REMARK UNBOUND:                -0.014
REMARK SMILES COc1cc2ccc(=O)oc2c(O)c1O
REMARK SMILES IDX 3 1 14 2 12 3 11 4 5 5 4 6 6 7 7 8 8 9 9 10 10 11 2 12 1 13
REMARK SMILES IDX 15 14 13 16
REMARK H PARENT 15 15 13 17
REMARK Flexibility Score: inf
ROOT
ATOM      1  C   UNL     1     -33.926  -4.507 -16.196  1.00  0.00     0.165 A 
ATOM      2  C   UNL     1     -34.742  -3.985 -17.218  1.00  0.00     0.204 A 
ATOM      3  C   UNL     1     -34.169  -3.354 -18.331  1.00  0.00     0.205 A 
ATOM      4  C   UNL     1     -32.773  -3.236 -18.432  1.00  0.00     0.184 A 
ATOM      5  C   UNL     1     -31.952  -3.757 -17.409  1.00  0.00     0.025 A 
ATOM      6  C   UNL     1     -32.527  -4.388 -16.299  1.00  0.00     0.062 A 
ATOM      7  C   UNL     1     -30.565  -3.627 -17.535  1.00  0.00     0.020 A 
ATOM      8  C   UNL     1     -30.034  -2.992 -18.657  1.00  0.00     0.094 A 
ATOM      9  C   UNL     1     -30.908  -2.500 -19.631  1.00  0.00     0.336 A 
ATOM     10  O   UNL     1     -30.451  -1.924 -20.652  1.00  0.00    -0.246 OA
ATOM     11  O   UNL     1     -32.223  -2.637 -19.486  1.00  0.00    -0.419 OA
ENDROOT
BRANCH   1  12
ATOM     12  O   UNL     1     -34.538  -5.133 -15.097  1.00  0.00    -0.493 OA
ATOM     13  C   UNL     1     -35.081  -4.445 -13.974  1.00  0.00     0.278 C 
ENDBRANCH   1  12
BRANCH   2  14
ATOM     14  O   UNL     1     -36.132  -4.088 -17.144  1.00  0.00    -0.502 OA
ATOM     15  H   UNL     1     -36.597  -4.637 -16.432  1.00  0.00     0.293 HD
ENDBRANCH   2  14
BRANCH   3  16
ATOM     16  O   UNL     1     -35.003  -2.846 -19.329  1.00  0.00    -0.502 OA
ATOM     17  H   UNL     1     -34.639  -2.474 -20.198  1.00  0.00     0.293 HD
ENDBRANCH   3  16
TORSDOF 3
ENDMDL
MODEL 2
REMARK VINA RESULT:    -6.139      1.843      5.384
REMARK INTER + INTRA:          -6.871
REMARK INTER:                  -6.810
REMARK INTRA:                  -0.062
REMARK UNBOUND:                -0.014
REMARK SMILES COc1cc2ccc(=O)oc2c(O)c1O
REMARK SMILES IDX 3 1 14 2 12 3 11 4 5 5 4 6 6 7 7 8 8 9 9 10 10 11 2 12 1 13
REMARK SMILES IDX 15 14 13 16
REMARK H PARENT 15 15 13 17
REMARK Flexibility Score: inf
ROOT
ATOM      1  C   UNL     1     -31.912  -2.760 -18.998  1.00  0.00     0.165 A 
ATOM      2  C   UNL     1     -31.266  -3.384 -17.912  1.00  0.00     0.204 A 
ATOM      3  C   UNL     1     -31.949  -4.323 -17.125  1.00  0.00     0.205 A 
ATOM      4  C   UNL     1     -33.284  -4.646 -17.415  1.00  0.00     0.184 A 
ATOM      5  C   UNL     1     -33.934  -4.023 -18.502  1.00  0.00     0.025 A 
ATOM      6  C   UNL     1     -33.251  -3.086 -19.287  1.00  0.00     0.062 A 
ATOM      7  C   UNL     1     -35.264  -4.364 -18.769  1.00  0.00     0.020 A 
ATOM      8  C   UNL     1     -35.908  -5.302 -17.962  1.00  0.00     0.094 A 
ATOM      9  C   UNL     1     -35.201  -5.879 -16.903  1.00  0.00     0.336 A 
ATOM     10  O   UNL     1     -35.762  -6.728 -16.163  1.00  0.00    -0.246 OA
ATOM     11  O   UNL     1     -33.937  -5.537 -16.671  1.00  0.00    -0.419 OA
ENDROOT
BRANCH   1  12
ATOM     12  O   UNL     1     -31.194  -1.825 -19.763  1.00  0.00    -0.493 OA
ATOM     13  C   UNL     1     -30.462  -2.139 -20.944  1.00  0.00     0.278 C 
ENDBRANCH   1  12
BRANCH   2  14
ATOM     14  O   UNL     1     -29.940  -3.082 -17.601  1.00  0.00    -0.502 OA
ATOM     15  H   UNL     1     -29.547  -3.252 -16.683  1.00  0.00     0.293 HD
ENDBRANCH   2  14
BRANCH   3  16
ATOM     16  O   UNL     1     -31.283  -4.925 -16.056  1.00  0.00    -0.502 OA
ATOM     17  H   UNL     1     -30.509  -4.475 -15.581  1.00  0.00     0.293 HD
ENDBRANCH   3  16
TORSDOF 3
ENDMDL
MODEL 3
REMARK VINA RESULT:    -6.110      1.574      4.921
REMARK INTER + INTRA:          -6.839
REMARK INTER:                  -6.770
REMARK INTRA:                  -0.068
REMARK UNBOUND:                -0.014
REMARK SMILES COc1cc2ccc(=O)oc2c(O)c1O
REMARK SMILES IDX 3 1 14 2 12 3 11 4 5 5 4 6 6 7 7 8 8 9 9 10 10 11 2 12 1 13
REMARK SMILES IDX 15 14 13 16
REMARK H PARENT 15 15 13 17
REMARK Flexibility Score: inf
ROOT
ATOM      1  C   UNL     1     -32.167  -3.273 -18.548  1.00  0.00     0.165 A 
ATOM      2  C   UNL     1     -32.998  -3.720 -19.594  1.00  0.00     0.204 A 
ATOM      3  C   UNL     1     -34.130  -4.501 -19.318  1.00  0.00     0.205 A 
ATOM      4  C   UNL     1     -34.441  -4.844 -17.992  1.00  0.00     0.184 A 
ATOM      5  C   UNL     1     -33.611  -4.399 -16.941  1.00  0.00     0.025 A 
ATOM      6  C   UNL     1     -32.482  -3.619 -17.219  1.00  0.00     0.062 A 
ATOM      7  C   UNL     1     -33.945  -4.755 -15.630  1.00  0.00     0.020 A 
ATOM      8  C   UNL     1     -35.077  -5.534 -15.398  1.00  0.00     0.094 A 
ATOM      9  C   UNL     1     -35.853  -5.938 -16.488  1.00  0.00     0.336 A 
ATOM     10  O   UNL     1     -36.881  -6.641 -16.301  1.00  0.00    -0.246 OA
ATOM     11  O   UNL     1     -35.514  -5.586 -17.724  1.00  0.00    -0.419 OA
ENDROOT
BRANCH   1  12
ATOM     12  O   UNL     1     -31.044  -2.492 -18.865  1.00  0.00    -0.493 OA
ATOM     13  C   UNL     1     -29.722  -3.001 -19.013  1.00  0.00     0.278 C 
ENDBRANCH   1  12
BRANCH   2  14
ATOM     14  O   UNL     1     -32.713  -3.394 -20.921  1.00  0.00    -0.502 OA
ATOM     15  H   UNL     1     -32.505  -4.098 -21.619  1.00  0.00     0.293 HD
ENDBRANCH   2  14
BRANCH   3  16
ATOM     16  O   UNL     1     -34.934  -4.929 -20.376  1.00  0.00    -0.502 OA
ATOM     17  H   UNL     1     -35.925  -5.107 -20.261  1.00  0.00     0.293 HD
ENDBRANCH   3  16
TORSDOF 3
ENDMDL
MODEL 4
REMARK VINA RESULT:    -6.080      1.250      4.784
REMARK INTER + INTRA:          -6.804
REMARK INTER:                  -6.743
REMARK INTRA:                  -0.061
REMARK UNBOUND:                -0.014
REMARK SMILES COc1cc2ccc(=O)oc2c(O)c1O
REMARK SMILES IDX 3 1 14 2 12 3 11 4 5 5 4 6 6 7 7 8 8 9 9 10 10 11 2 12 1 13
REMARK SMILES IDX 15 14 13 16
REMARK H PARENT 15 15 13 17
REMARK Flexibility Score: inf
ROOT
ATOM      1  C   UNL     1     -31.290  -2.311 -19.619  1.00  0.00     0.165 A 
ATOM      2  C   UNL     1     -32.639  -2.361 -20.024  1.00  0.00     0.204 A 
ATOM      3  C   UNL     1     -33.592  -3.023 -19.238  1.00  0.00     0.205 A 
ATOM      4  C   UNL     1     -33.206  -3.645 -18.039  1.00  0.00     0.184 A 
ATOM      5  C   UNL     1     -31.856  -3.598 -17.630  1.00  0.00     0.025 A 
ATOM      6  C   UNL     1     -30.906  -2.935 -18.416  1.00  0.00     0.062 A 
ATOM      7  C   UNL     1     -31.500  -4.225 -16.432  1.00  0.00     0.020 A 
ATOM      8  C   UNL     1     -32.478  -4.874 -15.679  1.00  0.00     0.094 A 
ATOM      9  C   UNL     1     -33.795  -4.880 -16.146  1.00  0.00     0.336 A 
ATOM     10  O   UNL     1     -34.694  -5.459 -15.482  1.00  0.00    -0.246 OA
ATOM     11  O   UNL     1     -34.107  -4.276 -17.289  1.00  0.00    -0.419 OA
ENDROOT
BRANCH   1  12
ATOM     12  O   UNL     1     -30.365  -1.638 -20.434  1.00  0.00    -0.493 OA
ATOM     13  C   UNL     1     -29.201  -2.233 -20.998  1.00  0.00     0.278 C 
ENDBRANCH   1  12
BRANCH   2  14
ATOM     14  O   UNL     1     -33.050  -1.752 -21.211  1.00  0.00    -0.502 OA
ATOM     15  H   UNL     1     -33.939  -1.965 -21.649  1.00  0.00     0.293 HD
ENDBRANCH   2  14
BRANCH   3  16
ATOM     16  O   UNL     1     -34.921  -3.055 -19.665  1.00  0.00    -0.502 OA
ATOM     17  H   UNL     1     -35.501  -3.879 -19.560  1.00  0.00     0.293 HD
ENDBRANCH   3  16
TORSDOF 3
ENDMDL
MODEL 5
REMARK VINA RESULT:    -6.049      2.156      4.370
REMARK INTER + INTRA:          -6.771
REMARK INTER:                  -6.712
REMARK INTRA:                  -0.059
REMARK UNBOUND:                -0.014
REMARK SMILES COc1cc2ccc(=O)oc2c(O)c1O
REMARK SMILES IDX 3 1 14 2 12 3 11 4 5 5 4 6 6 7 7 8 8 9 9 10 10 11 2 12 1 13
REMARK SMILES IDX 15 14 13 16
REMARK H PARENT 15 15 13 17
REMARK Flexibility Score: inf
ROOT
ATOM      1  C   UNL     1     -31.146  -5.278 -16.827  1.00  0.00     0.165 A 
ATOM      2  C   UNL     1     -30.911  -4.011 -17.395  1.00  0.00     0.204 A 
ATOM      3  C   UNL     1     -31.972  -3.265 -17.928  1.00  0.00     0.205 A 
ATOM      4  C   UNL     1     -33.279  -3.780 -17.899  1.00  0.00     0.184 A 
ATOM      5  C   UNL     1     -33.518  -5.049 -17.331  1.00  0.00     0.025 A 
ATOM      6  C   UNL     1     -32.457  -5.792 -16.799  1.00  0.00     0.062 A 
ATOM      7  C   UNL     1     -34.829  -5.537 -17.314  1.00  0.00     0.020 A 
ATOM      8  C   UNL     1     -35.855  -4.765 -17.855  1.00  0.00     0.094 A 
ATOM      9  C   UNL     1     -35.545  -3.516 -18.401  1.00  0.00     0.336 A 
ATOM     10  O   UNL     1     -36.457  -2.802 -18.894  1.00  0.00    -0.246 OA
ATOM     11  O   UNL     1     -34.290  -3.076 -18.404  1.00  0.00    -0.419 OA
ENDROOT
BRANCH   1  12
ATOM     12  O   UNL     1     -30.057  -5.995 -16.303  1.00  0.00    -0.493 OA
ATOM     13  C   UNL     1     -29.722  -7.332 -16.662  1.00  0.00     0.278 C 
ENDBRANCH   1  12
BRANCH   2  14
ATOM     14  O   UNL     1     -29.624  -3.475 -17.437  1.00  0.00    -0.502 OA
ATOM     15  H   UNL     1     -29.202  -3.015 -16.639  1.00  0.00     0.293 HD
ENDBRANCH   2  14
BRANCH   3  16
ATOM     16  O   UNL     1     -31.709  -2.012 -18.484  1.00  0.00    -0.502 OA
ATOM     17  H   UNL     1     -32.153  -1.167 -18.144  1.00  0.00     0.293 HD
ENDBRANCH   3  16
TORSDOF 3
ENDMDL
MODEL 6
REMARK VINA RESULT:    -6.041      1.835      2.295
REMARK INTER + INTRA:          -6.762
REMARK INTER:                  -6.713
REMARK INTRA:                  -0.049
REMARK UNBOUND:                -0.014
REMARK SMILES COc1cc2ccc(=O)oc2c(O)c1O
REMARK SMILES IDX 3 1 14 2 12 3 11 4 5 5 4 6 6 7 7 8 8 9 9 10 10 11 2 12 1 13
REMARK SMILES IDX 15 14 13 16
REMARK H PARENT 15 15 13 17
REMARK Flexibility Score: inf
ROOT
ATOM      1  C   UNL     1     -35.898  -5.859 -16.859  1.00  0.00     0.165 A 
ATOM      2  C   UNL     1     -36.304  -4.976 -17.878  1.00  0.00     0.204 A 
ATOM      3  C   UNL     1     -35.397  -4.055 -18.422  1.00  0.00     0.205 A 
ATOM      4  C   UNL     1     -34.075  -4.008 -17.951  1.00  0.00     0.184 A 
ATOM      5  C   UNL     1     -33.665  -4.891 -16.929  1.00  0.00     0.025 A 
ATOM      6  C   UNL     1     -34.572  -5.810 -16.389  1.00  0.00     0.062 A 
ATOM      7  C   UNL     1     -32.342  -4.823 -16.480  1.00  0.00     0.020 A 
ATOM      8  C   UNL     1     -31.471  -3.892 -17.046  1.00  0.00     0.094 A 
ATOM      9  C   UNL     1     -31.947  -3.049 -18.054  1.00  0.00     0.336 A 
ATOM     10  O   UNL     1     -31.178  -2.203 -18.580  1.00  0.00    -0.246 OA
ATOM     11  O   UNL     1     -33.210  -3.135 -18.464  1.00  0.00    -0.419 OA
ENDROOT
BRANCH   1  12
ATOM     12  O   UNL     1     -36.836  -6.768 -16.340  1.00  0.00    -0.493 OA
ATOM     13  C   UNL     1     -36.503  -7.931 -15.588  1.00  0.00     0.278 C 
ENDBRANCH   1  12
BRANCH   2  14
ATOM     14  O   UNL     1     -37.612  -5.001 -18.365  1.00  0.00    -0.502 OA
ATOM     15  H   UNL     1     -38.414  -4.829 -17.771  1.00  0.00     0.293 HD
ENDBRANCH   2  14
BRANCH   3  16
ATOM     16  O   UNL     1     -35.828  -3.192 -19.432  1.00  0.00    -0.502 OA
ATOM     17  H   UNL     1     -36.796  -2.903 -19.517  1.00  0.00     0.293 HD
ENDBRANCH   3  16
TORSDOF 3
ENDMDL
MODEL 7
REMARK VINA RESULT:    -6.037      3.931      7.350
REMARK INTER + INTRA:          -6.757
REMARK INTER:                  -6.708
REMARK INTRA:                  -0.049
REMARK UNBOUND:                -0.014
REMARK SMILES COc1cc2ccc(=O)oc2c(O)c1O
REMARK SMILES IDX 3 1 14 2 12 3 11 4 5 5 4 6 6 7 7 8 8 9 9 10 10 11 2 12 1 13
REMARK SMILES IDX 15 14 13 16
REMARK H PARENT 15 15 13 17
REMARK Flexibility Score: inf
ROOT
ATOM      1  C   UNL     1     -35.747  -5.971 -16.809  1.00  0.00     0.165 A 
ATOM      2  C   UNL     1     -37.014  -5.443 -17.126  1.00  0.00     0.204 A 
ATOM      3  C   UNL     1     -38.154  -5.869 -16.429  1.00  0.00     0.205 A 
ATOM      4  C   UNL     1     -38.038  -6.828 -15.409  1.00  0.00     0.184 A 
ATOM      5  C   UNL     1     -36.771  -7.359 -15.089  1.00  0.00     0.025 A 
ATOM      6  C   UNL     1     -35.634  -6.932 -15.786  1.00  0.00     0.062 A 
ATOM      7  C   UNL     1     -36.684  -8.312 -14.069  1.00  0.00     0.020 A 
ATOM      8  C   UNL     1     -37.842  -8.709 -13.401  1.00  0.00     0.094 A 
ATOM      9  C   UNL     1     -39.063  -8.140 -13.771  1.00  0.00     0.336 A 
ATOM     10  O   UNL     1     -40.121  -8.484 -13.181  1.00  0.00    -0.246 OA
ATOM     11  O   UNL     1     -39.118  -7.236 -14.745  1.00  0.00    -0.419 OA
ENDROOT
BRANCH   1  12
ATOM     12  O   UNL     1     -34.628  -5.519 -17.529  1.00  0.00    -0.493 OA
ATOM     13  C   UNL     1     -33.277  -5.679 -17.107  1.00  0.00     0.278 C 
ENDBRANCH   1  12
BRANCH   2  14
ATOM     14  O   UNL     1     -37.158  -4.490 -18.134  1.00  0.00    -0.502 OA
ATOM     15  H   UNL     1     -36.535  -3.696 -18.222  1.00  0.00     0.293 HD
ENDBRANCH   2  14
BRANCH   3  16
ATOM     16  O   UNL     1     -39.397  -5.328 -16.765  1.00  0.00    -0.502 OA
ATOM     17  H   UNL     1     -39.907  -4.719 -16.137  1.00  0.00     0.293 HD
ENDBRANCH   3  16
TORSDOF 3
ENDMDL
MODEL 8
REMARK VINA RESULT:    -5.863      4.083      6.435
REMARK INTER + INTRA:          -6.562
REMARK INTER:                  -6.493
REMARK INTRA:                  -0.069
REMARK UNBOUND:                -0.014
REMARK SMILES COc1cc2ccc(=O)oc2c(O)c1O
REMARK SMILES IDX 3 1 14 2 12 3 11 4 5 5 4 6 6 7 7 8 8 9 9 10 10 11 2 12 1 13
REMARK SMILES IDX 15 14 13 16
REMARK H PARENT 15 15 13 17
REMARK Flexibility Score: inf
ROOT
ATOM      1  C   UNL     1     -38.731  -7.024 -13.547  1.00  0.00     0.165 A 
ATOM      2  C   UNL     1     -38.069  -8.202 -13.944  1.00  0.00     0.204 A 
ATOM      3  C   UNL     1     -36.970  -8.141 -14.812  1.00  0.00     0.205 A 
ATOM      4  C   UNL     1     -36.521  -6.900 -15.291  1.00  0.00     0.184 A 
ATOM      5  C   UNL     1     -37.181  -5.716 -14.896  1.00  0.00     0.025 A 
ATOM      6  C   UNL     1     -38.278  -5.780 -14.029  1.00  0.00     0.062 A 
ATOM      7  C   UNL     1     -36.712  -4.494 -15.388  1.00  0.00     0.020 A 
ATOM      8  C   UNL     1     -35.616  -4.476 -16.250  1.00  0.00     0.094 A 
ATOM      9  C   UNL     1     -35.012  -5.686 -16.598  1.00  0.00     0.336 A 
ATOM     10  O   UNL     1     -34.020  -5.693 -17.374  1.00  0.00    -0.246 OA
ATOM     11  O   UNL     1     -35.477  -6.835 -16.116  1.00  0.00    -0.419 OA
ENDROOT
BRANCH   1  12
ATOM     12  O   UNL     1     -39.828  -7.127 -12.676  1.00  0.00    -0.493 OA
ATOM     13  C   UNL     1     -41.191  -7.030 -13.078  1.00  0.00     0.278 C 
ENDBRANCH   1  12
BRANCH   2  14
ATOM     14  O   UNL     1     -38.494  -9.449 -13.483  1.00  0.00    -0.502 OA
ATOM     15  H   UNL     1     -38.920  -9.573 -12.572  1.00  0.00     0.293 HD
ENDBRANCH   2  14
BRANCH   3  16
ATOM     16  O   UNL     1     -36.334  -9.326 -15.188  1.00  0.00    -0.502 OA
ATOM     17  H   UNL     1     -36.124 -10.059 -14.522  1.00  0.00     0.293 HD
ENDBRANCH   3  16
TORSDOF 3
ENDMDL
MODEL 9
REMARK VINA RESULT:    -5.776      2.545      3.651
REMARK INTER + INTRA:          -6.466
REMARK INTER:                  -6.416
REMARK INTRA:                  -0.050
REMARK UNBOUND:                -0.014
REMARK SMILES COc1cc2ccc(=O)oc2c(O)c1O
REMARK SMILES IDX 3 1 14 2 12 3 11 4 5 5 4 6 6 7 7 8 8 9 9 10 10 11 2 12 1 13
REMARK SMILES IDX 15 14 13 16
REMARK H PARENT 15 15 13 17
REMARK Flexibility Score: inf
ROOT
ATOM      1  C   UNL     1     -36.828  -6.549 -15.303  1.00  0.00     0.165 A 
ATOM      2  C   UNL     1     -37.631  -6.099 -16.369  1.00  0.00     0.204 A 
ATOM      3  C   UNL     1     -37.067  -5.363 -17.421  1.00  0.00     0.205 A 
ATOM      4  C   UNL     1     -35.694  -5.069 -17.417  1.00  0.00     0.184 A 
ATOM      5  C   UNL     1     -34.886  -5.517 -16.350  1.00  0.00     0.025 A 
ATOM      6  C   UNL     1     -35.451  -6.253 -15.301  1.00  0.00     0.062 A 
ATOM      7  C   UNL     1     -33.521  -5.211 -16.372  1.00  0.00     0.020 A 
ATOM      8  C   UNL     1     -33.000  -4.476 -17.436  1.00  0.00     0.094 A 
ATOM      9  C   UNL     1     -33.860  -4.065 -18.458  1.00  0.00     0.336 A 
ATOM     10  O   UNL     1     -33.410  -3.401 -19.428  1.00  0.00    -0.246 OA
ATOM     11  O   UNL     1     -35.153  -4.370 -18.413  1.00  0.00    -0.419 OA
ENDROOT
BRANCH   1  12
ATOM     12  O   UNL     1     -37.429  -7.284 -14.268  1.00  0.00    -0.493 OA
ATOM     13  C   UNL     1     -36.739  -8.190 -13.413  1.00  0.00     0.278 C 
ENDBRANCH   1  12
BRANCH   2  14
ATOM     14  O   UNL     1     -38.998  -6.377 -16.399  1.00  0.00    -0.502 OA
ATOM     15  H   UNL     1     -39.371  -7.286 -16.153  1.00  0.00     0.293 HD
ENDBRANCH   2  14
BRANCH   3  16
ATOM     16  O   UNL     1     -37.889  -4.931 -18.464  1.00  0.00    -0.502 OA
ATOM     17  H   UNL     1     -37.705  -5.173 -19.430  1.00  0.00     0.293 HD
ENDBRANCH   3  16
TORSDOF 3
ENDMDL
