MODEL 1
REMARK VINA RESULT:    -6.747      0.000      0.000
REMARK INTER + INTRA:          -8.595
REMARK INTER:                  -8.325
REMARK INTRA:                  -0.270
REMARK UNBOUND:                -0.270
REMARK SMILES O=C1c2c(O)cc(O)cc2O[C@H](c2cc(O)c(O)c(O)c2)[C@@H]1O
REMARK SMILES IDX 12 1 22 2 2 3 1 4 3 5 4 6 6 7 7 8 9 9 10 10 11 11 13 12
REMARK SMILES IDX 14 13 15 14 21 15 17 16 19 17 16 18 18 20 20 22 23 24 5 26
REMARK SMILES IDX 8 28
REMARK H PARENT 16 19 18 21 20 23 23 25 5 27 8 29
REMARK Flexibility Score: inf
ROOT
ATOM      1  C   UNL     1       7.633  52.139  19.986  1.00  0.00     0.240 C 
ATOM      2  C   UNL     1       7.972  52.951  21.254  1.00  0.00     0.231 C 
ATOM      3  C   UNL     1       9.297  52.487  21.799  1.00  0.00     0.202 C 
ATOM      4  O   UNL     1       9.417  52.292  23.037  1.00  0.00    -0.291 OA
ATOM      5  C   UNL     1      10.409  52.211  20.854  1.00  0.00     0.105 A 
ATOM      6  C   UNL     1      11.774  52.126  21.235  1.00  0.00     0.133 A 
ATOM      7  C   UNL     1      12.740  51.793  20.278  1.00  0.00     0.093 A 
ATOM      8  C   UNL     1      12.386  51.602  18.940  1.00  0.00     0.123 A 
ATOM      9  C   UNL     1      11.051  51.733  18.550  1.00  0.00     0.093 A 
ATOM     10  C   UNL     1      10.065  52.024  19.496  1.00  0.00     0.138 A 
ATOM     11  O   UNL     1       8.734  52.137  19.073  1.00  0.00    -0.481 OA
ENDROOT
BRANCH   1  12
ATOM     12  C   UNL     1       6.380  52.654  19.313  1.00  0.00     0.003 A 
ATOM     13  C   UNL     1       6.351  52.900  17.931  1.00  0.00     0.058 A 
ATOM     14  C   UNL     1       5.202  53.411  17.314  1.00  0.00     0.161 A 
ATOM     15  C   UNL     1       5.247  52.951  20.082  1.00  0.00     0.058 A 
ATOM     16  C   UNL     1       4.057  53.691  18.097  1.00  0.00     0.200 A 
ATOM     17  C   UNL     1       4.091  53.460  19.479  1.00  0.00     0.161 A 
BRANCH  14  18
ATOM     18  O   UNL     1       5.246  53.624  15.935  1.00  0.00    -0.504 OA
ATOM     19  H   UNL     1       5.942  54.191  15.472  1.00  0.00     0.293 HD
ENDBRANCH  14  18
BRANCH  16  20
ATOM     20  O   UNL     1       2.876  54.195  17.544  1.00  0.00    -0.502 OA
ATOM     21  H   UNL     1       1.998  53.697  17.535  1.00  0.00     0.293 HD
ENDBRANCH  16  20
BRANCH  17  22
ATOM     22  O   UNL     1       2.965  53.745  20.251  1.00  0.00    -0.504 OA
ATOM     23  H   UNL     1       2.819  53.312  21.156  1.00  0.00     0.293 HD
ENDBRANCH  17  22
ENDBRANCH   1  12
BRANCH   2  24
ATOM     24  O   UNL     1       8.007  54.335  21.000  1.00  0.00    -0.381 OA
ATOM     25  H   UNL     1       8.955  54.598  20.868  1.00  0.00     0.211 HD
ENDBRANCH   2  24
BRANCH   6  26
ATOM     26  O   UNL     1      12.224  52.396  22.530  1.00  0.00    -0.507 OA
ATOM     27  H   UNL     1      12.298  51.703  23.259  1.00  0.00     0.293 HD
ENDBRANCH   6  26
BRANCH   8  28
ATOM     28  O   UNL     1      13.371  51.290  18.007  1.00  0.00    -0.508 OA
ATOM     29  H   UNL     1      13.333  50.437  17.461  1.00  0.00     0.293 HD
ENDBRANCH   8  28
TORSDOF 7
ENDMDL
MODEL 2
REMARK VINA RESULT:    -6.719      0.210      1.770
REMARK INTER + INTRA:          -8.560
REMARK INTER:                  -8.319
REMARK INTRA:                  -0.241
REMARK UNBOUND:                -0.270
REMARK SMILES O=C1c2c(O)cc(O)cc2O[C@H](c2cc(O)c(O)c(O)c2)[C@@H]1O
REMARK SMILES IDX 12 1 22 2 2 3 1 4 3 5 4 6 6 7 7 8 9 9 10 10 11 11 13 12
REMARK SMILES IDX 14 13 15 14 21 15 17 16 19 17 16 18 18 20 20 22 23 24 5 26
REMARK SMILES IDX 8 28
REMARK H PARENT 16 19 18 21 20 23 23 25 5 27 8 29
REMARK Flexibility Score: inf
ROOT
ATOM      1  C   UNL     1       7.498  52.207  19.906  1.00  0.00     0.240 C 
ATOM      2  C   UNL     1       7.799  52.970  21.215  1.00  0.00     0.231 C 
ATOM      3  C   UNL     1       9.098  52.472  21.789  1.00  0.00     0.202 C 
ATOM      4  O   UNL     1       9.171  52.231  23.023  1.00  0.00    -0.291 OA
ATOM      5  C   UNL     1      10.242  52.218  20.875  1.00  0.00     0.105 A 
ATOM      6  C   UNL     1      11.591  52.105  21.303  1.00  0.00     0.133 A 
ATOM      7  C   UNL     1      12.588  51.796  20.369  1.00  0.00     0.093 A 
ATOM      8  C   UNL     1      12.281  51.657  19.014  1.00  0.00     0.123 A 
ATOM      9  C   UNL     1      10.962  51.817  18.581  1.00  0.00     0.093 A 
ATOM     10  C   UNL     1       9.945  52.084  19.500  1.00  0.00     0.138 A 
ATOM     11  O   UNL     1       8.631  52.226  19.034  1.00  0.00    -0.481 OA
ENDROOT
BRANCH   1  12
ATOM     12  C   UNL     1       6.276  52.759  19.208  1.00  0.00     0.003 A 
ATOM     13  C   UNL     1       5.124  53.107  19.932  1.00  0.00     0.058 A 
ATOM     14  C   UNL     1       3.980  53.584  19.282  1.00  0.00     0.161 A 
ATOM     15  C   UNL     1       6.261  52.871  17.811  1.00  0.00     0.058 A 
ATOM     16  C   UNL     1       3.981  53.711  17.872  1.00  0.00     0.200 A 
ATOM     17  C   UNL     1       5.125  53.348  17.146  1.00  0.00     0.161 A 
BRANCH  14  18
ATOM     18  O   UNL     1       2.875  53.915  20.068  1.00  0.00    -0.504 OA
ATOM     19  H   UNL     1       2.678  54.848  20.402  1.00  0.00     0.293 HD
ENDBRANCH  14  18
BRANCH  16  20
ATOM     20  O   UNL     1       2.876  54.187  17.160  1.00  0.00    -0.502 OA
ATOM     21  H   UNL     1       2.368  53.646  16.475  1.00  0.00     0.293 HD
ENDBRANCH  16  20
BRANCH  17  22
ATOM     22  O   UNL     1       5.123  53.465  15.757  1.00  0.00    -0.504 OA
ATOM     23  H   UNL     1       4.886  52.681  15.159  1.00  0.00     0.293 HD
ENDBRANCH  17  22
ENDBRANCH   1  12
BRANCH   2  24
ATOM     24  O   UNL     1       7.856  54.361  21.012  1.00  0.00    -0.381 OA
ATOM     25  H   UNL     1       7.174  54.784  21.598  1.00  0.00     0.211 HD
ENDBRANCH   2  24
BRANCH   6  26
ATOM     26  O   UNL     1      11.996  52.323  22.621  1.00  0.00    -0.507 OA
ATOM     27  H   UNL     1      11.667  53.085  23.195  1.00  0.00     0.293 HD
ENDBRANCH   6  26
BRANCH   8  28
ATOM     28  O   UNL     1      13.297  51.368  18.105  1.00  0.00    -0.508 OA
ATOM     29  H   UNL     1      13.827  52.103  17.652  1.00  0.00     0.293 HD
ENDBRANCH   8  28
TORSDOF 7
ENDMDL
MODEL 3
REMARK VINA RESULT:    -6.453      1.651      6.769
REMARK INTER + INTRA:          -8.232
REMARK INTER:                  -8.024
REMARK INTRA:                  -0.209
REMARK UNBOUND:                -0.270
REMARK SMILES O=C1c2c(O)cc(O)cc2O[C@H](c2cc(O)c(O)c(O)c2)[C@@H]1O
REMARK SMILES IDX 12 1 22 2 2 3 1 4 3 5 4 6 6 7 7 8 9 9 10 10 11 11 13 12
REMARK SMILES IDX 14 13 15 14 21 15 17 16 19 17 16 18 18 20 20 22 23 24 5 26
REMARK SMILES IDX 8 28
REMARK H PARENT 16 19 18 21 20 23 23 25 5 27 8 29
REMARK Flexibility Score: inf
ROOT
ATOM      1  C   UNL     1       8.684  53.037  21.115  1.00  0.00     0.240 C 
ATOM      2  C   UNL     1       7.400  52.522  21.802  1.00  0.00     0.231 C 
ATOM      3  C   UNL     1       6.200  53.024  21.044  1.00  0.00     0.202 C 
ATOM      4  O   UNL     1       5.223  53.494  21.684  1.00  0.00    -0.291 OA
ATOM      5  C   UNL     1       6.226  53.009  19.559  1.00  0.00     0.105 A 
ATOM      6  C   UNL     1       5.067  53.102  18.743  1.00  0.00     0.133 A 
ATOM      7  C   UNL     1       5.205  53.148  17.350  1.00  0.00     0.093 A 
ATOM      8  C   UNL     1       6.463  53.044  16.751  1.00  0.00     0.123 A 
ATOM      9  C   UNL     1       7.601  52.902  17.548  1.00  0.00     0.093 A 
ATOM     10  C   UNL     1       7.492  52.895  18.941  1.00  0.00     0.138 A 
ATOM     11  O   UNL     1       8.655  52.764  19.711  1.00  0.00    -0.481 OA
ENDROOT
BRANCH   1  12
ATOM     12  C   UNL     1       9.927  52.452  21.748  1.00  0.00     0.003 A 
ATOM     13  C   UNL     1      10.994  51.994  20.958  1.00  0.00     0.058 A 
ATOM     14  C   UNL     1      12.129  51.420  21.542  1.00  0.00     0.161 A 
ATOM     15  C   UNL     1       9.997  52.304  23.139  1.00  0.00     0.058 A 
ATOM     16  C   UNL     1      12.199  51.292  22.950  1.00  0.00     0.200 A 
ATOM     17  C   UNL     1      11.127  51.734  23.739  1.00  0.00     0.161 A 
BRANCH  14  18
ATOM     18  O   UNL     1      13.152  50.994  20.694  1.00  0.00    -0.504 OA
ATOM     19  H   UNL     1      13.958  50.467  20.999  1.00  0.00     0.293 HD
ENDBRANCH  14  18
BRANCH  16  20
ATOM     20  O   UNL     1      13.305  50.735  23.599  1.00  0.00    -0.502 OA
ATOM     21  H   UNL     1      13.983  50.138  23.148  1.00  0.00     0.293 HD
ENDBRANCH  16  20
BRANCH  17  22
ATOM     22  O   UNL     1      11.192  51.599  25.125  1.00  0.00    -0.504 OA
ATOM     23  H   UNL     1      11.935  52.026  25.665  1.00  0.00     0.293 HD
ENDBRANCH  17  22
ENDBRANCH   1  12
BRANCH   2  24
ATOM     24  O   UNL     1       7.374  51.118  21.885  1.00  0.00    -0.381 OA
ATOM     25  H   UNL     1       7.447  50.866  22.843  1.00  0.00     0.211 HD
ENDBRANCH   2  24
BRANCH   6  26
ATOM     26  O   UNL     1       3.768  53.114  19.257  1.00  0.00    -0.507 OA
ATOM     27  H   UNL     1       3.121  52.345  19.176  1.00  0.00     0.293 HD
ENDBRANCH   6  26
BRANCH   8  28
ATOM     28  O   UNL     1       6.567  53.074  15.363  1.00  0.00    -0.508 OA
ATOM     29  H   UNL     1       6.728  53.940  14.862  1.00  0.00     0.293 HD
ENDBRANCH   8  28
TORSDOF 7
ENDMDL
MODEL 4
REMARK VINA RESULT:    -6.068      1.876      3.108
REMARK INTER + INTRA:          -7.756
REMARK INTER:                  -8.144
REMARK INTRA:                   0.388
REMARK UNBOUND:                -0.270
REMARK SMILES O=C1c2c(O)cc(O)cc2O[C@H](c2cc(O)c(O)c(O)c2)[C@@H]1O
REMARK SMILES IDX 12 1 22 2 2 3 1 4 3 5 4 6 6 7 7 8 9 9 10 10 11 11 13 12
REMARK SMILES IDX 14 13 15 14 21 15 17 16 19 17 16 18 18 20 20 22 23 24 5 26
REMARK SMILES IDX 8 28
REMARK H PARENT 16 19 18 21 20 23 23 25 5 27 8 29
REMARK Flexibility Score: inf
ROOT
ATOM      1  C   UNL     1       9.151  53.197  20.820  1.00  0.00     0.240 C 
ATOM      2  C   UNL     1      10.023  53.195  19.545  1.00  0.00     0.231 C 
ATOM      3  C   UNL     1      11.475  53.151  19.939  1.00  0.00     0.202 C 
ATOM      4  O   UNL     1      12.292  53.911  19.357  1.00  0.00    -0.291 OA
ATOM      5  C   UNL     1      11.896  52.255  21.048  1.00  0.00     0.105 A 
ATOM      6  C   UNL     1      13.237  51.847  21.275  1.00  0.00     0.133 A 
ATOM      7  C   UNL     1      13.538  51.056  22.390  1.00  0.00     0.093 A 
ATOM      8  C   UNL     1      12.529  50.613  23.248  1.00  0.00     0.123 A 
ATOM      9  C   UNL     1      11.201  50.970  23.000  1.00  0.00     0.093 A 
ATOM     10  C   UNL     1      10.882  51.793  21.918  1.00  0.00     0.138 A 
ATOM     11  O   UNL     1       9.542  52.143  21.705  1.00  0.00    -0.481 OA
ENDROOT
BRANCH   1  12
ATOM     12  C   UNL     1       7.679  53.100  20.489  1.00  0.00     0.003 A 
ATOM     13  C   UNL     1       7.199  52.120  19.606  1.00  0.00     0.058 A 
ATOM     14  C   UNL     1       5.842  52.053  19.272  1.00  0.00     0.161 A 
ATOM     15  C   UNL     1       6.782  54.037  21.019  1.00  0.00     0.058 A 
ATOM     16  C   UNL     1       4.940  52.993  19.826  1.00  0.00     0.200 A 
ATOM     17  C   UNL     1       5.421  53.982  20.696  1.00  0.00     0.161 A 
BRANCH  14  18
ATOM     18  O   UNL     1       5.438  51.048  18.392  1.00  0.00    -0.504 OA
ATOM     19  H   UNL     1       6.045  50.616  17.709  1.00  0.00     0.293 HD
ENDBRANCH  14  18
BRANCH  16  20
ATOM     20  O   UNL     1       3.572  52.979  19.541  1.00  0.00    -0.502 OA
ATOM     21  H   UNL     1       3.173  52.577  18.705  1.00  0.00     0.293 HD
ENDBRANCH  16  20
BRANCH  17  22
ATOM     22  O   UNL     1       4.535  54.914  21.235  1.00  0.00    -0.504 OA
ATOM     23  H   UNL     1       4.058  54.745  22.113  1.00  0.00     0.293 HD
ENDBRANCH  17  22
ENDBRANCH   1  12
BRANCH   2  24
ATOM     24  O   UNL     1       9.713  52.115  18.697  1.00  0.00    -0.381 OA
ATOM     25  H   UNL     1       9.993  52.359  17.776  1.00  0.00     0.211 HD
ENDBRANCH   2  24
BRANCH   6  26
ATOM     26  O   UNL     1      14.289  52.166  20.414  1.00  0.00    -0.507 OA
ATOM     27  H   UNL     1      14.304  52.980  19.817  1.00  0.00     0.293 HD
ENDBRANCH   6  26
BRANCH   8  28
ATOM     28  O   UNL     1      12.858  49.811  24.338  1.00  0.00    -0.508 OA
ATOM     29  H   UNL     1      13.178  50.212  25.213  1.00  0.00     0.293 HD
ENDBRANCH   8  28
TORSDOF 7
ENDMDL
MODEL 5
REMARK VINA RESULT:    -6.056      1.659      7.005
REMARK INTER + INTRA:          -7.741
REMARK INTER:                  -7.493
REMARK INTRA:                  -0.249
REMARK UNBOUND:                -0.270
REMARK SMILES O=C1c2c(O)cc(O)cc2O[C@H](c2cc(O)c(O)c(O)c2)[C@@H]1O
REMARK SMILES IDX 12 1 22 2 2 3 1 4 3 5 4 6 6 7 7 8 9 9 10 10 11 11 13 12
REMARK SMILES IDX 14 13 15 14 21 15 17 16 19 17 16 18 18 20 20 22 23 24 5 26
REMARK SMILES IDX 8 28
REMARK H PARENT 16 19 18 21 20 23 23 25 5 27 8 29
REMARK Flexibility Score: inf
ROOT
ATOM      1  C   UNL     1       8.726  52.991  21.122  1.00  0.00     0.240 C 
ATOM      2  C   UNL     1       7.435  52.499  21.813  1.00  0.00     0.231 C 
ATOM      3  C   UNL     1       6.241  53.020  21.058  1.00  0.00     0.202 C 
ATOM      4  O   UNL     1       5.274  53.507  21.700  1.00  0.00    -0.291 OA
ATOM      5  C   UNL     1       6.263  53.002  19.572  1.00  0.00     0.105 A 
ATOM      6  C   UNL     1       5.104  53.113  18.759  1.00  0.00     0.133 A 
ATOM      7  C   UNL     1       5.239  53.154  17.366  1.00  0.00     0.093 A 
ATOM      8  C   UNL     1       6.493  53.028  16.764  1.00  0.00     0.123 A 
ATOM      9  C   UNL     1       7.631  52.869  17.559  1.00  0.00     0.093 A 
ATOM     10  C   UNL     1       7.525  52.866  18.951  1.00  0.00     0.138 A 
ATOM     11  O   UNL     1       8.688  52.716  19.718  1.00  0.00    -0.481 OA
ENDROOT
BRANCH   1  12
ATOM     12  C   UNL     1       9.961  52.387  21.752  1.00  0.00     0.003 A 
ATOM     13  C   UNL     1      10.086  52.289  23.147  1.00  0.00     0.058 A 
ATOM     14  C   UNL     1      11.244  51.762  23.732  1.00  0.00     0.161 A 
ATOM     15  C   UNL     1      11.026  51.973  20.942  1.00  0.00     0.058 A 
ATOM     16  C   UNL     1      12.308  51.330  22.904  1.00  0.00     0.200 A 
ATOM     17  C   UNL     1      12.190  51.443  21.512  1.00  0.00     0.161 A 
BRANCH  14  18
ATOM     18  O   UNL     1      11.294  51.690  25.125  1.00  0.00    -0.504 OA
ATOM     19  H   UNL     1      10.490  51.515  25.712  1.00  0.00     0.293 HD
ENDBRANCH  14  18
BRANCH  16  20
ATOM     20  O   UNL     1      13.488  50.789  23.422  1.00  0.00    -0.502 OA
ATOM     21  H   UNL     1      14.275  50.504  22.857  1.00  0.00     0.293 HD
ENDBRANCH  16  20
BRANCH  17  22
ATOM     22  O   UNL     1      13.242  51.025  20.697  1.00  0.00    -0.504 OA
ATOM     23  H   UNL     1      13.127  50.918  19.696  1.00  0.00     0.293 HD
ENDBRANCH  17  22
ENDBRANCH   1  12
BRANCH   2  24
ATOM     24  O   UNL     1       7.385  51.095  21.898  1.00  0.00    -0.381 OA
ATOM     25  H   UNL     1       8.259  50.739  21.588  1.00  0.00     0.211 HD
ENDBRANCH   2  24
BRANCH   6  26
ATOM     26  O   UNL     1       3.807  53.148  19.277  1.00  0.00    -0.507 OA
ATOM     27  H   UNL     1       2.979  52.936  18.742  1.00  0.00     0.293 HD
ENDBRANCH   6  26
BRANCH   8  28
ATOM     28  O   UNL     1       6.594  53.055  15.375  1.00  0.00    -0.508 OA
ATOM     29  H   UNL     1       5.788  52.893  14.782  1.00  0.00     0.293 HD
ENDBRANCH   8  28
TORSDOF 7
ENDMDL
MODEL 6
REMARK VINA RESULT:    -6.006      3.067      5.301
REMARK INTER + INTRA:          -7.680
REMARK INTER:                  -7.580
REMARK INTRA:                  -0.099
REMARK UNBOUND:                -0.270
REMARK SMILES O=C1c2c(O)cc(O)cc2O[C@H](c2cc(O)c(O)c(O)c2)[C@@H]1O
REMARK SMILES IDX 12 1 22 2 2 3 1 4 3 5 4 6 6 7 7 8 9 9 10 10 11 11 13 12
REMARK SMILES IDX 14 13 15 14 21 15 17 16 19 17 16 18 18 20 20 22 23 24 5 26
REMARK SMILES IDX 8 28
REMARK H PARENT 16 19 18 21 20 23 23 25 5 27 8 29
REMARK Flexibility Score: inf
ROOT
ATOM      1  C   UNL     1      10.734  52.633  20.282  1.00  0.00     0.240 C 
ATOM      2  C   UNL     1      11.785  51.593  20.729  1.00  0.00     0.231 C 
ATOM      3  C   UNL     1      11.878  51.598  22.232  1.00  0.00     0.202 C 
ATOM      4  O   UNL     1      13.013  51.582  22.776  1.00  0.00    -0.291 OA
ATOM      5  C   UNL     1      10.630  51.685  23.032  1.00  0.00     0.105 A 
ATOM      6  C   UNL     1      10.541  51.340  24.406  1.00  0.00     0.133 A 
ATOM      7  C   UNL     1       9.331  51.523  25.088  1.00  0.00     0.093 A 
ATOM      8  C   UNL     1       8.196  51.985  24.419  1.00  0.00     0.123 A 
ATOM      9  C   UNL     1       8.265  52.279  23.055  1.00  0.00     0.093 A 
ATOM     10  C   UNL     1       9.471  52.143  22.364  1.00  0.00     0.138 A 
ATOM     11  O   UNL     1       9.509  52.458  20.999  1.00  0.00    -0.481 OA
ENDROOT
BRANCH   1  12
ATOM     12  C   UNL     1      10.494  52.577  18.790  1.00  0.00     0.003 A 
ATOM     13  C   UNL     1      11.521  52.209  17.906  1.00  0.00     0.058 A 
ATOM     14  C   UNL     1      11.309  52.192  16.522  1.00  0.00     0.161 A 
ATOM     15  C   UNL     1       9.250  52.957  18.270  1.00  0.00     0.058 A 
ATOM     16  C   UNL     1      10.043  52.560  16.007  1.00  0.00     0.200 A 
ATOM     17  C   UNL     1       9.023  52.944  16.888  1.00  0.00     0.161 A 
BRANCH  14  18
ATOM     18  O   UNL     1      12.375  51.809  15.706  1.00  0.00    -0.504 OA
ATOM     19  H   UNL     1      12.691  52.336  14.904  1.00  0.00     0.293 HD
ENDBRANCH  14  18
BRANCH  16  20
ATOM     20  O   UNL     1       9.762  52.559  14.637  1.00  0.00    -0.502 OA
ATOM     21  H   UNL     1       9.902  53.354  14.030  1.00  0.00     0.293 HD
ENDBRANCH  16  20
BRANCH  17  22
ATOM     22  O   UNL     1       7.779  53.315  16.379  1.00  0.00    -0.504 OA
ATOM     23  H   UNL     1       6.974  52.703  16.445  1.00  0.00     0.293 HD
ENDBRANCH  17  22
ENDBRANCH   1  12
BRANCH   2  24
ATOM     24  O   UNL     1      11.479  50.301  20.263  1.00  0.00    -0.381 OA
ATOM     25  H   UNL     1      12.300  49.746  20.335  1.00  0.00     0.211 HD
ENDBRANCH   2  24
BRANCH   6  26
ATOM     26  O   UNL     1      11.601  50.783  25.125  1.00  0.00    -0.507 OA
ATOM     27  H   UNL     1      11.503  50.020  25.778  1.00  0.00     0.293 HD
ENDBRANCH   6  26
BRANCH   8  28
ATOM     28  O   UNL     1       7.002  52.140  25.119  1.00  0.00    -0.508 OA
ATOM     29  H   UNL     1       6.590  51.375  25.641  1.00  0.00     0.293 HD
ENDBRANCH   8  28
TORSDOF 7
ENDMDL
MODEL 7
REMARK VINA RESULT:    -5.988      2.975      8.514
REMARK INTER + INTRA:          -7.657
REMARK INTER:                  -7.260
REMARK INTRA:                  -0.397
REMARK UNBOUND:                -0.270
REMARK SMILES O=C1c2c(O)cc(O)cc2O[C@H](c2cc(O)c(O)c(O)c2)[C@@H]1O
REMARK SMILES IDX 12 1 22 2 2 3 1 4 3 5 4 6 6 7 7 8 9 9 10 10 11 11 13 12
REMARK SMILES IDX 14 13 15 14 21 15 17 16 19 17 16 18 18 20 20 22 23 24 5 26
REMARK SMILES IDX 8 28
REMARK H PARENT 16 19 18 21 20 23 23 25 5 27 8 29
REMARK Flexibility Score: inf
ROOT
ATOM      1  C   UNL     1      12.500  51.864  22.863  1.00  0.00     0.240 C 
ATOM      2  C   UNL     1      11.793  50.839  23.777  1.00  0.00     0.231 C 
ATOM      3  C   UNL     1      10.359  51.257  23.971  1.00  0.00     0.202 C 
ATOM      4  O   UNL     1       9.859  51.214  25.125  1.00  0.00    -0.291 OA
ATOM      5  C   UNL     1       9.592  51.768  22.805  1.00  0.00     0.105 A 
ATOM      6  C   UNL     1       8.175  51.847  22.759  1.00  0.00     0.133 A 
ATOM      7  C   UNL     1       7.551  52.409  21.639  1.00  0.00     0.093 A 
ATOM      8  C   UNL     1       8.301  52.838  20.542  1.00  0.00     0.123 A 
ATOM      9  C   UNL     1       9.692  52.716  20.561  1.00  0.00     0.093 A 
ATOM     10  C   UNL     1      10.339  52.197  21.685  1.00  0.00     0.138 A 
ATOM     11  O   UNL     1      11.737  52.100  21.676  1.00  0.00    -0.481 OA
ENDROOT
BRANCH   1  12
ATOM     12  C   UNL     1      13.905  51.425  22.517  1.00  0.00     0.003 A 
ATOM     13  C   UNL     1      14.884  51.282  23.514  1.00  0.00     0.058 A 
ATOM     14  C   UNL     1      16.194  50.911  23.190  1.00  0.00     0.161 A 
ATOM     15  C   UNL     1      14.261  51.216  21.178  1.00  0.00     0.058 A 
ATOM     16  C   UNL     1      16.540  50.684  21.836  1.00  0.00     0.200 A 
ATOM     17  C   UNL     1      15.567  50.843  20.839  1.00  0.00     0.161 A 
BRANCH  14  18
ATOM     18  O   UNL     1      17.111  50.783  24.235  1.00  0.00    -0.504 OA
ATOM     19  H   UNL     1      17.959  51.327  24.314  1.00  0.00     0.293 HD
ENDBRANCH  14  18
BRANCH  16  20
ATOM     20  O   UNL     1      17.827  50.305  21.444  1.00  0.00    -0.502 OA
ATOM     21  H   UNL     1      18.585  50.954  21.287  1.00  0.00     0.293 HD
ENDBRANCH  16  20
BRANCH  17  22
ATOM     22  O   UNL     1      15.910  50.629  19.504  1.00  0.00    -0.504 OA
ATOM     23  H   UNL     1      16.268  49.736  19.185  1.00  0.00     0.293 HD
ENDBRANCH  17  22
ENDBRANCH   1  12
BRANCH   2  24
ATOM     24  O   UNL     1      11.855  49.535  23.252  1.00  0.00    -0.381 OA
ATOM     25  H   UNL     1      11.556  48.905  23.960  1.00  0.00     0.211 HD
ENDBRANCH   2  24
BRANCH   6  26
ATOM     26  O   UNL     1       7.349  51.355  23.772  1.00  0.00    -0.507 OA
ATOM     27  H   UNL     1       6.685  51.917  24.283  1.00  0.00     0.293 HD
ENDBRANCH   6  26
BRANCH   8  28
ATOM     28  O   UNL     1       7.650  53.376  19.433  1.00  0.00    -0.508 OA
ATOM     29  H   UNL     1       8.162  53.840  18.692  1.00  0.00     0.293 HD
ENDBRANCH   8  28
TORSDOF 7
ENDMDL
MODEL 8
REMARK VINA RESULT:    -5.915      2.925      8.246
REMARK INTER + INTRA:          -7.567
REMARK INTER:                  -7.182
REMARK INTRA:                  -0.385
REMARK UNBOUND:                -0.270
REMARK SMILES O=C1c2c(O)cc(O)cc2O[C@H](c2cc(O)c(O)c(O)c2)[C@@H]1O
REMARK SMILES IDX 12 1 22 2 2 3 1 4 3 5 4 6 6 7 7 8 9 9 10 10 11 11 13 12
REMARK SMILES IDX 14 13 15 14 21 15 17 16 19 17 16 18 18 20 20 22 23 24 5 26
REMARK SMILES IDX 8 28
REMARK H PARENT 16 19 18 21 20 23 23 25 5 27 8 29
REMARK Flexibility Score: inf
ROOT
ATOM      1  C   UNL     1      12.406  51.948  22.736  1.00  0.00     0.240 C 
ATOM      2  C   UNL     1      11.822  50.800  23.589  1.00  0.00     0.231 C 
ATOM      3  C   UNL     1      10.396  51.125  23.945  1.00  0.00     0.202 C 
ATOM      4  O   UNL     1      10.000  50.937  25.125  1.00  0.00    -0.291 OA
ATOM      5  C   UNL     1       9.510  51.717  22.910  1.00  0.00     0.105 A 
ATOM      6  C   UNL     1       8.093  51.731  22.990  1.00  0.00     0.133 A 
ATOM      7  C   UNL     1       7.351  52.376  21.993  1.00  0.00     0.093 A 
ATOM      8  C   UNL     1       7.984  52.954  20.890  1.00  0.00     0.123 A 
ATOM      9  C   UNL     1       9.376  52.899  20.781  1.00  0.00     0.093 A 
ATOM     10  C   UNL     1      10.139  52.297  21.784  1.00  0.00     0.138 A 
ATOM     11  O   UNL     1      11.533  52.270  21.650  1.00  0.00    -0.481 OA
ENDROOT
BRANCH   1  12
ATOM     12  C   UNL     1      13.792  51.618  22.230  1.00  0.00     0.003 A 
ATOM     13  C   UNL     1      14.044  51.471  20.857  1.00  0.00     0.058 A 
ATOM     14  C   UNL     1      15.319  51.129  20.390  1.00  0.00     0.161 A 
ATOM     15  C   UNL     1      14.832  51.392  23.142  1.00  0.00     0.058 A 
ATOM     16  C   UNL     1      16.368  50.921  21.318  1.00  0.00     0.200 A 
ATOM     17  C   UNL     1      16.113  51.051  22.691  1.00  0.00     0.161 A 
BRANCH  14  18
ATOM     18  O   UNL     1      15.496  51.007  19.011  1.00  0.00    -0.504 OA
ATOM     19  H   UNL     1      15.000  51.560  18.326  1.00  0.00     0.293 HD
ENDBRANCH  14  18
BRANCH  16  20
ATOM     20  O   UNL     1      17.665  50.585  20.920  1.00  0.00    -0.502 OA
ATOM     21  H   UNL     1      18.165  49.772  21.250  1.00  0.00     0.293 HD
ENDBRANCH  16  20
BRANCH  17  22
ATOM     22  O   UNL     1      17.144  50.837  23.605  1.00  0.00    -0.504 OA
ATOM     23  H   UNL     1      17.358  51.511  24.330  1.00  0.00     0.293 HD
ENDBRANCH  17  22
ENDBRANCH   1  12
BRANCH   2  24
ATOM     24  O   UNL     1      11.890  49.563  22.922  1.00  0.00    -0.381 OA
ATOM     25  H   UNL     1      11.722  48.846  23.589  1.00  0.00     0.211 HD
ENDBRANCH   2  24
BRANCH   6  26
ATOM     26  O   UNL     1       7.378  51.096  24.008  1.00  0.00    -0.507 OA
ATOM     27  H   UNL     1       6.403  51.264  24.204  1.00  0.00     0.293 HD
ENDBRANCH   6  26
BRANCH   8  28
ATOM     28  O   UNL     1       7.218  53.572  19.904  1.00  0.00    -0.508 OA
ATOM     29  H   UNL     1       7.317  53.329  18.925  1.00  0.00     0.293 HD
ENDBRANCH   8  28
TORSDOF 7
ENDMDL
MODEL 9
REMARK VINA RESULT:    -5.876      2.892      8.504
REMARK INTER + INTRA:          -7.520
REMARK INTER:                  -7.126
REMARK INTRA:                  -0.394
REMARK UNBOUND:                -0.270
REMARK SMILES O=C1c2c(O)cc(O)cc2O[C@H](c2cc(O)c(O)c(O)c2)[C@@H]1O
REMARK SMILES IDX 12 1 22 2 2 3 1 4 3 5 4 6 6 7 7 8 9 9 10 10 11 11 13 12
REMARK SMILES IDX 14 13 15 14 21 15 17 16 19 17 16 18 18 20 20 22 23 24 5 26
REMARK SMILES IDX 8 28
REMARK H PARENT 16 19 18 21 20 23 23 25 5 27 8 29
REMARK Flexibility Score: inf
ROOT
ATOM      1  C   UNL     1      12.331  51.422  21.454  1.00  0.00     0.240 C 
ATOM      2  C   UNL     1      12.136  52.410  20.283  1.00  0.00     0.231 C 
ATOM      3  C   UNL     1      10.688  52.407  19.870  1.00  0.00     0.202 C 
ATOM      4  O   UNL     1      10.399  52.369  18.645  1.00  0.00    -0.291 OA
ATOM      5  C   UNL     1       9.638  52.387  20.921  1.00  0.00     0.105 A 
ATOM      6  C   UNL     1       8.282  52.743  20.696  1.00  0.00     0.133 A 
ATOM      7  C   UNL     1       7.355  52.624  21.739  1.00  0.00     0.093 A 
ATOM      8  C   UNL     1       7.758  52.216  23.012  1.00  0.00     0.123 A 
ATOM      9  C   UNL     1       9.100  51.913  23.251  1.00  0.00     0.093 A 
ATOM     10  C   UNL     1      10.035  51.985  22.216  1.00  0.00     0.138 A 
ATOM     11  O   UNL     1      11.372  51.662  22.487  1.00  0.00    -0.481 OA
ENDROOT
BRANCH   1  12
ATOM     12  C   UNL     1      13.738  51.483  22.005  1.00  0.00     0.003 A 
ATOM     13  C   UNL     1      14.827  51.000  21.262  1.00  0.00     0.058 A 
ATOM     14  C   UNL     1      16.125  51.023  21.787  1.00  0.00     0.161 A 
ATOM     15  C   UNL     1      13.959  51.969  23.300  1.00  0.00     0.058 A 
ATOM     16  C   UNL     1      16.341  51.533  23.089  1.00  0.00     0.200 A 
ATOM     17  C   UNL     1      15.251  52.000  23.838  1.00  0.00     0.161 A 
BRANCH  14  18
ATOM     18  O   UNL     1      17.158  50.532  20.987  1.00  0.00    -0.504 OA
ATOM     19  H   UNL     1      18.018  50.143  21.349  1.00  0.00     0.293 HD
ENDBRANCH  14  18
BRANCH  16  20
ATOM     20  O   UNL     1      17.611  51.592  23.671  1.00  0.00    -0.502 OA
ATOM     21  H   UNL     1      17.962  50.914  24.332  1.00  0.00     0.293 HD
ENDBRANCH  16  20
BRANCH  17  22
ATOM     22  O   UNL     1      15.463  52.494  25.125  1.00  0.00    -0.504 OA
ATOM     23  H   UNL     1      16.190  52.120  25.724  1.00  0.00     0.293 HD
ENDBRANCH  17  22
ENDBRANCH   1  12
BRANCH   2  24
ATOM     24  O   UNL     1      12.545  53.714  20.619  1.00  0.00    -0.381 OA
ATOM     25  H   UNL     1      12.153  54.339  19.955  1.00  0.00     0.211 HD
ENDBRANCH   2  24
BRANCH   6  26
ATOM     26  O   UNL     1       7.815  53.249  19.481  1.00  0.00    -0.507 OA
ATOM     27  H   UNL     1       6.885  53.093  19.123  1.00  0.00     0.293 HD
ENDBRANCH   6  26
BRANCH   8  28
ATOM     28  O   UNL     1       6.816  52.125  24.035  1.00  0.00    -0.508 OA
ATOM     29  H   UNL     1       6.279  51.279  24.186  1.00  0.00     0.293 HD
ENDBRANCH   8  28
TORSDOF 7
ENDMDL
