MODEL 1
REMARK VINA RESULT:    -3.422      0.000      0.000
REMARK INTER + INTRA:          -5.521
REMARK INTER:                  -5.222
REMARK INTRA:                  -0.299
REMARK UNBOUND:                -0.299
REMARK SMILES CC1=CCC[C@@H](C)C(=O)C[C@H](C(C)C)C(=O)C1
REMARK SMILES IDX 8 1 9 2 6 3 7 4 5 5 4 6 3 7 2 8 1 9 10 11 11 12 15 13 16 14
REMARK SMILES IDX 17 15 12 17 13 18 14 19
REMARK H PARENT
REMARK Flexibility Score: 70.00
ROOT
ATOM      1  C   UNL     1     100.800 134.749 124.846  1.00  0.00     0.136 C 
ATOM      2  O   UNL     1      99.625 135.030 125.020  1.00  0.00    -0.299 OA
ENDROOT
BRANCH   1   3
ATOM      3  C   UNL     1     101.714 135.817 124.254  1.00  0.00     0.053 C 
ATOM      4  C   UNL     1     101.485 137.216 124.848  1.00  0.00     0.016 C 
BRANCH   3   5
ATOM      5  C   UNL     1     101.717 135.820 122.709  1.00  0.00     0.015 C 
BRANCH   5   6
ATOM      6  C   UNL     1     103.014 135.275 122.075  1.00  0.00     0.028 C 
BRANCH   6   7
ATOM      7  C   UNL     1     104.129 135.128 123.074  1.00  0.00    -0.028 C 
ATOM      8  C   UNL     1     104.684 133.948 123.435  1.00  0.00    -0.070 CG0
ATOM      9  C   UNL     1     105.852 133.984 124.389  1.00  0.00     0.039 C 
ATOM     10  G   UNL     1     104.170 132.600 122.945  1.00  0.00     0.000 G0
ENDBRANCH   6   7
ENDBRANCH   5   6
ENDBRANCH   3   5
ENDBRANCH   1   3
BRANCH   1  11
ATOM     11  C   UNL     1     101.255 133.331 125.123  1.00  0.00     0.087 C 
BRANCH  11  12
ATOM     12  C   UNL     1     101.660 132.463 123.896  1.00  0.00     0.066 C 
BRANCH  12  13
ATOM     13  C   UNL     1     103.118 131.990 123.869  1.00  0.00     0.140 C 
ATOM     14  O   UNL     1     103.466 131.143 124.680  1.00  0.00    -0.299 OA
BRANCH  13  15
ATOM     15  C   UNL     1     104.174 132.577 122.959  1.00  0.00     0.106 CG0
ATOM     16  G   UNL     1     104.677 133.939 123.420  1.00  0.00     0.000 G0
ENDBRANCH  13  15
ENDBRANCH  12  13
BRANCH  12  17
ATOM     17  C   UNL     1     100.587 131.392 123.477  1.00  0.00    -0.006 C 
ATOM     18  C   UNL     1      99.690 131.775 122.288  1.00  0.00     0.008 C 
ATOM     19  C   UNL     1      99.689 131.016 124.668  1.00  0.00     0.008 C 
ENDBRANCH  12  17
ENDBRANCH  11  12
ENDBRANCH   1  11
TORSDOF 1
ENDMDL
MODEL 2
REMARK VINA RESULT:    -3.155      2.104      4.088
REMARK INTER + INTRA:          -5.114
REMARK INTER:                  -5.112
REMARK INTRA:                  -0.002
REMARK UNBOUND:                -0.299
REMARK SMILES CC1=CCC[C@@H](C)C(=O)C[C@H](C(C)C)C(=O)C1
REMARK SMILES IDX 8 1 9 2 6 3 7 4 5 5 4 6 3 7 2 8 1 9 10 11 11 12 15 13 16 14
REMARK SMILES IDX 17 15 12 17 13 18 14 19
REMARK H PARENT
REMARK Flexibility Score: 70.00
ROOT
ATOM      1  C   UNL     1     103.571 134.509 123.596  1.00  0.00     0.136 C 
ATOM      2  O   UNL     1     103.200 135.292 122.736  1.00  0.00    -0.299 OA
ENDROOT
BRANCH   1   3
ATOM      3  C   UNL     1     104.585 133.439 123.204  1.00  0.00     0.053 C 
ATOM      4  C   UNL     1     105.964 134.010 122.835  1.00  0.00     0.016 C 
BRANCH   3   5
ATOM      5  C   UNL     1     104.045 132.455 122.144  1.00  0.00     0.015 C 
BRANCH   5   6
ATOM      6  C   UNL     1     103.446 131.158 122.728  1.00  0.00     0.028 C 
BRANCH   6   7
ATOM      7  C   UNL     1     103.739 130.993 124.194  1.00  0.00    -0.028 C 
ATOM      8  C   UNL     1     102.822 131.134 125.180  1.00  0.00    -0.070 CG0
ATOM      9  C   UNL     1     103.264 130.852 126.594  1.00  0.00     0.039 C 
ATOM     10  G   UNL     1     101.389 131.584 124.927  1.00  0.00     0.000 G0
ENDBRANCH   6   7
ENDBRANCH   5   6
ENDBRANCH   3   5
ENDBRANCH   1   3
BRANCH   1  11
ATOM     11  C   UNL     1     102.923 134.575 124.964  1.00  0.00     0.087 C 
BRANCH  11  12
ATOM     12  C   UNL     1     101.399 134.268 125.043  1.00  0.00     0.066 C 
BRANCH  12  13
ATOM     13  C   UNL     1     101.028 132.891 125.603  1.00  0.00     0.140 C 
ATOM     14  O   UNL     1     100.481 132.838 126.696  1.00  0.00    -0.299 OA
BRANCH  13  15
ATOM     15  C   UNL     1     101.382 131.586 124.923  1.00  0.00     0.106 CG0
ATOM     16  G   UNL     1     102.816 131.142 125.181  1.00  0.00     0.000 G0
ENDBRANCH  13  15
ENDBRANCH  12  13
BRANCH  12  17
ATOM     17  C   UNL     1     100.521 135.471 125.551  1.00  0.00    -0.006 C 
ATOM     18  C   UNL     1      99.077 135.513 125.023  1.00  0.00     0.008 C 
ATOM     19  C   UNL     1     101.198 136.817 125.239  1.00  0.00     0.008 C 
ENDBRANCH  12  17
ENDBRANCH  11  12
ENDBRANCH   1  11
TORSDOF 1
ENDMDL
MODEL 3
REMARK VINA RESULT:    -3.152      1.860      4.200
REMARK INTER + INTRA:          -5.109
REMARK INTER:                  -4.963
REMARK INTRA:                  -0.146
REMARK UNBOUND:                -0.299
REMARK SMILES CC1=CCC[C@@H](C)C(=O)C[C@H](C(C)C)C(=O)C1
REMARK SMILES IDX 8 1 9 2 6 3 7 4 5 5 4 6 3 7 2 8 1 9 10 11 11 12 15 13 16 14
REMARK SMILES IDX 17 15 12 17 13 18 14 19
REMARK H PARENT
REMARK Flexibility Score: 70.00
ROOT
ATOM      1  C   UNL     1     101.955 135.870 123.169  1.00  0.00     0.136 C 
ATOM      2  O   UNL     1     102.216 136.871 122.521  1.00  0.00    -0.299 OA
ENDROOT
BRANCH   1   3
ATOM      3  C   UNL     1     101.394 136.051 124.576  1.00  0.00     0.053 C 
ATOM      4  C   UNL     1     102.390 135.680 125.685  1.00  0.00     0.016 C 
BRANCH   3   5
ATOM      5  C   UNL     1     100.015 135.381 124.765  1.00  0.00     0.015 C 
BRANCH   5   6
ATOM      6  C   UNL     1     100.059 134.042 125.531  1.00  0.00     0.028 C 
BRANCH   6   7
ATOM      7  C   UNL     1      99.584 132.883 124.698  1.00  0.00    -0.028 C 
ATOM      8  C   UNL     1     100.345 131.813 124.371  1.00  0.00    -0.070 CG0
ATOM      9  C   UNL     1      99.689 130.697 123.597  1.00  0.00     0.039 C 
ATOM     10  G   UNL     1     101.823 131.700 124.724  1.00  0.00     0.000 G0
ENDBRANCH   6   7
ENDBRANCH   5   6
ENDBRANCH   3   5
ENDBRANCH   1   3
BRANCH   1  11
ATOM     11  C   UNL     1     102.305 134.517 122.585  1.00  0.00     0.087 C 
BRANCH  11  12
ATOM     12  C   UNL     1     103.225 133.593 123.436  1.00  0.00     0.066 C 
BRANCH  12  13
ATOM     13  C   UNL     1     102.745 132.146 123.597  1.00  0.00     0.140 C 
ATOM     14  O   UNL     1     103.054 131.335 122.736  1.00  0.00    -0.299 OA
BRANCH  13  15
ATOM     15  C   UNL     1     101.834 131.683 124.713  1.00  0.00     0.106 CG0
ATOM     16  G   UNL     1     100.354 131.819 124.379  1.00  0.00     0.000 G0
ENDBRANCH  13  15
ENDBRANCH  12  13
BRANCH  12  17
ATOM     17  C   UNL     1     104.762 133.776 123.160  1.00  0.00    -0.006 C 
ATOM     18  C   UNL     1     105.589 134.333 124.331  1.00  0.00     0.008 C 
ATOM     19  C   UNL     1     104.999 134.663 121.926  1.00  0.00     0.008 C 
ENDBRANCH  12  17
ENDBRANCH  11  12
ENDBRANCH   1  11
TORSDOF 1
ENDMDL
MODEL 4
REMARK VINA RESULT:    -3.136     14.066     16.378
REMARK INTER + INTRA:          -5.086
REMARK INTER:                  -4.886
REMARK INTRA:                  -0.200
REMARK UNBOUND:                -0.299
REMARK SMILES CC1=CCC[C@@H](C)C(=O)C[C@H](C(C)C)C(=O)C1
REMARK SMILES IDX 8 1 9 2 6 3 7 4 5 5 4 6 3 7 2 8 1 9 10 11 11 12 15 13 16 14
REMARK SMILES IDX 17 15 12 17 13 18 14 19
REMARK H PARENT
REMARK Flexibility Score: 70.00
ROOT
ATOM      1  C   UNL     1      98.168 141.131 135.836  1.00  0.00     0.136 C 
ATOM      2  O   UNL     1      99.335 140.799 135.692  1.00  0.00    -0.299 OA
ENDROOT
BRANCH   1   3
ATOM      3  C   UNL     1      97.452 141.772 134.652  1.00  0.00     0.053 C 
ATOM      4  C   UNL     1      98.137 141.500 133.303  1.00  0.00     0.016 C 
BRANCH   3   5
ATOM      5  C   UNL     1      97.144 143.269 134.872  1.00  0.00     0.015 C 
BRANCH   5   6
ATOM      6  C   UNL     1      95.648 143.632 134.771  1.00  0.00     0.028 C 
BRANCH   6   7
ATOM      7  C   UNL     1      95.006 143.823 136.118  1.00  0.00    -0.028 C 
ATOM      8  C   UNL     1      94.513 142.820 136.881  1.00  0.00    -0.070 CG0
ATOM      9  C   UNL     1      93.978 143.176 138.246  1.00  0.00     0.039 C 
ATOM     10  G   UNL     1      94.453 141.370 136.416  1.00  0.00     0.000 G0
ENDBRANCH   6   7
ENDBRANCH   5   6
ENDBRANCH   3   5
ENDBRANCH   1   3
BRANCH   1  11
ATOM     11  C   UNL     1      97.538 140.988 137.206  1.00  0.00     0.087 C 
BRANCH  11  12
ATOM     12  C   UNL     1      96.466 139.873 137.382  1.00  0.00     0.066 C 
BRANCH  12  13
ATOM     13  C   UNL     1      95.010 140.351 137.405  1.00  0.00     0.140 C 
ATOM     14  O   UNL     1      94.249 139.847 138.219  1.00  0.00    -0.299 OA
BRANCH  13  15
ATOM     15  C   UNL     1      94.437 141.345 136.419  1.00  0.00     0.106 CG0
ATOM     16  G   UNL     1      94.512 142.787 136.904  1.00  0.00     0.000 G0
ENDBRANCH  13  15
ENDBRANCH  12  13
BRANCH  12  17
ATOM     17  C   UNL     1      96.744 138.569 136.547  1.00  0.00    -0.006 C 
ATOM     18  C   UNL     1      95.556 138.034 135.730  1.00  0.00     0.008 C 
ATOM     19  C   UNL     1      97.269 137.439 137.450  1.00  0.00     0.008 C 
ENDBRANCH  12  17
ENDBRANCH  11  12
ENDBRANCH   1  11
TORSDOF 1
ENDMDL
MODEL 5
REMARK VINA RESULT:    -3.118      1.867      3.939
REMARK INTER + INTRA:          -5.057
REMARK INTER:                  -5.063
REMARK INTRA:                   0.006
REMARK UNBOUND:                -0.299
REMARK SMILES CC1=CCC[C@@H](C)C(=O)C[C@H](C(C)C)C(=O)C1
REMARK SMILES IDX 8 1 9 2 6 3 7 4 5 5 4 6 3 7 2 8 1 9 10 11 11 12 15 13 16 14
REMARK SMILES IDX 17 15 12 17 13 18 14 19
REMARK H PARENT
REMARK Flexibility Score: 70.00
ROOT
ATOM      1  C   UNL     1     100.816 132.728 125.991  1.00  0.00     0.136 C 
ATOM      2  O   UNL     1     100.662 133.371 127.017  1.00  0.00    -0.299 OA
ENDROOT
BRANCH   1   3
ATOM      3  C   UNL     1     101.146 131.244 126.115  1.00  0.00     0.053 C 
ATOM      4  C   UNL     1     101.526 130.819 127.543  1.00  0.00     0.016 C 
BRANCH   3   5
ATOM      5  C   UNL     1     102.165 130.762 125.060  1.00  0.00     0.015 C 
BRANCH   5   6
ATOM      6  C   UNL     1     103.597 131.299 125.267  1.00  0.00     0.028 C 
BRANCH   6   7
ATOM      7  C   UNL     1     104.301 131.585 123.968  1.00  0.00    -0.028 C 
ATOM      8  C   UNL     1     104.595 132.825 123.513  1.00  0.00    -0.070 CG0
ATOM      9  C   UNL     1     105.381 132.932 122.230  1.00  0.00     0.039 C 
ATOM     10  G   UNL     1     104.151 134.100 124.219  1.00  0.00     0.000 G0
ENDBRANCH   6   7
ENDBRANCH   5   6
ENDBRANCH   3   5
ENDBRANCH   1   3
BRANCH   1  11
ATOM     11  C   UNL     1     100.777 133.459 124.665  1.00  0.00     0.087 C 
BRANCH  11  12
ATOM     12  C   UNL     1     101.601 134.776 124.556  1.00  0.00     0.066 C 
BRANCH  12  13
ATOM     13  C   UNL     1     102.879 134.691 123.715  1.00  0.00     0.140 C 
ATOM     14  O   UNL     1     102.828 135.052 122.547  1.00  0.00    -0.299 OA
BRANCH  13  15
ATOM     15  C   UNL     1     104.178 134.101 124.219  1.00  0.00     0.106 CG0
ATOM     16  G   UNL     1     104.588 132.830 123.485  1.00  0.00     0.000 G0
ENDBRANCH  13  15
ENDBRANCH  12  13
BRANCH  12  17
ATOM     17  C   UNL     1     100.731 136.070 124.349  1.00  0.00    -0.006 C 
ATOM     18  C   UNL     1     101.342 137.377 124.880  1.00  0.00     0.008 C 
ATOM     19  C   UNL     1      99.331 135.897 124.964  1.00  0.00     0.008 C 
ENDBRANCH  12  17
ENDBRANCH  11  12
ENDBRANCH   1  11
TORSDOF 1
ENDMDL
MODEL 6
REMARK VINA RESULT:    -3.053      2.135      4.250
REMARK INTER + INTRA:          -4.959
REMARK INTER:                  -5.121
REMARK INTRA:                   0.162
REMARK UNBOUND:                -0.299
REMARK SMILES CC1=CCC[C@@H](C)C(=O)C[C@H](C(C)C)C(=O)C1
REMARK SMILES IDX 8 1 9 2 6 3 7 4 5 5 4 6 3 7 2 8 1 9 10 11 11 12 15 13 16 14
REMARK SMILES IDX 17 15 12 17 13 18 14 19
REMARK H PARENT
REMARK Flexibility Score: 70.00
ROOT
ATOM      1  C   UNL     1     102.793 131.173 126.185  1.00  0.00     0.136 C 
ATOM      2  O   UNL     1     103.130 130.182 126.814  1.00  0.00    -0.299 OA
ENDROOT
BRANCH   1   3
ATOM      3  C   UNL     1     101.395 131.734 126.422  1.00  0.00     0.053 C 
ATOM      4  C   UNL     1     100.806 131.351 127.789  1.00  0.00     0.016 C 
BRANCH   3   5
ATOM      5  C   UNL     1     100.425 131.449 125.255  1.00  0.00     0.015 C 
BRANCH   5   6
ATOM      6  C   UNL     1      99.870 132.714 124.566  1.00  0.00     0.028 C 
BRANCH   6   7
ATOM      7  C   UNL     1     100.281 133.981 125.266  1.00  0.00    -0.028 C 
ATOM      8  C   UNL     1     101.169 134.875 124.773  1.00  0.00    -0.070 CG0
ATOM      9  C   UNL     1     101.406 136.137 125.564  1.00  0.00     0.039 C 
ATOM     10  G   UNL     1     101.949 134.652 123.483  1.00  0.00     0.000 G0
ENDBRANCH   6   7
ENDBRANCH   5   6
ENDBRANCH   3   5
ENDBRANCH   1   3
BRANCH   1  11
ATOM     11  C   UNL     1     103.736 131.717 125.132  1.00  0.00     0.087 C 
BRANCH  11  12
ATOM     12  C   UNL     1     103.099 132.256 123.818  1.00  0.00     0.066 C 
BRANCH  12  13
ATOM     13  C   UNL     1     103.169 133.775 123.621  1.00  0.00     0.140 C 
ATOM     14  O   UNL     1     104.267 134.313 123.661  1.00  0.00    -0.299 OA
BRANCH  13  15
ATOM     15  C   UNL     1     101.951 134.659 123.470  1.00  0.00     0.106 CG0
ATOM     16  G   UNL     1     101.194 134.870 124.775  1.00  0.00     0.000 G0
ENDBRANCH  13  15
ENDBRANCH  12  13
BRANCH  12  17
ATOM     17  C   UNL     1     103.405 131.387 122.544  1.00  0.00    -0.006 C 
ATOM     18  C   UNL     1     102.420 130.239 122.265  1.00  0.00     0.008 C 
ATOM     19  C   UNL     1     104.829 130.808 122.601  1.00  0.00     0.008 C 
ENDBRANCH  12  17
ENDBRANCH  11  12
ENDBRANCH   1  11
TORSDOF 1
ENDMDL
MODEL 7
REMARK VINA RESULT:    -3.033     13.874     16.293
REMARK INTER + INTRA:          -4.928
REMARK INTER:                  -4.632
REMARK INTRA:                  -0.296
REMARK UNBOUND:                -0.299
REMARK SMILES CC1=CCC[C@@H](C)C(=O)C[C@H](C(C)C)C(=O)C1
REMARK SMILES IDX 8 1 9 2 6 3 7 4 5 5 4 6 3 7 2 8 1 9 10 11 11 12 15 13 16 14
REMARK SMILES IDX 17 15 12 17 13 18 14 19
REMARK H PARENT
REMARK Flexibility Score: 70.00
ROOT
ATOM      1  C   UNL     1      97.245 143.514 136.425  1.00  0.00     0.136 C 
ATOM      2  O   UNL     1      97.921 144.508 136.637  1.00  0.00    -0.299 OA
ENDROOT
BRANCH   1   3
ATOM      3  C   UNL     1      96.047 143.646 135.490  1.00  0.00     0.053 C 
ATOM      4  C   UNL     1      96.218 144.743 134.427  1.00  0.00     0.016 C 
BRANCH   3   5
ATOM      5  C   UNL     1      94.703 143.752 136.244  1.00  0.00     0.015 C 
BRANCH   5   6
ATOM      6  C   UNL     1      93.785 142.522 136.082  1.00  0.00     0.028 C 
BRANCH   6   7
ATOM      7  C   UNL     1      93.939 141.534 137.206  1.00  0.00    -0.028 C 
ATOM      8  C   UNL     1      94.770 140.467 137.178  1.00  0.00    -0.070 CG0
ATOM      9  C   UNL     1      94.866 139.620 138.423  1.00  0.00     0.039 C 
ATOM     10  G   UNL     1      95.584 140.074 135.952  1.00  0.00     0.000 G0
ENDBRANCH   6   7
ENDBRANCH   5   6
ENDBRANCH   3   5
ENDBRANCH   1   3
BRANCH   1  11
ATOM     11  C   UNL     1      97.568 142.243 137.183  1.00  0.00     0.087 C 
BRANCH  11  12
ATOM     12  C   UNL     1      98.057 141.023 136.347  1.00  0.00     0.066 C 
BRANCH  12  13
ATOM     13  C   UNL     1      97.062 139.865 136.220  1.00  0.00     0.140 C 
ATOM     14  O   UNL     1      97.494 138.722 136.269  1.00  0.00    -0.299 OA
BRANCH  13  15
ATOM     15  C   UNL     1      95.585 140.053 135.945  1.00  0.00     0.106 CG0
ATOM     16  G   UNL     1      94.791 140.464 137.179  1.00  0.00     0.000 G0
ENDBRANCH  13  15
ENDBRANCH  12  13
BRANCH  12  17
ATOM     17  C   UNL     1      98.831 141.406 135.033  1.00  0.00    -0.006 C 
ATOM     18  C   UNL     1      98.125 141.050 133.714  1.00  0.00     0.008 C 
ATOM     19  C   UNL     1     100.238 140.783 135.021  1.00  0.00     0.008 C 
ENDBRANCH  12  17
ENDBRANCH  11  12
ENDBRANCH   1  11
TORSDOF 1
ENDMDL
MODEL 8
REMARK VINA RESULT:    -2.750     14.451     16.902
REMARK INTER + INTRA:          -4.496
REMARK INTER:                  -4.241
REMARK INTRA:                  -0.254
REMARK UNBOUND:                -0.299
REMARK SMILES CC1=CCC[C@@H](C)C(=O)C[C@H](C(C)C)C(=O)C1
REMARK SMILES IDX 8 1 9 2 6 3 7 4 5 5 4 6 3 7 2 8 1 9 10 11 11 12 15 13 16 14
REMARK SMILES IDX 17 15 12 17 13 18 14 19
REMARK H PARENT
REMARK Flexibility Score: 70.00
ROOT
ATOM      1  C   UNL     1      98.273 141.830 136.164  1.00  0.00     0.136 C 
ATOM      2  O   UNL     1      99.238 141.839 136.912  1.00  0.00    -0.299 OA
ENDROOT
BRANCH   1   3
ATOM      3  C   UNL     1      98.286 140.860 134.987  1.00  0.00     0.053 C 
ATOM      4  C   UNL     1      97.990 141.532 133.637  1.00  0.00     0.016 C 
BRANCH   3   5
ATOM      5  C   UNL     1      97.419 139.605 135.230  1.00  0.00     0.015 C 
BRANCH   5   6
ATOM      6  C   UNL     1      97.553 139.004 136.645  1.00  0.00     0.028 C 
BRANCH   6   7
ATOM      7  C   UNL     1      96.221 138.663 137.257  1.00  0.00    -0.028 C 
ATOM      8  C   UNL     1      95.612 139.391 138.221  1.00  0.00    -0.070 CG0
ATOM      9  C   UNL     1      94.238 138.954 138.667  1.00  0.00     0.039 C 
ATOM     10  G   UNL     1      96.256 140.602 138.885  1.00  0.00     0.000 G0
ENDBRANCH   6   7
ENDBRANCH   5   6
ENDBRANCH   3   5
ENDBRANCH   1   3
BRANCH   1  11
ATOM     11  C   UNL     1      97.176 142.852 136.383  1.00  0.00     0.087 C 
BRANCH  11  12
ATOM     12  C   UNL     1      95.803 142.321 136.888  1.00  0.00     0.066 C 
BRANCH  12  13
ATOM     13  C   UNL     1      95.747 141.929 138.369  1.00  0.00     0.140 C 
ATOM     14  O   UNL     1      95.345 142.758 139.173  1.00  0.00    -0.299 OA
BRANCH  13  15
ATOM     15  C   UNL     1      96.248 140.605 138.905  1.00  0.00     0.106 CG0
ATOM     16  G   UNL     1      95.626 139.400 138.212  1.00  0.00     0.000 G0
ENDBRANCH  13  15
ENDBRANCH  12  13
BRANCH  12  17
ATOM     17  C   UNL     1      94.560 143.119 136.346  1.00  0.00    -0.006 C 
ATOM     18  C   UNL     1      93.340 142.269 135.955  1.00  0.00     0.008 C 
ATOM     19  C   UNL     1      94.951 143.999 135.146  1.00  0.00     0.008 C 
ENDBRANCH  12  17
ENDBRANCH  11  12
ENDBRANCH   1  11
TORSDOF 1
ENDMDL
MODEL 9
REMARK VINA RESULT:    -2.730     14.585     16.939
REMARK INTER + INTRA:          -4.465
REMARK INTER:                  -4.012
REMARK INTRA:                  -0.453
REMARK UNBOUND:                -0.299
REMARK SMILES CC1=CCC[C@@H](C)C(=O)C[C@H](C(C)C)C(=O)C1
REMARK SMILES IDX 8 1 9 2 6 3 7 4 5 5 4 6 3 7 2 8 1 9 10 11 11 12 15 13 16 14
REMARK SMILES IDX 17 15 12 17 13 18 14 19
REMARK H PARENT
REMARK Flexibility Score: 70.00
ROOT
ATOM      1  C   UNL     1      96.373 138.505 137.356  1.00  0.00     0.136 C 
ATOM      2  O   UNL     1      95.595 138.395 138.290  1.00  0.00    -0.299 OA
ENDROOT
BRANCH   1   3
ATOM      3  C   UNL     1      97.840 138.168 137.599  1.00  0.00     0.053 C 
ATOM      4  C   UNL     1      98.136 136.660 137.563  1.00  0.00     0.016 C 
BRANCH   3   5
ATOM      5  C   UNL     1      98.417 138.858 138.854  1.00  0.00     0.015 C 
BRANCH   5   6
ATOM      6  C   UNL     1      98.420 140.400 138.788  1.00  0.00     0.028 C 
BRANCH   6   7
ATOM      7  C   UNL     1      97.378 141.020 139.679  1.00  0.00    -0.028 C 
ATOM      8  C   UNL     1      96.408 141.861 139.253  1.00  0.00    -0.070 CG0
ATOM      9  C   UNL     1      95.391 142.328 140.265  1.00  0.00     0.039 C 
ATOM     10  G   UNL     1      96.316 142.372 137.821  1.00  0.00     0.000 G0
ENDBRANCH   6   7
ENDBRANCH   5   6
ENDBRANCH   3   5
ENDBRANCH   1   3
BRANCH   1  11
ATOM     11  C   UNL     1      95.859 139.070 136.047  1.00  0.00     0.087 C 
BRANCH  11  12
ATOM     12  C   UNL     1      96.026 140.601 135.821  1.00  0.00     0.066 C 
BRANCH  12  13
ATOM     13  C   UNL     1      95.457 141.501 136.923  1.00  0.00     0.140 C 
ATOM     14  O   UNL     1      94.242 141.582 137.034  1.00  0.00    -0.299 OA
BRANCH  13  15
ATOM     15  C   UNL     1      96.311 142.366 137.825  1.00  0.00     0.106 CG0
ATOM     16  G   UNL     1      96.391 141.849 139.256  1.00  0.00     0.000 G0
ENDBRANCH  13  15
ENDBRANCH  12  13
BRANCH  12  17
ATOM     17  C   UNL     1      97.431 141.023 135.252  1.00  0.00    -0.006 C 
ATOM     18  C   UNL     1      97.471 142.364 134.500  1.00  0.00     0.008 C 
ATOM     19  C   UNL     1      98.005 139.928 134.336  1.00  0.00     0.008 C 
ENDBRANCH  12  17
ENDBRANCH  11  12
ENDBRANCH   1  11
TORSDOF 1
ENDMDL
