MODEL 1
REMARK VINA RESULT:    -5.639      0.000      0.000
REMARK INTER + INTRA:          -6.139
REMARK INTER:                  -5.969
REMARK INTRA:                  -0.170
REMARK UNBOUND:                -0.170
REMARK SMILES CC1=CC[C@H]2[C@H]3[C@@H]1[C@]2(C)CC[C@H]3C(C)C
REMARK SMILES IDX 1 1 2 2 3 3 4 4 5 5 6 6 7 7 8 8 10 9 11 10 12 11 9 12 13 13
REMARK SMILES IDX 14 14 15 15
REMARK H PARENT
REMARK Flexibility Score: inf
ROOT
ATOM      1  C   UNL     1      31.499  23.368  14.144  1.00  0.00     0.039 C 
ATOM      2  C   UNL     1      30.746  24.057  13.046  1.00  0.00    -0.073 C 
ATOM      3  C   UNL     1      29.498  23.654  12.689  1.00  0.00    -0.027 C 
ATOM      4  C   UNL     1      28.787  24.379  11.542  1.00  0.00     0.031 C 
ATOM      5  C   UNL     1      29.679  25.540  10.995  1.00  0.00     0.003 C 
ATOM      6  C   UNL     1      30.226  26.325  12.218  1.00  0.00     0.004 C 
ATOM      7  C   UNL     1      31.335  25.252  12.291  1.00  0.00     0.024 C 
ATOM      8  C   UNL     1      31.141  25.077  10.766  1.00  0.00    -0.022 C 
ATOM      9  C   UNL     1      31.954  26.179  10.019  1.00  0.00     0.008 C 
ATOM     10  C   UNL     1      31.489  27.614  10.387  1.00  0.00     0.005 C 
ATOM     11  C   UNL     1      30.853  27.691  11.810  1.00  0.00    -0.005 C 
ATOM     12  C   UNL     1      31.398  23.684  10.144  1.00  0.00     0.012 C 
ENDROOT
BRANCH  11  13
ATOM     13  C   UNL     1      29.863  28.879  12.007  1.00  0.00    -0.014 C 
ATOM     14  C   UNL     1      28.385  28.509  11.801  1.00  0.00     0.007 C 
ATOM     15  C   UNL     1      30.241  30.082  11.128  1.00  0.00     0.007 C 
ENDBRANCH  11  13
TORSDOF 1
ENDMDL
MODEL 2
REMARK VINA RESULT:    -5.345      1.253      2.956
REMARK INTER + INTRA:          -5.827
REMARK INTER:                  -5.436
REMARK INTRA:                  -0.392
REMARK UNBOUND:                -0.170
REMARK SMILES CC1=CC[C@H]2[C@H]3[C@@H]1[C@]2(C)CC[C@H]3C(C)C
REMARK SMILES IDX 1 1 2 2 3 3 4 4 5 5 6 6 7 7 8 8 10 9 11 10 12 11 9 12 13 13
REMARK SMILES IDX 14 14 15 15
REMARK H PARENT
REMARK Flexibility Score: inf
ROOT
ATOM      1  C   UNL     1      31.939  21.981  10.682  1.00  0.00     0.039 C 
ATOM      2  C   UNL     1      31.497  22.983  11.707  1.00  0.00    -0.073 C 
ATOM      3  C   UNL     1      32.123  23.082  12.909  1.00  0.00    -0.027 C 
ATOM      4  C   UNL     1      31.611  24.106  13.927  1.00  0.00     0.031 C 
ATOM      5  C   UNL     1      30.414  24.915  13.331  1.00  0.00     0.003 C 
ATOM      6  C   UNL     1      30.812  25.348  11.895  1.00  0.00     0.004 C 
ATOM      7  C   UNL     1      30.338  23.948  11.443  1.00  0.00     0.024 C 
ATOM      8  C   UNL     1      29.377  23.982  12.654  1.00  0.00    -0.022 C 
ATOM      9  C   UNL     1      28.094  24.781  12.265  1.00  0.00     0.008 C 
ATOM     10  C   UNL     1      28.405  26.252  11.874  1.00  0.00     0.005 C 
ATOM     11  C   UNL     1      29.852  26.430  11.318  1.00  0.00    -0.005 C 
ATOM     12  C   UNL     1      29.007  22.647  13.341  1.00  0.00     0.012 C 
ENDROOT
BRANCH  11  13
ATOM     13  C   UNL     1      30.424  27.872  11.471  1.00  0.00    -0.014 C 
ATOM     14  C   UNL     1      31.886  27.923  11.945  1.00  0.00     0.007 C 
ATOM     15  C   UNL     1      29.538  28.740  12.378  1.00  0.00     0.007 C 
ENDBRANCH  11  13
TORSDOF 1
ENDMDL
MODEL 3
REMARK VINA RESULT:    -5.213      1.824      5.420
REMARK INTER + INTRA:          -5.688
REMARK INTER:                  -5.454
REMARK INTRA:                  -0.234
REMARK UNBOUND:                -0.170
REMARK SMILES CC1=CC[C@H]2[C@H]3[C@@H]1[C@]2(C)CC[C@H]3C(C)C
REMARK SMILES IDX 1 1 2 2 3 3 4 4 5 5 6 6 7 7 8 8 10 9 11 10 12 11 9 12 13 13
REMARK SMILES IDX 14 14 15 15
REMARK H PARENT
REMARK Flexibility Score: inf
ROOT
ATOM      1  C   UNL     1      32.116  27.205  12.743  1.00  0.00     0.039 C 
ATOM      2  C   UNL     1      31.670  25.900  12.154  1.00  0.00    -0.073 C 
ATOM      3  C   UNL     1      31.887  25.608  10.845  1.00  0.00    -0.027 C 
ATOM      4  C   UNL     1      31.386  24.269  10.294  1.00  0.00     0.031 C 
ATOM      5  C   UNL     1      30.711  23.431  11.426  1.00  0.00     0.003 C 
ATOM      6  C   UNL     1      31.644  23.484  12.665  1.00  0.00     0.004 C 
ATOM      7  C   UNL     1      30.968  24.832  12.999  1.00  0.00     0.024 C 
ATOM      8  C   UNL     1      29.724  24.289  12.259  1.00  0.00    -0.022 C 
ATOM      9  C   UNL     1      28.903  23.388  13.233  1.00  0.00     0.008 C 
ATOM     10  C   UNL     1      29.715  22.166  13.740  1.00  0.00     0.005 C 
ATOM     11  C   UNL     1      31.254  22.429  13.743  1.00  0.00    -0.005 C 
ATOM     12  C   UNL     1      28.802  25.294  11.528  1.00  0.00     0.012 C 
ENDROOT
BRANCH  11  13
ATOM     13  C   UNL     1      32.125  21.139  13.652  1.00  0.00    -0.014 C 
ATOM     14  C   UNL     1      31.754  20.208  12.485  1.00  0.00     0.007 C 
ATOM     15  C   UNL     1      32.125  20.361  14.977  1.00  0.00     0.007 C 
ENDBRANCH  11  13
TORSDOF 1
ENDMDL
MODEL 4
REMARK VINA RESULT:    -5.087      1.194      2.544
REMARK INTER + INTRA:          -5.554
REMARK INTER:                  -5.370
REMARK INTRA:                  -0.184
REMARK UNBOUND:                -0.170
REMARK SMILES CC1=CC[C@H]2[C@H]3[C@@H]1[C@]2(C)CC[C@H]3C(C)C
REMARK SMILES IDX 1 1 2 2 3 3 4 4 5 5 6 6 7 7 8 8 10 9 11 10 12 11 9 12 13 13
REMARK SMILES IDX 14 14 15 15
REMARK H PARENT
REMARK Flexibility Score: inf
ROOT
ATOM      1  C   UNL     1      27.742  24.364  12.429  1.00  0.00     0.039 C 
ATOM      2  C   UNL     1      29.074  24.715  11.836  1.00  0.00    -0.073 C 
ATOM      3  C   UNL     1      29.635  23.951  10.862  1.00  0.00    -0.027 C 
ATOM      4  C   UNL     1      31.010  24.346  10.314  1.00  0.00     0.031 C 
ATOM      5  C   UNL     1      31.515  25.656  10.999  1.00  0.00     0.003 C 
ATOM      6  C   UNL     1      30.337  26.667  11.001  1.00  0.00     0.004 C 
ATOM      7  C   UNL     1      29.853  25.955  12.285  1.00  0.00     0.024 C 
ATOM      8  C   UNL     1      31.337  25.599  12.538  1.00  0.00    -0.022 C 
ATOM      9  C   UNL     1      32.044  26.813  13.217  1.00  0.00     0.008 C 
ATOM     10  C   UNL     1      32.015  28.089  12.333  1.00  0.00     0.005 C 
ATOM     11  C   UNL     1      30.800  28.111  11.354  1.00  0.00    -0.005 C 
ATOM     12  C   UNL     1      31.663  24.283  13.284  1.00  0.00     0.012 C 
ENDROOT
BRANCH  11  13
ATOM     13  C   UNL     1      31.015  28.990  10.084  1.00  0.00    -0.014 C 
ATOM     14  C   UNL     1      32.124  28.483   9.146  1.00  0.00     0.007 C 
ATOM     15  C   UNL     1      31.257  30.463  10.450  1.00  0.00     0.007 C 
ENDBRANCH  11  13
TORSDOF 1
ENDMDL
