MODEL 1
REMARK VINA RESULT:    -4.390      0.000      0.000
REMARK INTER + INTRA:          -6.090
REMARK INTER:                  -5.673
REMARK INTRA:                  -0.416
REMARK UNBOUND:                -0.416
REMARK SMILES C=CC(=O)CCCCC
REMARK SMILES IDX 6 1 7 2 8 3 9 4 5 5 3 6 4 7 2 8 1 9
REMARK H PARENT
REMARK Flexibility Score: inf
ROOT
ATOM      1  C   UNL     1      27.857   8.717  19.493  1.00  0.00     0.008 C 
ENDROOT
BRANCH   1   2
ATOM      2  C   UNL     1      28.524   9.457  20.664  1.00  0.00     0.000 C 
BRANCH   2   3
ATOM      3  C   UNL     1      27.516   9.892  21.738  1.00  0.00    -0.003 C 
ATOM      4  C   UNL     1      27.065   8.703  22.582  1.00  0.00     0.004 C 
ENDBRANCH   2   3
ENDBRANCH   1   2
BRANCH   1   5
ATOM      5  C   UNL     1      28.237   7.230  19.441  1.00  0.00     0.080 C 
BRANCH   5   6
ATOM      6  C   UNL     1      27.034   6.385  19.116  1.00  0.00     0.155 C 
ATOM      7  O   UNL     1      27.098   5.599  18.133  1.00  0.00    -0.295 OA
BRANCH   6   8
ATOM      8  C   UNL     1      25.789   6.408  19.913  1.00  0.00     0.039 C 
ATOM      9  C   UNL     1      24.613   6.827  19.447  1.00  0.00     0.012 C 
ENDBRANCH   6   8
ENDBRANCH   5   6
ENDBRANCH   1   5
TORSDOF 5
ENDMDL
MODEL 2
REMARK VINA RESULT:    -3.257     12.204     13.654
REMARK INTER + INTRA:          -4.626
REMARK INTER:                  -4.035
REMARK INTRA:                  -0.591
REMARK UNBOUND:                -0.416
REMARK SMILES C=CC(=O)CCCCC
REMARK SMILES IDX 6 1 7 2 8 3 9 4 5 5 3 6 4 7 2 8 1 9
REMARK H PARENT
REMARK Flexibility Score: inf
ROOT
ATOM      1  C   UNL     1      16.229   9.903  25.969  1.00  0.00     0.008 C 
ENDROOT
BRANCH   1   2
ATOM      2  C   UNL     1      16.767   8.810  25.032  1.00  0.00     0.000 C 
BRANCH   2   3
ATOM      3  C   UNL     1      17.478   7.679  25.792  1.00  0.00    -0.003 C 
ATOM      4  C   UNL     1      16.510   6.549  26.126  1.00  0.00     0.004 C 
ENDBRANCH   2   3
ENDBRANCH   1   2
BRANCH   1   5
ATOM      5  C   UNL     1      14.750  10.227  25.710  1.00  0.00     0.080 C 
BRANCH   5   6
ATOM      6  C   UNL     1      13.862   9.169  26.309  1.00  0.00     0.155 C 
ATOM      7  O   UNL     1      13.867   9.016  27.560  1.00  0.00    -0.295 OA
BRANCH   6   8
ATOM      8  C   UNL     1      12.958   8.319  25.504  1.00  0.00     0.039 C 
ATOM      9  C   UNL     1      13.323   7.694  24.386  1.00  0.00     0.012 C 
ENDBRANCH   6   8
ENDBRANCH   5   6
ENDBRANCH   1   5
TORSDOF 5
ENDMDL
MODEL 3
REMARK VINA RESULT:    -3.236     11.695     13.327
REMARK INTER + INTRA:          -4.599
REMARK INTER:                  -4.017
REMARK INTRA:                  -0.582
REMARK UNBOUND:                -0.416
REMARK SMILES C=CC(=O)CCCCC
REMARK SMILES IDX 6 1 7 2 8 3 9 4 5 5 3 6 4 7 2 8 1 9
REMARK H PARENT
REMARK Flexibility Score: inf
ROOT
ATOM      1  C   UNL     1      14.724  10.316  25.939  1.00  0.00     0.008 C 
ENDROOT
BRANCH   1   2
ATOM      2  C   UNL     1      13.952   9.146  26.570  1.00  0.00     0.000 C 
BRANCH   2   3
ATOM      3  C   UNL     1      12.861   8.591  25.643  1.00  0.00    -0.003 C 
ATOM      4  C   UNL     1      13.458   7.678  24.576  1.00  0.00     0.004 C 
ENDBRANCH   2   3
ENDBRANCH   1   2
BRANCH   1   5
ATOM      5  C   UNL     1      16.242  10.198  26.138  1.00  0.00     0.080 C 
BRANCH   5   6
ATOM      6  C   UNL     1      16.816   9.138  25.234  1.00  0.00     0.155 C 
ATOM      7  O   UNL     1      16.790   9.331  23.989  1.00  0.00    -0.295 OA
BRANCH   6   8
ATOM      8  C   UNL     1      17.437   7.894  25.737  1.00  0.00     0.039 C 
ATOM      9  C   UNL     1      16.754   6.794  26.049  1.00  0.00     0.012 C 
ENDBRANCH   6   8
ENDBRANCH   5   6
ENDBRANCH   1   5
TORSDOF 5
ENDMDL
MODEL 4
REMARK VINA RESULT:    -3.231     11.589     12.932
REMARK INTER + INTRA:          -4.591
REMARK INTER:                  -4.083
REMARK INTRA:                  -0.508
REMARK UNBOUND:                -0.416
REMARK SMILES C=CC(=O)CCCCC
REMARK SMILES IDX 6 1 7 2 8 3 9 4 5 5 3 6 4 7 2 8 1 9
REMARK H PARENT
REMARK Flexibility Score: inf
ROOT
ATOM      1  C   UNL     1      16.409   8.725  24.580  1.00  0.00     0.008 C 
ENDROOT
BRANCH   1   2
ATOM      2  C   UNL     1      17.375   7.917  25.461  1.00  0.00     0.000 C 
BRANCH   2   3
ATOM      3  C   UNL     1      16.689   6.731  26.155  1.00  0.00    -0.003 C 
ATOM      4  C   UNL     1      15.174   6.912  26.184  1.00  0.00     0.004 C 
ENDBRANCH   2   3
ENDBRANCH   1   2
BRANCH   1   5
ATOM      5  C   UNL     1      16.862  10.179  24.386  1.00  0.00     0.080 C 
BRANCH   5   6
ATOM      6  C   UNL     1      16.258  11.068  25.442  1.00  0.00     0.155 C 
ATOM      7  O   UNL     1      16.872  12.121  25.764  1.00  0.00    -0.295 OA
BRANCH   6   8
ATOM      8  C   UNL     1      14.964  10.783  26.098  1.00  0.00     0.039 C 
ATOM      9  C   UNL     1      14.815  10.616  27.411  1.00  0.00     0.012 C 
ENDBRANCH   6   8
ENDBRANCH   5   6
ENDBRANCH   1   5
TORSDOF 5
ENDMDL
MODEL 5
REMARK VINA RESULT:    -3.212     12.046     13.458
REMARK INTER + INTRA:          -4.567
REMARK INTER:                  -3.994
REMARK INTRA:                  -0.573
REMARK UNBOUND:                -0.416
REMARK SMILES C=CC(=O)CCCCC
REMARK SMILES IDX 6 1 7 2 8 3 9 4 5 5 3 6 4 7 2 8 1 9
REMARK H PARENT
REMARK Flexibility Score: inf
ROOT
ATOM      1  C   UNL     1      16.712  10.138  25.260  1.00  0.00     0.008 C 
ENDROOT
BRANCH   1   2
ATOM      2  C   UNL     1      16.817   8.699  24.728  1.00  0.00     0.000 C 
BRANCH   2   3
ATOM      3  C   UNL     1      17.439   7.736  25.751  1.00  0.00    -0.003 C 
ATOM      4  C   UNL     1      16.490   6.585  26.069  1.00  0.00     0.004 C 
ENDBRANCH   2   3
ENDBRANCH   1   2
BRANCH   1   5
ATOM      5  C   UNL     1      15.797  10.248  26.488  1.00  0.00     0.080 C 
BRANCH   5   6
ATOM      6  C   UNL     1      14.350  10.137  26.086  1.00  0.00     0.155 C 
ATOM      7  O   UNL     1      13.809  11.117  25.507  1.00  0.00    -0.295 OA
BRANCH   6   8
ATOM      8  C   UNL     1      13.539   8.921  26.308  1.00  0.00     0.039 C 
ATOM      9  C   UNL     1      13.061   8.155  25.329  1.00  0.00     0.012 C 
ENDBRANCH   6   8
ENDBRANCH   5   6
ENDBRANCH   1   5
TORSDOF 5
ENDMDL
MODEL 6
REMARK VINA RESULT:    -3.197     11.814     12.910
REMARK INTER + INTRA:          -4.548
REMARK INTER:                  -4.378
REMARK INTRA:                  -0.170
REMARK UNBOUND:                -0.416
REMARK SMILES C=CC(=O)CCCCC
REMARK SMILES IDX 6 1 7 2 8 3 9 4 5 5 3 6 4 7 2 8 1 9
REMARK H PARENT
REMARK Flexibility Score: inf
ROOT
ATOM      1  C   UNL     1      16.923   9.687  24.839  1.00  0.00     0.008 C 
ENDROOT
BRANCH   1   2
ATOM      2  C   UNL     1      17.363   8.330  25.410  1.00  0.00     0.000 C 
BRANCH   2   3
ATOM      3  C   UNL     1      16.177   7.395  25.691  1.00  0.00    -0.003 C 
ATOM      4  C   UNL     1      16.621   6.166  26.479  1.00  0.00     0.004 C 
ENDBRANCH   2   3
ENDBRANCH   1   2
BRANCH   1   5
ATOM      5  C   UNL     1      16.165  10.542  25.865  1.00  0.00     0.080 C 
BRANCH   5   6
ATOM      6  C   UNL     1      15.821  11.889  25.285  1.00  0.00     0.155 C 
ATOM      7  O   UNL     1      14.656  12.338  25.454  1.00  0.00    -0.295 OA
BRANCH   6   8
ATOM      8  C   UNL     1      16.795  12.727  24.552  1.00  0.00     0.039 C 
ATOM      9  C   UNL     1      17.346  13.834  25.046  1.00  0.00     0.012 C 
ENDBRANCH   6   8
ENDBRANCH   5   6
ENDBRANCH   1   5
TORSDOF 5
ENDMDL
MODEL 7
REMARK VINA RESULT:    -3.138     11.698     12.830
REMARK INTER + INTRA:          -4.472
REMARK INTER:                  -3.874
REMARK INTRA:                  -0.598
REMARK UNBOUND:                -0.416
REMARK SMILES C=CC(=O)CCCCC
REMARK SMILES IDX 6 1 7 2 8 3 9 4 5 5 3 6 4 7 2 8 1 9
REMARK H PARENT
REMARK Flexibility Score: inf
ROOT
ATOM      1  C   UNL     1      16.807   9.373  24.578  1.00  0.00     0.008 C 
ENDROOT
BRANCH   1   2
ATOM      2  C   UNL     1      16.734  10.701  25.350  1.00  0.00     0.000 C 
BRANCH   2   3
ATOM      3  C   UNL     1      15.294  11.090  25.720  1.00  0.00    -0.003 C 
ATOM      4  C   UNL     1      15.020  10.837  27.199  1.00  0.00     0.004 C 
ENDBRANCH   2   3
ENDBRANCH   1   2
BRANCH   1   5
ATOM      5  C   UNL     1      17.120   8.177  25.489  1.00  0.00     0.080 C 
BRANCH   5   6
ATOM      6  C   UNL     1      15.911   7.291  25.637  1.00  0.00     0.155 C 
ATOM      7  O   UNL     1      15.967   6.328  26.447  1.00  0.00    -0.295 OA
BRANCH   6   8
ATOM      8  C   UNL     1      14.648   7.514  24.900  1.00  0.00     0.039 C 
ATOM      9  C   UNL     1      13.495   7.843  25.481  1.00  0.00     0.012 C 
ENDBRANCH   6   8
ENDBRANCH   5   6
ENDBRANCH   1   5
TORSDOF 5
ENDMDL
MODEL 8
REMARK VINA RESULT:    -3.128     14.115     15.154
REMARK INTER + INTRA:          -4.459
REMARK INTER:                  -4.076
REMARK INTRA:                  -0.383
REMARK UNBOUND:                -0.416
REMARK SMILES C=CC(=O)CCCCC
REMARK SMILES IDX 6 1 7 2 8 3 9 4 5 5 3 6 4 7 2 8 1 9
REMARK H PARENT
REMARK Flexibility Score: inf
ROOT
ATOM      1  C   UNL     1      15.296  14.895  25.586  1.00  0.00     0.008 C 
ENDROOT
BRANCH   1   2
ATOM      2  C   UNL     1      16.827  15.027  25.629  1.00  0.00     0.000 C 
BRANCH   2   3
ATOM      3  C   UNL     1      17.540  13.836  24.971  1.00  0.00    -0.003 C 
ATOM      4  C   UNL     1      16.545  12.748  24.579  1.00  0.00     0.004 C 
ENDBRANCH   2   3
ENDBRANCH   1   2
BRANCH   1   5
ATOM      5  C   UNL     1      14.612  16.142  25.007  1.00  0.00     0.080 C 
BRANCH   5   6
ATOM      6  C   UNL     1      13.598  15.755  23.963  1.00  0.00     0.155 C 
ATOM      7  O   UNL     1      12.878  16.659  23.458  1.00  0.00    -0.295 OA
BRANCH   6   8
ATOM      8  C   UNL     1      13.424  14.369  23.476  1.00  0.00     0.039 C 
ATOM      9  C   UNL     1      12.349  13.622  23.723  1.00  0.00     0.012 C 
ENDBRANCH   6   8
ENDBRANCH   5   6
ENDBRANCH   1   5
TORSDOF 5
ENDMDL
MODEL 9
REMARK VINA RESULT:    -3.088     12.431     14.027
REMARK INTER + INTRA:          -4.407
REMARK INTER:                  -3.767
REMARK INTRA:                  -0.639
REMARK UNBOUND:                -0.416
REMARK SMILES C=CC(=O)CCCCC
REMARK SMILES IDX 6 1 7 2 8 3 9 4 5 5 3 6 4 7 2 8 1 9
REMARK H PARENT
REMARK Flexibility Score: inf
ROOT
ATOM      1  C   UNL     1      14.688   7.801  24.962  1.00  0.00     0.008 C 
ENDROOT
BRANCH   1   2
ATOM      2  C   UNL     1      15.707   7.069  25.851  1.00  0.00     0.000 C 
BRANCH   2   3
ATOM      3  C   UNL     1      17.103   7.709  25.797  1.00  0.00    -0.003 C 
ATOM      4  C   UNL     1      17.199   8.724  24.662  1.00  0.00     0.004 C 
ENDBRANCH   2   3
ENDBRANCH   1   2
BRANCH   1   5
ATOM      5  C   UNL     1      13.446   8.257  25.741  1.00  0.00     0.080 C 
BRANCH   5   6
ATOM      6  C   UNL     1      13.803   9.341  26.724  1.00  0.00     0.155 C 
ATOM      7  O   UNL     1      13.578   9.143  27.948  1.00  0.00    -0.295 OA
BRANCH   6   8
ATOM      8  C   UNL     1      14.435  10.618  26.326  1.00  0.00     0.039 C 
ATOM      9  C   UNL     1      15.499  11.143  26.932  1.00  0.00     0.012 C 
ENDBRANCH   6   8
ENDBRANCH   5   6
ENDBRANCH   1   5
TORSDOF 5
ENDMDL
