MODEL 1
REMARK VINA RESULT:    -5.453      0.000      0.000
REMARK INTER + INTRA:          -6.072
REMARK INTER:                  -5.931
REMARK INTRA:                  -0.141
REMARK UNBOUND:                -0.141
REMARK SMILES O=C([O-])c1ccccc1O
REMARK SMILES IDX 4 1 9 2 5 3 8 4 6 5 7 6 2 7 1 8 3 9 10 10
REMARK H PARENT 10 11
REMARK Flexibility Score: inf
ROOT
ATOM      1  C   UNL     1      10.857  -8.139   9.977  1.00  0.00     0.039 A 
ATOM      2  C   UNL     1       9.562  -8.517  10.408  1.00  0.00     0.124 A 
ATOM      3  C   UNL     1      11.965  -8.889  10.421  1.00  0.00     0.014 A 
ATOM      4  C   UNL     1       9.403  -9.619  11.262  1.00  0.00     0.047 A 
ATOM      5  C   UNL     1      11.792  -9.984  11.270  1.00  0.00     0.001 A 
ATOM      6  C   UNL     1      10.513 -10.350  11.690  1.00  0.00     0.004 A 
ENDROOT
BRANCH   1   7
ATOM      7  C   UNL     1      11.071  -6.979   9.075  1.00  0.00     0.075 C 
ATOM      8  O   UNL     1      11.379  -7.162   7.866  1.00  0.00    -0.545 OA
ATOM      9  O   UNL     1      10.938  -5.676   9.536  1.00  0.00    -0.545 OA
ENDBRANCH   1   7
BRANCH   2  10
ATOM     10  O   UNL     1       8.437  -7.805   9.996  1.00  0.00    -0.507 OA
ATOM     11  H   UNL     1       7.991  -7.119  10.595  1.00  0.00     0.293 HD
ENDBRANCH   2  10
TORSDOF 2
ENDMDL
MODEL 2
REMARK VINA RESULT:    -4.783      2.917      3.813
REMARK INTER + INTRA:          -5.344
REMARK INTER:                  -5.089
REMARK INTRA:                  -0.255
REMARK UNBOUND:                -0.141
REMARK SMILES O=C([O-])c1ccccc1O
REMARK SMILES IDX 4 1 9 2 5 3 8 4 6 5 7 6 2 7 1 8 3 9 10 10
REMARK H PARENT 10 11
REMARK Flexibility Score: inf
ROOT
ATOM      1  C   UNL     1      11.029  -9.674  11.668  1.00  0.00     0.039 A 
ATOM      2  C   UNL     1       9.654  -9.681  11.332  1.00  0.00     0.124 A 
ATOM      3  C   UNL     1      11.920  -8.940  10.861  1.00  0.00     0.014 A 
ATOM      4  C   UNL     1       9.204  -8.966  10.212  1.00  0.00     0.047 A 
ATOM      5  C   UNL     1      11.458  -8.231   9.749  1.00  0.00     0.001 A 
ATOM      6  C   UNL     1      10.102  -8.244   9.425  1.00  0.00     0.004 A 
ENDROOT
BRANCH   1   7
ATOM      7  C   UNL     1      11.549 -10.418  12.845  1.00  0.00     0.075 C 
ATOM      8  O   UNL     1      12.591 -11.119  12.744  1.00  0.00    -0.545 OA
ATOM      9  O   UNL     1      10.904 -10.359  14.074  1.00  0.00    -0.545 OA
ENDBRANCH   1   7
BRANCH   2  10
ATOM     10  O   UNL     1       8.735 -10.394  12.101  1.00  0.00    -0.507 OA
ATOM     11  H   UNL     1       7.738 -10.353  11.915  1.00  0.00     0.293 HD
ENDBRANCH   2  10
TORSDOF 2
ENDMDL
MODEL 3
REMARK VINA RESULT:    -4.774      1.550      2.380
REMARK INTER + INTRA:          -5.334
REMARK INTER:                  -5.124
REMARK INTRA:                  -0.210
REMARK UNBOUND:                -0.141
REMARK SMILES O=C([O-])c1ccccc1O
REMARK SMILES IDX 4 1 9 2 5 3 8 4 6 5 7 6 2 7 1 8 3 9 10 10
REMARK H PARENT 10 11
REMARK Flexibility Score: inf
ROOT
ATOM      1  C   UNL     1      10.804  -9.377  10.877  1.00  0.00     0.039 A 
ATOM      2  C   UNL     1      10.329 -10.386  11.748  1.00  0.00     0.124 A 
ATOM      3  C   UNL     1      12.191  -9.133  10.815  1.00  0.00     0.014 A 
ATOM      4  C   UNL     1      11.234 -11.119  12.530  1.00  0.00     0.047 A 
ATOM      5  C   UNL     1      13.081  -9.872  11.598  1.00  0.00     0.001 A 
ATOM      6  C   UNL     1      12.604 -10.864  12.454  1.00  0.00     0.004 A 
ENDROOT
BRANCH   1   7
ATOM      7  C   UNL     1       9.881  -8.576  10.032  1.00  0.00     0.075 C 
ATOM      8  O   UNL     1      10.305  -8.004   8.992  1.00  0.00    -0.545 OA
ATOM      9  O   UNL     1       8.540  -8.439  10.365  1.00  0.00    -0.545 OA
ENDBRANCH   1   7
BRANCH   2  10
ATOM     10  O   UNL     1       8.965 -10.662  11.843  1.00  0.00    -0.507 OA
ATOM     11  H   UNL     1       8.604 -11.349  12.497  1.00  0.00     0.293 HD
ENDBRANCH   2  10
TORSDOF 2
ENDMDL
MODEL 4
REMARK VINA RESULT:    -4.758      1.776      3.649
REMARK INTER + INTRA:          -5.316
REMARK INTER:                  -5.077
REMARK INTRA:                  -0.239
REMARK UNBOUND:                -0.141
REMARK SMILES O=C([O-])c1ccccc1O
REMARK SMILES IDX 4 1 9 2 5 3 8 4 6 5 7 6 2 7 1 8 3 9 10 10
REMARK H PARENT 10 11
REMARK Flexibility Score: inf
ROOT
ATOM      1  C   UNL     1       9.388  -9.386  11.662  1.00  0.00     0.039 A 
ATOM      2  C   UNL     1       9.396  -8.559  10.514  1.00  0.00     0.124 A 
ATOM      3  C   UNL     1      10.571 -10.067  12.016  1.00  0.00     0.014 A 
ATOM      4  C   UNL     1      10.567  -8.431   9.752  1.00  0.00     0.047 A 
ATOM      5  C   UNL     1      11.729  -9.930  11.248  1.00  0.00     0.001 A 
ATOM      6  C   UNL     1      11.729  -9.113  10.118  1.00  0.00     0.004 A 
ENDROOT
BRANCH   1   7
ATOM      7  C   UNL     1       8.171  -9.550  12.498  1.00  0.00     0.075 C 
ATOM      8  O   UNL     1       7.034  -9.625  11.958  1.00  0.00    -0.545 OA
ATOM      9  O   UNL     1       8.254  -9.625  13.882  1.00  0.00    -0.545 OA
ENDBRANCH   1   7
BRANCH   2  10
ATOM     10  O   UNL     1       8.250  -7.866  10.125  1.00  0.00    -0.507 OA
ATOM     11  H   UNL     1       7.589  -8.258   9.463  1.00  0.00     0.293 HD
ENDBRANCH   2  10
TORSDOF 2
ENDMDL
MODEL 5
REMARK VINA RESULT:    -4.654      2.788      3.963
REMARK INTER + INTRA:          -5.203
REMARK INTER:                  -4.950
REMARK INTRA:                  -0.254
REMARK UNBOUND:                -0.141
REMARK SMILES O=C([O-])c1ccccc1O
REMARK SMILES IDX 4 1 9 2 5 3 8 4 6 5 7 6 2 7 1 8 3 9 10 10
REMARK H PARENT 10 11
REMARK Flexibility Score: inf
ROOT
ATOM      1  C   UNL     1       9.348  -9.811  12.395  1.00  0.00     0.039 A 
ATOM      2  C   UNL     1       8.344  -9.410  11.481  1.00  0.00     0.124 A 
ATOM      3  C   UNL     1       9.014  -9.929  13.760  1.00  0.00     0.014 A 
ATOM      4  C   UNL     1       7.047  -9.139  11.942  1.00  0.00     0.047 A 
ATOM      5  C   UNL     1       7.719  -9.656  14.204  1.00  0.00     0.001 A 
ATOM      6  C   UNL     1       6.735  -9.262  13.297  1.00  0.00     0.004 A 
ENDROOT
BRANCH   1   7
ATOM      7  C   UNL     1      10.734 -10.108  11.952  1.00  0.00     0.075 C 
ATOM      8  O   UNL     1      11.346 -11.112  12.406  1.00  0.00    -0.545 OA
ATOM      9  O   UNL     1      11.384  -9.295  11.032  1.00  0.00    -0.545 OA
ENDBRANCH   1   7
BRANCH   2  10
ATOM     10  O   UNL     1       8.627  -9.280  10.122  1.00  0.00    -0.507 OA
ATOM     11  H   UNL     1       7.902  -9.075   9.444  1.00  0.00     0.293 HD
ENDBRANCH   2  10
TORSDOF 2
ENDMDL
MODEL 6
REMARK VINA RESULT:    -4.632     15.836     16.434
REMARK INTER + INTRA:          -5.179
REMARK INTER:                  -4.933
REMARK INTRA:                  -0.246
REMARK UNBOUND:                -0.141
REMARK SMILES O=C([O-])c1ccccc1O
REMARK SMILES IDX 4 1 9 2 5 3 8 4 6 5 7 6 2 7 1 8 3 9 10 10
REMARK H PARENT 10 11
REMARK Flexibility Score: inf
ROOT
ATOM      1  C   UNL     1       9.917  -1.851  24.728  1.00  0.00     0.039 A 
ATOM      2  C   UNL     1      10.320  -0.547  24.353  1.00  0.00     0.124 A 
ATOM      3  C   UNL     1       8.575  -2.065  25.103  1.00  0.00     0.014 A 
ATOM      4  C   UNL     1       9.388   0.502  24.361  1.00  0.00     0.047 A 
ATOM      5  C   UNL     1       7.659  -1.011  25.105  1.00  0.00     0.001 A 
ATOM      6  C   UNL     1       8.064   0.271  24.735  1.00  0.00     0.004 A 
ENDROOT
BRANCH   1   7
ATOM      7  C   UNL     1      10.870  -2.991  24.734  1.00  0.00     0.075 C 
ATOM      8  O   UNL     1      10.490  -4.140  24.382  1.00  0.00    -0.545 OA
ATOM      9  O   UNL     1      12.192  -2.820  25.125  1.00  0.00    -0.545 OA
ENDBRANCH   1   7
BRANCH   2  10
ATOM     10  O   UNL     1      11.637  -0.288  23.975  1.00  0.00    -0.507 OA
ATOM     11  H   UNL     1      12.287  -1.036  23.761  1.00  0.00     0.293 HD
ENDBRANCH   2  10
TORSDOF 2
ENDMDL
MODEL 7
REMARK VINA RESULT:    -4.585      1.275      2.167
REMARK INTER + INTRA:          -5.129
REMARK INTER:                  -5.044
REMARK INTRA:                  -0.085
REMARK UNBOUND:                -0.141
REMARK SMILES O=C([O-])c1ccccc1O
REMARK SMILES IDX 4 1 9 2 5 3 8 4 6 5 7 6 2 7 1 8 3 9 10 10
REMARK H PARENT 10 11
REMARK Flexibility Score: inf
ROOT
ATOM      1  C   UNL     1      10.493  -8.286  10.049  1.00  0.00     0.039 A 
ATOM      2  C   UNL     1      11.366  -9.094  10.818  1.00  0.00     0.124 A 
ATOM      3  C   UNL     1       9.107  -8.529  10.120  1.00  0.00     0.014 A 
ATOM      4  C   UNL     1      10.844 -10.112  11.629  1.00  0.00     0.047 A 
ATOM      5  C   UNL     1       8.601  -9.546  10.933  1.00  0.00     0.001 A 
ATOM      6  C   UNL     1       9.467 -10.337  11.687  1.00  0.00     0.004 A 
ENDROOT
BRANCH   1   7
ATOM      7  C   UNL     1      11.003  -7.198   9.177  1.00  0.00     0.075 C 
ATOM      8  O   UNL     1      11.293  -7.431   7.973  1.00  0.00    -0.545 OA
ATOM      9  O   UNL     1      11.170  -5.907   9.662  1.00  0.00    -0.545 OA
ENDBRANCH   1   7
BRANCH   2  10
ATOM     10  O   UNL     1      12.745  -8.891  10.779  1.00  0.00    -0.507 OA
ATOM     11  H   UNL     1      13.253  -8.527  11.578  1.00  0.00     0.293 HD
ENDBRANCH   2  10
TORSDOF 2
ENDMDL
MODEL 8
REMARK VINA RESULT:    -4.474      2.889      4.097
REMARK INTER + INTRA:          -5.007
REMARK INTER:                  -4.779
REMARK INTRA:                  -0.228
REMARK UNBOUND:                -0.141
REMARK SMILES O=C([O-])c1ccccc1O
REMARK SMILES IDX 4 1 9 2 5 3 8 4 6 5 7 6 2 7 1 8 3 9 10 10
REMARK H PARENT 10 11
REMARK Flexibility Score: inf
ROOT
ATOM      1  C   UNL     1       9.596  -9.329  11.442  1.00  0.00     0.039 A 
ATOM      2  C   UNL     1      10.927  -9.714  11.730  1.00  0.00     0.124 A 
ATOM      3  C   UNL     1       9.337  -8.622  10.250  1.00  0.00     0.014 A 
ATOM      4  C   UNL     1      11.958  -9.390  10.835  1.00  0.00     0.047 A 
ATOM      5  C   UNL     1      10.373  -8.307   9.368  1.00  0.00     0.001 A 
ATOM      6  C   UNL     1      11.682  -8.690   9.660  1.00  0.00     0.004 A 
ENDROOT
BRANCH   1   7
ATOM      7  C   UNL     1       8.474  -9.651  12.361  1.00  0.00     0.075 C 
ATOM      8  O   UNL     1       7.307  -9.807  11.911  1.00  0.00    -0.545 OA
ATOM      9  O   UNL     1       8.682  -9.787  13.728  1.00  0.00    -0.545 OA
ENDBRANCH   1   7
BRANCH   2  10
ATOM     10  O   UNL     1      11.231 -10.414  12.897  1.00  0.00    -0.507 OA
ATOM     11  H   UNL     1      11.994 -10.133  13.503  1.00  0.00     0.293 HD
ENDBRANCH   2  10
TORSDOF 2
ENDMDL
