MODEL 1
REMARK VINA RESULT:    -7.748      0.000      0.000
REMARK INTER + INTRA:         -10.796
REMARK INTER:                  -9.786
REMARK INTRA:                  -1.010
REMARK UNBOUND:                -1.010
REMARK SMILES CC(C)[C@H](C)C=C[C@H](C)[C@H]1CC[C@H]2C3=CC=C4C[C@H](O)CC[C@@]4(C)[C@H]3CC[C@@]12C
REMARK SMILES IDX 8 1 9 2 7 3 6 4 4 5 5 6 2 7 1 8 3 9 10 10 11 11 28 12 12 13
REMARK SMILES IDX 13 14 27 15 29 16 14 17 26 18 25 19 15 20 23 21 16 22 17 23
REMARK SMILES IDX 22 24 24 25 18 26 21 27 19 28 20 29
REMARK H PARENT 20 30
REMARK Flexibility Score: inf
ROOT
ATOM      1  C   UNL     1     182.439 172.207 179.868  1.00  0.00     0.012 C 
ATOM      2  C   UNL     1     181.432 171.399 180.717  1.00  0.00     0.012 C 
ENDROOT
BRANCH   1   3
ATOM      3  C   UNL     1     181.722 173.222 178.996  1.00  0.00    -0.028 C 
ATOM      4  C   UNL     1     181.625 173.127 177.659  1.00  0.00    -0.028 C 
BRANCH   4   5
ATOM      5  C   UNL     1     180.825 174.129 176.857  1.00  0.00     0.011 C 
ATOM      6  C   UNL     1     179.370 173.650 176.722  1.00  0.00     0.012 C 
BRANCH   5   7
ATOM      7  C   UNL     1     180.958 175.558 177.467  1.00  0.00    -0.011 C 
ATOM      8  C   UNL     1     179.737 176.453 177.191  1.00  0.00     0.008 C 
ATOM      9  C   UNL     1     182.247 176.259 177.014  1.00  0.00     0.008 C 
ENDBRANCH   5   7
ENDBRANCH   4   5
ENDBRANCH   1   3
BRANCH   1  10
ATOM     10  C   UNL     1     183.633 172.874 180.652  1.00  0.00     0.002 C 
ATOM     11  C   UNL     1     184.673 173.557 179.753  1.00  0.00     0.005 C 
ATOM     12  C   UNL     1     183.296 173.936 181.781  1.00  0.00    -0.023 C 
ATOM     13  C   UNL     1     184.379 175.036 179.844  1.00  0.00     0.009 C 
ATOM     14  C   UNL     1     183.978 175.268 181.301  1.00  0.00     0.021 C 
ATOM     15  C   UNL     1     181.764 174.156 182.048  1.00  0.00     0.008 C 
ATOM     16  C   UNL     1     183.945 173.447 183.106  1.00  0.00     0.012 C 
ATOM     17  C   UNL     1     183.110 176.491 181.572  1.00  0.00    -0.063 C 
ATOM     18  C   UNL     1     181.422 175.357 182.974  1.00  0.00     0.009 C 
ATOM     19  C   UNL     1     182.455 176.514 182.932  1.00  0.00     0.025 C 
ATOM     20  C   UNL     1     182.731 177.372 180.628  1.00  0.00    -0.000 C 
ATOM     21  C   UNL     1     181.911 177.944 183.320  1.00  0.00    -0.005 C 
ATOM     22  C   UNL     1     181.672 178.362 180.889  1.00  0.00    -0.000 C 
ATOM     23  C   UNL     1     181.197 178.577 182.127  1.00  0.00    -0.061 C 
ATOM     24  C   UNL     1     180.973 177.872 184.568  1.00  0.00     0.014 C 
ATOM     25  C   UNL     1     183.125 178.846 183.669  1.00  0.00     0.017 C 
ATOM     26  C   UNL     1     180.221 179.713 182.339  1.00  0.00     0.063 C 
ATOM     27  C   UNL     1     180.175 179.162 184.800  1.00  0.00     0.033 C 
ATOM     28  C   UNL     1     179.327 179.489 183.567  1.00  0.00     0.118 C 
BRANCH  28  29
ATOM     29  O   UNL     1     178.572 180.644 183.824  1.00  0.00    -0.393 OA
ATOM     30  H   UNL     1     178.992 181.091 184.605  1.00  0.00     0.210 HD
ENDBRANCH  28  29
ENDBRANCH   1  10
TORSDOF 5
ENDMDL
MODEL 2
REMARK VINA RESULT:    -7.415      3.103      7.797
REMARK INTER + INTRA:         -10.376
REMARK INTER:                  -9.518
REMARK INTRA:                  -0.858
REMARK UNBOUND:                -1.010
REMARK SMILES CC(C)[C@H](C)C=C[C@H](C)[C@H]1CC[C@H]2C3=CC=C4C[C@H](O)CC[C@@]4(C)[C@H]3CC[C@@]12C
REMARK SMILES IDX 8 1 9 2 7 3 6 4 4 5 5 6 2 7 1 8 3 9 10 10 11 11 28 12 12 13
REMARK SMILES IDX 13 14 27 15 29 16 14 17 26 18 25 19 15 20 23 21 16 22 17 23
REMARK SMILES IDX 22 24 24 25 18 26 21 27 19 28 20 29
REMARK H PARENT 20 30
REMARK Flexibility Score: inf
ROOT
ATOM      1  C   UNL     1     180.146 180.100 182.791  1.00  0.00     0.012 C 
ATOM      2  C   UNL     1     179.399 179.558 184.030  1.00  0.00     0.012 C 
ENDROOT
BRANCH   1   3
ATOM      3  C   UNL     1     179.840 181.571 182.573  1.00  0.00    -0.028 C 
ATOM      4  C   UNL     1     180.298 182.558 183.360  1.00  0.00    -0.028 C 
BRANCH   4   5
ATOM      5  C   UNL     1     180.024 184.010 183.039  1.00  0.00     0.011 C 
ATOM      6  C   UNL     1     180.138 184.241 181.522  1.00  0.00     0.012 C 
BRANCH   5   7
ATOM      7  C   UNL     1     178.657 184.461 183.638  1.00  0.00    -0.011 C 
ATOM      8  C   UNL     1     178.428 183.962 185.075  1.00  0.00     0.008 C 
ATOM      9  C   UNL     1     177.476 184.062 182.740  1.00  0.00     0.008 C 
ENDBRANCH   5   7
ENDBRANCH   4   5
ENDBRANCH   1   3
BRANCH   1  10
ATOM     10  C   UNL     1     181.699 179.829 182.740  1.00  0.00     0.002 C 
ATOM     11  C   UNL     1     182.325 179.494 184.102  1.00  0.00     0.005 C 
ATOM     12  C   UNL     1     182.240 178.718 181.747  1.00  0.00    -0.023 C 
ATOM     13  C   UNL     1     182.520 177.996 184.100  1.00  0.00     0.009 C 
ATOM     14  C   UNL     1     182.940 177.657 182.670  1.00  0.00     0.021 C 
ATOM     15  C   UNL     1     181.145 178.043 180.847  1.00  0.00     0.008 C 
ATOM     16  C   UNL     1     183.284 179.385 180.807  1.00  0.00     0.012 C 
ATOM     17  C   UNL     1     182.673 176.228 182.212  1.00  0.00    -0.063 C 
ATOM     18  C   UNL     1     181.623 176.796 180.050  1.00  0.00     0.009 C 
ATOM     19  C   UNL     1     182.779 176.010 180.722  1.00  0.00     0.025 C 
ATOM     20  C   UNL     1     182.142 175.271 182.996  1.00  0.00    -0.000 C 
ATOM     21  C   UNL     1     182.893 174.483 180.339  1.00  0.00    -0.005 C 
ATOM     22  C   UNL     1     181.646 174.006 182.427  1.00  0.00    -0.000 C 
ATOM     23  C   UNL     1     181.897 173.659 181.153  1.00  0.00    -0.061 C 
ATOM     24  C   UNL     1     182.684 174.268 178.805  1.00  0.00     0.014 C 
ATOM     25  C   UNL     1     184.318 173.994 180.713  1.00  0.00     0.017 C 
ATOM     26  C   UNL     1     181.487 172.280 180.686  1.00  0.00     0.063 C 
ATOM     27  C   UNL     1     182.473 172.797 178.423  1.00  0.00     0.033 C 
ATOM     28  C   UNL     1     181.263 172.224 179.168  1.00  0.00     0.118 C 
BRANCH  28  29
ATOM     29  O   UNL     1     181.065 170.894 178.764  1.00  0.00    -0.393 OA
ATOM     30  H   UNL     1     180.937 170.911 177.780  1.00  0.00     0.210 HD
ENDBRANCH  28  29
ENDBRANCH   1  10
TORSDOF 5
ENDMDL
MODEL 3
REMARK VINA RESULT:    -7.354      2.966      8.311
REMARK INTER + INTRA:         -10.298
REMARK INTER:                  -8.895
REMARK INTRA:                  -1.404
REMARK UNBOUND:                -1.010
REMARK SMILES CC(C)[C@H](C)C=C[C@H](C)[C@H]1CC[C@H]2C3=CC=C4C[C@H](O)CC[C@@]4(C)[C@H]3CC[C@@]12C
REMARK SMILES IDX 8 1 9 2 7 3 6 4 4 5 5 6 2 7 1 8 3 9 10 10 11 11 28 12 12 13
REMARK SMILES IDX 13 14 27 15 29 16 14 17 26 18 25 19 15 20 23 21 16 22 17 23
REMARK SMILES IDX 22 24 24 25 18 26 21 27 19 28 20 29
REMARK H PARENT 20 30
REMARK Flexibility Score: inf
ROOT
ATOM      1  C   UNL     1     179.632 183.501 183.262  1.00  0.00     0.012 C 
ATOM      2  C   UNL     1     178.229 183.686 182.641  1.00  0.00     0.012 C 
ENDROOT
BRANCH   1   3
ATOM      3  C   UNL     1     179.646 182.333 184.232  1.00  0.00    -0.028 C 
ATOM      4  C   UNL     1     180.433 182.269 185.320  1.00  0.00    -0.028 C 
BRANCH   4   5
ATOM      5  C   UNL     1     180.339 181.115 186.290  1.00  0.00     0.011 C 
ATOM      6  C   UNL     1     179.914 179.837 185.545  1.00  0.00     0.012 C 
BRANCH   5   7
ATOM      7  C   UNL     1     181.666 180.957 187.094  1.00  0.00    -0.011 C 
ATOM      8  C   UNL     1     182.741 181.984 186.700  1.00  0.00     0.008 C 
ATOM      9  C   UNL     1     182.229 179.531 186.998  1.00  0.00     0.008 C 
ENDBRANCH   5   7
ENDBRANCH   4   5
ENDBRANCH   1   3
BRANCH   1  10
ATOM     10  C   UNL     1     180.837 183.413 182.249  1.00  0.00     0.002 C 
ATOM     11  C   UNL     1     182.192 183.817 182.846  1.00  0.00     0.005 C 
ATOM     12  C   UNL     1     181.101 182.036 181.507  1.00  0.00    -0.023 C 
ATOM     13  C   UNL     1     182.917 182.520 183.121  1.00  0.00     0.009 C 
ATOM     14  C   UNL     1     182.545 181.607 181.952  1.00  0.00     0.021 C 
ATOM     15  C   UNL     1     180.058 180.905 181.819  1.00  0.00     0.008 C 
ATOM     16  C   UNL     1     181.068 182.305 179.976  1.00  0.00     0.012 C 
ATOM     17  C   UNL     1     182.648 180.109 182.211  1.00  0.00    -0.063 C 
ATOM     18  C   UNL     1     180.439 179.493 181.292  1.00  0.00     0.009 C 
ATOM     19  C   UNL     1     181.966 179.240 181.181  1.00  0.00     0.025 C 
ATOM     20  C   UNL     1     183.078 179.570 183.368  1.00  0.00    -0.000 C 
ATOM     21  C   UNL     1     182.427 177.732 181.259  1.00  0.00    -0.005 C 
ATOM     22  C   UNL     1     182.888 178.139 183.660  1.00  0.00    -0.000 C 
ATOM     23  C   UNL     1     182.484 177.273 182.715  1.00  0.00    -0.061 C 
ATOM     24  C   UNL     1     181.490 176.811 180.413  1.00  0.00     0.014 C 
ATOM     25  C   UNL     1     183.864 177.634 180.682  1.00  0.00     0.017 C 
ATOM     26  C   UNL     1     182.459 175.798 183.050  1.00  0.00     0.063 C 
ATOM     27  C   UNL     1     181.693 175.317 180.696  1.00  0.00     0.033 C 
ATOM     28  C   UNL     1     181.459 175.023 182.181  1.00  0.00     0.118 C 
BRANCH  28  29
ATOM     29  O   UNL     1     181.604 173.644 182.403  1.00  0.00    -0.393 OA
ATOM     30  H   UNL     1     181.445 173.197 181.531  1.00  0.00     0.210 HD
ENDBRANCH  28  29
ENDBRANCH   1  10
TORSDOF 5
ENDMDL
MODEL 4
REMARK VINA RESULT:    -7.273      3.270      7.413
REMARK INTER + INTRA:         -10.196
REMARK INTER:                  -9.015
REMARK INTRA:                  -1.181
REMARK UNBOUND:                -1.010
REMARK SMILES CC(C)[C@H](C)C=C[C@H](C)[C@H]1CC[C@H]2C3=CC=C4C[C@H](O)CC[C@@]4(C)[C@H]3CC[C@@]12C
REMARK SMILES IDX 8 1 9 2 7 3 6 4 4 5 5 6 2 7 1 8 3 9 10 10 11 11 28 12 12 13
REMARK SMILES IDX 13 14 27 15 29 16 14 17 26 18 25 19 15 20 23 21 16 22 17 23
REMARK SMILES IDX 22 24 24 25 18 26 21 27 19 28 20 29
REMARK H PARENT 20 30
REMARK Flexibility Score: inf
ROOT
ATOM      1  C   UNL     1     180.083 180.399 182.361  1.00  0.00     0.012 C 
ATOM      2  C   UNL     1     179.019 180.291 183.475  1.00  0.00     0.012 C 
ENDROOT
BRANCH   1   3
ATOM      3  C   UNL     1     179.952 181.713 181.611  1.00  0.00    -0.028 C 
ATOM      4  C   UNL     1     180.917 182.647 181.558  1.00  0.00    -0.028 C 
BRANCH   4   5
ATOM      5  C   UNL     1     180.754 183.897 180.724  1.00  0.00     0.011 C 
ATOM      6  C   UNL     1     180.412 185.092 181.632  1.00  0.00     0.012 C 
BRANCH   5   7
ATOM      7  C   UNL     1     182.010 184.133 179.830  1.00  0.00    -0.011 C 
ATOM      8  C   UNL     1     181.671 184.721 178.449  1.00  0.00     0.008 C 
ATOM      9  C   UNL     1     182.853 182.859 179.676  1.00  0.00     0.008 C 
ENDBRANCH   5   7
ENDBRANCH   4   5
ENDBRANCH   1   3
BRANCH   1  10
ATOM     10  C   UNL     1     181.577 180.141 182.796  1.00  0.00     0.002 C 
ATOM     11  C   UNL     1     181.758 179.876 184.298  1.00  0.00     0.005 C 
ATOM     12  C   UNL     1     182.387 178.988 182.069  1.00  0.00    -0.023 C 
ATOM     13  C   UNL     1     181.935 178.382 184.428  1.00  0.00     0.009 C 
ATOM     14  C   UNL     1     182.767 177.978 183.211  1.00  0.00     0.021 C 
ATOM     15  C   UNL     1     181.612 178.261 180.913  1.00  0.00     0.008 C 
ATOM     16  C   UNL     1     183.670 179.618 181.459  1.00  0.00     0.012 C 
ATOM     17  C   UNL     1     182.642 176.527 182.763  1.00  0.00    -0.063 C 
ATOM     18  C   UNL     1     182.301 176.981 180.360  1.00  0.00     0.009 C 
ATOM     19  C   UNL     1     183.194 176.238 181.387  1.00  0.00     0.025 C 
ATOM     20  C   UNL     1     181.893 175.603 183.395  1.00  0.00    -0.000 C 
ATOM     21  C   UNL     1     183.409 174.696 181.132  1.00  0.00    -0.005 C 
ATOM     22  C   UNL     1     181.585 174.309 182.764  1.00  0.00    -0.000 C 
ATOM     23  C   UNL     1     182.208 173.903 181.645  1.00  0.00    -0.061 C 
ATOM     24  C   UNL     1     183.673 174.405 179.619  1.00  0.00     0.014 C 
ATOM     25  C   UNL     1     184.651 174.238 181.943  1.00  0.00     0.017 C 
ATOM     26  C   UNL     1     181.950 172.500 181.142  1.00  0.00     0.063 C 
ATOM     27  C   UNL     1     183.579 172.916 179.263  1.00  0.00     0.033 C 
ATOM     28  C   UNL     1     182.197 172.369 179.633  1.00  0.00     0.118 C 
BRANCH  28  29
ATOM     29  O   UNL     1     182.122 171.020 179.253  1.00  0.00    -0.393 OA
ATOM     30  H   UNL     1     181.483 170.584 179.875  1.00  0.00     0.210 HD
ENDBRANCH  28  29
ENDBRANCH   1  10
TORSDOF 5
ENDMDL
MODEL 5
REMARK VINA RESULT:    -7.259      3.502      8.698
REMARK INTER + INTRA:         -10.178
REMARK INTER:                  -9.107
REMARK INTRA:                  -1.071
REMARK UNBOUND:                -1.010
REMARK SMILES CC(C)[C@H](C)C=C[C@H](C)[C@H]1CC[C@H]2C3=CC=C4C[C@H](O)CC[C@@]4(C)[C@H]3CC[C@@]12C
REMARK SMILES IDX 8 1 9 2 7 3 6 4 4 5 5 6 2 7 1 8 3 9 10 10 11 11 28 12 12 13
REMARK SMILES IDX 13 14 27 15 29 16 14 17 26 18 25 19 15 20 23 21 16 22 17 23
REMARK SMILES IDX 22 24 24 25 18 26 21 27 19 28 20 29
REMARK H PARENT 20 30
REMARK Flexibility Score: inf
ROOT
ATOM      1  C   UNL     1     182.341 181.884 184.392  1.00  0.00     0.012 C 
ATOM      2  C   UNL     1     182.184 183.352 183.939  1.00  0.00     0.012 C 
ENDROOT
BRANCH   1   3
ATOM      3  C   UNL     1     183.000 181.804 185.758  1.00  0.00    -0.028 C 
ATOM      4  C   UNL     1     182.337 181.541 186.897  1.00  0.00    -0.028 C 
BRANCH   4   5
ATOM      5  C   UNL     1     183.066 181.394 188.213  1.00  0.00     0.011 C 
ATOM      6  C   UNL     1     182.975 179.938 188.703  1.00  0.00     0.012 C 
BRANCH   5   7
ATOM      7  C   UNL     1     184.529 181.923 188.098  1.00  0.00    -0.011 C 
ATOM      8  C   UNL     1     185.590 180.835 188.335  1.00  0.00     0.008 C 
ATOM      9  C   UNL     1     184.780 183.124 189.022  1.00  0.00     0.008 C 
ENDBRANCH   5   7
ENDBRANCH   4   5
ENDBRANCH   1   3
BRANCH   1  10
ATOM     10  C   UNL     1     181.040 180.994 184.337  1.00  0.00     0.002 C 
ATOM     11  C   UNL     1     180.054 181.390 183.229  1.00  0.00     0.005 C 
ATOM     12  C   UNL     1     181.205 179.422 184.207  1.00  0.00    -0.023 C 
ATOM     13  C   UNL     1     180.251 180.374 182.128  1.00  0.00     0.009 C 
ATOM     14  C   UNL     1     180.497 179.051 182.855  1.00  0.00     0.021 C 
ATOM     15  C   UNL     1     182.688 178.908 184.222  1.00  0.00     0.008 C 
ATOM     16  C   UNL     1     180.461 178.764 185.402  1.00  0.00     0.012 C 
ATOM     17  C   UNL     1     181.261 177.989 182.075  1.00  0.00    -0.063 C 
ATOM     18  C   UNL     1     182.870 177.407 183.857  1.00  0.00     0.009 C 
ATOM     19  C   UNL     1     181.780 176.842 182.909  1.00  0.00     0.025 C 
ATOM     20  C   UNL     1     181.678 178.139 180.803  1.00  0.00    -0.000 C 
ATOM     21  C   UNL     1     182.200 175.597 182.034  1.00  0.00    -0.005 C 
ATOM     22  C   UNL     1     182.647 177.207 180.203  1.00  0.00    -0.000 C 
ATOM     23  C   UNL     1     182.988 176.056 180.808  1.00  0.00    -0.061 C 
ATOM     24  C   UNL     1     183.016 174.564 182.876  1.00  0.00     0.014 C 
ATOM     25  C   UNL     1     180.908 174.904 181.524  1.00  0.00     0.017 C 
ATOM     26  C   UNL     1     183.871 175.081 180.061  1.00  0.00     0.063 C 
ATOM     27  C   UNL     1     183.712 173.499 182.018  1.00  0.00     0.033 C 
ATOM     28  C   UNL     1     184.654 174.163 181.010  1.00  0.00     0.118 C 
BRANCH  28  29
ATOM     29  O   UNL     1     185.313 173.166 180.273  1.00  0.00    -0.393 OA
ATOM     30  H   UNL     1     185.840 172.633 180.922  1.00  0.00     0.210 HD
ENDBRANCH  28  29
ENDBRANCH   1  10
TORSDOF 5
ENDMDL
MODEL 6
REMARK VINA RESULT:    -7.246      1.800      2.950
REMARK INTER + INTRA:         -10.163
REMARK INTER:                  -9.163
REMARK INTRA:                  -1.000
REMARK UNBOUND:                -1.010
REMARK SMILES CC(C)[C@H](C)C=C[C@H](C)[C@H]1CC[C@H]2C3=CC=C4C[C@H](O)CC[C@@]4(C)[C@H]3CC[C@@]12C
REMARK SMILES IDX 8 1 9 2 7 3 6 4 4 5 5 6 2 7 1 8 3 9 10 10 11 11 28 12 12 13
REMARK SMILES IDX 13 14 27 15 29 16 14 17 26 18 25 19 15 20 23 21 16 22 17 23
REMARK SMILES IDX 22 24 24 25 18 26 21 27 19 28 20 29
REMARK H PARENT 20 30
REMARK Flexibility Score: inf
ROOT
ATOM      1  C   UNL     1     181.391 175.000 179.541  1.00  0.00     0.012 C 
ATOM      2  C   UNL     1     181.312 176.245 178.630  1.00  0.00     0.012 C 
ENDROOT
BRANCH   1   3
ATOM      3  C   UNL     1     181.307 173.723 178.724  1.00  0.00    -0.028 C 
ATOM      4  C   UNL     1     181.618 172.505 179.199  1.00  0.00    -0.028 C 
BRANCH   4   5
ATOM      5  C   UNL     1     181.432 171.263 178.357  1.00  0.00     0.011 C 
ATOM      6  C   UNL     1     180.245 171.453 177.397  1.00  0.00     0.012 C 
BRANCH   5   7
ATOM      7  C   UNL     1     182.761 170.878 177.638  1.00  0.00    -0.011 C 
ATOM      8  C   UNL     1     184.017 171.205 178.464  1.00  0.00     0.008 C 
ATOM      9  C   UNL     1     182.862 171.508 176.241  1.00  0.00     0.008 C 
ENDBRANCH   5   7
ENDBRANCH   4   5
ENDBRANCH   1   3
BRANCH   1  10
ATOM     10  C   UNL     1     182.603 174.949 180.549  1.00  0.00     0.002 C 
ATOM     11  C   UNL     1     183.924 175.477 179.972  1.00  0.00     0.005 C 
ATOM     12  C   UNL     1     182.446 175.666 181.955  1.00  0.00    -0.023 C 
ATOM     13  C   UNL     1     184.091 176.865 180.543  1.00  0.00     0.009 C 
ATOM     14  C   UNL     1     183.568 176.765 181.977  1.00  0.00     0.021 C 
ATOM     15  C   UNL     1     181.035 176.300 182.222  1.00  0.00     0.008 C 
ATOM     16  C   UNL     1     182.709 174.607 183.062  1.00  0.00     0.012 C 
ATOM     17  C   UNL     1     183.091 178.065 182.610  1.00  0.00    -0.063 C 
ATOM     18  C   UNL     1     180.946 177.205 183.484  1.00  0.00     0.009 C 
ATOM     19  C   UNL     1     182.280 177.895 183.873  1.00  0.00     0.025 C 
ATOM     20  C   UNL     1     183.146 179.266 182.003  1.00  0.00    -0.000 C 
ATOM     21  C   UNL     1     182.152 179.235 184.698  1.00  0.00    -0.005 C 
ATOM     22  C   UNL     1     182.417 180.427 182.541  1.00  0.00    -0.000 C 
ATOM     23  C   UNL     1     181.853 180.404 183.761  1.00  0.00    -0.061 C 
ATOM     24  C   UNL     1     181.064 179.110 185.812  1.00  0.00     0.014 C 
ATOM     25  C   UNL     1     183.520 179.519 185.376  1.00  0.00     0.017 C 
ATOM     26  C   UNL     1     181.255 181.682 184.305  1.00  0.00     0.063 C 
ATOM     27  C   UNL     1     180.677 180.459 186.433  1.00  0.00     0.033 C 
ATOM     28  C   UNL     1     180.164 181.413 185.351  1.00  0.00     0.118 C 
BRANCH  28  29
ATOM     29  O   UNL     1     179.773 182.620 185.952  1.00  0.00    -0.393 OA
ATOM     30  H   UNL     1     179.849 182.487 186.933  1.00  0.00     0.210 HD
ENDBRANCH  28  29
ENDBRANCH   1  10
TORSDOF 5
ENDMDL
MODEL 7
REMARK VINA RESULT:    -7.208      3.769      7.813
REMARK INTER + INTRA:         -10.114
REMARK INTER:                  -8.794
REMARK INTRA:                  -1.321
REMARK UNBOUND:                -1.010
REMARK SMILES CC(C)[C@H](C)C=C[C@H](C)[C@H]1CC[C@H]2C3=CC=C4C[C@H](O)CC[C@@]4(C)[C@H]3CC[C@@]12C
REMARK SMILES IDX 8 1 9 2 7 3 6 4 4 5 5 6 2 7 1 8 3 9 10 10 11 11 28 12 12 13
REMARK SMILES IDX 13 14 27 15 29 16 14 17 26 18 25 19 15 20 23 21 16 22 17 23
REMARK SMILES IDX 22 24 24 25 18 26 21 27 19 28 20 29
REMARK H PARENT 20 30
REMARK Flexibility Score: inf
ROOT
ATOM      1  C   UNL     1     180.807 181.427 181.184  1.00  0.00     0.012 C 
ATOM      2  C   UNL     1     181.430 182.546 180.320  1.00  0.00     0.012 C 
ENDROOT
BRANCH   1   3
ATOM      3  C   UNL     1     181.867 180.437 181.634  1.00  0.00    -0.028 C 
ATOM      4  C   UNL     1     181.658 179.114 181.750  1.00  0.00    -0.028 C 
BRANCH   4   5
ATOM      5  C   UNL     1     182.779 178.172 182.123  1.00  0.00     0.011 C 
ATOM      6  C   UNL     1     183.689 178.831 183.174  1.00  0.00     0.012 C 
BRANCH   5   7
ATOM      7  C   UNL     1     182.214 176.788 182.566  1.00  0.00    -0.011 C 
ATOM      8  C   UNL     1     181.791 175.897 181.385  1.00  0.00     0.008 C 
ATOM      9  C   UNL     1     181.059 176.932 183.568  1.00  0.00     0.008 C 
ENDBRANCH   5   7
ENDBRANCH   4   5
ENDBRANCH   1   3
BRANCH   1  10
ATOM     10  C   UNL     1     179.917 181.897 182.398  1.00  0.00     0.002 C 
ATOM     11  C   UNL     1     178.827 180.895 182.804  1.00  0.00     0.005 C 
ATOM     12  C   UNL     1     180.638 182.301 183.751  1.00  0.00    -0.023 C 
ATOM     13  C   UNL     1     179.352 180.203 184.040  1.00  0.00     0.009 C 
ATOM     14  C   UNL     1     180.079 181.298 184.823  1.00  0.00     0.021 C 
ATOM     15  C   UNL     1     182.206 182.257 183.706  1.00  0.00     0.008 C 
ATOM     16  C   UNL     1     180.212 183.755 184.102  1.00  0.00     0.012 C 
ATOM     17  C   UNL     1     181.157 180.827 185.791  1.00  0.00    -0.063 C 
ATOM     18  C   UNL     1     182.911 182.416 185.083  1.00  0.00     0.009 C 
ATOM     19  C   UNL     1     182.078 181.915 186.291  1.00  0.00     0.025 C 
ATOM     20  C   UNL     1     181.460 179.534 186.015  1.00  0.00    -0.000 C 
ATOM     21  C   UNL     1     182.899 181.476 187.566  1.00  0.00    -0.005 C 
ATOM     22  C   UNL     1     182.686 179.151 186.734  1.00  0.00    -0.000 C 
ATOM     23  C   UNL     1     183.436 180.057 187.384  1.00  0.00    -0.061 C 
ATOM     24  C   UNL     1     184.055 182.484 187.868  1.00  0.00     0.014 C 
ATOM     25  C   UNL     1     181.934 181.457 188.782  1.00  0.00     0.017 C 
ATOM     26  C   UNL     1     184.594 179.568 188.225  1.00  0.00     0.063 C 
ATOM     27  C   UNL     1     185.068 181.954 188.890  1.00  0.00     0.033 C 
ATOM     28  C   UNL     1     185.680 180.639 188.397  1.00  0.00     0.118 C 
BRANCH  28  29
ATOM     29  O   UNL     1     186.637 180.203 189.327  1.00  0.00    -0.393 OA
ATOM     30  H   UNL     1     186.156 180.057 190.183  1.00  0.00     0.210 HD
ENDBRANCH  28  29
ENDBRANCH   1  10
TORSDOF 5
ENDMDL
MODEL 8
REMARK VINA RESULT:    -7.124      4.041      6.680
REMARK INTER + INTRA:         -10.008
REMARK INTER:                  -9.169
REMARK INTRA:                  -0.839
REMARK UNBOUND:                -1.010
REMARK SMILES CC(C)[C@H](C)C=C[C@H](C)[C@H]1CC[C@H]2C3=CC=C4C[C@H](O)CC[C@@]4(C)[C@H]3CC[C@@]12C
REMARK SMILES IDX 8 1 9 2 7 3 6 4 4 5 5 6 2 7 1 8 3 9 10 10 11 11 28 12 12 13
REMARK SMILES IDX 13 14 27 15 29 16 14 17 26 18 25 19 15 20 23 21 16 22 17 23
REMARK SMILES IDX 22 24 24 25 18 26 21 27 19 28 20 29
REMARK H PARENT 20 30
REMARK Flexibility Score: inf
ROOT
ATOM      1  C   UNL     1     181.910 177.104 183.057  1.00  0.00     0.012 C 
ATOM      2  C   UNL     1     181.221 176.104 184.012  1.00  0.00     0.012 C 
ENDROOT
BRANCH   1   3
ATOM      3  C   UNL     1     181.801 176.642 181.615  1.00  0.00    -0.028 C 
ATOM      4  C   UNL     1     181.351 175.430 181.247  1.00  0.00    -0.028 C 
BRANCH   4   5
ATOM      5  C   UNL     1     181.188 175.062 179.790  1.00  0.00     0.011 C 
ATOM      6  C   UNL     1     181.749 176.185 178.900  1.00  0.00     0.012 C 
BRANCH   5   7
ATOM      7  C   UNL     1     181.814 173.664 179.499  1.00  0.00    -0.011 C 
ATOM      8  C   UNL     1     181.804 172.726 180.718  1.00  0.00     0.008 C 
ATOM      9  C   UNL     1     183.235 173.779 178.926  1.00  0.00     0.008 C 
ENDBRANCH   5   7
ENDBRANCH   4   5
ENDBRANCH   1   3
BRANCH   1  10
ATOM     10  C   UNL     1     181.482 178.615 183.203  1.00  0.00     0.002 C 
ATOM     11  C   UNL     1     180.185 178.828 183.996  1.00  0.00     0.005 C 
ATOM     12  C   UNL     1     182.523 179.639 183.822  1.00  0.00    -0.023 C 
ATOM     13  C   UNL     1     180.619 179.287 185.368  1.00  0.00     0.009 C 
ATOM     14  C   UNL     1     181.824 180.194 185.115  1.00  0.00     0.021 C 
ATOM     15  C   UNL     1     183.929 179.029 184.162  1.00  0.00     0.008 C 
ATOM     16  C   UNL     1     182.737 180.783 182.792  1.00  0.00     0.012 C 
ATOM     17  C   UNL     1     182.800 180.355 186.274  1.00  0.00    -0.063 C 
ATOM     18  C   UNL     1     184.868 179.957 184.984  1.00  0.00     0.009 C 
ATOM     19  C   UNL     1     184.130 180.965 185.903  1.00  0.00     0.025 C 
ATOM     20  C   UNL     1     182.633 179.790 187.485  1.00  0.00    -0.000 C 
ATOM     21  C   UNL     1     184.935 181.475 187.161  1.00  0.00    -0.005 C 
ATOM     22  C   UNL     1     183.733 179.743 188.463  1.00  0.00    -0.000 C 
ATOM     23  C   UNL     1     184.866 180.443 188.286  1.00  0.00    -0.061 C 
ATOM     24  C   UNL     1     186.417 181.806 186.788  1.00  0.00     0.014 C 
ATOM     25  C   UNL     1     184.258 182.773 187.678  1.00  0.00     0.017 C 
ATOM     26  C   UNL     1     185.885 180.465 189.403  1.00  0.00     0.063 C 
ATOM     27  C   UNL     1     187.319 182.003 188.012  1.00  0.00     0.033 C 
ATOM     28  C   UNL     1     187.303 180.748 188.890  1.00  0.00     0.118 C 
BRANCH  28  29
ATOM     29  O   UNL     1     188.174 180.937 189.975  1.00  0.00    -0.393 OA
ATOM     30  H   UNL     1     188.844 180.207 189.934  1.00  0.00     0.210 HD
ENDBRANCH  28  29
ENDBRANCH   1  10
TORSDOF 5
ENDMDL
MODEL 9
REMARK VINA RESULT:    -7.081      2.234      4.379
REMARK INTER + INTRA:          -9.953
REMARK INTER:                  -9.006
REMARK INTRA:                  -0.947
REMARK UNBOUND:                -1.010
REMARK SMILES CC(C)[C@H](C)C=C[C@H](C)[C@H]1CC[C@H]2C3=CC=C4C[C@H](O)CC[C@@]4(C)[C@H]3CC[C@@]12C
REMARK SMILES IDX 8 1 9 2 7 3 6 4 4 5 5 6 2 7 1 8 3 9 10 10 11 11 28 12 12 13
REMARK SMILES IDX 13 14 27 15 29 16 14 17 26 18 25 19 15 20 23 21 16 22 17 23
REMARK SMILES IDX 22 24 24 25 18 26 21 27 19 28 20 29
REMARK H PARENT 20 30
REMARK Flexibility Score: inf
ROOT
ATOM      1  C   UNL     1     184.435 174.296 181.846  1.00  0.00     0.012 C 
ATOM      2  C   UNL     1     184.612 173.506 183.162  1.00  0.00     0.012 C 
ENDROOT
BRANCH   1   3
ATOM      3  C   UNL     1     185.255 173.678 180.727  1.00  0.00    -0.028 C 
ATOM      4  C   UNL     1     184.796 172.725 179.898  1.00  0.00    -0.028 C 
BRANCH   4   5
ATOM      5  C   UNL     1     185.636 172.211 178.751  1.00  0.00     0.011 C 
ATOM      6  C   UNL     1     187.062 171.907 179.241  1.00  0.00     0.012 C 
BRANCH   5   7
ATOM      7  C   UNL     1     184.943 170.999 178.057  1.00  0.00    -0.011 C 
ATOM      8  C   UNL     1     185.084 171.012 176.525  1.00  0.00     0.008 C 
ATOM      9  C   UNL     1     183.464 170.877 178.456  1.00  0.00     0.008 C 
ENDBRANCH   5   7
ENDBRANCH   4   5
ENDBRANCH   1   3
BRANCH   1  10
ATOM     10  C   UNL     1     182.950 174.558 181.384  1.00  0.00     0.002 C 
ATOM     11  C   UNL     1     181.894 173.810 182.209  1.00  0.00     0.005 C 
ATOM     12  C   UNL     1     182.436 176.056 181.307  1.00  0.00    -0.023 C 
ATOM     13  C   UNL     1     181.307 174.839 183.146  1.00  0.00     0.009 C 
ATOM     14  C   UNL     1     181.239 176.126 182.322  1.00  0.00     0.021 C 
ATOM     15  C   UNL     1     183.517 177.146 181.638  1.00  0.00     0.008 C 
ATOM     16  C   UNL     1     181.929 176.312 179.860  1.00  0.00     0.012 C 
ATOM     17  C   UNL     1     181.227 177.429 183.111  1.00  0.00    -0.063 C 
ATOM     18  C   UNL     1     182.968 178.591 181.799  1.00  0.00     0.009 C 
ATOM     19  C   UNL     1     181.499 178.668 182.292  1.00  0.00     0.025 C 
ATOM     20  C   UNL     1     181.229 177.497 184.456  1.00  0.00    -0.000 C 
ATOM     21  C   UNL     1     181.088 179.994 183.044  1.00  0.00    -0.005 C 
ATOM     22  C   UNL     1     181.503 178.764 185.155  1.00  0.00    -0.000 C 
ATOM     23  C   UNL     1     181.545 179.937 184.501  1.00  0.00    -0.061 C 
ATOM     24  C   UNL     1     181.663 181.255 182.320  1.00  0.00     0.014 C 
ATOM     25  C   UNL     1     179.539 180.092 183.045  1.00  0.00     0.017 C 
ATOM     26  C   UNL     1     181.680 181.210 185.307  1.00  0.00     0.063 C 
ATOM     27  C   UNL     1     181.565 182.533 183.163  1.00  0.00     0.033 C 
ATOM     28  C   UNL     1     182.306 182.350 184.491  1.00  0.00     0.118 C 
BRANCH  28  29
ATOM     29  O   UNL     1     182.242 183.548 185.220  1.00  0.00    -0.393 OA
ATOM     30  H   UNL     1     181.293 183.839 185.208  1.00  0.00     0.210 HD
ENDBRANCH  28  29
ENDBRANCH   1  10
TORSDOF 5
ENDMDL
