MODEL 1
REMARK VINA RESULT:    -3.402      0.000      0.000
REMARK INTER + INTRA:          -4.052
REMARK INTER:                  -3.998
REMARK INTRA:                  -0.053
REMARK UNBOUND:                -0.053
REMARK SMILES O=C([O-])CCC(=O)[O-]
REMARK SMILES IDX 4 1 2 2 1 3 3 4 5 5 6 6 7 7 8 8
REMARK H PARENT
REMARK Flexibility Score: inf
ROOT
ATOM      1  C   UNL     1      11.021  38.274   1.368  1.00  0.00     0.059 C 
ENDROOT
BRANCH   1   2
ATOM      2  C   UNL     1       9.719  37.643   0.988  1.00  0.00     0.042 C 
ATOM      3  O   UNL     1       8.660  38.323   0.993  1.00  0.00    -0.550 OA
ATOM      4  O   UNL     1       9.667  36.291   0.675  1.00  0.00    -0.550 OA
ENDBRANCH   1   2
BRANCH   1   5
ATOM      5  C   UNL     1      11.064  39.732   0.905  1.00  0.00     0.059 C 
BRANCH   5   6
ATOM      6  C   UNL     1      11.957  40.537   1.793  1.00  0.00     0.042 C 
ATOM      7  O   UNL     1      12.008  40.296   3.028  1.00  0.00    -0.550 OA
ATOM      8  O   UNL     1      12.698  41.587   1.267  1.00  0.00    -0.550 OA
ENDBRANCH   5   6
ENDBRANCH   1   5
TORSDOF 3
ENDMDL
MODEL 2
REMARK VINA RESULT:    -3.370      0.184      4.243
REMARK INTER + INTRA:          -4.015
REMARK INTER:                  -3.970
REMARK INTRA:                  -0.045
REMARK UNBOUND:                -0.053
REMARK SMILES O=C([O-])CCC(=O)[O-]
REMARK SMILES IDX 4 1 2 2 1 3 3 4 5 5 6 6 7 7 8 8
REMARK H PARENT
REMARK Flexibility Score: inf
ROOT
ATOM      1  C   UNL     1      11.086  39.722   0.958  1.00  0.00     0.059 C 
ENDROOT
BRANCH   1   2
ATOM      2  C   UNL     1      12.031  40.468   1.847  1.00  0.00     0.042 C 
ATOM      3  O   UNL     1      12.900  41.230   1.349  1.00  0.00    -0.550 OA
ATOM      4  O   UNL     1      11.983  40.284   3.222  1.00  0.00    -0.550 OA
ENDBRANCH   1   2
BRANCH   1   5
ATOM      5  C   UNL     1      10.993  38.256   1.385  1.00  0.00     0.059 C 
BRANCH   5   6
ATOM      6  C   UNL     1       9.702  37.659   0.927  1.00  0.00     0.042 C 
ATOM      7  O   UNL     1       8.640  38.335   0.965  1.00  0.00    -0.550 OA
ATOM      8  O   UNL     1       9.659  36.337   0.502  1.00  0.00    -0.550 OA
ENDBRANCH   5   6
ENDBRANCH   1   5
TORSDOF 3
ENDMDL
MODEL 3
REMARK VINA RESULT:    -3.291      1.615      1.804
REMARK INTER + INTRA:          -3.921
REMARK INTER:                  -3.801
REMARK INTRA:                  -0.120
REMARK UNBOUND:                -0.053
REMARK SMILES O=C([O-])CCC(=O)[O-]
REMARK SMILES IDX 4 1 2 2 1 3 3 4 5 5 6 6 7 7 8 8
REMARK H PARENT
REMARK Flexibility Score: inf
ROOT
ATOM      1  C   UNL     1      10.922  39.383   1.390  1.00  0.00     0.059 C 
ENDROOT
BRANCH   1   2
ATOM      2  C   UNL     1       9.998  38.246   1.089  1.00  0.00     0.042 C 
ATOM      3  O   UNL     1       8.761  38.451   0.968  1.00  0.00    -0.550 OA
ATOM      4  O   UNL     1      10.495  36.954   0.990  1.00  0.00    -0.550 OA
ENDBRANCH   1   2
BRANCH   1   5
ATOM      5  C   UNL     1      11.401  39.315   2.841  1.00  0.00     0.059 C 
BRANCH   5   6
ATOM      6  C   UNL     1      12.849  38.950   2.898  1.00  0.00     0.042 C 
ATOM      7  O   UNL     1      13.197  37.744   2.996  1.00  0.00    -0.550 OA
ATOM      8  O   UNL     1      13.818  39.946   2.893  1.00  0.00    -0.550 OA
ENDBRANCH   5   6
ENDBRANCH   1   5
TORSDOF 3
ENDMDL
MODEL 4
REMARK VINA RESULT:    -3.266      1.507      3.943
REMARK INTER + INTRA:          -3.892
REMARK INTER:                  -3.769
REMARK INTRA:                  -0.123
REMARK UNBOUND:                -0.053
REMARK SMILES O=C([O-])CCC(=O)[O-]
REMARK SMILES IDX 4 1 2 2 1 3 3 4 5 5 6 6 7 7 8 8
REMARK H PARENT
REMARK Flexibility Score: inf
ROOT
ATOM      1  C   UNL     1      11.389  39.543   2.619  1.00  0.00     0.059 C 
ENDROOT
BRANCH   1   2
ATOM      2  C   UNL     1      12.828  39.160   2.772  1.00  0.00     0.042 C 
ATOM      3  O   UNL     1      13.732  40.021   2.614  1.00  0.00    -0.550 OA
ATOM      4  O   UNL     1      13.171  37.842   3.042  1.00  0.00    -0.550 OA
ENDBRANCH   1   2
BRANCH   1   5
ATOM      5  C   UNL     1      10.935  39.348   1.172  1.00  0.00     0.059 C 
BRANCH   5   6
ATOM      6  C   UNL     1      10.050  38.148   1.058  1.00  0.00     0.042 C 
ATOM      7  O   UNL     1      10.550  36.996   0.975  1.00  0.00    -0.550 OA
ATOM      8  O   UNL     1       8.671  38.305   0.994  1.00  0.00    -0.550 OA
ENDBRANCH   5   6
ENDBRANCH   1   5
TORSDOF 3
ENDMDL
MODEL 5
REMARK VINA RESULT:    -3.181      9.419     10.627
REMARK INTER + INTRA:          -3.792
REMARK INTER:                  -3.647
REMARK INTRA:                  -0.144
REMARK UNBOUND:                -0.053
REMARK SMILES O=C([O-])CCC(=O)[O-]
REMARK SMILES IDX 4 1 2 2 1 3 3 4 5 5 6 6 7 7 8 8
REMARK H PARENT
REMARK Flexibility Score: inf
ROOT
ATOM      1  C   UNL     1       3.806  38.867  -6.450  1.00  0.00     0.059 C 
ENDROOT
BRANCH   1   2
ATOM      2  C   UNL     1       3.880  39.753  -7.653  1.00  0.00     0.042 C 
ATOM      3  O   UNL     1       3.633  39.289  -8.797  1.00  0.00    -0.550 OA
ATOM      4  O   UNL     1       4.268  41.079  -7.517  1.00  0.00    -0.550 OA
ENDBRANCH   1   2
BRANCH   1   5
ATOM      5  C   UNL     1       5.148  38.845  -5.717  1.00  0.00     0.059 C 
BRANCH   5   6
ATOM      6  C   UNL     1       6.222  38.309  -6.607  1.00  0.00     0.042 C 
ATOM      7  O   UNL     1       6.299  37.073  -6.836  1.00  0.00    -0.550 OA
ATOM      8  O   UNL     1       7.171  39.168  -7.147  1.00  0.00    -0.550 OA
ENDBRANCH   5   6
ENDBRANCH   1   5
TORSDOF 3
ENDMDL
MODEL 6
REMARK VINA RESULT:    -3.099      9.065     10.165
REMARK INTER + INTRA:          -3.695
REMARK INTER:                  -3.599
REMARK INTRA:                  -0.096
REMARK UNBOUND:                -0.053
REMARK SMILES O=C([O-])CCC(=O)[O-]
REMARK SMILES IDX 4 1 2 2 1 3 3 4 5 5 6 6 7 7 8 8
REMARK H PARENT
REMARK Flexibility Score: inf
ROOT
ATOM      1  C   UNL     1       5.647  38.571  -5.649  1.00  0.00     0.059 C 
ENDROOT
BRANCH   1   2
ATOM      2  C   UNL     1       5.660  37.087  -5.838  1.00  0.00     0.042 C 
ATOM      3  O   UNL     1       6.024  36.592  -6.938  1.00  0.00    -0.550 OA
ATOM      4  O   UNL     1       5.225  36.252  -4.818  1.00  0.00    -0.550 OA
ENDBRANCH   1   2
BRANCH   1   5
ATOM      5  C   UNL     1       5.713  39.284  -7.001  1.00  0.00     0.059 C 
BRANCH   5   6
ATOM      6  C   UNL     1       4.413  39.959  -7.300  1.00  0.00     0.042 C 
ATOM      7  O   UNL     1       3.335  39.309  -7.256  1.00  0.00    -0.550 OA
ATOM      8  O   UNL     1       4.395  41.296  -7.676  1.00  0.00    -0.550 OA
ENDBRANCH   5   6
ENDBRANCH   1   5
TORSDOF 3
ENDMDL
MODEL 7
REMARK VINA RESULT:    -3.098      9.248     10.474
REMARK INTER + INTRA:          -3.695
REMARK INTER:                  -3.617
REMARK INTRA:                  -0.079
REMARK UNBOUND:                -0.053
REMARK SMILES O=C([O-])CCC(=O)[O-]
REMARK SMILES IDX 4 1 2 2 1 3 3 4 5 5 6 6 7 7 8 8
REMARK H PARENT
REMARK Flexibility Score: inf
ROOT
ATOM      1  C   UNL     1       5.717  39.279  -7.024  1.00  0.00     0.059 C 
ENDROOT
BRANCH   1   2
ATOM      2  C   UNL     1       4.407  39.952  -7.289  1.00  0.00     0.042 C 
ATOM      3  O   UNL     1       3.336  39.294  -7.237  1.00  0.00    -0.550 OA
ATOM      4  O   UNL     1       4.374  41.295  -7.641  1.00  0.00    -0.550 OA
ENDBRANCH   1   2
BRANCH   1   5
ATOM      5  C   UNL     1       5.688  38.564  -5.672  1.00  0.00     0.059 C 
BRANCH   5   6
ATOM      6  C   UNL     1       5.641  37.083  -5.864  1.00  0.00     0.042 C 
ATOM      7  O   UNL     1       6.282  36.544  -6.805  1.00  0.00    -0.550 OA
ATOM      8  O   UNL     1       4.850  36.299  -5.034  1.00  0.00    -0.550 OA
ENDBRANCH   5   6
ENDBRANCH   1   5
TORSDOF 3
ENDMDL
MODEL 8
REMARK VINA RESULT:    -2.961      2.528      3.377
REMARK INTER + INTRA:          -3.533
REMARK INTER:                  -3.504
REMARK INTRA:                  -0.029
REMARK UNBOUND:                -0.053
REMARK SMILES O=C([O-])CCC(=O)[O-]
REMARK SMILES IDX 4 1 2 2 1 3 3 4 5 5 6 6 7 7 8 8
REMARK H PARENT
REMARK Flexibility Score: inf
ROOT
ATOM      1  C   UNL     1      10.990  39.983   0.756  1.00  0.00     0.059 C 
ENDROOT
BRANCH   1   2
ATOM      2  C   UNL     1      10.810  41.089  -0.236  1.00  0.00     0.042 C 
ATOM      3  O   UNL     1      11.814  41.620  -0.780  1.00  0.00    -0.550 OA
ATOM      4  O   UNL     1       9.538  41.567  -0.521  1.00  0.00    -0.550 OA
ENDBRANCH   1   2
BRANCH   1   5
ATOM      5  C   UNL     1      12.009  40.382   1.825  1.00  0.00     0.059 C 
BRANCH   5   6
ATOM      6  C   UNL     1      12.027  39.378   2.932  1.00  0.00     0.042 C 
ATOM      7  O   UNL     1      11.237  39.493   3.906  1.00  0.00    -0.550 OA
ATOM      8  O   UNL     1      12.950  38.340   2.914  1.00  0.00    -0.550 OA
ENDBRANCH   5   6
ENDBRANCH   1   5
TORSDOF 3
ENDMDL
MODEL 9
REMARK VINA RESULT:    -2.958      9.109      9.971
REMARK INTER + INTRA:          -3.530
REMARK INTER:                  -3.425
REMARK INTRA:                  -0.105
REMARK UNBOUND:                -0.053
REMARK SMILES O=C([O-])CCC(=O)[O-]
REMARK SMILES IDX 4 1 2 2 1 3 3 4 5 5 6 6 7 7 8 8
REMARK H PARENT
REMARK Flexibility Score: inf
ROOT
ATOM      1  C   UNL     1       5.052  38.895  -5.885  1.00  0.00     0.059 C 
ENDROOT
BRANCH   1   2
ATOM      2  C   UNL     1       6.226  38.375  -6.654  1.00  0.00     0.042 C 
ATOM      3  O   UNL     1       6.400  37.135  -6.781  1.00  0.00    -0.550 OA
ATOM      4  O   UNL     1       7.153  39.259  -7.188  1.00  0.00    -0.550 OA
ENDBRANCH   1   2
BRANCH   1   5
ATOM      5  C   UNL     1       4.880  38.116  -4.579  1.00  0.00     0.059 C 
BRANCH   5   6
ATOM      6  C   UNL     1       3.566  37.404  -4.563  1.00  0.00     0.042 C 
ATOM      7  O   UNL     1       3.508  36.172  -4.819  1.00  0.00    -0.550 OA
ATOM      8  O   UNL     1       2.396  38.110  -4.314  1.00  0.00    -0.550 OA
ENDBRANCH   5   6
ENDBRANCH   1   5
TORSDOF 3
ENDMDL
