MODEL 1
REMARK VINA RESULT:    66.070      0.000      0.000
REMARK INTER + INTRA:          96.339
REMARK INTER:                  95.038
REMARK INTRA:                   1.302
REMARK UNBOUND:                 1.302
REMARK SMILES O=c1cc(-c2ccc(O)c(O)c2)oc2cc(O[C@H]3O[C@H](CO)[C@H](O)[C@H](O)[C@H]3O)cc(O)c12
REMARK SMILES IDX 17 1 16 2 4 3 3 4 13 5 2 6 14 7 1 8 32 9 15 10 30 11 29 12
REMARK SMILES IDX 5 13 6 14 7 15 8 16 12 17 10 18 9 19 11 21 31 23 18 25 27 26
REMARK SMILES IDX 19 27 25 28 20 29 23 30 28 31 26 33 21 35 22 36 24 38
REMARK H PARENT 9 20 11 22 31 24 28 32 26 34 22 37 24 39
REMARK Flexibility Score: inf
ROOT
ATOM      1  O   UNL     1      12.316   2.904  29.878  1.00  0.00    -0.462 OA
ENDROOT
BRANCH   1   2
ATOM      2  C   UNL     1      13.330   2.437  29.023  1.00  0.00     0.130 A 
ATOM      3  C   UNL     1      14.718  -1.066  26.097  1.00  0.00     0.138 A 
ATOM      4  C   UNL     1      15.938  -0.432  25.813  1.00  0.00     0.100 A 
ATOM      5  O   UNL     1      13.861  -0.490  26.937  1.00  0.00    -0.456 OA
ATOM      6  C   UNL     1      16.225   0.799  26.403  1.00  0.00     0.197 A 
ATOM      7  C   UNL     1      14.089   0.681  27.524  1.00  0.00     0.146 A 
ATOM      8  O   UNL     1      17.323   1.361  26.143  1.00  0.00    -0.289 OA
ATOM      9  C   UNL     1      15.290   1.386  27.279  1.00  0.00     0.107 A 
ATOM     10  C   UNL     1      13.126   1.209  28.387  1.00  0.00     0.094 A 
ATOM     11  C   UNL     1      15.501   2.629  27.919  1.00  0.00     0.134 A 
ATOM     12  C   UNL     1      14.522   3.145  28.781  1.00  0.00     0.093 A 
BRANCH   3  13
ATOM     13  C   UNL     1      14.358  -2.378  25.500  1.00  0.00     0.021 A 
ATOM     14  C   UNL     1      13.017  -2.766  25.321  1.00  0.00     0.016 A 
ATOM     15  C   UNL     1      12.708  -4.010  24.767  1.00  0.00     0.051 A 
ATOM     16  C   UNL     1      13.725  -4.890  24.389  1.00  0.00     0.157 A 
ATOM     17  C   UNL     1      15.377  -3.273  25.131  1.00  0.00     0.062 A 
ATOM     18  C   UNL     1      15.067  -4.522  24.573  1.00  0.00     0.158 A 
BRANCH  16  19
ATOM     19  O   UNL     1      13.384  -6.125  23.837  1.00  0.00    -0.504 OA
ATOM     20  H   UNL     1      12.448  -6.505  23.905  1.00  0.00     0.293 HD
ENDBRANCH  16  19
BRANCH  18  21
ATOM     21  O   UNL     1      16.088  -5.396  24.202  1.00  0.00    -0.504 OA
ATOM     22  H   UNL     1      16.326  -5.553  23.229  1.00  0.00     0.293 HD
ENDBRANCH  18  21
ENDBRANCH   3  13
BRANCH  11  23
ATOM     23  O   UNL     1      16.675   3.354  27.704  1.00  0.00    -0.507 OA
ATOM     24  H   UNL     1      17.420   3.377  28.390  1.00  0.00     0.293 HD
ENDBRANCH  11  23
ENDBRANCH   1   2
BRANCH   1  25
ATOM     25  C   UNL     1      11.138   3.631  29.498  1.00  0.00     0.339 C 
ATOM     26  C   UNL     1      10.664   3.269  28.067  1.00  0.00     0.214 C 
ATOM     27  O   UNL     1      11.371   5.026  29.610  1.00  0.00    -0.332 OA
ATOM     28  C   UNL     1      11.666   3.782  27.010  1.00  0.00     0.180 C 
ATOM     29  C   UNL     1      12.396   5.460  28.727  1.00  0.00     0.179 C 
ATOM     30  C   UNL     1      11.966   5.270  27.256  1.00  0.00     0.177 C 
BRANCH  26  31
ATOM     31  O   UNL     1      10.429   1.888  27.933  1.00  0.00    -0.384 OA
ATOM     32  H   UNL     1      10.069   1.725  27.023  1.00  0.00     0.211 HD
ENDBRANCH  26  31
BRANCH  28  33
ATOM     33  O   UNL     1      11.142   3.613  25.718  1.00  0.00    -0.387 OA
ATOM     34  H   UNL     1      11.900   3.716  25.084  1.00  0.00     0.211 HD
ENDBRANCH  28  33
BRANCH  29  35
ATOM     35  C   UNL     1      12.716   6.930  29.019  1.00  0.00     0.191 C 
BRANCH  35  36
ATOM     36  O   UNL     1      11.524   7.650  29.171  1.00  0.00    -0.394 OA
ATOM     37  H   UNL     1      11.782   8.607  29.203  1.00  0.00     0.210 HD
ENDBRANCH  35  36
ENDBRANCH  29  35
BRANCH  30  38
ATOM     38  O   UNL     1      10.825   6.049  26.989  1.00  0.00    -0.387 OA
ATOM     39  H   UNL     1      10.072   5.419  26.841  1.00  0.00     0.211 HD
ENDBRANCH  30  38
ENDBRANCH   1  25
TORSDOF 11
ENDMDL
MODEL 2
REMARK VINA RESULT:    66.555      4.323      9.799
REMARK INTER + INTRA:          97.038
REMARK INTER:                  97.508
REMARK INTRA:                  -0.470
REMARK UNBOUND:                 1.302
REMARK SMILES O=c1cc(-c2ccc(O)c(O)c2)oc2cc(O[C@H]3O[C@H](CO)[C@H](O)[C@H](O)[C@H]3O)cc(O)c12
REMARK SMILES IDX 17 1 16 2 4 3 3 4 13 5 2 6 14 7 1 8 32 9 15 10 30 11 29 12
REMARK SMILES IDX 5 13 6 14 7 15 8 16 12 17 10 18 9 19 11 21 31 23 18 25 27 26
REMARK SMILES IDX 19 27 25 28 20 29 23 30 28 31 26 33 21 35 22 36 24 38
REMARK H PARENT 9 20 11 22 31 24 28 32 26 34 22 37 24 39
REMARK Flexibility Score: inf
ROOT
ATOM      1  O   UNL     1      12.085   4.831  28.932  1.00  0.00    -0.462 OA
ENDROOT
BRANCH   1   2
ATOM      2  C   UNL     1      12.094   6.223  28.728  1.00  0.00     0.130 A 
ATOM      3  C   UNL     1      14.043   9.842  26.307  1.00  0.00     0.138 A 
ATOM      4  C   UNL     1      13.248  10.794  26.965  1.00  0.00     0.100 A 
ATOM      5  O   UNL     1      13.915   8.554  26.619  1.00  0.00    -0.456 OA
ATOM      6  C   UNL     1      12.327  10.374  27.924  1.00  0.00     0.197 A 
ATOM      7  C   UNL     1      13.053   8.104  27.526  1.00  0.00     0.146 A 
ATOM      8  O   UNL     1      11.618  11.236  28.511  1.00  0.00    -0.289 OA
ATOM      9  C   UNL     1      12.211   9.001  28.222  1.00  0.00     0.107 A 
ATOM     10  C   UNL     1      12.988   6.733  27.783  1.00  0.00     0.094 A 
ATOM     11  C   UNL     1      11.304   8.490  29.180  1.00  0.00     0.134 A 
ATOM     12  C   UNL     1      11.251   7.110  29.423  1.00  0.00     0.093 A 
BRANCH   3  13
ATOM     13  C   UNL     1      15.042  10.230  25.278  1.00  0.00     0.021 A 
ATOM     14  C   UNL     1      15.584   9.289  24.382  1.00  0.00     0.016 A 
ATOM     15  C   UNL     1      16.530   9.680  23.431  1.00  0.00     0.051 A 
ATOM     16  C   UNL     1      16.957  11.009  23.361  1.00  0.00     0.157 A 
ATOM     17  C   UNL     1      15.485  11.563  25.211  1.00  0.00     0.062 A 
ATOM     18  C   UNL     1      16.434  11.956  24.256  1.00  0.00     0.158 A 
BRANCH  16  19
ATOM     19  O   UNL     1      17.901  11.369  22.400  1.00  0.00    -0.504 OA
ATOM     20  H   UNL     1      18.058  12.334  22.135  1.00  0.00     0.293 HD
ENDBRANCH  16  19
BRANCH  18  21
ATOM     21  O   UNL     1      16.857  13.283  24.195  1.00  0.00    -0.504 OA
ATOM     22  H   UNL     1      17.823  13.540  24.357  1.00  0.00     0.293 HD
ENDBRANCH  18  21
ENDBRANCH   3  13
BRANCH  11  23
ATOM     23  O   UNL     1      10.457   9.344  29.890  1.00  0.00    -0.507 OA
ATOM     24  H   UNL     1      10.586  10.349  29.883  1.00  0.00     0.293 HD
ENDBRANCH  11  23
ENDBRANCH   1   2
BRANCH   1  25
ATOM     25  C   UNL     1      11.897   3.817  27.934  1.00  0.00     0.339 C 
ATOM     26  C   UNL     1      11.120   2.594  28.483  1.00  0.00     0.214 C 
ATOM     27  O   UNL     1      13.153   3.417  27.407  1.00  0.00    -0.332 OA
ATOM     28  C   UNL     1      11.969   1.821  29.516  1.00  0.00     0.180 C 
ATOM     29  C   UNL     1      13.979   2.831  28.404  1.00  0.00     0.179 C 
ATOM     30  C   UNL     1      13.356   1.519  28.927  1.00  0.00     0.177 C 
BRANCH  26  31
ATOM     31  O   UNL     1       9.872   2.969  29.013  1.00  0.00    -0.384 OA
ATOM     32  H   UNL     1       9.175   2.404  28.589  1.00  0.00     0.211 HD
ENDBRANCH  26  31
BRANCH  28  33
ATOM     33  O   UNL     1      11.333   0.619  29.869  1.00  0.00    -0.387 OA
ATOM     34  H   UNL     1      10.702   0.401  29.135  1.00  0.00     0.211 HD
ENDBRANCH  28  33
BRANCH  29  35
ATOM     35  C   UNL     1      15.371   2.582  27.814  1.00  0.00     0.191 C 
BRANCH  35  36
ATOM     36  O   UNL     1      15.372   1.375  27.104  1.00  0.00    -0.394 OA
ATOM     37  H   UNL     1      16.269   1.301  26.687  1.00  0.00     0.210 HD
ENDBRANCH  35  36
ENDBRANCH  29  35
BRANCH  30  38
ATOM     38  O   UNL     1      13.249   0.591  27.874  1.00  0.00    -0.387 OA
ATOM     39  H   UNL     1      12.787  -0.209  28.239  1.00  0.00     0.211 HD
ENDBRANCH  30  38
ENDBRANCH   1  25
TORSDOF 11
ENDMDL
MODEL 3
REMARK VINA RESULT:    68.676      8.078     12.603
REMARK INTER + INTRA:         100.089
REMARK INTER:                 100.899
REMARK INTRA:                  -0.809
REMARK UNBOUND:                 1.302
REMARK SMILES O=c1cc(-c2ccc(O)c(O)c2)oc2cc(O[C@H]3O[C@H](CO)[C@H](O)[C@H](O)[C@H]3O)cc(O)c12
REMARK SMILES IDX 17 1 16 2 4 3 3 4 13 5 2 6 14 7 1 8 32 9 15 10 30 11 29 12
REMARK SMILES IDX 5 13 6 14 7 15 8 16 12 17 10 18 9 19 11 21 31 23 18 25 27 26
REMARK SMILES IDX 19 27 25 28 20 29 23 30 28 31 26 33 21 35 22 36 24 38
REMARK H PARENT 9 20 11 22 31 24 28 32 26 34 22 37 24 39
REMARK Flexibility Score: inf
ROOT
ATOM      1  O   UNL     1      14.312  -0.768  35.369  1.00  0.00    -0.462 OA
ENDROOT
BRANCH   1   2
ATOM      2  C   UNL     1      14.577   0.497  35.923  1.00  0.00     0.130 A 
ATOM      3  C   UNL     1      12.967   4.944  36.548  1.00  0.00     0.138 A 
ATOM      4  C   UNL     1      14.114   5.328  37.261  1.00  0.00     0.100 A 
ATOM      5  O   UNL     1      12.870   3.701  36.083  1.00  0.00    -0.456 OA
ATOM      6  C   UNL     1      15.127   4.395  37.484  1.00  0.00     0.197 A 
ATOM      7  C   UNL     1      13.808   2.776  36.269  1.00  0.00     0.146 A 
ATOM      8  O   UNL     1      16.153   4.748  38.125  1.00  0.00    -0.289 OA
ATOM      9  C   UNL     1      14.986   3.083  36.987  1.00  0.00     0.107 A 
ATOM     10  C   UNL     1      13.615   1.496  35.747  1.00  0.00     0.094 A 
ATOM     11  C   UNL     1      15.963   2.077  37.169  1.00  0.00     0.134 A 
ATOM     12  C   UNL     1      15.752   0.795  36.639  1.00  0.00     0.093 A 
BRANCH   3  13
ATOM     13  C   UNL     1      11.858   5.895  36.278  1.00  0.00     0.021 A 
ATOM     14  C   UNL     1      11.686   6.491  35.014  1.00  0.00     0.016 A 
ATOM     15  C   UNL     1      10.640   7.390  34.792  1.00  0.00     0.051 A 
ATOM     16  C   UNL     1       9.754   7.715  35.822  1.00  0.00     0.157 A 
ATOM     17  C   UNL     1      10.971   6.237  37.314  1.00  0.00     0.062 A 
ATOM     18  C   UNL     1       9.920   7.138  37.091  1.00  0.00     0.158 A 
BRANCH  16  19
ATOM     19  O   UNL     1       8.718   8.614  35.568  1.00  0.00    -0.504 OA
ATOM     20  H   UNL     1       8.874   9.614  35.520  1.00  0.00     0.293 HD
ENDBRANCH  16  19
BRANCH  18  21
ATOM     21  O   UNL     1       9.043   7.460  38.125  1.00  0.00    -0.504 OA
ATOM     22  H   UNL     1       8.051   7.590  37.959  1.00  0.00     0.293 HD
ENDBRANCH  18  21
ENDBRANCH   3  13
BRANCH  11  23
ATOM     23  O   UNL     1      17.141   2.342  37.870  1.00  0.00    -0.507 OA
ATOM     24  H   UNL     1      18.037   1.982  37.563  1.00  0.00     0.293 HD
ENDBRANCH  11  23
ENDBRANCH   1   2
BRANCH   1  25
ATOM     25  C   UNL     1      13.511  -1.809  35.947  1.00  0.00     0.339 C 
ATOM     26  C   UNL     1      14.365  -2.841  36.725  1.00  0.00     0.214 C 
ATOM     27  O   UNL     1      12.748  -2.451  34.936  1.00  0.00    -0.332 OA
ATOM     28  C   UNL     1      15.247  -3.664  35.760  1.00  0.00     0.180 C 
ATOM     29  C   UNL     1      13.579  -3.089  33.976  1.00  0.00     0.179 C 
ATOM     30  C   UNL     1      14.382  -4.237  34.625  1.00  0.00     0.177 C 
BRANCH  26  31
ATOM     31  O   UNL     1      15.133  -2.225  37.731  1.00  0.00    -0.384 OA
ATOM     32  H   UNL     1      14.699  -1.365  37.965  1.00  0.00     0.211 HD
ENDBRANCH  26  31
BRANCH  28  33
ATOM     33  O   UNL     1      15.877  -4.714  36.449  1.00  0.00    -0.387 OA
ATOM     34  H   UNL     1      16.640  -4.315  36.945  1.00  0.00     0.211 HD
ENDBRANCH  28  33
BRANCH  29  35
ATOM     35  C   UNL     1      12.705  -3.610  32.830  1.00  0.00     0.191 C 
BRANCH  35  36
ATOM     36  O   UNL     1      11.408  -3.853  33.299  1.00  0.00    -0.394 OA
ATOM     37  H   UNL     1      10.979  -2.964  33.394  1.00  0.00     0.210 HD
ENDBRANCH  35  36
ENDBRANCH  29  35
BRANCH  30  38
ATOM     38  O   UNL     1      13.498  -5.211  35.128  1.00  0.00    -0.387 OA
ATOM     39  H   UNL     1      13.840  -6.093  34.828  1.00  0.00     0.211 HD
ENDBRANCH  30  38
ENDBRANCH   1  25
TORSDOF 11
ENDMDL
