MODEL 1
REMARK VINA RESULT:     9.405      0.000      0.000
REMARK INTER + INTRA:          13.759
REMARK INTER:                  13.254
REMARK INTRA:                   0.505
REMARK UNBOUND:                 0.505
REMARK SMILES C[C@@H](CO)CCC(=O)[C@H](C)[C@@H]1C(=O)C[C@H]2[C@@H]3CC=C4C[C@@H](O)CC[C@@]4(C)[C@H]3CC[C@]21C
REMARK SMILES IDX 6 1 5 2 2 3 1 4 3 5 4 6 7 8 8 9 9 10 10 11 11 12 12 13 30 14
REMARK SMILES IDX 13 15 14 16 15 17 29 18 31 19 16 20 28 21 27 22 17 23 25 24
REMARK SMILES IDX 18 25 19 26 24 27 26 28 20 29 23 30 21 31 22 32
REMARK H PARENT 4 7 22 33
REMARK Flexibility Score: inf
ROOT
ATOM      1  C   UNL     1      17.359  -5.052  16.178  1.00  0.00     0.076 C 
ENDROOT
BRANCH   1   2
ATOM      2  C   UNL     1      17.320  -6.302  17.070  1.00  0.00     0.013 C 
BRANCH   2   3
ATOM      3  C   UNL     1      16.525  -6.131  18.389  1.00  0.00     0.012 C 
ATOM      4  C   UNL     1      17.270  -5.260  19.414  1.00  0.00     0.010 C 
BRANCH   3   5
ATOM      5  C   UNL     1      15.098  -5.597  18.138  1.00  0.00     0.159 C 
BRANCH   5   6
ATOM      6  O   UNL     1      14.861  -4.443  18.904  1.00  0.00    -0.396 OA
ATOM      7  H   UNL     1      15.016  -3.669  18.300  1.00  0.00     0.210 HD
ENDBRANCH   5   6
ENDBRANCH   3   5
ENDBRANCH   2   3
ENDBRANCH   1   2
BRANCH   1   8
ATOM      8  C   UNL     1      17.424  -5.420  14.714  1.00  0.00     0.136 C 
ATOM      9  O   UNL     1      16.833  -4.725  13.896  1.00  0.00    -0.299 OA
BRANCH   8  10
ATOM     10  C   UNL     1      18.234  -6.621  14.255  1.00  0.00     0.064 C 
ATOM     11  C   UNL     1      18.851  -6.272  12.892  1.00  0.00     0.017 C 
BRANCH  10  12
ATOM     12  C   UNL     1      17.401  -7.956  14.179  1.00  0.00     0.072 C 
ATOM     13  C   UNL     1      18.217  -9.191  13.984  1.00  0.00     0.137 C 
ATOM     14  C   UNL     1      16.296  -8.059  13.050  1.00  0.00    -0.019 C 
ATOM     15  O   UNL     1      19.089  -9.534  14.766  1.00  0.00    -0.299 OA
ATOM     16  C   UNL     1      17.740 -10.103  12.931  1.00  0.00     0.080 C 
ATOM     17  C   UNL     1      16.418  -9.501  12.423  1.00  0.00     0.007 C 
ATOM     18  C   UNL     1      14.894  -7.827  13.691  1.00  0.00     0.008 C 
ATOM     19  C   UNL     1      16.507  -7.043  11.888  1.00  0.00     0.012 C 
ATOM     20  C   UNL     1      15.195 -10.427  12.705  1.00  0.00     0.001 C 
ATOM     21  C   UNL     1      13.747  -8.261  12.779  1.00  0.00     0.005 C 
ATOM     22  C   UNL     1      13.846  -9.748  12.332  1.00  0.00     0.003 C 
ATOM     23  C   UNL     1      15.287 -11.723  11.875  1.00  0.00     0.031 C 
ATOM     24  C   UNL     1      12.608 -10.650  12.729  1.00  0.00    -0.008 C 
ATOM     25  C   UNL     1      14.117 -12.613  12.161  1.00  0.00    -0.027 C 
ATOM     26  C   UNL     1      12.881 -12.140  12.444  1.00  0.00    -0.065 C 
ATOM     27  C   UNL     1      12.264 -10.547  14.252  1.00  0.00     0.014 C 
ATOM     28  C   UNL     1      11.398 -10.183  11.876  1.00  0.00     0.016 C 
ATOM     29  C   UNL     1      11.808 -13.134  12.833  1.00  0.00     0.063 C 
ATOM     30  C   UNL     1      11.193 -11.562  14.719  1.00  0.00     0.033 C 
ATOM     31  C   UNL     1      11.534 -13.014  14.340  1.00  0.00     0.118 C 
BRANCH  31  32
ATOM     32  O   UNL     1      12.655 -13.438  15.075  1.00  0.00    -0.393 OA
ATOM     33  H   UNL     1      12.548 -13.086  15.996  1.00  0.00     0.210 HD
ENDBRANCH  31  32
ENDBRANCH  10  12
ENDBRANCH   8  10
ENDBRANCH   1   8
TORSDOF 8
ENDMDL
