MODEL 1
REMARK VINA RESULT:    47.219      0.000      0.000
REMARK INTER + INTRA:          56.633
REMARK INTER:                  55.500
REMARK INTRA:                   1.134
REMARK UNBOUND:                 1.134
REMARK SMILES C=C(C)[C@@H]1CC[C@]2(CO)CC[C@]3(C)[C@H](CC[C@@H]4[C@@]5(C)CC[C@@H](O)C(C)(C)[C@@H]5CC[C@]43C)[C@@H]12
REMARK SMILES IDX 4 1 5 2 6 3 7 4 32 5 14 6 15 7 16 8 17 9 18 10 20 11 21 12
REMARK SMILES IDX 22 13 24 14 27 15 28 16 29 17 30 18 12 19 11 20 10 21 13 22
REMARK SMILES IDX 31 23 25 24 26 25 19 26 2 27 3 28 1 29 8 30 9 31 23 33
REMARK H PARENT 9 32 23 34
REMARK Flexibility Score: inf
ROOT
ATOM      1  C   UNL     1      10.282  31.013 -22.469  1.00  0.00     0.018 C 
ATOM      2  C   UNL     1      11.500  30.306 -23.113  1.00  0.00     0.009 C 
ATOM      3  C   UNL     1      11.223  30.244 -24.626  1.00  0.00     0.010 C 
ATOM      4  C   UNL     1       9.697  30.401 -24.753  1.00  0.00    -0.003 C 
ATOM      5  C   UNL     1       9.448  31.475 -23.678  1.00  0.00     0.008 C 
ATOM      6  C   UNL     1       7.943  31.797 -23.531  1.00  0.00    -0.000 C 
ATOM      7  C   UNL     1       7.636  32.716 -22.330  1.00  0.00     0.005 C 
ATOM      8  C   UNL     1       6.136  33.026 -22.181  1.00  0.00     0.005 C 
ATOM      9  C   UNL     1       5.455  33.504 -23.504  1.00  0.00     0.002 C 
ATOM     10  C   UNL     1       3.944  33.990 -23.337  1.00  0.00    -0.026 C 
ATOM     11  C   UNL     1       3.905  35.167 -22.305  1.00  0.00     0.010 C 
ATOM     12  C   UNL     1       2.579  35.943 -22.277  1.00  0.00     0.033 C 
ATOM     13  C   UNL     1       2.194  36.495 -23.654  1.00  0.00     0.120 C 
ATOM     14  C   UNL     1       2.130  35.379 -24.749  1.00  0.00    -0.006 C 
ATOM     15  C   UNL     1       3.485  34.563 -24.736  1.00  0.00     0.003 C 
ATOM     16  C   UNL     1       3.622  33.505 -25.859  1.00  0.00     0.005 C 
ATOM     17  C   UNL     1       5.083  33.057 -26.022  1.00  0.00     0.008 C 
ATOM     18  C   UNL     1       5.751  32.514 -24.713  1.00  0.00    -0.024 C 
ATOM     19  C   UNL     1       7.360  32.388 -24.885  1.00  0.00    -0.024 C 
ATOM     20  C   UNL     1       7.768  31.477 -26.117  1.00  0.00     0.008 C 
ATOM     21  C   UNL     1       9.238  30.960 -26.124  1.00  0.00     0.010 C 
ATOM     22  C   UNL     1       8.033  33.785 -25.195  1.00  0.00     0.012 C 
ATOM     23  C   UNL     1       5.100  31.111 -24.435  1.00  0.00     0.012 C 
ATOM     24  C   UNL     1       0.877  34.491 -24.533  1.00  0.00     0.014 C 
ATOM     25  C   UNL     1       1.933  36.077 -26.125  1.00  0.00     0.014 C 
ATOM     26  C   UNL     1       3.018  32.846 -22.803  1.00  0.00     0.012 C 
ENDROOT
BRANCH   1  27
ATOM     27  C   UNL     1      10.715  32.146 -21.539  1.00  0.00    -0.077 C 
ATOM     28  C   UNL     1      12.119  32.224 -20.988  1.00  0.00     0.039 C 
ATOM     29  C   UNL     1       9.826  33.077 -21.156  1.00  0.00     0.008 C 
ENDBRANCH   1  27
BRANCH   4  30
ATOM     30  C   UNL     1       9.074  28.979 -24.473  1.00  0.00     0.163 C 
BRANCH  30  31
ATOM     31  O   UNL     1       8.477  28.393 -25.600  1.00  0.00    -0.396 OA
ATOM     32  H   UNL     1       8.626  27.417 -25.537  1.00  0.00     0.210 HD
ENDBRANCH  30  31
ENDBRANCH   4  30
BRANCH  13  33
ATOM     33  O   UNL     1       3.131  37.489 -24.006  1.00  0.00    -0.393 OA
ATOM     34  H   UNL     1       2.881  37.827 -24.907  1.00  0.00     0.210 HD
ENDBRANCH  13  33
TORSDOF 4
ENDMDL
