MODEL 1
REMARK VINA RESULT:    -6.290      0.000      0.000
REMARK INTER + INTRA:          -7.227
REMARK INTER:                  -7.393
REMARK INTRA:                   0.166
REMARK UNBOUND:                 0.166
REMARK SMILES O=c1c(O)c(-c2ccc(O)c(O)c2)oc2cc(O)ccc12
REMARK SMILES IDX 5 1 3 2 2 3 1 4 21 5 15 6 14 7 16 8 17 9 19 10 20 11 6 12
REMARK SMILES IDX 7 13 8 14 9 15 13 16 11 17 10 18 12 20 4 22 18 24
REMARK H PARENT 10 19 12 21 4 23 18 25
REMARK Flexibility Score: inf
ROOT
ATOM      1  C   UNL     1     172.581 156.057 188.698  1.00  0.00     0.180 A 
ATOM      2  C   UNL     1     172.608 154.970 189.596  1.00  0.00     0.208 A 
ATOM      3  C   UNL     1     172.306 155.201 190.948  1.00  0.00     0.235 A 
ATOM      4  O   UNL     1     172.312 154.243 191.769  1.00  0.00    -0.285 OA
ATOM      5  C   UNL     1     172.004 156.505 191.374  1.00  0.00     0.069 A 
ATOM      6  C   UNL     1     172.022 157.542 190.417  1.00  0.00     0.142 A 
ATOM      7  O   UNL     1     172.305 157.280 189.147  1.00  0.00    -0.452 OA
ATOM      8  C   UNL     1     171.737 158.856 190.806  1.00  0.00     0.094 A 
ATOM      9  C   UNL     1     171.432 159.147 192.142  1.00  0.00     0.119 A 
ATOM     10  C   UNL     1     171.413 158.120 193.092  1.00  0.00     0.047 A 
ATOM     11  C   UNL     1     171.697 156.804 192.714  1.00  0.00     0.020 A 
ENDROOT
BRANCH   1  12
ATOM     12  C   UNL     1     172.870 155.892 187.256  1.00  0.00     0.025 A 
ATOM     13  C   UNL     1     173.881 155.025 186.806  1.00  0.00     0.016 A 
ATOM     14  C   UNL     1     174.119 154.867 185.438  1.00  0.00     0.051 A 
ATOM     15  C   UNL     1     173.344 155.560 184.500  1.00  0.00     0.157 A 
ATOM     16  C   UNL     1     172.082 156.569 186.311  1.00  0.00     0.062 A 
ATOM     17  C   UNL     1     172.319 156.414 184.940  1.00  0.00     0.158 A 
BRANCH  15  18
ATOM     18  O   UNL     1     173.586 155.402 183.137  1.00  0.00    -0.504 OA
ATOM     19  H   UNL     1     174.523 155.266 182.776  1.00  0.00     0.293 HD
ENDBRANCH  15  18
BRANCH  17  20
ATOM     20  O   UNL     1     171.524 157.114 184.032  1.00  0.00    -0.504 OA
ATOM     21  H   UNL     1     170.514 157.138 184.108  1.00  0.00     0.293 HD
ENDBRANCH  17  20
ENDBRANCH   1  12
BRANCH   2  22
ATOM     22  O   UNL     1     172.959 153.694 189.152  1.00  0.00    -0.502 OA
ATOM     23  H   UNL     1     173.092 153.478 188.172  1.00  0.00     0.293 HD
ENDBRANCH   2  22
BRANCH   9  24
ATOM     24  O   UNL     1     171.147 160.452 192.537  1.00  0.00    -0.508 OA
ATOM     25  H   UNL     1     171.835 161.192 192.458  1.00  0.00     0.293 HD
ENDBRANCH   9  24
TORSDOF 5
ENDMDL
MODEL 2
REMARK VINA RESULT:    -6.255      1.491      6.498
REMARK INTER + INTRA:          -7.186
REMARK INTER:                  -6.890
REMARK INTRA:                  -0.296
REMARK UNBOUND:                 0.166
REMARK SMILES O=c1c(O)c(-c2ccc(O)c(O)c2)oc2cc(O)ccc12
REMARK SMILES IDX 5 1 3 2 2 3 1 4 21 5 15 6 14 7 16 8 17 9 19 10 20 11 6 12
REMARK SMILES IDX 7 13 8 14 9 15 13 16 11 17 10 18 12 20 4 22 18 24
REMARK H PARENT 10 19 12 21 4 23 18 25
REMARK Flexibility Score: inf
ROOT
ATOM      1  C   UNL     1     172.801 157.098 189.681  1.00  0.00     0.180 A 
ATOM      2  C   UNL     1     173.297 155.778 189.703  1.00  0.00     0.208 A 
ATOM      3  C   UNL     1     173.206 155.001 188.537  1.00  0.00     0.235 A 
ATOM      4  O   UNL     1     173.652 153.821 188.528  1.00  0.00    -0.285 OA
ATOM      5  C   UNL     1     172.611 155.548 187.388  1.00  0.00     0.069 A 
ATOM      6  C   UNL     1     172.118 156.869 187.455  1.00  0.00     0.142 A 
ATOM      7  O   UNL     1     172.231 157.573 188.575  1.00  0.00    -0.452 OA
ATOM      8  C   UNL     1     171.509 157.445 186.334  1.00  0.00     0.094 A 
ATOM      9  C   UNL     1     171.387 156.716 185.144  1.00  0.00     0.119 A 
ATOM     10  C   UNL     1     171.876 155.407 185.075  1.00  0.00     0.047 A 
ATOM     11  C   UNL     1     172.486 154.822 186.190  1.00  0.00     0.020 A 
ENDROOT
BRANCH   1  12
ATOM     12  C   UNL     1     172.876 157.985 190.864  1.00  0.00     0.025 A 
ATOM     13  C   UNL     1     174.068 158.644 191.210  1.00  0.00     0.016 A 
ATOM     14  C   UNL     1     174.107 159.496 192.318  1.00  0.00     0.051 A 
ATOM     15  C   UNL     1     172.955 159.712 193.085  1.00  0.00     0.157 A 
ATOM     16  C   UNL     1     171.719 158.221 191.624  1.00  0.00     0.062 A 
ATOM     17  C   UNL     1     171.755 159.072 192.734  1.00  0.00     0.158 A 
BRANCH  15  18
ATOM     18  O   UNL     1     172.999 160.561 194.190  1.00  0.00    -0.504 OA
ATOM     19  H   UNL     1     173.155 161.557 194.089  1.00  0.00     0.293 HD
ENDBRANCH  15  18
BRANCH  17  20
ATOM     20  O   UNL     1     170.589 159.272 193.474  1.00  0.00    -0.504 OA
ATOM     21  H   UNL     1     170.333 160.181 193.841  1.00  0.00     0.293 HD
ENDBRANCH  17  20
ENDBRANCH   1  12
BRANCH   2  22
ATOM     22  O   UNL     1     173.839 155.244 190.874  1.00  0.00    -0.502 OA
ATOM     23  H   UNL     1     173.787 155.726 191.763  1.00  0.00     0.293 HD
ENDBRANCH   2  22
BRANCH   9  24
ATOM     24  O   UNL     1     170.783 157.282 184.024  1.00  0.00    -0.508 OA
ATOM     25  H   UNL     1     170.952 156.921 183.092  1.00  0.00     0.293 HD
ENDBRANCH   9  24
TORSDOF 5
ENDMDL
MODEL 3
REMARK VINA RESULT:    -5.928     11.414     13.477
REMARK INTER + INTRA:          -6.801
REMARK INTER:                  -7.262
REMARK INTRA:                   0.461
REMARK UNBOUND:                 0.166
REMARK SMILES O=c1c(O)c(-c2ccc(O)c(O)c2)oc2cc(O)ccc12
REMARK SMILES IDX 5 1 3 2 2 3 1 4 21 5 15 6 14 7 16 8 17 9 19 10 20 11 6 12
REMARK SMILES IDX 7 13 8 14 9 15 13 16 11 17 10 18 12 20 4 22 18 24
REMARK H PARENT 10 19 12 21 4 23 18 25
REMARK Flexibility Score: inf
ROOT
ATOM      1  C   UNL     1     168.724 145.498 181.516  1.00  0.00     0.180 A 
ATOM      2  C   UNL     1     167.531 144.758 181.657  1.00  0.00     0.208 A 
ATOM      3  C   UNL     1     167.026 144.527 182.946  1.00  0.00     0.235 A 
ATOM      4  O   UNL     1     165.955 143.878 183.098  1.00  0.00    -0.285 OA
ATOM      5  C   UNL     1     167.726 145.020 184.060  1.00  0.00     0.069 A 
ATOM      6  C   UNL     1     168.925 145.731 183.836  1.00  0.00     0.142 A 
ATOM      7  O   UNL     1     169.364 145.934 182.599  1.00  0.00    -0.452 OA
ATOM      8  C   UNL     1     169.656 146.227 184.921  1.00  0.00     0.094 A 
ATOM      9  C   UNL     1     169.203 146.024 186.230  1.00  0.00     0.119 A 
ATOM     10  C   UNL     1     168.014 145.321 186.455  1.00  0.00     0.047 A 
ATOM     11  C   UNL     1     167.276 144.819 185.378  1.00  0.00     0.020 A 
ENDROOT
BRANCH   1  12
ATOM     12  C   UNL     1     169.310 145.799 180.191  1.00  0.00     0.025 A 
ATOM     13  C   UNL     1     168.645 145.454 179.001  1.00  0.00     0.016 A 
ATOM     14  C   UNL     1     169.207 145.770 177.761  1.00  0.00     0.051 A 
ATOM     15  C   UNL     1     170.432 146.446 177.691  1.00  0.00     0.157 A 
ATOM     16  C   UNL     1     170.528 146.495 180.115  1.00  0.00     0.062 A 
ATOM     17  C   UNL     1     171.094 146.811 178.875  1.00  0.00     0.158 A 
BRANCH  15  18
ATOM     18  O   UNL     1     170.991 146.758 176.453  1.00  0.00    -0.504 OA
ATOM     19  H   UNL     1     171.425 146.049 175.873  1.00  0.00     0.293 HD
ENDBRANCH  15  18
BRANCH  17  20
ATOM     20  O   UNL     1     172.311 147.491 178.840  1.00  0.00    -0.504 OA
ATOM     21  H   UNL     1     172.523 148.250 179.477  1.00  0.00     0.293 HD
ENDBRANCH  17  20
ENDBRANCH   1  12
BRANCH   2  22
ATOM     22  O   UNL     1     166.883 144.239 180.534  1.00  0.00    -0.502 OA
ATOM     23  H   UNL     1     166.885 143.250 180.317  1.00  0.00     0.293 HD
ENDBRANCH   2  22
BRANCH   9  24
ATOM     24  O   UNL     1     169.924 146.516 187.315  1.00  0.00    -0.508 OA
ATOM     25  H   UNL     1     170.920 146.692 187.254  1.00  0.00     0.293 HD
ENDBRANCH   9  24
TORSDOF 5
ENDMDL
MODEL 4
REMARK VINA RESULT:    -5.808     11.152     14.296
REMARK INTER + INTRA:          -6.660
REMARK INTER:                  -7.002
REMARK INTRA:                   0.342
REMARK UNBOUND:                 0.166
REMARK SMILES O=c1c(O)c(-c2ccc(O)c(O)c2)oc2cc(O)ccc12
REMARK SMILES IDX 5 1 3 2 2 3 1 4 21 5 15 6 14 7 16 8 17 9 19 10 20 11 6 12
REMARK SMILES IDX 7 13 8 14 9 15 13 16 11 17 10 18 12 20 4 22 18 24
REMARK H PARENT 10 19 12 21 4 23 18 25
REMARK Flexibility Score: inf
ROOT
ATOM      1  C   UNL     1     169.945 146.120 181.888  1.00  0.00     0.180 A 
ATOM      2  C   UNL     1     168.780 145.571 181.314  1.00  0.00     0.208 A 
ATOM      3  C   UNL     1     168.661 145.546 179.916  1.00  0.00     0.235 A 
ATOM      4  O   UNL     1     167.633 145.050 179.378  1.00  0.00    -0.285 OA
ATOM      5  C   UNL     1     169.692 146.082 179.126  1.00  0.00     0.069 A 
ATOM      6  C   UNL     1     170.815 146.634 179.778  1.00  0.00     0.142 A 
ATOM      7  O   UNL     1     170.892 146.631 181.104  1.00  0.00    -0.452 OA
ATOM      8  C   UNL     1     171.858 147.187 179.026  1.00  0.00     0.094 A 
ATOM      9  C   UNL     1     171.793 147.194 177.626  1.00  0.00     0.119 A 
ATOM     10  C   UNL     1     170.681 146.645 176.978  1.00  0.00     0.047 A 
ATOM     11  C   UNL     1     169.633 146.091 177.720  1.00  0.00     0.020 A 
ENDROOT
BRANCH   1  12
ATOM     12  C   UNL     1     170.152 146.167 183.353  1.00  0.00     0.025 A 
ATOM     13  C   UNL     1     169.067 146.155 184.247  1.00  0.00     0.016 A 
ATOM     14  C   UNL     1     169.289 146.175 185.627  1.00  0.00     0.051 A 
ATOM     15  C   UNL     1     170.595 146.194 186.133  1.00  0.00     0.157 A 
ATOM     16  C   UNL     1     171.460 146.165 183.867  1.00  0.00     0.062 A 
ATOM     17  C   UNL     1     171.685 146.186 185.248  1.00  0.00     0.158 A 
BRANCH  15  18
ATOM     18  O   UNL     1     170.812 146.216 187.510  1.00  0.00    -0.504 OA
ATOM     19  H   UNL     1     171.737 146.087 187.904  1.00  0.00     0.293 HD
ENDBRANCH  15  18
BRANCH  17  20
ATOM     20  O   UNL     1     172.997 146.198 185.720  1.00  0.00    -0.504 OA
ATOM     21  H   UNL     1     173.794 146.159 185.096  1.00  0.00     0.293 HD
ENDBRANCH  17  20
ENDBRANCH   1  12
BRANCH   2  22
ATOM     22  O   UNL     1     167.750 145.091 182.126  1.00  0.00    -0.502 OA
ATOM     23  H   UNL     1     167.897 144.361 182.812  1.00  0.00     0.293 HD
ENDBRANCH   2  22
BRANCH   9  24
ATOM     24  O   UNL     1     172.826 147.741 176.870  1.00  0.00    -0.508 OA
ATOM     25  H   UNL     1     172.720 148.628 176.391  1.00  0.00     0.293 HD
ENDBRANCH   9  24
TORSDOF 5
ENDMDL
MODEL 5
REMARK VINA RESULT:    -5.784     11.211     14.134
REMARK INTER + INTRA:          -6.632
REMARK INTER:                  -7.102
REMARK INTRA:                   0.470
REMARK UNBOUND:                 0.166
REMARK SMILES O=c1c(O)c(-c2ccc(O)c(O)c2)oc2cc(O)ccc12
REMARK SMILES IDX 5 1 3 2 2 3 1 4 21 5 15 6 14 7 16 8 17 9 19 10 20 11 6 12
REMARK SMILES IDX 7 13 8 14 9 15 13 16 11 17 10 18 12 20 4 22 18 24
REMARK H PARENT 10 19 12 21 4 23 18 25
REMARK Flexibility Score: inf
ROOT
ATOM      1  C   UNL     1     168.889 145.735 182.883  1.00  0.00     0.180 A 
ATOM      2  C   UNL     1     168.020 145.231 181.893  1.00  0.00     0.208 A 
ATOM      3  C   UNL     1     168.382 145.362 180.543  1.00  0.00     0.235 A 
ATOM      4  O   UNL     1     167.627 144.909 179.639  1.00  0.00    -0.285 OA
ATOM      5  C   UNL     1     169.587 146.004 180.212  1.00  0.00     0.069 A 
ATOM      6  C   UNL     1     170.390 146.502 181.260  1.00  0.00     0.142 A 
ATOM      7  O   UNL     1     170.014 146.350 182.525  1.00  0.00    -0.452 OA
ATOM      8  C   UNL     1     171.591 147.158 180.969  1.00  0.00     0.094 A 
ATOM      9  C   UNL     1     172.003 147.321 179.640  1.00  0.00     0.119 A 
ATOM     10  C   UNL     1     171.209 146.827 178.599  1.00  0.00     0.047 A 
ATOM     11  C   UNL     1     170.006 146.171 178.879  1.00  0.00     0.020 A 
ENDROOT
BRANCH   1  12
ATOM     12  C   UNL     1     168.585 145.620 184.327  1.00  0.00     0.025 A 
ATOM     13  C   UNL     1     167.428 144.965 184.782  1.00  0.00     0.016 A 
ATOM     14  C   UNL     1     167.175 144.847 186.152  1.00  0.00     0.051 A 
ATOM     15  C   UNL     1     168.080 145.369 187.085  1.00  0.00     0.157 A 
ATOM     16  C   UNL     1     169.499 146.123 185.267  1.00  0.00     0.062 A 
ATOM     17  C   UNL     1     169.249 146.008 186.639  1.00  0.00     0.158 A 
BRANCH  15  18
ATOM     18  O   UNL     1     167.824 145.252 188.450  1.00  0.00    -0.504 OA
ATOM     19  H   UNL     1     167.566 144.365 188.868  1.00  0.00     0.293 HD
ENDBRANCH  15  18
BRANCH  17  20
ATOM     20  O   UNL     1     170.173 146.532 187.543  1.00  0.00    -0.504 OA
ATOM     21  H   UNL     1     170.977 147.068 187.241  1.00  0.00     0.293 HD
ENDBRANCH  17  20
ENDBRANCH   1  12
BRANCH   2  22
ATOM     22  O   UNL     1     166.805 144.640 182.251  1.00  0.00    -0.502 OA
ATOM     23  H   UNL     1     166.671 144.175 183.140  1.00  0.00     0.293 HD
ENDBRANCH   2  22
BRANCH   9  24
ATOM     24  O   UNL     1     173.198 147.971 179.342  1.00  0.00    -0.508 OA
ATOM     25  H   UNL     1     173.231 148.746 178.689  1.00  0.00     0.293 HD
ENDBRANCH   9  24
TORSDOF 5
ENDMDL
MODEL 6
REMARK VINA RESULT:    -5.777     10.982     13.737
REMARK INTER + INTRA:          -6.624
REMARK INTER:                  -7.058
REMARK INTRA:                   0.434
REMARK UNBOUND:                 0.166
REMARK SMILES O=c1c(O)c(-c2ccc(O)c(O)c2)oc2cc(O)ccc12
REMARK SMILES IDX 5 1 3 2 2 3 1 4 21 5 15 6 14 7 16 8 17 9 19 10 20 11 6 12
REMARK SMILES IDX 7 13 8 14 9 15 13 16 11 17 10 18 12 20 4 22 18 24
REMARK H PARENT 10 19 12 21 4 23 18 25
REMARK Flexibility Score: inf
ROOT
ATOM      1  C   UNL     1     169.756 146.195 183.821  1.00  0.00     0.180 A 
ATOM      2  C   UNL     1     170.943 146.952 183.911  1.00  0.00     0.208 A 
ATOM      3  C   UNL     1     171.599 147.326 182.728  1.00  0.00     0.235 A 
ATOM      4  O   UNL     1     172.656 148.012 182.782  1.00  0.00    -0.285 OA
ATOM      5  C   UNL     1     171.071 146.924 181.490  1.00  0.00     0.069 A 
ATOM      6  C   UNL     1     169.892 146.149 181.485  1.00  0.00     0.142 A 
ATOM      7  O   UNL     1     169.298 145.822 182.627  1.00  0.00    -0.452 OA
ATOM      8  C   UNL     1     169.341 145.720 180.272  1.00  0.00     0.094 A 
ATOM      9  C   UNL     1     169.954 146.060 179.059  1.00  0.00     0.119 A 
ATOM     10  C   UNL     1     171.122 146.831 179.061  1.00  0.00     0.047 A 
ATOM     11  C   UNL     1     171.681 147.263 180.268  1.00  0.00     0.020 A 
ENDROOT
BRANCH   1  12
ATOM     12  C   UNL     1     168.997 145.777 185.021  1.00  0.00     0.025 A 
ATOM     13  C   UNL     1     169.546 145.890 186.310  1.00  0.00     0.016 A 
ATOM     14  C   UNL     1     168.801 145.512 187.431  1.00  0.00     0.051 A 
ATOM     15  C   UNL     1     167.495 145.028 187.281  1.00  0.00     0.157 A 
ATOM     16  C   UNL     1     167.680 145.311 184.879  1.00  0.00     0.062 A 
ATOM     17  C   UNL     1     166.932 144.930 185.998  1.00  0.00     0.158 A 
BRANCH  15  18
ATOM     18  O   UNL     1     166.756 144.650 188.401  1.00  0.00    -0.504 OA
ATOM     19  H   UNL     1     165.835 144.236 188.314  1.00  0.00     0.293 HD
ENDBRANCH  15  18
BRANCH  17  20
ATOM     20  O   UNL     1     165.632 144.460 185.816  1.00  0.00    -0.504 OA
ATOM     21  H   UNL     1     165.127 144.594 184.948  1.00  0.00     0.293 HD
ENDBRANCH  17  20
ENDBRANCH   1  12
BRANCH   2  22
ATOM     22  O   UNL     1     171.471 147.294 185.158  1.00  0.00    -0.502 OA
ATOM     23  H   UNL     1     171.431 146.669 185.953  1.00  0.00     0.293 HD
ENDBRANCH   2  22
BRANCH   9  24
ATOM     24  O   UNL     1     169.413 145.640 177.847  1.00  0.00    -0.508 OA
ATOM     25  H   UNL     1     168.535 146.010 177.502  1.00  0.00     0.293 HD
ENDBRANCH   9  24
TORSDOF 5
ENDMDL
MODEL 7
REMARK VINA RESULT:    -5.728     10.618     11.751
REMARK INTER + INTRA:          -6.566
REMARK INTER:                  -6.275
REMARK INTRA:                  -0.291
REMARK UNBOUND:                 0.166
REMARK SMILES O=c1c(O)c(-c2ccc(O)c(O)c2)oc2cc(O)ccc12
REMARK SMILES IDX 5 1 3 2 2 3 1 4 21 5 15 6 14 7 16 8 17 9 19 10 20 11 6 12
REMARK SMILES IDX 7 13 8 14 9 15 13 16 11 17 10 18 12 20 4 22 18 24
REMARK H PARENT 10 19 12 21 4 23 18 25
REMARK Flexibility Score: inf
ROOT
ATOM      1  C   UNL     1     169.920 146.182 184.916  1.00  0.00     0.180 A 
ATOM      2  C   UNL     1     168.643 145.824 184.438  1.00  0.00     0.208 A 
ATOM      3  C   UNL     1     167.668 145.404 185.357  1.00  0.00     0.235 A 
ATOM      4  O   UNL     1     166.515 145.089 184.955  1.00  0.00    -0.285 OA
ATOM      5  C   UNL     1     167.993 145.332 186.721  1.00  0.00     0.069 A 
ATOM      6  C   UNL     1     169.301 145.685 187.117  1.00  0.00     0.142 A 
ATOM      7  O   UNL     1     170.191 146.085 186.216  1.00  0.00    -0.452 OA
ATOM      8  C   UNL     1     169.665 145.616 188.467  1.00  0.00     0.094 A 
ATOM      9  C   UNL     1     168.736 145.199 189.429  1.00  0.00     0.119 A 
ATOM     10  C   UNL     1     167.438 144.851 189.039  1.00  0.00     0.047 A 
ATOM     11  C   UNL     1     167.064 144.915 187.693  1.00  0.00     0.020 A 
ENDROOT
BRANCH   1  12
ATOM     12  C   UNL     1     170.995 146.651 184.013  1.00  0.00     0.025 A 
ATOM     13  C   UNL     1     171.011 147.966 183.516  1.00  0.00     0.016 A 
ATOM     14  C   UNL     1     172.050 148.394 182.684  1.00  0.00     0.051 A 
ATOM     15  C   UNL     1     173.092 147.520 182.348  1.00  0.00     0.157 A 
ATOM     16  C   UNL     1     172.053 145.786 183.690  1.00  0.00     0.062 A 
ATOM     17  C   UNL     1     173.093 146.211 182.856  1.00  0.00     0.158 A 
BRANCH  15  18
ATOM     18  O   UNL     1     174.125 147.949 181.516  1.00  0.00    -0.504 OA
ATOM     19  H   UNL     1     174.924 147.359 181.314  1.00  0.00     0.293 HD
ENDBRANCH  15  18
BRANCH  17  20
ATOM     20  O   UNL     1     174.120 145.319 182.546  1.00  0.00    -0.504 OA
ATOM     21  H   UNL     1     174.570 145.310 181.638  1.00  0.00     0.293 HD
ENDBRANCH  17  20
ENDBRANCH   1  12
BRANCH   2  22
ATOM     22  O   UNL     1     168.364 145.859 183.069  1.00  0.00    -0.502 OA
ATOM     23  H   UNL     1     167.581 145.361 182.663  1.00  0.00     0.293 HD
ENDBRANCH   2  22
BRANCH   9  24
ATOM     24  O   UNL     1     169.090 145.129 190.774  1.00  0.00    -0.508 OA
ATOM     25  H   UNL     1     168.855 145.871 191.423  1.00  0.00     0.293 HD
ENDBRANCH   9  24
TORSDOF 5
ENDMDL
MODEL 8
REMARK VINA RESULT:    -5.691      1.298      6.555
REMARK INTER + INTRA:          -6.523
REMARK INTER:                  -6.300
REMARK INTRA:                  -0.223
REMARK UNBOUND:                 0.166
REMARK SMILES O=c1c(O)c(-c2ccc(O)c(O)c2)oc2cc(O)ccc12
REMARK SMILES IDX 5 1 3 2 2 3 1 4 21 5 15 6 14 7 16 8 17 9 19 10 20 11 6 12
REMARK SMILES IDX 7 13 8 14 9 15 13 16 11 17 10 18 12 20 4 22 18 24
REMARK H PARENT 10 19 12 21 4 23 18 25
REMARK Flexibility Score: inf
ROOT
ATOM      1  C   UNL     1     172.978 156.193 189.657  1.00  0.00     0.180 A 
ATOM      2  C   UNL     1     173.401 154.889 189.987  1.00  0.00     0.208 A 
ATOM      3  C   UNL     1     173.724 153.999 188.951  1.00  0.00     0.235 A 
ATOM      4  O   UNL     1     174.116 152.831 189.221  1.00  0.00    -0.285 OA
ATOM      5  C   UNL     1     173.600 154.420 187.617  1.00  0.00     0.069 A 
ATOM      6  C   UNL     1     173.147 155.734 187.369  1.00  0.00     0.142 A 
ATOM      7  O   UNL     1     172.859 156.547 188.379  1.00  0.00    -0.452 OA
ATOM      8  C   UNL     1     173.000 156.186 186.053  1.00  0.00     0.094 A 
ATOM      9  C   UNL     1     173.303 155.340 184.978  1.00  0.00     0.119 A 
ATOM     10  C   UNL     1     173.754 154.038 185.221  1.00  0.00     0.047 A 
ATOM     11  C   UNL     1     173.903 153.576 186.532  1.00  0.00     0.020 A 
ENDROOT
BRANCH   1  12
ATOM     12  C   UNL     1     172.637 157.195 190.692  1.00  0.00     0.025 A 
ATOM     13  C   UNL     1     171.476 157.072 191.475  1.00  0.00     0.016 A 
ATOM     14  C   UNL     1     171.187 158.018 192.464  1.00  0.00     0.051 A 
ATOM     15  C   UNL     1     172.060 159.089 192.693  1.00  0.00     0.157 A 
ATOM     16  C   UNL     1     173.519 158.259 190.941  1.00  0.00     0.062 A 
ATOM     17  C   UNL     1     173.232 159.208 191.929  1.00  0.00     0.158 A 
BRANCH  15  18
ATOM     18  O   UNL     1     171.768 160.031 193.679  1.00  0.00    -0.504 OA
ATOM     19  H   UNL     1     171.191 160.841 193.484  1.00  0.00     0.293 HD
ENDBRANCH  15  18
BRANCH  17  20
ATOM     20  O   UNL     1     174.125 160.259 192.138  1.00  0.00    -0.504 OA
ATOM     21  H   UNL     1     174.528 160.451 193.047  1.00  0.00     0.293 HD
ENDBRANCH  17  20
ENDBRANCH   1  12
BRANCH   2  22
ATOM     22  O   UNL     1     173.468 154.484 191.322  1.00  0.00    -0.502 OA
ATOM     23  H   UNL     1     173.635 155.136 192.079  1.00  0.00     0.293 HD
ENDBRANCH   2  22
BRANCH   9  24
ATOM     24  O   UNL     1     173.161 155.782 183.665  1.00  0.00    -0.508 OA
ATOM     25  H   UNL     1     173.948 156.150 183.141  1.00  0.00     0.293 HD
ENDBRANCH   9  24
TORSDOF 5
ENDMDL
