MODEL 1
REMARK VINA RESULT:    -3.505      0.000      0.000
REMARK INTER + INTRA:          -4.161
REMARK INTER:                  -4.120
REMARK INTRA:                  -0.041
REMARK UNBOUND:                -0.041
REMARK SMILES O=C([O-])CCC(=O)[O-]
REMARK SMILES IDX 4 1 2 2 1 3 3 4 5 5 6 6 7 7 8 8
REMARK H PARENT
REMARK Flexibility Score: inf
ROOT
ATOM      1  C   UNL     1       5.141 -13.583   6.107  1.00  0.00     0.059 C 
ENDROOT
BRANCH   1   2
ATOM      2  C   UNL     1       4.560 -13.857   4.753  1.00  0.00     0.042 C 
ATOM      3  O   UNL     1       3.530 -14.573   4.639  1.00  0.00    -0.550 OA
ATOM      4  O   UNL     1       5.179 -13.356   3.615  1.00  0.00    -0.550 OA
ENDBRANCH   1   2
BRANCH   1   5
ATOM      5  C   UNL     1       4.537 -12.324   6.737  1.00  0.00     0.059 C 
BRANCH   5   6
ATOM      6  C   UNL     1       5.600 -11.359   7.171  1.00  0.00     0.042 C 
ATOM      7  O   UNL     1       5.455 -10.126   6.968  1.00  0.00    -0.550 OA
ATOM      8  O   UNL     1       6.765 -11.828   7.763  1.00  0.00    -0.550 OA
ENDBRANCH   5   6
ENDBRANCH   1   5
TORSDOF 3
ENDMDL
MODEL 2
REMARK VINA RESULT:    -3.475      0.158      4.078
REMARK INTER + INTRA:          -4.126
REMARK INTER:                  -4.085
REMARK INTRA:                  -0.040
REMARK UNBOUND:                -0.041
REMARK SMILES O=C([O-])CCC(=O)[O-]
REMARK SMILES IDX 4 1 2 2 1 3 3 4 5 5 6 6 7 7 8 8
REMARK H PARENT
REMARK Flexibility Score: inf
ROOT
ATOM      1  C   UNL     1       4.465 -12.263   6.725  1.00  0.00     0.059 C 
ENDROOT
BRANCH   1   2
ATOM      2  C   UNL     1       5.477 -11.251   7.171  1.00  0.00     0.042 C 
ATOM      3  O   UNL     1       5.327 -10.035   6.880  1.00  0.00    -0.550 OA
ATOM      4  O   UNL     1       6.606 -11.657   7.871  1.00  0.00    -0.550 OA
ENDBRANCH   1   2
BRANCH   1   5
ATOM      5  C   UNL     1       5.134 -13.509   6.135  1.00  0.00     0.059 C 
BRANCH   5   6
ATOM      6  C   UNL     1       4.578 -13.848   4.785  1.00  0.00     0.042 C 
ATOM      7  O   UNL     1       5.179 -13.478   3.742  1.00  0.00    -0.550 OA
ATOM      8  O   UNL     1       3.377 -14.537   4.680  1.00  0.00    -0.550 OA
ENDBRANCH   5   6
ENDBRANCH   1   5
TORSDOF 3
ENDMDL
MODEL 3
REMARK VINA RESULT:    -3.464      0.196      4.056
REMARK INTER + INTRA:          -4.112
REMARK INTER:                  -4.072
REMARK INTRA:                  -0.041
REMARK UNBOUND:                -0.041
REMARK SMILES O=C([O-])CCC(=O)[O-]
REMARK SMILES IDX 4 1 2 2 1 3 3 4 5 5 6 6 7 7 8 8
REMARK H PARENT
REMARK Flexibility Score: inf
ROOT
ATOM      1  C   UNL     1       4.459 -12.314   6.706  1.00  0.00     0.059 C 
ENDROOT
BRANCH   1   2
ATOM      2  C   UNL     1       5.462 -11.269   7.090  1.00  0.00     0.042 C 
ATOM      3  O   UNL     1       6.538 -11.601   7.654  1.00  0.00    -0.550 OA
ATOM      4  O   UNL     1       5.190  -9.926   6.863  1.00  0.00    -0.550 OA
ENDBRANCH   1   2
BRANCH   1   5
ATOM      5  C   UNL     1       5.134 -13.551   6.106  1.00  0.00     0.059 C 
BRANCH   5   6
ATOM      6  C   UNL     1       4.561 -13.898   4.765  1.00  0.00     0.042 C 
ATOM      7  O   UNL     1       3.504 -14.577   4.684  1.00  0.00    -0.550 OA
ATOM      8  O   UNL     1       5.217 -13.505   3.605  1.00  0.00    -0.550 OA
ENDBRANCH   5   6
ENDBRANCH   1   5
TORSDOF 3
ENDMDL
MODEL 4
REMARK VINA RESULT:    -3.456      0.219      1.165
REMARK INTER + INTRA:          -4.104
REMARK INTER:                  -4.062
REMARK INTRA:                  -0.042
REMARK UNBOUND:                -0.041
REMARK SMILES O=C([O-])CCC(=O)[O-]
REMARK SMILES IDX 4 1 2 2 1 3 3 4 5 5 6 6 7 7 8 8
REMARK H PARENT
REMARK Flexibility Score: inf
ROOT
ATOM      1  C   UNL     1       5.230 -13.475   6.101  1.00  0.00     0.059 C 
ENDROOT
BRANCH   1   2
ATOM      2  C   UNL     1       4.680 -13.806   4.747  1.00  0.00     0.042 C 
ATOM      3  O   UNL     1       5.254 -13.380   3.710  1.00  0.00    -0.550 OA
ATOM      4  O   UNL     1       3.513 -14.550   4.632  1.00  0.00    -0.550 OA
ENDBRANCH   1   2
BRANCH   1   5
ATOM      5  C   UNL     1       4.479 -12.305   6.745  1.00  0.00     0.059 C 
BRANCH   5   6
ATOM      6  C   UNL     1       5.413 -11.207   7.155  1.00  0.00     0.042 C 
ATOM      7  O   UNL     1       5.175 -10.016   6.822  1.00  0.00    -0.550 OA
ATOM      8  O   UNL     1       6.566 -11.504   7.870  1.00  0.00    -0.550 OA
ENDBRANCH   5   6
ENDBRANCH   1   5
TORSDOF 3
ENDMDL
MODEL 5
REMARK VINA RESULT:    -3.429      2.183      3.603
REMARK INTER + INTRA:          -4.072
REMARK INTER:                  -3.989
REMARK INTRA:                  -0.082
REMARK UNBOUND:                -0.041
REMARK SMILES O=C([O-])CCC(=O)[O-]
REMARK SMILES IDX 4 1 2 2 1 3 3 4 5 5 6 6 7 7 8 8
REMARK H PARENT
REMARK Flexibility Score: inf
ROOT
ATOM      1  C   UNL     1       4.509 -10.022   6.861  1.00  0.00     0.059 C 
ENDROOT
BRANCH   1   2
ATOM      2  C   UNL     1       4.132  -9.292   5.608  1.00  0.00     0.042 C 
ATOM      3  O   UNL     1       3.599  -9.911   4.650  1.00  0.00    -0.550 OA
ATOM      4  O   UNL     1       4.407  -7.936   5.483  1.00  0.00    -0.550 OA
ENDBRANCH   1   2
BRANCH   1   5
ATOM      5  C   UNL     1       4.184 -11.516   6.763  1.00  0.00     0.059 C 
BRANCH   5   6
ATOM      6  C   UNL     1       5.425 -12.356   6.799  1.00  0.00     0.042 C 
ATOM      7  O   UNL     1       6.529 -11.840   7.118  1.00  0.00    -0.550 OA
ATOM      8  O   UNL     1       5.370 -13.696   6.441  1.00  0.00    -0.550 OA
ENDBRANCH   5   6
ENDBRANCH   1   5
TORSDOF 3
ENDMDL
MODEL 6
REMARK VINA RESULT:    -3.410      2.153      3.321
REMARK INTER + INTRA:          -4.049
REMARK INTER:                  -3.967
REMARK INTRA:                  -0.082
REMARK UNBOUND:                -0.041
REMARK SMILES O=C([O-])CCC(=O)[O-]
REMARK SMILES IDX 4 1 2 2 1 3 3 4 5 5 6 6 7 7 8 8
REMARK H PARENT
REMARK Flexibility Score: inf
ROOT
ATOM      1  C   UNL     1       4.163 -11.528   6.833  1.00  0.00     0.059 C 
ENDROOT
BRANCH   1   2
ATOM      2  C   UNL     1       5.401 -12.372   6.841  1.00  0.00     0.042 C 
ATOM      3  O   UNL     1       6.503 -11.876   7.194  1.00  0.00    -0.550 OA
ATOM      4  O   UNL     1       5.346 -13.694   6.419  1.00  0.00    -0.550 OA
ENDBRANCH   1   2
BRANCH   1   5
ATOM      5  C   UNL     1       4.496 -10.035   6.923  1.00  0.00     0.059 C 
BRANCH   5   6
ATOM      6  C   UNL     1       4.190  -9.322   5.641  1.00  0.00     0.042 C 
ATOM      7  O   UNL     1       4.486  -8.105   5.508  1.00  0.00    -0.550 OA
ATOM      8  O   UNL     1       3.542  -9.990   4.610  1.00  0.00    -0.550 OA
ENDBRANCH   5   6
ENDBRANCH   1   5
TORSDOF 3
ENDMDL
MODEL 7
REMARK VINA RESULT:    -3.382      2.164      3.714
REMARK INTER + INTRA:          -4.016
REMARK INTER:                  -3.948
REMARK INTRA:                  -0.068
REMARK UNBOUND:                -0.041
REMARK SMILES O=C([O-])CCC(=O)[O-]
REMARK SMILES IDX 4 1 2 2 1 3 3 4 5 5 6 6 7 7 8 8
REMARK H PARENT
REMARK Flexibility Score: inf
ROOT
ATOM      1  C   UNL     1       4.572 -10.032   6.816  1.00  0.00     0.059 C 
ENDROOT
BRANCH   1   2
ATOM      2  C   UNL     1       4.199  -9.242   5.598  1.00  0.00     0.042 C 
ATOM      3  O   UNL     1       4.397  -7.999   5.565  1.00  0.00    -0.550 OA
ATOM      4  O   UNL     1       3.596  -9.872   4.517  1.00  0.00    -0.550 OA
ENDBRANCH   1   2
BRANCH   1   5
ATOM      5  C   UNL     1       4.237 -11.517   6.650  1.00  0.00     0.059 C 
BRANCH   5   6
ATOM      6  C   UNL     1       5.457 -12.378   6.787  1.00  0.00     0.042 C 
ATOM      7  O   UNL     1       5.407 -13.599   6.486  1.00  0.00    -0.550 OA
ATOM      8  O   UNL     1       6.636 -11.839   7.285  1.00  0.00    -0.550 OA
ENDBRANCH   5   6
ENDBRANCH   1   5
TORSDOF 3
ENDMDL
MODEL 8
REMARK VINA RESULT:    -3.235      2.300      3.783
REMARK INTER + INTRA:          -3.844
REMARK INTER:                  -3.737
REMARK INTRA:                  -0.106
REMARK UNBOUND:                -0.041
REMARK SMILES O=C([O-])CCC(=O)[O-]
REMARK SMILES IDX 4 1 2 2 1 3 3 4 5 5 6 6 7 7 8 8
REMARK H PARENT
REMARK Flexibility Score: inf
ROOT
ATOM      1  C   UNL     1       5.323 -10.606   6.973  1.00  0.00     0.059 C 
ENDROOT
BRANCH   1   2
ATOM      2  C   UNL     1       6.069 -11.867   7.291  1.00  0.00     0.042 C 
ATOM      3  O   UNL     1       7.084 -11.831   8.034  1.00  0.00    -0.550 OA
ATOM      4  O   UNL     1       5.666 -13.074   6.733  1.00  0.00    -0.550 OA
ENDBRANCH   1   2
BRANCH   1   5
ATOM      5  C   UNL     1       3.827 -10.869   6.774  1.00  0.00     0.059 C 
BRANCH   5   6
ATOM      6  C   UNL     1       3.429 -10.733   5.335  1.00  0.00     0.042 C 
ATOM      7  O   UNL     1       3.167 -11.758   4.651  1.00  0.00    -0.550 OA
ATOM      8  O   UNL     1       3.387  -9.479   4.740  1.00  0.00    -0.550 OA
ENDBRANCH   5   6
ENDBRANCH   1   5
TORSDOF 3
ENDMDL
MODEL 9
REMARK VINA RESULT:    -3.112     15.310     16.654
REMARK INTER + INTRA:          -3.699
REMARK INTER:                  -3.576
REMARK INTRA:                  -0.123
REMARK UNBOUND:                -0.041
REMARK SMILES O=C([O-])CCC(=O)[O-]
REMARK SMILES IDX 4 1 2 2 1 3 3 4 5 5 6 6 7 7 8 8
REMARK H PARENT
REMARK Flexibility Score: inf
ROOT
ATOM      1  C   UNL     1      13.897  -3.661  17.097  1.00  0.00     0.059 C 
ENDROOT
BRANCH   1   2
ATOM      2  C   UNL     1      12.682  -4.392  16.613  1.00  0.00     0.042 C 
ATOM      3  O   UNL     1      11.845  -3.809  15.874  1.00  0.00    -0.550 OA
ATOM      4  O   UNL     1      12.453  -5.703  17.011  1.00  0.00    -0.550 OA
ENDBRANCH   1   2
BRANCH   1   5
ATOM      5  C   UNL     1      14.753  -3.153  15.933  1.00  0.00     0.059 C 
BRANCH   5   6
ATOM      6  C   UNL     1      14.775  -1.655  15.876  1.00  0.00     0.042 C 
ATOM      7  O   UNL     1      13.697  -1.005  15.890  1.00  0.00    -0.550 OA
ATOM      8  O   UNL     1      15.984  -0.981  15.765  1.00  0.00    -0.550 OA
ENDBRANCH   5   6
ENDBRANCH   1   5
TORSDOF 3
ENDMDL
