MODEL 1
REMARK VINA RESULT:    -4.623      0.000      0.000
REMARK INTER + INTRA:          -6.154
REMARK INTER:                  -5.975
REMARK INTRA:                  -0.179
REMARK UNBOUND:                -0.179
REMARK SMILES CCCCCCC(=O)[O-]
REMARK SMILES IDX 5 1 6 2 7 3 8 4 9 5 4 6 3 7 2 8 1 9
REMARK H PARENT
REMARK Flexibility Score: inf
ROOT
ATOM      1  C   UNL     1       2.879  19.378  50.145  1.00  0.00     0.006 C 
ENDROOT
BRANCH   1   2
ATOM      2  C   UNL     1       2.795  20.791  50.740  1.00  0.00     0.053 C 
BRANCH   2   3
ATOM      3  C   UNL     1       1.367  21.178  50.963  1.00  0.00     0.041 C 
ATOM      4  O   UNL     1       0.681  21.643  50.016  1.00  0.00    -0.550 OA
ATOM      5  O   UNL     1       0.779  20.979  52.206  1.00  0.00    -0.550 OA
ENDBRANCH   2   3
ENDBRANCH   1   2
BRANCH   1   6
ATOM      6  C   UNL     1       3.585  18.383  51.079  1.00  0.00     0.000 C 
BRANCH   6   7
ATOM      7  C   UNL     1       3.987  19.016  52.423  1.00  0.00    -0.000 C 
BRANCH   7   8
ATOM      8  C   UNL     1       4.796  18.055  53.308  1.00  0.00    -0.003 C 
ATOM      9  C   UNL     1       4.680  18.379  54.797  1.00  0.00     0.004 C 
ENDBRANCH   7   8
ENDBRANCH   6   7
ENDBRANCH   1   6
TORSDOF 5
ENDMDL
MODEL 2
REMARK VINA RESULT:    -4.376      3.387      4.940
REMARK INTER + INTRA:          -5.835
REMARK INTER:                  -5.608
REMARK INTRA:                  -0.227
REMARK UNBOUND:                -0.179
REMARK SMILES CCCCCCC(=O)[O-]
REMARK SMILES IDX 5 1 6 2 7 3 8 4 9 5 4 6 3 7 2 8 1 9
REMARK H PARENT
REMARK Flexibility Score: inf
ROOT
ATOM      1  C   UNL     1       4.352  18.710  52.135  1.00  0.00     0.006 C 
ENDROOT
BRANCH   1   2
ATOM      2  C   UNL     1       3.925  18.722  53.609  1.00  0.00     0.053 C 
BRANCH   2   3
ATOM      3  C   UNL     1       5.019  18.181  54.474  1.00  0.00     0.041 C 
ATOM      4  O   UNL     1       5.087  18.506  55.687  1.00  0.00    -0.550 OA
ATOM      5  O   UNL     1       5.934  17.276  53.951  1.00  0.00    -0.550 OA
ENDBRANCH   2   3
ENDBRANCH   1   2
BRANCH   1   6
ATOM      6  C   UNL     1       3.214  19.112  51.184  1.00  0.00     0.000 C 
BRANCH   6   7
ATOM      7  C   UNL     1       3.421  20.509  50.571  1.00  0.00    -0.000 C 
BRANCH   7   8
ATOM      8  C   UNL     1       2.145  21.365  50.614  1.00  0.00    -0.003 C 
ATOM      9  C   UNL     1       1.213  20.983  51.763  1.00  0.00     0.004 C 
ENDBRANCH   7   8
ENDBRANCH   6   7
ENDBRANCH   1   6
TORSDOF 5
ENDMDL
MODEL 3
REMARK VINA RESULT:    -4.199     12.755     14.272
REMARK INTER + INTRA:          -5.605
REMARK INTER:                  -5.407
REMARK INTRA:                  -0.198
REMARK UNBOUND:                -0.179
REMARK SMILES CCCCCCC(=O)[O-]
REMARK SMILES IDX 5 1 6 2 7 3 8 4 9 5 4 6 3 7 2 8 1 9
REMARK H PARENT
REMARK Flexibility Score: inf
ROOT
ATOM      1  C   UNL     1      -5.333  16.487  63.040  1.00  0.00     0.006 C 
ENDROOT
BRANCH   1   2
ATOM      2  C   UNL     1      -5.383  15.198  63.872  1.00  0.00     0.053 C 
BRANCH   2   3
ATOM      3  C   UNL     1      -4.040  14.908  64.464  1.00  0.00     0.041 C 
ATOM      4  O   UNL     1      -3.176  15.818  64.550  1.00  0.00    -0.550 OA
ATOM      5  O   UNL     1      -3.761  13.643  64.966  1.00  0.00    -0.550 OA
ENDBRANCH   2   3
ENDBRANCH   1   2
BRANCH   1   6
ATOM      6  C   UNL     1      -5.827  16.283  61.599  1.00  0.00     0.000 C 
BRANCH   6   7
ATOM      7  C   UNL     1      -4.681  15.969  60.620  1.00  0.00    -0.000 C 
BRANCH   7   8
ATOM      8  C   UNL     1      -3.760  17.177  60.387  1.00  0.00    -0.003 C 
ATOM      9  C   UNL     1      -2.447  17.082  61.164  1.00  0.00     0.004 C 
ENDBRANCH   7   8
ENDBRANCH   6   7
ENDBRANCH   1   6
TORSDOF 5
ENDMDL
MODEL 4
REMARK VINA RESULT:    -3.715     12.122     13.407
REMARK INTER + INTRA:          -4.981
REMARK INTER:                  -4.960
REMARK INTRA:                  -0.021
REMARK UNBOUND:                -0.179
REMARK SMILES CCCCCCC(=O)[O-]
REMARK SMILES IDX 5 1 6 2 7 3 8 4 9 5 4 6 3 7 2 8 1 9
REMARK H PARENT
REMARK Flexibility Score: inf
ROOT
ATOM      1  C   UNL     1      -6.045  16.594  61.591  1.00  0.00     0.006 C 
ENDROOT
BRANCH   1   2
ATOM      2  C   UNL     1      -5.023  15.619  60.990  1.00  0.00     0.053 C 
BRANCH   2   3
ATOM      3  C   UNL     1      -4.157  16.320  59.993  1.00  0.00     0.041 C 
ATOM      4  O   UNL     1      -4.120  15.926  58.798  1.00  0.00    -0.550 OA
ATOM      5  O   UNL     1      -3.428  17.440  60.371  1.00  0.00    -0.550 OA
ENDBRANCH   2   3
ENDBRANCH   1   2
BRANCH   1   6
ATOM      6  C   UNL     1      -6.113  16.513  63.124  1.00  0.00     0.000 C 
BRANCH   6   7
ATOM      7  C   UNL     1      -5.290  15.341  63.690  1.00  0.00    -0.000 C 
BRANCH   7   8
ATOM      8  C   UNL     1      -3.864  15.759  64.081  1.00  0.00    -0.003 C 
ATOM      9  C   UNL     1      -3.115  14.668  64.847  1.00  0.00     0.004 C 
ENDBRANCH   7   8
ENDBRANCH   6   7
ENDBRANCH   1   6
TORSDOF 5
ENDMDL
MODEL 5
REMARK VINA RESULT:    -3.566     16.679     17.970
REMARK INTER + INTRA:          -4.787
REMARK INTER:                  -4.581
REMARK INTRA:                  -0.206
REMARK UNBOUND:                -0.179
REMARK SMILES CCCCCCC(=O)[O-]
REMARK SMILES IDX 5 1 6 2 7 3 8 4 9 5 4 6 3 7 2 8 1 9
REMARK H PARENT
REMARK Flexibility Score: inf
ROOT
ATOM      1  C   UNL     1       9.133   3.684  51.404  1.00  0.00     0.006 C 
ENDROOT
BRANCH   1   2
ATOM      2  C   UNL     1      10.094   2.498  51.232  1.00  0.00     0.053 C 
BRANCH   2   3
ATOM      3  C   UNL     1      11.402   2.787  51.900  1.00  0.00     0.041 C 
ATOM      4  O   UNL     1      11.977   1.896  52.576  1.00  0.00    -0.550 OA
ATOM      5  O   UNL     1      12.009   4.025  51.733  1.00  0.00    -0.550 OA
ENDBRANCH   2   3
ENDBRANCH   1   2
BRANCH   1   6
ATOM      6  C   UNL     1       7.767   3.263  51.967  1.00  0.00     0.000 C 
BRANCH   6   7
ATOM      7  C   UNL     1       7.355   4.090  53.198  1.00  0.00    -0.000 C 
BRANCH   7   8
ATOM      8  C   UNL     1       8.532   4.876  53.799  1.00  0.00    -0.003 C 
ATOM      9  C   UNL     1       8.281   5.308  55.244  1.00  0.00     0.004 C 
ENDBRANCH   7   8
ENDBRANCH   6   7
ENDBRANCH   1   6
TORSDOF 5
ENDMDL
MODEL 6
REMARK VINA RESULT:    -3.540     16.869     18.235
REMARK INTER + INTRA:          -4.754
REMARK INTER:                  -4.536
REMARK INTRA:                  -0.218
REMARK UNBOUND:                -0.179
REMARK SMILES CCCCCCC(=O)[O-]
REMARK SMILES IDX 5 1 6 2 7 3 8 4 9 5 4 6 3 7 2 8 1 9
REMARK H PARENT
REMARK Flexibility Score: inf
ROOT
ATOM      1  C   UNL     1      13.656  11.451  65.177  1.00  0.00     0.006 C 
ENDROOT
BRANCH   1   2
ATOM      2  C   UNL     1      13.765  10.591  63.910  1.00  0.00     0.053 C 
BRANCH   2   3
ATOM      3  C   UNL     1      12.515   9.793  63.712  1.00  0.00     0.041 C 
ATOM      4  O   UNL     1      11.604   9.819  64.579  1.00  0.00    -0.550 OA
ATOM      5  O   UNL     1      12.336   9.060  62.546  1.00  0.00    -0.550 OA
ENDBRANCH   2   3
ENDBRANCH   1   2
BRANCH   1   6
ATOM      6  C   UNL     1      13.286  12.911  64.873  1.00  0.00     0.000 C 
BRANCH   6   7
ATOM      7  C   UNL     1      11.881  13.283  65.381  1.00  0.00    -0.000 C 
BRANCH   7   8
ATOM      8  C   UNL     1      11.407  14.646  64.853  1.00  0.00    -0.003 C 
ATOM      9  C   UNL     1      12.443  15.331  63.962  1.00  0.00     0.004 C 
ENDBRANCH   7   8
ENDBRANCH   6   7
ENDBRANCH   1   6
TORSDOF 5
ENDMDL
MODEL 7
REMARK VINA RESULT:    -3.480     16.221     16.785
REMARK INTER + INTRA:          -4.677
REMARK INTER:                  -4.465
REMARK INTRA:                  -0.211
REMARK UNBOUND:                -0.179
REMARK SMILES CCCCCCC(=O)[O-]
REMARK SMILES IDX 5 1 6 2 7 3 8 4 9 5 4 6 3 7 2 8 1 9
REMARK H PARENT
REMARK Flexibility Score: inf
ROOT
ATOM      1  C   UNL     1       9.048   5.247  52.018  1.00  0.00     0.006 C 
ENDROOT
BRANCH   1   2
ATOM      2  C   UNL     1      10.473   5.664  52.408  1.00  0.00     0.053 C 
BRANCH   2   3
ATOM      3  C   UNL     1      11.476   4.972  51.540  1.00  0.00     0.041 C 
ATOM      4  O   UNL     1      12.201   4.059  52.014  1.00  0.00    -0.550 OA
ATOM      5  O   UNL     1      11.573   5.300  50.194  1.00  0.00    -0.550 OA
ENDBRANCH   2   3
ENDBRANCH   1   2
BRANCH   1   6
ATOM      6  C   UNL     1       8.493   4.125  52.909  1.00  0.00     0.000 C 
BRANCH   6   7
ATOM      7  C   UNL     1       7.060   4.410  53.394  1.00  0.00    -0.000 C 
BRANCH   7   8
ATOM      8  C   UNL     1       6.976   4.569  54.920  1.00  0.00    -0.003 C 
ATOM      9  C   UNL     1       8.165   5.332  55.504  1.00  0.00     0.004 C 
ENDBRANCH   7   8
ENDBRANCH   6   7
ENDBRANCH   1   6
TORSDOF 5
ENDMDL
MODEL 8
REMARK VINA RESULT:    -3.368     16.564     17.710
REMARK INTER + INTRA:          -4.531
REMARK INTER:                  -4.105
REMARK INTRA:                  -0.426
REMARK UNBOUND:                -0.179
REMARK SMILES CCCCCCC(=O)[O-]
REMARK SMILES IDX 5 1 6 2 7 3 8 4 9 5 4 6 3 7 2 8 1 9
REMARK H PARENT
REMARK Flexibility Score: inf
ROOT
ATOM      1  C   UNL     1      11.041   5.090  50.843  1.00  0.00     0.006 C 
ENDROOT
BRANCH   1   2
ATOM      2  C   UNL     1      11.903   4.298  51.836  1.00  0.00     0.053 C 
BRANCH   2   3
ATOM      3  C   UNL     1      11.536   2.849  51.806  1.00  0.00     0.041 C 
ATOM      4  O   UNL     1      12.141   2.026  52.541  1.00  0.00    -0.550 OA
ATOM      5  O   UNL     1      10.489   2.414  51.003  1.00  0.00    -0.550 OA
ENDBRANCH   2   3
ENDBRANCH   1   2
BRANCH   1   6
ATOM      6  C   UNL     1       9.961   5.934  51.537  1.00  0.00     0.000 C 
BRANCH   6   7
ATOM      7  C   UNL     1       8.535   5.454  51.210  1.00  0.00    -0.000 C 
BRANCH   7   8
ATOM      8  C   UNL     1       7.927   4.605  52.337  1.00  0.00    -0.003 C 
ATOM      9  C   UNL     1       8.576   4.870  53.696  1.00  0.00     0.004 C 
ENDBRANCH   7   8
ENDBRANCH   6   7
ENDBRANCH   1   6
TORSDOF 5
ENDMDL
MODEL 9
REMARK VINA RESULT:    -3.354     16.144     16.969
REMARK INTER + INTRA:          -4.514
REMARK INTER:                  -4.286
REMARK INTRA:                  -0.228
REMARK UNBOUND:                -0.179
REMARK SMILES CCCCCCC(=O)[O-]
REMARK SMILES IDX 5 1 6 2 7 3 8 4 9 5 4 6 3 7 2 8 1 9
REMARK H PARENT
REMARK Flexibility Score: inf
ROOT
ATOM      1  C   UNL     1       9.776   6.108  51.252  1.00  0.00     0.006 C 
ENDROOT
BRANCH   1   2
ATOM      2  C   UNL     1      11.012   5.852  52.126  1.00  0.00     0.053 C 
BRANCH   2   3
ATOM      3  C   UNL     1      11.924   4.868  51.464  1.00  0.00     0.041 C 
ATOM      4  O   UNL     1      12.721   5.247  50.568  1.00  0.00    -0.550 OA
ATOM      5  O   UNL     1      11.928   3.540  51.872  1.00  0.00    -0.550 OA
ENDBRANCH   2   3
ENDBRANCH   1   2
BRANCH   1   6
ATOM      6  C   UNL     1       8.617   5.149  51.566  1.00  0.00     0.000 C 
BRANCH   6   7
ATOM      7  C   UNL     1       8.564   4.755  53.053  1.00  0.00    -0.000 C 
BRANCH   7   8
ATOM      8  C   UNL     1       7.187   4.211  53.468  1.00  0.00    -0.003 C 
ATOM      9  C   UNL     1       6.466   3.491  52.328  1.00  0.00     0.004 C 
ENDBRANCH   7   8
ENDBRANCH   6   7
ENDBRANCH   1   6
TORSDOF 5
ENDMDL
