MODEL 1
REMARK VINA RESULT:    -4.199      0.000      0.000
REMARK INTER + INTRA:          -8.998
REMARK INTER:                  -7.636
REMARK INTRA:                  -1.362
REMARK UNBOUND:                -1.362
REMARK SMILES CCCCCCCCCCCCCC[C@H](C)C(=O)[O-]
REMARK SMILES IDX 9 1 10 2 11 3 12 4 13 5 14 6 15 7 16 8 17 9 18 10 19 11 8 12
REMARK SMILES IDX 7 13 6 14 5 15 4 16 3 17 2 18 1 19
REMARK H PARENT
REMARK Flexibility Score: inf
ROOT
ATOM      1  C   UNL     1       4.246  16.461   9.473  1.00  0.00     0.000 C 
ENDROOT
BRANCH   1   2
ATOM      2  C   UNL     1       4.518  17.780   8.730  1.00  0.00     0.000 C 
BRANCH   2   3
ATOM      3  C   UNL     1       3.225  18.456   8.247  1.00  0.00     0.000 C 
BRANCH   3   4
ATOM      4  C   UNL     1       3.375  19.076   6.847  1.00  0.00     0.000 C 
BRANCH   4   5
ATOM      5  C   UNL     1       2.424  18.442   5.819  1.00  0.00     0.001 C 
BRANCH   5   6
ATOM      6  C   UNL     1       2.758  16.958   5.550  1.00  0.00     0.009 C 
BRANCH   6   7
ATOM      7  C   UNL     1       4.242  16.696   5.210  1.00  0.00     0.032 C 
ATOM      8  C   UNL     1       4.511  16.745   3.699  1.00  0.00     0.014 C 
BRANCH   7   9
ATOM      9  C   UNL     1       4.735  15.418   5.842  1.00  0.00     0.044 C 
ATOM     10  O   UNL     1       3.933  14.587   6.347  1.00  0.00    -0.550 OA
ATOM     11  O   UNL     1       6.098  15.172   5.908  1.00  0.00    -0.550 OA
ENDBRANCH   7   9
ENDBRANCH   6   7
ENDBRANCH   5   6
ENDBRANCH   4   5
ENDBRANCH   3   4
ENDBRANCH   2   3
ENDBRANCH   1   2
BRANCH   1  12
ATOM     12  C   UNL     1       3.021  16.537  10.400  1.00  0.00     0.000 C 
BRANCH  12  13
ATOM     13  C   UNL     1       3.342  16.199  11.871  1.00  0.00    -0.000 C 
BRANCH  13  14
ATOM     14  C   UNL     1       4.856  16.166  12.141  1.00  0.00    -0.000 C 
BRANCH  14  15
ATOM     15  C   UNL     1       5.227  15.320  13.370  1.00  0.00    -0.000 C 
BRANCH  15  16
ATOM     16  C   UNL     1       6.082  16.094  14.388  1.00  0.00    -0.000 C 
BRANCH  16  17
ATOM     17  C   UNL     1       5.407  16.211  15.767  1.00  0.00    -0.000 C 
BRANCH  17  18
ATOM     18  C   UNL     1       5.129  17.651  16.235  1.00  0.00    -0.003 C 
ATOM     19  C   UNL     1       4.686  18.575  15.100  1.00  0.00     0.004 C 
ENDBRANCH  17  18
ENDBRANCH  16  17
ENDBRANCH  15  16
ENDBRANCH  14  15
ENDBRANCH  13  14
ENDBRANCH  12  13
ENDBRANCH   1  12
TORSDOF 14
ENDMDL
MODEL 2
REMARK VINA RESULT:    -4.056      0.839      1.384
REMARK INTER + INTRA:          -8.737
REMARK INTER:                  -7.397
REMARK INTRA:                  -1.340
REMARK UNBOUND:                -1.362
REMARK SMILES CCCCCCCCCCCCCC[C@H](C)C(=O)[O-]
REMARK SMILES IDX 9 1 10 2 11 3 12 4 13 5 14 6 15 7 16 8 17 9 18 10 19 11 8 12
REMARK SMILES IDX 7 13 6 14 5 15 4 16 3 17 2 18 1 19
REMARK H PARENT
REMARK Flexibility Score: inf
ROOT
ATOM      1  C   UNL     1       4.498  17.593   8.694  1.00  0.00     0.000 C 
ENDROOT
BRANCH   1   2
ATOM      2  C   UNL     1       3.330  18.565   8.457  1.00  0.00     0.000 C 
BRANCH   2   3
ATOM      3  C   UNL     1       3.308  19.114   7.021  1.00  0.00     0.000 C 
BRANCH   3   4
ATOM      4  C   UNL     1       2.130  18.561   6.200  1.00  0.00     0.000 C 
BRANCH   4   5
ATOM      5  C   UNL     1       2.592  17.802   4.946  1.00  0.00     0.001 C 
BRANCH   5   6
ATOM      6  C   UNL     1       4.111  17.525   4.956  1.00  0.00     0.009 C 
BRANCH   6   7
ATOM      7  C   UNL     1       4.490  16.069   4.605  1.00  0.00     0.032 C 
ATOM      8  C   UNL     1       3.428  15.384   3.732  1.00  0.00     0.014 C 
BRANCH   7   9
ATOM      9  C   UNL     1       4.820  15.272   5.843  1.00  0.00     0.044 C 
ATOM     10  O   UNL     1       3.934  14.610   6.449  1.00  0.00    -0.550 OA
ATOM     11  O   UNL     1       6.110  15.302   6.349  1.00  0.00    -0.550 OA
ENDBRANCH   7   9
ENDBRANCH   6   7
ENDBRANCH   5   6
ENDBRANCH   4   5
ENDBRANCH   3   4
ENDBRANCH   2   3
ENDBRANCH   1   2
BRANCH   1  12
ATOM     12  C   UNL     1       4.147  16.463   9.677  1.00  0.00     0.000 C 
BRANCH  12  13
ATOM     13  C   UNL     1       3.044  16.848  10.686  1.00  0.00    -0.000 C 
BRANCH  13  14
ATOM     14  C   UNL     1       3.348  16.330  12.102  1.00  0.00    -0.000 C 
BRANCH  14  15
ATOM     15  C   UNL     1       4.848  16.099  12.347  1.00  0.00    -0.000 C 
BRANCH  15  16
ATOM     16  C   UNL     1       5.380  16.886  13.557  1.00  0.00    -0.000 C 
BRANCH  16  17
ATOM     17  C   UNL     1       4.283  17.700  14.269  1.00  0.00    -0.000 C 
BRANCH  17  18
ATOM     18  C   UNL     1       4.799  18.755  15.263  1.00  0.00    -0.003 C 
ATOM     19  C   UNL     1       4.971  18.210  16.681  1.00  0.00     0.004 C 
ENDBRANCH  17  18
ENDBRANCH  16  17
ENDBRANCH  15  16
ENDBRANCH  14  15
ENDBRANCH  13  14
ENDBRANCH  12  13
ENDBRANCH   1  12
TORSDOF 14
ENDMDL
MODEL 3
REMARK VINA RESULT:    -4.050      3.366      7.963
REMARK INTER + INTRA:          -8.726
REMARK INTER:                  -6.934
REMARK INTRA:                  -1.792
REMARK UNBOUND:                -1.362
REMARK SMILES CCCCCCCCCCCCCC[C@H](C)C(=O)[O-]
REMARK SMILES IDX 9 1 10 2 11 3 12 4 13 5 14 6 15 7 16 8 17 9 18 10 19 11 8 12
REMARK SMILES IDX 7 13 6 14 5 15 4 16 3 17 2 18 1 19
REMARK H PARENT
REMARK Flexibility Score: inf
ROOT
ATOM      1  C   UNL     1       2.067  17.928   8.499  1.00  0.00     0.000 C 
ENDROOT
BRANCH   1   2
ATOM      2  C   UNL     1       2.158  17.346   9.920  1.00  0.00     0.000 C 
BRANCH   2   3
ATOM      3  C   UNL     1       2.908  16.004   9.955  1.00  0.00     0.000 C 
BRANCH   3   4
ATOM      4  C   UNL     1       4.291  16.123  10.620  1.00  0.00     0.000 C 
BRANCH   4   5
ATOM      5  C   UNL     1       4.378  15.338  11.939  1.00  0.00     0.001 C 
BRANCH   5   6
ATOM      6  C   UNL     1       3.952  16.189  13.155  1.00  0.00     0.009 C 
BRANCH   6   7
ATOM      7  C   UNL     1       5.115  16.952  13.829  1.00  0.00     0.032 C 
ATOM      8  C   UNL     1       6.230  16.011  14.308  1.00  0.00     0.014 C 
BRANCH   7   9
ATOM      9  C   UNL     1       4.615  17.859  14.927  1.00  0.00     0.044 C 
ATOM     10  O   UNL     1       3.823  17.438  15.813  1.00  0.00    -0.550 OA
ATOM     11  O   UNL     1       5.000  19.191  14.938  1.00  0.00    -0.550 OA
ENDBRANCH   7   9
ENDBRANCH   6   7
ENDBRANCH   5   6
ENDBRANCH   4   5
ENDBRANCH   3   4
ENDBRANCH   2   3
ENDBRANCH   1   2
BRANCH   1  12
ATOM     12  C   UNL     1       3.279  18.800   8.129  1.00  0.00     0.000 C 
BRANCH  12  13
ATOM     13  C   UNL     1       3.286  19.247   6.652  1.00  0.00    -0.000 C 
BRANCH  13  14
ATOM     14  C   UNL     1       2.140  18.610   5.848  1.00  0.00    -0.000 C 
BRANCH  14  15
ATOM     15  C   UNL     1       2.634  17.800   4.639  1.00  0.00    -0.000 C 
BRANCH  15  16
ATOM     16  C   UNL     1       4.037  17.209   4.853  1.00  0.00    -0.000 C 
BRANCH  16  17
ATOM     17  C   UNL     1       4.009  15.700   5.162  1.00  0.00    -0.000 C 
BRANCH  17  18
ATOM     18  C   UNL     1       4.345  15.329   6.618  1.00  0.00    -0.003 C 
ATOM     19  C   UNL     1       5.639  15.971   7.118  1.00  0.00     0.004 C 
ENDBRANCH  17  18
ENDBRANCH  16  17
ENDBRANCH  15  16
ENDBRANCH  14  15
ENDBRANCH  13  14
ENDBRANCH  12  13
ENDBRANCH   1  12
TORSDOF 14
ENDMDL
MODEL 4
REMARK VINA RESULT:    -4.007      1.594      2.715
REMARK INTER + INTRA:          -8.649
REMARK INTER:                  -6.632
REMARK INTRA:                  -2.017
REMARK UNBOUND:                -1.362
REMARK SMILES CCCCCCCCCCCCCC[C@H](C)C(=O)[O-]
REMARK SMILES IDX 9 1 10 2 11 3 12 4 13 5 14 6 15 7 16 8 17 9 18 10 19 11 8 12
REMARK SMILES IDX 7 13 6 14 5 15 4 16 3 17 2 18 1 19
REMARK H PARENT
REMARK Flexibility Score: inf
ROOT
ATOM      1  C   UNL     1       3.287  15.532  11.966  1.00  0.00     0.000 C 
ENDROOT
BRANCH   1   2
ATOM      2  C   UNL     1       2.759  16.238  10.705  1.00  0.00     0.000 C 
BRANCH   2   3
ATOM      3  C   UNL     1       1.942  17.497  11.039  1.00  0.00     0.000 C 
BRANCH   3   4
ATOM      4  C   UNL     1       2.292  18.683  10.123  1.00  0.00     0.000 C 
BRANCH   4   5
ATOM      5  C   UNL     1       2.115  18.347   8.634  1.00  0.00     0.001 C 
BRANCH   5   6
ATOM      6  C   UNL     1       3.419  18.543   7.830  1.00  0.00     0.009 C 
BRANCH   6   7
ATOM      7  C   UNL     1       3.923  17.265   7.123  1.00  0.00     0.032 C 
ATOM      8  C   UNL     1       2.810  16.221   6.941  1.00  0.00     0.014 C 
BRANCH   7   9
ATOM      9  C   UNL     1       5.138  16.696   7.814  1.00  0.00     0.044 C 
ATOM     10  O   UNL     1       5.696  15.646   7.395  1.00  0.00    -0.550 OA
ATOM     11  O   UNL     1       5.625  17.315   8.955  1.00  0.00    -0.550 OA
ENDBRANCH   7   9
ENDBRANCH   6   7
ENDBRANCH   5   6
ENDBRANCH   4   5
ENDBRANCH   3   4
ENDBRANCH   2   3
ENDBRANCH   1   2
BRANCH   1  12
ATOM     12  C   UNL     1       4.744  15.902  12.293  1.00  0.00     0.000 C 
BRANCH  12  13
ATOM     13  C   UNL     1       5.314  15.138  13.507  1.00  0.00    -0.000 C 
BRANCH  13  14
ATOM     14  C   UNL     1       4.217  14.747  14.512  1.00  0.00    -0.000 C 
BRANCH  14  15
ATOM     15  C   UNL     1       4.477  15.294  15.925  1.00  0.00    -0.000 C 
BRANCH  15  16
ATOM     16  C   UNL     1       5.539  16.406  15.946  1.00  0.00    -0.000 C 
BRANCH  16  17
ATOM     17  C   UNL     1       4.938  17.801  16.198  1.00  0.00    -0.000 C 
BRANCH  17  18
ATOM     18  C   UNL     1       4.606  18.605  14.929  1.00  0.00    -0.003 C 
ATOM     19  C   UNL     1       3.154  18.440  14.476  1.00  0.00     0.004 C 
ENDBRANCH  17  18
ENDBRANCH  16  17
ENDBRANCH  15  16
ENDBRANCH  14  15
ENDBRANCH  13  14
ENDBRANCH  12  13
ENDBRANCH   1  12
TORSDOF 14
ENDMDL
MODEL 5
REMARK VINA RESULT:    -3.986      3.057      7.863
REMARK INTER + INTRA:          -8.610
REMARK INTER:                  -6.456
REMARK INTRA:                  -2.154
REMARK UNBOUND:                -1.362
REMARK SMILES CCCCCCCCCCCCCC[C@H](C)C(=O)[O-]
REMARK SMILES IDX 9 1 10 2 11 3 12 4 13 5 14 6 15 7 16 8 17 9 18 10 19 11 8 12
REMARK SMILES IDX 7 13 6 14 5 15 4 16 3 17 2 18 1 19
REMARK H PARENT
REMARK Flexibility Score: inf
ROOT
ATOM      1  C   UNL     1       4.661  16.395   7.977  1.00  0.00     0.000 C 
ENDROOT
BRANCH   1   2
ATOM      2  C   UNL     1       3.374  15.577   8.183  1.00  0.00     0.000 C 
BRANCH   2   3
ATOM      3  C   UNL     1       3.283  14.975   9.595  1.00  0.00     0.000 C 
BRANCH   3   4
ATOM      4  C   UNL     1       2.248  15.698  10.474  1.00  0.00     0.000 C 
BRANCH   4   5
ATOM      5  C   UNL     1       2.881  16.345  11.716  1.00  0.00     0.001 C 
BRANCH   5   6
ATOM      6  C   UNL     1       4.406  16.109  11.786  1.00  0.00     0.009 C 
BRANCH   6   7
ATOM      7  C   UNL     1       4.858  15.257  12.993  1.00  0.00     0.032 C 
ATOM      8  C   UNL     1       3.699  14.463  13.614  1.00  0.00     0.014 C 
BRANCH   7   9
ATOM      9  C   UNL     1       5.594  16.092  14.012  1.00  0.00     0.044 C 
ATOM     10  O   UNL     1       5.073  17.128  14.508  1.00  0.00    -0.550 OA
ATOM     11  O   UNL     1       6.884  15.740  14.377  1.00  0.00    -0.550 OA
ENDBRANCH   7   9
ENDBRANCH   6   7
ENDBRANCH   5   6
ENDBRANCH   4   5
ENDBRANCH   3   4
ENDBRANCH   2   3
ENDBRANCH   1   2
BRANCH   1  12
ATOM     12  C   UNL     1       4.546  17.835   8.504  1.00  0.00     0.000 C 
BRANCH  12  13
ATOM     13  C   UNL     1       3.237  18.539   8.088  1.00  0.00    -0.000 C 
BRANCH  13  14
ATOM     14  C   UNL     1       3.324  19.131   6.671  1.00  0.00    -0.000 C 
BRANCH  14  15
ATOM     15  C   UNL     1       2.134  18.734   5.782  1.00  0.00    -0.000 C 
BRANCH  15  16
ATOM     16  C   UNL     1       2.497  17.651   4.752  1.00  0.00    -0.000 C 
BRANCH  16  17
ATOM     17  C   UNL     1       4.017  17.499   4.556  1.00  0.00    -0.000 C 
BRANCH  17  18
ATOM     18  C   UNL     1       4.474  16.113   4.069  1.00  0.00    -0.003 C 
ATOM     19  C   UNL     1       3.530  14.987   4.493  1.00  0.00     0.004 C 
ENDBRANCH  17  18
ENDBRANCH  16  17
ENDBRANCH  15  16
ENDBRANCH  14  15
ENDBRANCH  13  14
ENDBRANCH  12  13
ENDBRANCH   1  12
TORSDOF 14
ENDMDL
MODEL 6
REMARK VINA RESULT:    -3.870      1.409      3.091
REMARK INTER + INTRA:          -8.400
REMARK INTER:                  -6.845
REMARK INTRA:                  -1.555
REMARK UNBOUND:                -1.362
REMARK SMILES CCCCCCCCCCCCCC[C@H](C)C(=O)[O-]
REMARK SMILES IDX 9 1 10 2 11 3 12 4 13 5 14 6 15 7 16 8 17 9 18 10 19 11 8 12
REMARK SMILES IDX 7 13 6 14 5 15 4 16 3 17 2 18 1 19
REMARK H PARENT
REMARK Flexibility Score: inf
ROOT
ATOM      1  C   UNL     1       4.250  14.796  12.027  1.00  0.00     0.000 C 
ENDROOT
BRANCH   1   2
ATOM      2  C   UNL     1       4.245  16.227  11.462  1.00  0.00     0.000 C 
BRANCH   2   3
ATOM      3  C   UNL     1       3.402  16.347  10.181  1.00  0.00     0.000 C 
BRANCH   3   4
ATOM      4  C   UNL     1       2.473  17.574  10.204  1.00  0.00     0.000 C 
BRANCH   4   5
ATOM      5  C   UNL     1       2.767  18.554   9.056  1.00  0.00     0.001 C 
BRANCH   5   6
ATOM      6  C   UNL     1       3.955  18.094   8.183  1.00  0.00     0.009 C 
BRANCH   6   7
ATOM      7  C   UNL     1       3.804  18.432   6.683  1.00  0.00     0.032 C 
ATOM      8  C   UNL     1       2.605  19.352   6.410  1.00  0.00     0.014 C 
BRANCH   7   9
ATOM      9  C   UNL     1       3.777  17.183   5.838  1.00  0.00     0.044 C 
ATOM     10  O   UNL     1       3.269  16.112   6.269  1.00  0.00    -0.550 OA
ATOM     11  O   UNL     1       4.358  17.199   4.579  1.00  0.00    -0.550 OA
ENDBRANCH   7   9
ENDBRANCH   6   7
ENDBRANCH   5   6
ENDBRANCH   4   5
ENDBRANCH   3   4
ENDBRANCH   2   3
ENDBRANCH   1   2
BRANCH   1  12
ATOM     12  C   UNL     1       4.969  14.690  13.383  1.00  0.00     0.000 C 
BRANCH  12  13
ATOM     13  C   UNL     1       5.872  15.902  13.695  1.00  0.00    -0.000 C 
BRANCH  13  14
ATOM     14  C   UNL     1       6.157  16.040  15.200  1.00  0.00    -0.000 C 
BRANCH  14  15
ATOM     15  C   UNL     1       4.926  16.493  16.003  1.00  0.00    -0.000 C 
BRANCH  15  16
ATOM     16  C   UNL     1       4.872  18.018  16.197  1.00  0.00    -0.000 C 
BRANCH  16  17
ATOM     17  C   UNL     1       3.855  18.703  15.265  1.00  0.00    -0.000 C 
BRANCH  17  18
ATOM     18  C   UNL     1       2.762  17.776  14.703  1.00  0.00    -0.003 C 
ATOM     19  C   UNL     1       1.910  18.441  13.620  1.00  0.00     0.004 C 
ENDBRANCH  17  18
ENDBRANCH  16  17
ENDBRANCH  15  16
ENDBRANCH  14  15
ENDBRANCH  13  14
ENDBRANCH  12  13
ENDBRANCH   1  12
TORSDOF 14
ENDMDL
MODEL 7
REMARK VINA RESULT:    -3.868      3.207      8.210
REMARK INTER + INTRA:          -8.396
REMARK INTER:                  -6.814
REMARK INTRA:                  -1.582
REMARK UNBOUND:                -1.362
REMARK SMILES CCCCCCCCCCCCCC[C@H](C)C(=O)[O-]
REMARK SMILES IDX 9 1 10 2 11 3 12 4 13 5 14 6 15 7 16 8 17 9 18 10 19 11 8 12
REMARK SMILES IDX 7 13 6 14 5 15 4 16 3 17 2 18 1 19
REMARK H PARENT
REMARK Flexibility Score: inf
ROOT
ATOM      1  C   UNL     1       3.974  15.500   8.973  1.00  0.00     0.000 C 
ENDROOT
BRANCH   1   2
ATOM      2  C   UNL     1       3.253  15.963  10.250  1.00  0.00     0.000 C 
BRANCH   2   3
ATOM      3  C   UNL     1       4.208  16.091  11.447  1.00  0.00     0.000 C 
BRANCH   3   4
ATOM      4  C   UNL     1       4.437  14.747  12.161  1.00  0.00     0.000 C 
BRANCH   4   5
ATOM      5  C   UNL     1       5.353  14.882  13.388  1.00  0.00     0.001 C 
BRANCH   5   6
ATOM      6  C   UNL     1       5.717  16.352  13.688  1.00  0.00     0.009 C 
BRANCH   6   7
ATOM      7  C   UNL     1       5.212  16.860  15.057  1.00  0.00     0.032 C 
ATOM      8  C   UNL     1       4.518  15.757  15.869  1.00  0.00     0.014 C 
BRANCH   7   9
ATOM      9  C   UNL     1       4.353  18.091  14.904  1.00  0.00     0.044 C 
ATOM     10  O   UNL     1       4.845  19.248  14.996  1.00  0.00    -0.550 OA
ATOM     11  O   UNL     1       2.988  17.949  14.703  1.00  0.00    -0.550 OA
ENDBRANCH   7   9
ENDBRANCH   6   7
ENDBRANCH   5   6
ENDBRANCH   4   5
ENDBRANCH   3   4
ENDBRANCH   2   3
ENDBRANCH   1   2
BRANCH   1  12
ATOM     12  C   UNL     1       5.120  16.438   8.558  1.00  0.00     0.000 C 
BRANCH  12  13
ATOM     13  C   UNL     1       5.806  16.023   7.239  1.00  0.00    -0.000 C 
BRANCH  13  14
ATOM     14  C   UNL     1       4.815  15.400   6.241  1.00  0.00    -0.000 C 
BRANCH  14  15
ATOM     15  C   UNL     1       4.450  16.350   5.089  1.00  0.00    -0.000 C 
BRANCH  15  16
ATOM     16  C   UNL     1       2.999  16.854   5.172  1.00  0.00    -0.000 C 
BRANCH  16  17
ATOM     17  C   UNL     1       2.896  18.390   5.115  1.00  0.00    -0.000 C 
BRANCH  17  18
ATOM     18  C   UNL     1       3.031  19.100   6.474  1.00  0.00    -0.003 C 
ATOM     19  C   UNL     1       2.221  18.430   7.585  1.00  0.00     0.004 C 
ENDBRANCH  17  18
ENDBRANCH  16  17
ENDBRANCH  15  16
ENDBRANCH  14  15
ENDBRANCH  13  14
ENDBRANCH  12  13
ENDBRANCH   1  12
TORSDOF 14
ENDMDL
MODEL 8
REMARK VINA RESULT:    -3.707      3.191      7.939
REMARK INTER + INTRA:          -8.103
REMARK INTER:                  -6.393
REMARK INTRA:                  -1.711
REMARK UNBOUND:                -1.362
REMARK SMILES CCCCCCCCCCCCCC[C@H](C)C(=O)[O-]
REMARK SMILES IDX 9 1 10 2 11 3 12 4 13 5 14 6 15 7 16 8 17 9 18 10 19 11 8 12
REMARK SMILES IDX 7 13 6 14 5 15 4 16 3 17 2 18 1 19
REMARK H PARENT
REMARK Flexibility Score: inf
ROOT
ATOM      1  C   UNL     1       5.633  16.168   7.576  1.00  0.00     0.000 C 
ENDROOT
BRANCH   1   2
ATOM      2  C   UNL     1       4.879  16.785   8.766  1.00  0.00     0.000 C 
BRANCH   2   3
ATOM      3  C   UNL     1       3.505  16.132   8.990  1.00  0.00     0.000 C 
BRANCH   3   4
ATOM      4  C   UNL     1       2.712  16.807  10.123  1.00  0.00     0.000 C 
BRANCH   4   5
ATOM      5  C   UNL     1       2.794  16.026  11.444  1.00  0.00     0.001 C 
BRANCH   5   6
ATOM      6  C   UNL     1       3.484  16.838  12.562  1.00  0.00     0.009 C 
BRANCH   6   7
ATOM      7  C   UNL     1       4.878  16.304  12.961  1.00  0.00     0.032 C 
ATOM      8  C   UNL     1       4.942  14.770  12.948  1.00  0.00     0.014 C 
BRANCH   7   9
ATOM      9  C   UNL     1       5.336  16.889  14.274  1.00  0.00     0.044 C 
ATOM     10  O   UNL     1       5.981  16.197  15.108  1.00  0.00    -0.550 OA
ATOM     11  O   UNL     1       5.006  18.198  14.590  1.00  0.00    -0.550 OA
ENDBRANCH   7   9
ENDBRANCH   6   7
ENDBRANCH   5   6
ENDBRANCH   4   5
ENDBRANCH   3   4
ENDBRANCH   2   3
ENDBRANCH   1   2
BRANCH   1  12
ATOM     12  C   UNL     1       4.714  15.381   6.627  1.00  0.00     0.000 C 
BRANCH  12  13
ATOM     13  C   UNL     1       5.369  15.053   5.269  1.00  0.00    -0.000 C 
BRANCH  13  14
ATOM     14  C   UNL     1       4.786  15.900   4.125  1.00  0.00    -0.000 C 
BRANCH  14  15
ATOM     15  C   UNL     1       3.403  15.413   3.664  1.00  0.00    -0.000 C 
BRANCH  15  16
ATOM     16  C   UNL     1       2.305  16.473   3.856  1.00  0.00    -0.000 C 
BRANCH  16  17
ATOM     17  C   UNL     1       2.855  17.813   4.381  1.00  0.00    -0.000 C 
BRANCH  17  18
ATOM     18  C   UNL     1       2.276  18.267   5.733  1.00  0.00    -0.003 C 
ATOM     19  C   UNL     1       3.239  19.145   6.534  1.00  0.00     0.004 C 
ENDBRANCH  17  18
ENDBRANCH  16  17
ENDBRANCH  15  16
ENDBRANCH  14  15
ENDBRANCH  13  14
ENDBRANCH  12  13
ENDBRANCH   1  12
TORSDOF 14
ENDMDL
MODEL 9
REMARK VINA RESULT:    -3.661      1.484      2.958
REMARK INTER + INTRA:          -8.019
REMARK INTER:                  -6.467
REMARK INTRA:                  -1.551
REMARK UNBOUND:                -1.362
REMARK SMILES CCCCCCCCCCCCCC[C@H](C)C(=O)[O-]
REMARK SMILES IDX 9 1 10 2 11 3 12 4 13 5 14 6 15 7 16 8 17 9 18 10 19 11 8 12
REMARK SMILES IDX 7 13 6 14 5 15 4 16 3 17 2 18 1 19
REMARK H PARENT
REMARK Flexibility Score: inf
ROOT
ATOM      1  C   UNL     1       4.055  14.819  12.514  1.00  0.00     0.000 C 
ENDROOT
BRANCH   1   2
ATOM      2  C   UNL     1       4.386  16.125  11.772  1.00  0.00     0.000 C 
BRANCH   2   3
ATOM      3  C   UNL     1       3.956  16.084  10.296  1.00  0.00     0.000 C 
BRANCH   3   4
ATOM      4  C   UNL     1       2.907  17.159   9.961  1.00  0.00     0.000 C 
BRANCH   4   5
ATOM      5  C   UNL     1       2.733  17.358   8.447  1.00  0.00     0.001 C 
BRANCH   5   6
ATOM      6  C   UNL     1       4.086  17.485   7.713  1.00  0.00     0.009 C 
BRANCH   6   7
ATOM      7  C   UNL     1       4.320  16.410   6.629  1.00  0.00     0.032 C 
ATOM      8  C   UNL     1       3.263  15.297   6.673  1.00  0.00     0.014 C 
BRANCH   7   9
ATOM      9  C   UNL     1       5.728  15.871   6.682  1.00  0.00     0.044 C 
ATOM     10  O   UNL     1       6.546  16.264   7.557  1.00  0.00    -0.550 OA
ATOM     11  O   UNL     1       6.145  14.959   5.725  1.00  0.00    -0.550 OA
ENDBRANCH   7   9
ENDBRANCH   6   7
ENDBRANCH   5   6
ENDBRANCH   4   5
ENDBRANCH   3   4
ENDBRANCH   2   3
ENDBRANCH   1   2
BRANCH   1  12
ATOM     12  C   UNL     1       4.896  14.623  13.787  1.00  0.00     0.000 C 
BRANCH  12  13
ATOM     13  C   UNL     1       5.878  15.783  14.058  1.00  0.00    -0.000 C 
BRANCH  13  14
ATOM     14  C   UNL     1       6.045  16.061  15.561  1.00  0.00    -0.000 C 
BRANCH  14  15
ATOM     15  C   UNL     1       4.802  15.680  16.383  1.00  0.00    -0.000 C 
BRANCH  15  16
ATOM     16  C   UNL     1       3.737  16.789  16.397  1.00  0.00    -0.000 C 
BRANCH  16  17
ATOM     17  C   UNL     1       4.347  18.202  16.454  1.00  0.00    -0.000 C 
BRANCH  17  18
ATOM     18  C   UNL     1       4.114  19.062  15.198  1.00  0.00    -0.003 C 
ATOM     19  C   UNL     1       3.010  18.514  14.292  1.00  0.00     0.004 C 
ENDBRANCH  17  18
ENDBRANCH  16  17
ENDBRANCH  15  16
ENDBRANCH  14  15
ENDBRANCH  13  14
ENDBRANCH  12  13
ENDBRANCH   1  12
TORSDOF 14
ENDMDL
