MODEL 1
REMARK VINA RESULT:    64.052      0.000      0.000
REMARK INTER + INTRA:         105.578
REMARK INTER:                  94.007
REMARK INTRA:                  11.570
REMARK UNBOUND:                11.570
REMARK SMILES Cc1cc2c(C(C)C)c(O)c(O)c(C=O)c2c(O)c1-c1c(C)cc2c(C(C)C)c(O)c(O)c(C=O)c2c1O
REMARK SMILES IDX 1 1 2 2 3 3 4 4 16 5 13 6 11 7 9 8 5 9 17 10 19 11 20 12
REMARK SMILES IDX 37 13 21 14 36 15 23 16 22 17 24 18 33 19 25 20 31 21 29 22
REMARK SMILES IDX 38 23 34 25 35 26 26 27 27 28 28 29 32 30 30 32 18 34 6 36
REMARK SMILES IDX 7 37 8 38 14 39 15 40 10 41 12 43
REMARK H PARENT 38 24 32 31 30 33 18 35 10 42 12 44
REMARK Flexibility Score: inf
ROOT
ATOM      1  C   UNL     1      -5.487  39.573  19.802  1.00  0.00     0.045 C 
ATOM      2  C   UNL     1      -5.024  38.257  19.225  1.00  0.00    -0.039 A 
ATOM      3  C   UNL     1      -4.817  38.151  17.849  1.00  0.00     0.013 A 
ATOM      4  C   UNL     1      -4.371  36.952  17.250  1.00  0.00    -0.006 A 
ATOM      5  C   UNL     1      -4.200  35.798  18.072  1.00  0.00     0.039 A 
ATOM      6  C   UNL     1      -3.765  34.581  17.470  1.00  0.00     0.072 A 
ATOM      7  C   UNL     1      -3.693  34.479  16.068  1.00  0.00     0.169 A 
ATOM      8  C   UNL     1      -3.967  35.596  15.260  1.00  0.00     0.162 A 
ATOM      9  C   UNL     1      -4.137  36.871  15.842  1.00  0.00     0.008 A 
ATOM     10  C   UNL     1      -4.516  35.884  19.461  1.00  0.00     0.132 A 
ATOM     11  C   UNL     1      -4.882  37.119  20.036  1.00  0.00     0.031 A 
ENDROOT
BRANCH  11  12
ATOM     12  C   UNL     1      -5.155  37.211  21.495  1.00  0.00     0.031 A 
ATOM     13  C   UNL     1      -4.905  38.412  22.190  1.00  0.00     0.132 A 
ATOM     14  C   UNL     1      -5.641  36.091  22.185  1.00  0.00    -0.039 A 
ATOM     15  C   UNL     1      -5.205  38.515  23.579  1.00  0.00     0.039 A 
ATOM     16  C   UNL     1      -5.818  36.157  23.568  1.00  0.00     0.013 A 
ATOM     17  C   UNL     1      -5.934  34.800  21.458  1.00  0.00     0.045 C 
ATOM     18  C   UNL     1      -5.589  37.342  24.298  1.00  0.00    -0.006 A 
ATOM     19  C   UNL     1      -5.095  39.748  24.281  1.00  0.00     0.072 A 
ATOM     20  C   UNL     1      -5.713  37.384  25.726  1.00  0.00     0.008 A 
ATOM     21  C   UNL     1      -5.150  39.769  25.680  1.00  0.00     0.169 A 
ATOM     22  C   UNL     1      -5.389  38.586  26.402  1.00  0.00     0.162 A 
BRANCH  13  23
ATOM     23  O   UNL     1      -4.311  39.486  21.518  1.00  0.00    -0.507 OA
ATOM     24  H   UNL     1      -3.739  39.386  20.690  1.00  0.00     0.293 HD
ENDBRANCH  13  23
BRANCH  19  25
ATOM     25  C   UNL     1      -5.030  41.061  23.596  1.00  0.00     0.264 C 
ATOM     26  O   UNL     1      -4.111  41.312  22.772  1.00  0.00    -0.298 OA
ENDBRANCH  19  25
BRANCH  20  27
ATOM     27  C   UNL     1      -6.125  36.171  26.586  1.00  0.00     0.017 C 
ATOM     28  C   UNL     1      -5.727  36.343  28.060  1.00  0.00     0.012 C 
ATOM     29  C   UNL     1      -5.698  34.809  25.996  1.00  0.00     0.012 C 
ENDBRANCH  20  27
BRANCH  21  30
ATOM     30  O   UNL     1      -5.009  41.001  26.332  1.00  0.00    -0.504 OA
ATOM     31  H   UNL     1      -5.150  41.139  27.323  1.00  0.00     0.293 HD
ENDBRANCH  21  30
BRANCH  22  32
ATOM     32  O   UNL     1      -5.304  38.580  27.799  1.00  0.00    -0.504 OA
ATOM     33  H   UNL     1      -5.649  37.835  28.387  1.00  0.00     0.293 HD
ENDBRANCH  22  32
ENDBRANCH  11  12
BRANCH  10  34
ATOM     34  O   UNL     1      -4.514  34.734  20.259  1.00  0.00    -0.507 OA
ATOM     35  H   UNL     1      -4.729  34.732  21.249  1.00  0.00     0.293 HD
ENDBRANCH  10  34
BRANCH   9  36
ATOM     36  C   UNL     1      -4.126  38.124  14.947  1.00  0.00     0.017 C 
ATOM     37  C   UNL     1      -5.450  38.269  14.189  1.00  0.00     0.012 C 
ATOM     38  C   UNL     1      -2.922  38.195  13.988  1.00  0.00     0.012 C 
ENDBRANCH   9  36
BRANCH   6  39
ATOM     39  C   UNL     1      -3.287  33.431  18.276  1.00  0.00     0.264 C 
ATOM     40  O   UNL     1      -3.761  33.192  19.418  1.00  0.00    -0.298 OA
ENDBRANCH   6  39
BRANCH   8  41
ATOM     41  O   UNL     1      -4.084  35.457  13.876  1.00  0.00    -0.504 OA
ATOM     42  H   UNL     1      -3.903  34.596  13.377  1.00  0.00     0.293 HD
ENDBRANCH   8  41
BRANCH   7  43
ATOM     43  O   UNL     1      -3.297  33.264  15.500  1.00  0.00    -0.504 OA
ATOM     44  H   UNL     1      -3.922  32.639  15.009  1.00  0.00     0.293 HD
ENDBRANCH   7  43
TORSDOF 11
ENDMDL
