MODEL 1
REMARK VINA RESULT:    -3.254      0.000      0.000
REMARK INTER + INTRA:          -3.643
REMARK INTER:                  -3.634
REMARK INTRA:                  -0.009
REMARK UNBOUND:                -0.009
REMARK SMILES CCCC(=O)[O-]
REMARK SMILES IDX 3 1 4 2 5 3 6 4 2 5 1 6
REMARK H PARENT
REMARK Flexibility Score: inf
ROOT
ATOM      1  C   UNL     1      26.651  43.738  35.623  1.00  0.00     0.052 C 
ENDROOT
BRANCH   1   2
ATOM      2  C   UNL     1      27.826  43.038  35.013  1.00  0.00     0.041 C 
ATOM      3  O   UNL     1      27.843  42.787  33.778  1.00  0.00    -0.550 OA
ATOM      4  O   UNL     1      28.917  42.693  35.800  1.00  0.00    -0.550 OA
ENDBRANCH   1   2
BRANCH   1   5
ATOM      5  C   UNL     1      25.382  42.878  35.563  1.00  0.00     0.003 C 
ATOM      6  C   UNL     1      24.108  43.713  35.675  1.00  0.00     0.004 C 
ENDBRANCH   1   5
TORSDOF 2
ENDMDL
MODEL 2
REMARK VINA RESULT:    -3.219      1.750      2.163
REMARK INTER + INTRA:          -3.605
REMARK INTER:                  -3.557
REMARK INTRA:                  -0.048
REMARK UNBOUND:                -0.009
REMARK SMILES CCCC(=O)[O-]
REMARK SMILES IDX 3 1 4 2 5 3 6 4 2 5 1 6
REMARK H PARENT
REMARK Flexibility Score: inf
ROOT
ATOM      1  C   UNL     1      27.990  42.538  34.955  1.00  0.00     0.052 C 
ENDROOT
BRANCH   1   2
ATOM      2  C   UNL     1      27.459  41.636  33.884  1.00  0.00     0.041 C 
ATOM      3  O   UNL     1      27.681  41.894  32.671  1.00  0.00    -0.550 OA
ATOM      4  O   UNL     1      26.749  40.492  34.225  1.00  0.00    -0.550 OA
ENDBRANCH   1   2
BRANCH   1   5
ATOM      5  C   UNL     1      27.101  43.772  35.151  1.00  0.00     0.003 C 
ATOM      6  C   UNL     1      25.813  43.448  35.906  1.00  0.00     0.004 C 
ENDBRANCH   1   5
TORSDOF 2
ENDMDL
MODEL 3
REMARK VINA RESULT:    -3.204      0.752      1.529
REMARK INTER + INTRA:          -3.588
REMARK INTER:                  -3.581
REMARK INTRA:                  -0.007
REMARK UNBOUND:                -0.009
REMARK SMILES CCCC(=O)[O-]
REMARK SMILES IDX 3 1 4 2 5 3 6 4 2 5 1 6
REMARK H PARENT
REMARK Flexibility Score: inf
ROOT
ATOM      1  C   UNL     1      26.010  42.423  35.157  1.00  0.00     0.052 C 
ENDROOT
BRANCH   1   2
ATOM      2  C   UNL     1      27.436  42.628  34.749  1.00  0.00     0.041 C 
ATOM      3  O   UNL     1      28.304  42.930  35.612  1.00  0.00    -0.550 OA
ATOM      4  O   UNL     1      27.815  42.454  33.425  1.00  0.00    -0.550 OA
ENDBRANCH   1   2
BRANCH   1   5
ATOM      5  C   UNL     1      25.501  43.566  36.044  1.00  0.00     0.003 C 
ATOM      6  C   UNL     1      24.042  43.917  35.761  1.00  0.00     0.004 C 
ENDBRANCH   1   5
TORSDOF 2
ENDMDL
MODEL 4
REMARK VINA RESULT:    -3.196      3.300      4.246
REMARK INTER + INTRA:          -3.579
REMARK INTER:                  -3.570
REMARK INTRA:                  -0.008
REMARK UNBOUND:                -0.009
REMARK SMILES CCCC(=O)[O-]
REMARK SMILES IDX 3 1 4 2 5 3 6 4 2 5 1 6
REMARK H PARENT
REMARK Flexibility Score: inf
ROOT
ATOM      1  C   UNL     1      27.164  40.447  33.963  1.00  0.00     0.052 C 
ENDROOT
BRANCH   1   2
ATOM      2  C   UNL     1      27.662  41.486  33.006  1.00  0.00     0.041 C 
ATOM      3  O   UNL     1      27.838  42.671  33.394  1.00  0.00    -0.550 OA
ATOM      4  O   UNL     1      27.965  41.138  31.697  1.00  0.00    -0.550 OA
ENDBRANCH   1   2
BRANCH   1   5
ATOM      5  C   UNL     1      27.864  39.098  33.755  1.00  0.00     0.003 C 
ATOM      6  C   UNL     1      27.200  37.970  34.543  1.00  0.00     0.004 C 
ENDBRANCH   1   5
TORSDOF 2
ENDMDL
MODEL 5
REMARK VINA RESULT:    -3.182      1.720      2.231
REMARK INTER + INTRA:          -3.563
REMARK INTER:                  -3.556
REMARK INTRA:                  -0.007
REMARK UNBOUND:                -0.009
REMARK SMILES CCCC(=O)[O-]
REMARK SMILES IDX 3 1 4 2 5 3 6 4 2 5 1 6
REMARK H PARENT
REMARK Flexibility Score: inf
ROOT
ATOM      1  C   UNL     1      24.620  43.835  36.283  1.00  0.00     0.052 C 
ENDROOT
BRANCH   1   2
ATOM      2  C   UNL     1      25.842  43.222  35.671  1.00  0.00     0.041 C 
ATOM      3  O   UNL     1      25.788  42.067  35.172  1.00  0.00    -0.550 OA
ATOM      4  O   UNL     1      27.030  43.939  35.620  1.00  0.00    -0.550 OA
ENDBRANCH   1   2
BRANCH   1   5
ATOM      5  C   UNL     1      23.417  43.777  35.333  1.00  0.00     0.003 C 
ATOM      6  C   UNL     1      22.229  44.588  35.848  1.00  0.00     0.004 C 
ENDBRANCH   1   5
TORSDOF 2
ENDMDL
MODEL 6
REMARK VINA RESULT:    -3.162      7.722      8.256
REMARK INTER + INTRA:          -3.541
REMARK INTER:                  -3.503
REMARK INTRA:                  -0.039
REMARK UNBOUND:                -0.009
REMARK SMILES CCCC(=O)[O-]
REMARK SMILES IDX 3 1 4 2 5 3 6 4 2 5 1 6
REMARK H PARENT
REMARK Flexibility Score: inf
ROOT
ATOM      1  C   UNL     1      27.470  36.610  32.705  1.00  0.00     0.052 C 
ENDROOT
BRANCH   1   2
ATOM      2  C   UNL     1      27.429  35.631  33.837  1.00  0.00     0.041 C 
ATOM      3  O   UNL     1      27.905  34.473  33.691  1.00  0.00    -0.550 OA
ATOM      4  O   UNL     1      26.896  36.006  35.063  1.00  0.00    -0.550 OA
ENDBRANCH   1   2
BRANCH   1   5
ATOM      5  C   UNL     1      27.021  35.972  31.384  1.00  0.00     0.003 C 
ATOM      6  C   UNL     1      28.162  35.859  30.374  1.00  0.00     0.004 C 
ENDBRANCH   1   5
TORSDOF 2
ENDMDL
MODEL 7
REMARK VINA RESULT:    -3.109      2.703      3.608
REMARK INTER + INTRA:          -3.482
REMARK INTER:                  -3.469
REMARK INTRA:                  -0.013
REMARK UNBOUND:                -0.009
REMARK SMILES CCCC(=O)[O-]
REMARK SMILES IDX 3 1 4 2 5 3 6 4 2 5 1 6
REMARK H PARENT
REMARK Flexibility Score: inf
ROOT
ATOM      1  C   UNL     1      25.520  43.561  35.998  1.00  0.00     0.052 C 
ENDROOT
BRANCH   1   2
ATOM      2  C   UNL     1      24.257  42.973  35.448  1.00  0.00     0.041 C 
ATOM      3  O   UNL     1      23.219  43.681  35.351  1.00  0.00    -0.550 OA
ATOM      4  O   UNL     1      24.234  41.655  35.011  1.00  0.00    -0.550 OA
ENDBRANCH   1   2
BRANCH   1   5
ATOM      5  C   UNL     1      26.760  43.030  35.267  1.00  0.00     0.003 C 
ATOM      6  C   UNL     1      27.606  44.151  34.666  1.00  0.00     0.004 C 
ENDBRANCH   1   5
TORSDOF 2
ENDMDL
MODEL 8
REMARK VINA RESULT:    -3.040      8.685      9.260
REMARK INTER + INTRA:          -3.405
REMARK INTER:                  -3.343
REMARK INTRA:                  -0.062
REMARK UNBOUND:                -0.009
REMARK SMILES CCCC(=O)[O-]
REMARK SMILES IDX 3 1 4 2 5 3 6 4 2 5 1 6
REMARK H PARENT
REMARK Flexibility Score: inf
ROOT
ATOM      1  C   UNL     1      28.653  34.622  31.957  1.00  0.00     0.052 C 
ENDROOT
BRANCH   1   2
ATOM      2  C   UNL     1      27.883  35.511  32.883  1.00  0.00     0.041 C 
ATOM      3  O   UNL     1      27.537  35.094  34.021  1.00  0.00    -0.550 OA
ATOM      4  O   UNL     1      27.576  36.812  32.505  1.00  0.00    -0.550 OA
ENDBRANCH   1   2
BRANCH   1   5
ATOM      5  C   UNL     1      27.851  33.373  31.568  1.00  0.00     0.003 C 
ATOM      6  C   UNL     1      26.749  33.681  30.556  1.00  0.00     0.004 C 
ENDBRANCH   1   5
TORSDOF 2
ENDMDL
MODEL 9
REMARK VINA RESULT:    -3.003      8.691      9.139
REMARK INTER + INTRA:          -3.364
REMARK INTER:                  -3.352
REMARK INTRA:                  -0.011
REMARK UNBOUND:                -0.009
REMARK SMILES CCCC(=O)[O-]
REMARK SMILES IDX 3 1 4 2 5 3 6 4 2 5 1 6
REMARK H PARENT
REMARK Flexibility Score: inf
ROOT
ATOM      1  C   UNL     1      25.948  35.536  30.749  1.00  0.00     0.052 C 
ENDROOT
BRANCH   1   2
ATOM      2  C   UNL     1      27.043  36.206  31.520  1.00  0.00     0.041 C 
ATOM      3  O   UNL     1      28.149  35.625  31.684  1.00  0.00    -0.550 OA
ATOM      4  O   UNL     1      26.855  37.485  32.027  1.00  0.00    -0.550 OA
ENDBRANCH   1   2
BRANCH   1   5
ATOM      5  C   UNL     1      26.341  34.117  30.318  1.00  0.00     0.003 C 
ATOM      6  C   UNL     1      25.143  33.305  29.828  1.00  0.00     0.004 C 
ENDBRANCH   1   5
TORSDOF 2
ENDMDL
