MODEL 1
REMARK VINA RESULT:    -5.698      0.000      0.000
REMARK INTER + INTRA:          -6.973
REMARK INTER:                  -6.697
REMARK INTRA:                  -0.276
REMARK UNBOUND:                -0.276
REMARK SMILES O=c1cc(-c2ccc(O)c(O)c2)oc2cc(O)cc(O)c12
REMARK SMILES IDX 4 1 3 2 2 3 1 4 21 5 19 6 18 7 16 8 15 9 14 10 13 11 5 12
REMARK SMILES IDX 6 13 7 14 8 15 12 16 10 17 9 18 11 20 20 22 17 24
REMARK H PARENT 9 19 11 21 20 23 17 25
REMARK Flexibility Score: inf
ROOT
ATOM      1  C   UNL     1      -8.202  90.844 -14.019  1.00  0.00     0.138 A 
ATOM      2  C   UNL     1      -7.445  89.796 -13.468  1.00  0.00     0.100 A 
ATOM      3  C   UNL     1      -6.071  89.743 -13.708  1.00  0.00     0.197 A 
ATOM      4  O   UNL     1      -5.401  88.798 -13.210  1.00  0.00    -0.289 OA
ATOM      5  C   UNL     1      -5.464  90.736 -14.501  1.00  0.00     0.107 A 
ATOM      6  C   UNL     1      -4.080  90.756 -14.791  1.00  0.00     0.134 A 
ATOM      7  C   UNL     1      -3.552  91.778 -15.595  1.00  0.00     0.093 A 
ATOM      8  C   UNL     1      -4.385  92.779 -16.113  1.00  0.00     0.123 A 
ATOM      9  C   UNL     1      -5.752  92.762 -15.829  1.00  0.00     0.094 A 
ATOM     10  C   UNL     1      -6.296  91.753 -15.028  1.00  0.00     0.146 A 
ATOM     11  O   UNL     1      -7.600  91.760 -14.772  1.00  0.00    -0.456 OA
ENDROOT
BRANCH   1  12
ATOM     12  C   UNL     1      -9.667  90.951 -13.798  1.00  0.00     0.021 A 
ATOM     13  C   UNL     1     -10.283  92.181 -13.500  1.00  0.00     0.016 A 
ATOM     14  C   UNL     1     -11.665  92.254 -13.308  1.00  0.00     0.051 A 
ATOM     15  C   UNL     1     -12.456  91.104 -13.419  1.00  0.00     0.157 A 
ATOM     16  C   UNL     1     -10.471  89.803 -13.921  1.00  0.00     0.062 A 
ATOM     17  C   UNL     1     -11.858  89.876 -13.728  1.00  0.00     0.158 A 
BRANCH  15  18
ATOM     18  O   UNL     1     -13.834  91.173 -13.228  1.00  0.00    -0.504 OA
ATOM     19  H   UNL     1     -14.246  91.089 -12.306  1.00  0.00     0.293 HD
ENDBRANCH  15  18
BRANCH  17  20
ATOM     20  O   UNL     1     -12.648  88.734 -13.843  1.00  0.00    -0.504 OA
ATOM     21  H   UNL     1     -12.856  88.321 -14.745  1.00  0.00     0.293 HD
ENDBRANCH  17  20
ENDBRANCH   1  12
BRANCH   6  22
ATOM     22  O   UNL     1      -3.227  89.773 -14.290  1.00  0.00    -0.507 OA
ATOM     23  H   UNL     1      -3.239  89.502 -13.313  1.00  0.00     0.293 HD
ENDBRANCH   6  22
BRANCH   8  24
ATOM     24  O   UNL     1      -3.862  93.794 -16.911  1.00  0.00    -0.508 OA
ATOM     25  H   UNL     1      -3.795  94.748 -16.578  1.00  0.00     0.293 HD
ENDBRANCH   8  24
TORSDOF 5
ENDMDL
MODEL 2
REMARK VINA RESULT:    -5.600      8.691     11.789
REMARK INTER + INTRA:          -6.858
REMARK INTER:                  -6.588
REMARK INTRA:                  -0.270
REMARK UNBOUND:                -0.276
REMARK SMILES O=c1cc(-c2ccc(O)c(O)c2)oc2cc(O)cc(O)c12
REMARK SMILES IDX 4 1 3 2 2 3 1 4 21 5 19 6 18 7 16 8 15 9 14 10 13 11 5 12
REMARK SMILES IDX 6 13 7 14 8 15 12 16 10 17 9 18 11 20 20 22 17 24
REMARK H PARENT 9 19 11 21 20 23 17 25
REMARK Flexibility Score: inf
ROOT
ATOM      1  C   UNL     1      -7.551  83.686  -8.672  1.00  0.00     0.138 A 
ATOM      2  C   UNL     1      -8.010  85.007  -8.537  1.00  0.00     0.100 A 
ATOM      3  C   UNL     1      -9.376  85.273  -8.648  1.00  0.00     0.197 A 
ATOM      4  O   UNL     1      -9.779  86.461  -8.528  1.00  0.00    -0.289 OA
ATOM      5  C   UNL     1     -10.273  84.215  -8.897  1.00  0.00     0.107 A 
ATOM      6  C   UNL     1     -11.670  84.397  -9.023  1.00  0.00     0.134 A 
ATOM      7  C   UNL     1     -12.496  83.292  -9.276  1.00  0.00     0.093 A 
ATOM      8  C   UNL     1     -11.949  82.009  -9.407  1.00  0.00     0.123 A 
ATOM      9  C   UNL     1     -10.570  81.825  -9.285  1.00  0.00     0.094 A 
ATOM     10  C   UNL     1      -9.731  82.914  -9.030  1.00  0.00     0.146 A 
ATOM     11  O   UNL     1      -8.422  82.712  -8.916  1.00  0.00    -0.456 OA
ENDROOT
BRANCH   1  12
ATOM     12  C   UNL     1      -6.109  83.345  -8.565  1.00  0.00     0.021 A 
ATOM     13  C   UNL     1      -5.422  83.410  -7.337  1.00  0.00     0.016 A 
ATOM     14  C   UNL     1      -4.068  83.073  -7.265  1.00  0.00     0.051 A 
ATOM     15  C   UNL     1      -3.380  82.657  -8.411  1.00  0.00     0.157 A 
ATOM     16  C   UNL     1      -5.414  82.913  -9.709  1.00  0.00     0.062 A 
ATOM     17  C   UNL     1      -4.055  82.575  -9.635  1.00  0.00     0.158 A 
BRANCH  15  18
ATOM     18  O   UNL     1      -2.030  82.321  -8.341  1.00  0.00    -0.504 OA
ATOM     19  H   UNL     1      -1.549  82.240  -7.453  1.00  0.00     0.293 HD
ENDBRANCH  15  18
BRANCH  17  20
ATOM     20  O   UNL     1      -3.369  82.157 -10.774  1.00  0.00    -0.504 OA
ATOM     21  H   UNL     1      -3.561  82.557 -11.685  1.00  0.00     0.293 HD
ENDBRANCH  17  20
ENDBRANCH   1  12
BRANCH   6  22
ATOM     22  O   UNL     1     -12.243  85.663  -8.898  1.00  0.00    -0.507 OA
ATOM     23  H   UNL     1     -11.743  86.436  -8.473  1.00  0.00     0.293 HD
ENDBRANCH   6  22
BRANCH   8  24
ATOM     24  O   UNL     1     -12.769  80.911  -9.659  1.00  0.00    -0.508 OA
ATOM     25  H   UNL     1     -13.773  81.009  -9.747  1.00  0.00     0.293 HD
ENDBRANCH   8  24
TORSDOF 5
ENDMDL
MODEL 3
REMARK VINA RESULT:    -5.572      2.888      4.181
REMARK INTER + INTRA:          -6.826
REMARK INTER:                  -6.514
REMARK INTRA:                  -0.312
REMARK UNBOUND:                -0.276
REMARK SMILES O=c1cc(-c2ccc(O)c(O)c2)oc2cc(O)cc(O)c12
REMARK SMILES IDX 4 1 3 2 2 3 1 4 21 5 19 6 18 7 16 8 15 9 14 10 13 11 5 12
REMARK SMILES IDX 6 13 7 14 8 15 12 16 10 17 9 18 11 20 20 22 17 24
REMARK H PARENT 9 19 11 21 20 23 17 25
REMARK Flexibility Score: inf
ROOT
ATOM      1  C   UNL     1      -5.309  90.372 -15.038  1.00  0.00     0.138 A 
ATOM      2  C   UNL     1      -3.905  90.401 -14.996  1.00  0.00     0.100 A 
ATOM      3  C   UNL     1      -3.199  90.987 -16.048  1.00  0.00     0.197 A 
ATOM      4  O   UNL     1      -1.940  91.007 -16.001  1.00  0.00    -0.289 OA
ATOM      5  C   UNL     1      -3.903  91.536 -17.138  1.00  0.00     0.107 A 
ATOM      6  C   UNL     1      -3.266  92.148 -18.242  1.00  0.00     0.134 A 
ATOM      7  C   UNL     1      -4.038  92.666 -19.292  1.00  0.00     0.093 A 
ATOM      8  C   UNL     1      -5.436  92.583 -19.257  1.00  0.00     0.123 A 
ATOM      9  C   UNL     1      -6.069  91.980 -18.168  1.00  0.00     0.094 A 
ATOM     10  C   UNL     1      -5.316  91.458 -17.111  1.00  0.00     0.146 A 
ATOM     11  O   UNL     1      -5.943  90.890 -16.086  1.00  0.00    -0.456 OA
ENDROOT
BRANCH   1  12
ATOM     12  C   UNL     1      -6.112  89.761 -13.948  1.00  0.00     0.021 A 
ATOM     13  C   UNL     1      -5.596  89.603 -12.648  1.00  0.00     0.016 A 
ATOM     14  C   UNL     1      -6.379  89.034 -11.639  1.00  0.00     0.051 A 
ATOM     15  C   UNL     1      -7.690  88.622 -11.908  1.00  0.00     0.157 A 
ATOM     16  C   UNL     1      -7.435  89.357 -14.206  1.00  0.00     0.062 A 
ATOM     17  C   UNL     1      -8.220  88.786 -13.194  1.00  0.00     0.158 A 
BRANCH  15  18
ATOM     18  O   UNL     1      -8.472  88.054 -10.905  1.00  0.00    -0.504 OA
ATOM     19  H   UNL     1      -8.304  88.254  -9.926  1.00  0.00     0.293 HD
ENDBRANCH  15  18
BRANCH  17  20
ATOM     20  O   UNL     1      -9.526  88.380 -13.458  1.00  0.00    -0.504 OA
ATOM     21  H   UNL     1     -10.236  89.039 -13.756  1.00  0.00     0.293 HD
ENDBRANCH  17  20
ENDBRANCH   1  12
BRANCH   6  22
ATOM     22  O   UNL     1      -1.875  92.244 -18.305  1.00  0.00    -0.507 OA
ATOM     23  H   UNL     1      -1.332  92.634 -17.544  1.00  0.00     0.293 HD
ENDBRANCH   6  22
BRANCH   8  24
ATOM     24  O   UNL     1      -6.204  93.098 -20.299  1.00  0.00    -0.508 OA
ATOM     25  H   UNL     1      -6.043  94.028 -20.666  1.00  0.00     0.293 HD
ENDBRANCH   8  24
TORSDOF 5
ENDMDL
MODEL 4
REMARK VINA RESULT:    -5.501      9.182      9.691
REMARK INTER + INTRA:          -6.742
REMARK INTER:                  -6.456
REMARK INTRA:                  -0.286
REMARK UNBOUND:                -0.276
REMARK SMILES O=c1cc(-c2ccc(O)c(O)c2)oc2cc(O)cc(O)c12
REMARK SMILES IDX 4 1 3 2 2 3 1 4 21 5 19 6 18 7 16 8 15 9 14 10 13 11 5 12
REMARK SMILES IDX 6 13 7 14 8 15 12 16 10 17 9 18 11 20 20 22 17 24
REMARK H PARENT 9 19 11 21 20 23 17 25
REMARK Flexibility Score: inf
ROOT
ATOM      1  C   UNL     1      -8.760  83.689  -8.480  1.00  0.00     0.138 A 
ATOM      2  C   UNL     1      -8.369  84.292  -7.273  1.00  0.00     0.100 A 
ATOM      3  C   UNL     1      -7.012  84.387  -6.961  1.00  0.00     0.197 A 
ATOM      4  O   UNL     1      -6.671  84.929  -5.875  1.00  0.00    -0.289 OA
ATOM      5  C   UNL     1      -6.054  83.874  -7.858  1.00  0.00     0.107 A 
ATOM      6  C   UNL     1      -4.661  83.931  -7.620  1.00  0.00     0.134 A 
ATOM      7  C   UNL     1      -3.772  83.391  -8.561  1.00  0.00     0.093 A 
ATOM      8  C   UNL     1      -4.251  82.797  -9.736  1.00  0.00     0.123 A 
ATOM      9  C   UNL     1      -5.626  82.739  -9.974  1.00  0.00     0.094 A 
ATOM     10  C   UNL     1      -6.528  83.272  -9.049  1.00  0.00     0.146 A 
ATOM     11  O   UNL     1      -7.831  83.206  -9.300  1.00  0.00    -0.456 OA
ENDROOT
BRANCH   1  12
ATOM     12  C   UNL     1     -10.189  83.559  -8.863  1.00  0.00     0.021 A 
ATOM     13  C   UNL     1     -11.052  84.671  -8.893  1.00  0.00     0.016 A 
ATOM     14  C   UNL     1     -12.390  84.521  -9.267  1.00  0.00     0.051 A 
ATOM     15  C   UNL     1     -12.886  83.262  -9.626  1.00  0.00     0.157 A 
ATOM     16  C   UNL     1     -10.693  82.300  -9.238  1.00  0.00     0.062 A 
ATOM     17  C   UNL     1     -12.036  82.150  -9.613  1.00  0.00     0.158 A 
BRANCH  15  18
ATOM     18  O   UNL     1     -14.220  83.109 -10.000  1.00  0.00    -0.504 OA
ATOM     19  H   UNL     1     -14.910  82.738  -9.357  1.00  0.00     0.293 HD
ENDBRANCH  15  18
BRANCH  17  20
ATOM     20  O   UNL     1     -12.531  80.899  -9.975  1.00  0.00    -0.504 OA
ATOM     21  H   UNL     1     -12.588  80.137  -9.309  1.00  0.00     0.293 HD
ENDBRANCH  17  20
ENDBRANCH   1  12
BRANCH   6  22
ATOM     22  O   UNL     1      -4.155  84.516  -6.459  1.00  0.00    -0.507 OA
ATOM     23  H   UNL     1      -3.330  85.105  -6.474  1.00  0.00     0.293 HD
ENDBRANCH   6  22
BRANCH   8  24
ATOM     24  O   UNL     1      -3.369  82.261 -10.671  1.00  0.00    -0.508 OA
ATOM     25  H   UNL     1      -3.189  82.723 -11.554  1.00  0.00     0.293 HD
ENDBRANCH   8  24
TORSDOF 5
ENDMDL
MODEL 5
REMARK VINA RESULT:    -5.500      3.829      6.617
REMARK INTER + INTRA:          -6.741
REMARK INTER:                  -6.433
REMARK INTRA:                  -0.308
REMARK UNBOUND:                -0.276
REMARK SMILES O=c1cc(-c2ccc(O)c(O)c2)oc2cc(O)cc(O)c12
REMARK SMILES IDX 4 1 3 2 2 3 1 4 21 5 19 6 18 7 16 8 15 9 14 10 13 11 5 12
REMARK SMILES IDX 6 13 7 14 8 15 12 16 10 17 9 18 11 20 20 22 17 24
REMARK H PARENT 9 19 11 21 20 23 17 25
REMARK Flexibility Score: inf
ROOT
ATOM      1  C   UNL     1      -4.838  91.610 -14.751  1.00  0.00     0.138 A 
ATOM      2  C   UNL     1      -4.331  92.482 -13.773  1.00  0.00     0.100 A 
ATOM      3  C   UNL     1      -4.540  92.194 -12.423  1.00  0.00     0.197 A 
ATOM      4  O   UNL     1      -4.082  92.982 -11.553  1.00  0.00    -0.289 OA
ATOM      5  C   UNL     1      -5.259  91.037 -12.061  1.00  0.00     0.107 A 
ATOM      6  C   UNL     1      -5.513  90.672 -10.719  1.00  0.00     0.134 A 
ATOM      7  C   UNL     1      -6.243  89.507 -10.441  1.00  0.00     0.093 A 
ATOM      8  C   UNL     1      -6.722  88.701 -11.481  1.00  0.00     0.123 A 
ATOM      9  C   UNL     1      -6.472  89.058 -12.808  1.00  0.00     0.094 A 
ATOM     10  C   UNL     1      -5.746  90.215 -13.105  1.00  0.00     0.146 A 
ATOM     11  O   UNL     1      -5.522  90.532 -14.376  1.00  0.00    -0.456 OA
ENDROOT
BRANCH   1  12
ATOM     12  C   UNL     1      -4.648  91.866 -16.202  1.00  0.00     0.021 A 
ATOM     13  C   UNL     1      -3.524  92.559 -16.690  1.00  0.00     0.016 A 
ATOM     14  C   UNL     1      -3.366  92.776 -18.061  1.00  0.00     0.051 A 
ATOM     15  C   UNL     1      -4.321  92.299 -18.968  1.00  0.00     0.157 A 
ATOM     16  C   UNL     1      -5.596  91.379 -17.120  1.00  0.00     0.062 A 
ATOM     17  C   UNL     1      -5.438  91.598 -18.496  1.00  0.00     0.158 A 
BRANCH  15  18
ATOM     18  O   UNL     1      -4.166  92.515 -20.336  1.00  0.00    -0.504 OA
ATOM     19  H   UNL     1      -4.966  92.597 -20.953  1.00  0.00     0.293 HD
ENDBRANCH  15  18
BRANCH  17  20
ATOM     20  O   UNL     1      -6.384  91.121 -19.401  1.00  0.00    -0.504 OA
ATOM     21  H   UNL     1      -6.632  90.139 -19.441  1.00  0.00     0.293 HD
ENDBRANCH  17  20
ENDBRANCH   1  12
BRANCH   6  22
ATOM     22  O   UNL     1      -5.049  91.456  -9.661  1.00  0.00    -0.507 OA
ATOM     23  H   UNL     1      -5.052  92.469  -9.706  1.00  0.00     0.293 HD
ENDBRANCH   6  22
BRANCH   8  24
ATOM     24  O   UNL     1      -7.446  87.543 -11.206  1.00  0.00    -0.508 OA
ATOM     25  H   UNL     1      -8.420  87.453 -11.470  1.00  0.00     0.293 HD
ENDBRANCH   8  24
TORSDOF 5
ENDMDL
MODEL 6
REMARK VINA RESULT:    -5.418      4.246      6.337
REMARK INTER + INTRA:          -6.644
REMARK INTER:                  -6.370
REMARK INTRA:                  -0.274
REMARK UNBOUND:                -0.276
REMARK SMILES O=c1cc(-c2ccc(O)c(O)c2)oc2cc(O)cc(O)c12
REMARK SMILES IDX 4 1 3 2 2 3 1 4 21 5 19 6 18 7 16 8 15 9 14 10 13 11 5 12
REMARK SMILES IDX 6 13 7 14 8 15 12 16 10 17 9 18 11 20 20 22 17 24
REMARK H PARENT 9 19 11 21 20 23 17 25
REMARK Flexibility Score: inf
ROOT
ATOM      1  C   UNL     1      -4.743  91.509 -14.802  1.00  0.00     0.138 A 
ATOM      2  C   UNL     1      -5.288  90.335 -14.255  1.00  0.00     0.100 A 
ATOM      3  C   UNL     1      -5.448  90.233 -12.872  1.00  0.00     0.197 A 
ATOM      4  O   UNL     1      -5.936  89.175 -12.390  1.00  0.00    -0.289 OA
ATOM      5  C   UNL     1      -5.057  91.305 -12.045  1.00  0.00     0.107 A 
ATOM      6  C   UNL     1      -5.186  91.283 -10.637  1.00  0.00     0.134 A 
ATOM      7  C   UNL     1      -4.769  92.390  -9.883  1.00  0.00     0.093 A 
ATOM      8  C   UNL     1      -4.225  93.517 -10.512  1.00  0.00     0.123 A 
ATOM      9  C   UNL     1      -4.096  93.542 -11.903  1.00  0.00     0.094 A 
ATOM     10  C   UNL     1      -4.508  92.449 -12.671  1.00  0.00     0.146 A 
ATOM     11  O   UNL     1      -4.376  92.498 -13.993  1.00  0.00    -0.456 OA
ENDROOT
BRANCH   1  12
ATOM     12  C   UNL     1      -4.548  91.673 -16.265  1.00  0.00     0.021 A 
ATOM     13  C   UNL     1      -3.332  92.136 -16.803  1.00  0.00     0.016 A 
ATOM     14  C   UNL     1      -3.174  92.270 -18.184  1.00  0.00     0.051 A 
ATOM     15  C   UNL     1      -4.221  91.937 -19.052  1.00  0.00     0.157 A 
ATOM     16  C   UNL     1      -5.590  91.327 -17.145  1.00  0.00     0.062 A 
ATOM     17  C   UNL     1      -5.431  91.462 -18.531  1.00  0.00     0.158 A 
BRANCH  15  18
ATOM     18  O   UNL     1      -4.066  92.071 -20.431  1.00  0.00    -0.504 OA
ATOM     19  H   UNL     1      -4.650  91.559 -21.081  1.00  0.00     0.293 HD
ENDBRANCH  15  18
BRANCH  17  20
ATOM     20  O   UNL     1      -6.470  91.127 -19.398  1.00  0.00    -0.504 OA
ATOM     21  H   UNL     1      -6.962  90.245 -19.318  1.00  0.00     0.293 HD
ENDBRANCH  17  20
ENDBRANCH   1  12
BRANCH   6  22
ATOM     22  O   UNL     1      -5.724  90.174  -9.982  1.00  0.00    -0.507 OA
ATOM     23  H   UNL     1      -5.177  89.338  -9.813  1.00  0.00     0.293 HD
ENDBRANCH   6  22
BRANCH   8  24
ATOM     24  O   UNL     1      -3.810  94.617  -9.765  1.00  0.00    -0.508 OA
ATOM     25  H   UNL     1      -4.035  95.564 -10.046  1.00  0.00     0.293 HD
ENDBRANCH   8  24
TORSDOF 5
ENDMDL
MODEL 7
REMARK VINA RESULT:    -5.413      8.361      8.891
REMARK INTER + INTRA:          -6.638
REMARK INTER:                  -6.348
REMARK INTRA:                  -0.290
REMARK UNBOUND:                -0.276
REMARK SMILES O=c1cc(-c2ccc(O)c(O)c2)oc2cc(O)cc(O)c12
REMARK SMILES IDX 4 1 3 2 2 3 1 4 21 5 19 6 18 7 16 8 15 9 14 10 13 11 5 12
REMARK SMILES IDX 6 13 7 14 8 15 12 16 10 17 9 18 11 20 20 22 17 24
REMARK H PARENT 9 19 11 21 20 23 17 25
REMARK Flexibility Score: inf
ROOT
ATOM      1  C   UNL     1      -8.067  84.033  -8.934  1.00  0.00     0.138 A 
ATOM      2  C   UNL     1      -7.194  83.067  -9.463  1.00  0.00     0.100 A 
ATOM      3  C   UNL     1      -5.816  83.286  -9.411  1.00  0.00     0.197 A 
ATOM      4  O   UNL     1      -5.042  82.414  -9.889  1.00  0.00    -0.289 OA
ATOM      5  C   UNL     1      -5.321  84.472  -8.834  1.00  0.00     0.107 A 
ATOM      6  C   UNL     1      -3.942  84.770  -8.741  1.00  0.00     0.134 A 
ATOM      7  C   UNL     1      -3.529  85.977  -8.156  1.00  0.00     0.093 A 
ATOM      8  C   UNL     1      -4.471  86.890  -7.664  1.00  0.00     0.123 A 
ATOM      9  C   UNL     1      -5.833  86.599  -7.755  1.00  0.00     0.094 A 
ATOM     10  C   UNL     1      -6.265  85.400  -8.333  1.00  0.00     0.146 A 
ATOM     11  O   UNL     1      -7.567  85.147  -8.405  1.00  0.00    -0.456 OA
ENDROOT
BRANCH   1  12
ATOM     12  C   UNL     1      -9.541  83.855  -8.963  1.00  0.00     0.021 A 
ATOM     13  C   UNL     1     -10.421  84.952  -8.885  1.00  0.00     0.016 A 
ATOM     14  C   UNL     1     -11.803  84.755  -8.925  1.00  0.00     0.051 A 
ATOM     15  C   UNL     1     -12.331  83.465  -9.052  1.00  0.00     0.157 A 
ATOM     16  C   UNL     1     -10.079  82.563  -9.104  1.00  0.00     0.062 A 
ATOM     17  C   UNL     1     -11.467  82.367  -9.143  1.00  0.00     0.158 A 
BRANCH  15  18
ATOM     18  O   UNL     1     -13.710  83.266  -9.092  1.00  0.00    -0.504 OA
ATOM     19  H   UNL     1     -14.357  83.978  -8.775  1.00  0.00     0.293 HD
ENDBRANCH  15  18
BRANCH  17  20
ATOM     20  O   UNL     1     -11.995  81.084  -9.274  1.00  0.00    -0.504 OA
ATOM     21  H   UNL     1     -12.087  80.638 -10.180  1.00  0.00     0.293 HD
ENDBRANCH  17  20
ENDBRANCH   1  12
BRANCH   6  22
ATOM     22  O   UNL     1      -2.981  83.881  -9.223  1.00  0.00    -0.507 OA
ATOM     23  H   UNL     1      -2.498  84.040 -10.100  1.00  0.00     0.293 HD
ENDBRANCH   6  22
BRANCH   8  24
ATOM     24  O   UNL     1      -4.061  88.088  -7.084  1.00  0.00    -0.508 OA
ATOM     25  H   UNL     1      -4.586  88.945  -7.213  1.00  0.00     0.293 HD
ENDBRANCH   8  24
TORSDOF 5
ENDMDL
MODEL 8
REMARK VINA RESULT:    -5.299      8.749      9.691
REMARK INTER + INTRA:          -6.505
REMARK INTER:                  -6.242
REMARK INTRA:                  -0.263
REMARK UNBOUND:                -0.276
REMARK SMILES O=c1cc(-c2ccc(O)c(O)c2)oc2cc(O)cc(O)c12
REMARK SMILES IDX 4 1 3 2 2 3 1 4 21 5 19 6 18 7 16 8 15 9 14 10 13 11 5 12
REMARK SMILES IDX 6 13 7 14 8 15 12 16 10 17 9 18 11 20 20 22 17 24
REMARK H PARENT 9 19 11 21 20 23 17 25
REMARK Flexibility Score: inf
ROOT
ATOM      1  C   UNL     1      -6.625  83.862  -7.830  1.00  0.00     0.138 A 
ATOM      2  C   UNL     1      -5.379  83.233  -7.998  1.00  0.00     0.100 A 
ATOM      3  C   UNL     1      -4.211  83.994  -7.923  1.00  0.00     0.197 A 
ATOM      4  O   UNL     1      -3.099  83.421  -8.076  1.00  0.00    -0.289 OA
ATOM      5  C   UNL     1      -4.298  85.380  -7.685  1.00  0.00     0.107 A 
ATOM      6  C   UNL     1      -3.165  86.222  -7.594  1.00  0.00     0.134 A 
ATOM      7  C   UNL     1      -3.335  87.594  -7.360  1.00  0.00     0.093 A 
ATOM      8  C   UNL     1      -4.617  88.139  -7.217  1.00  0.00     0.123 A 
ATOM      9  C   UNL     1      -5.738  87.311  -7.306  1.00  0.00     0.094 A 
ATOM     10  C   UNL     1      -5.589  85.940  -7.537  1.00  0.00     0.146 A 
ATOM     11  O   UNL     1      -6.672  85.174  -7.617  1.00  0.00    -0.456 OA
ENDROOT
BRANCH   1  12
ATOM     12  C   UNL     1      -7.900  83.103  -7.901  1.00  0.00     0.021 A 
ATOM     13  C   UNL     1      -8.613  82.744  -6.741  1.00  0.00     0.016 A 
ATOM     14  C   UNL     1      -9.816  82.040  -6.839  1.00  0.00     0.051 A 
ATOM     15  C   UNL     1     -10.331  81.690  -8.093  1.00  0.00     0.157 A 
ATOM     16  C   UNL     1      -8.431  82.759  -9.157  1.00  0.00     0.062 A 
ATOM     17  C   UNL     1      -9.638  82.052  -9.255  1.00  0.00     0.158 A 
BRANCH  15  18
ATOM     18  O   UNL     1     -11.530  80.987  -8.193  1.00  0.00    -0.504 OA
ATOM     19  H   UNL     1     -12.130  80.847  -7.389  1.00  0.00     0.293 HD
ENDBRANCH  15  18
BRANCH  17  20
ATOM     20  O   UNL     1     -10.155  81.707 -10.501  1.00  0.00    -0.504 OA
ATOM     21  H   UNL     1     -10.346  82.407 -11.209  1.00  0.00     0.293 HD
ENDBRANCH  17  20
ENDBRANCH   1  12
BRANCH   6  22
ATOM     22  O   UNL     1      -1.875  85.707  -7.733  1.00  0.00    -0.507 OA
ATOM     23  H   UNL     1      -1.662  84.738  -7.529  1.00  0.00     0.293 HD
ENDBRANCH   6  22
BRANCH   8  24
ATOM     24  O   UNL     1      -4.788  89.502  -6.985  1.00  0.00    -0.508 OA
ATOM     25  H   UNL     1      -4.021  90.156  -7.087  1.00  0.00     0.293 HD
ENDBRANCH   8  24
TORSDOF 5
ENDMDL
MODEL 9
REMARK VINA RESULT:    -5.231      7.037      9.223
REMARK INTER + INTRA:          -6.425
REMARK INTER:                  -6.106
REMARK INTRA:                  -0.318
REMARK UNBOUND:                -0.276
REMARK SMILES O=c1cc(-c2ccc(O)c(O)c2)oc2cc(O)cc(O)c12
REMARK SMILES IDX 4 1 3 2 2 3 1 4 21 5 19 6 18 7 16 8 15 9 14 10 13 11 5 12
REMARK SMILES IDX 6 13 7 14 8 15 12 16 10 17 9 18 11 20 20 22 17 24
REMARK H PARENT 9 19 11 21 20 23 17 25
REMARK Flexibility Score: inf
ROOT
ATOM      1  C   UNL     1      -4.202  87.739  -7.897  1.00  0.00     0.138 A 
ATOM      2  C   UNL     1      -3.192  87.351  -7.000  1.00  0.00     0.100 A 
ATOM      3  C   UNL     1      -2.782  86.018  -6.963  1.00  0.00     0.197 A 
ATOM      4  O   UNL     1      -1.876  85.680  -6.155  1.00  0.00    -0.289 OA
ATOM      5  C   UNL     1      -3.388  85.079  -7.822  1.00  0.00     0.107 A 
ATOM      6  C   UNL     1      -3.031  83.711  -7.848  1.00  0.00     0.134 A 
ATOM      7  C   UNL     1      -3.687  82.838  -8.729  1.00  0.00     0.093 A 
ATOM      8  C   UNL     1      -4.693  83.309  -9.582  1.00  0.00     0.123 A 
ATOM      9  C   UNL     1      -5.049  84.659  -9.558  1.00  0.00     0.094 A 
ATOM     10  C   UNL     1      -4.405  85.545  -8.688  1.00  0.00     0.146 A 
ATOM     11  O   UNL     1      -4.761  86.826  -8.686  1.00  0.00    -0.456 OA
ENDROOT
BRANCH   1  12
ATOM     12  C   UNL     1      -4.680  89.142  -7.979  1.00  0.00     0.021 A 
ATOM     13  C   UNL     1      -4.080  90.173  -7.230  1.00  0.00     0.016 A 
ATOM     14  C   UNL     1      -4.544  91.487  -7.335  1.00  0.00     0.051 A 
ATOM     15  C   UNL     1      -5.605  91.796  -8.194  1.00  0.00     0.157 A 
ATOM     16  C   UNL     1      -5.737  89.464  -8.850  1.00  0.00     0.062 A 
ATOM     17  C   UNL     1      -6.202  90.783  -8.954  1.00  0.00     0.158 A 
BRANCH  15  18
ATOM     18  O   UNL     1      -6.070  93.105  -8.300  1.00  0.00    -0.504 OA
ATOM     19  H   UNL     1      -5.435  93.895  -8.293  1.00  0.00     0.293 HD
ENDBRANCH  15  18
BRANCH  17  20
ATOM     20  O   UNL     1      -7.255  91.094  -9.812  1.00  0.00    -0.504 OA
ATOM     21  H   UNL     1      -7.093  91.510 -10.722  1.00  0.00     0.293 HD
ENDBRANCH  17  20
ENDBRANCH   1  12
BRANCH   6  22
ATOM     22  O   UNL     1      -2.033  83.213  -7.010  1.00  0.00    -0.507 OA
ATOM     23  H   UNL     1      -2.245  82.836  -6.093  1.00  0.00     0.293 HD
ENDBRANCH   6  22
BRANCH   8  24
ATOM     24  O   UNL     1      -5.346  82.443 -10.457  1.00  0.00    -0.508 OA
ATOM     25  H   UNL     1      -5.992  82.786 -11.158  1.00  0.00     0.293 HD
ENDBRANCH   8  24
TORSDOF 5
ENDMDL
