MODEL 1
REMARK VINA RESULT:    -3.612      0.000      0.000
REMARK INTER + INTRA:          -3.840
REMARK INTER:                  -3.823
REMARK INTRA:                  -0.017
REMARK UNBOUND:                -0.017
REMARK SMILES O=C([O-])c1cccnc1
REMARK SMILES IDX 4 1 5 2 9 3 6 4 8 5 7 6 2 7 1 8 3 9
REMARK H PARENT
REMARK Flexibility Score: inf
ROOT
ATOM      1  C   UNL     1      -6.090  -5.370  -0.832  1.00  0.00     0.016 A 
ATOM      2  C   UNL     1      -5.031  -5.112   0.053  1.00  0.00     0.013 A 
ATOM      3  C   UNL     1      -7.385  -5.508  -0.303  1.00  0.00     0.120 A 
ATOM      4  C   UNL     1      -5.275  -4.998   1.424  1.00  0.00     0.021 A 
ATOM      5  N   UNL     1      -7.596  -5.393   1.036  1.00  0.00    -0.264 NA
ATOM      6  C   UNL     1      -6.578  -5.143   1.901  1.00  0.00     0.111 A 
ENDROOT
BRANCH   1   7
ATOM      7  C   UNL     1      -5.843  -5.492  -2.285  1.00  0.00     0.073 C 
ATOM      8  O   UNL     1      -5.154  -6.444  -2.740  1.00  0.00    -0.545 OA
ATOM      9  O   UNL     1      -6.368  -4.557  -3.170  1.00  0.00    -0.545 OA
ENDBRANCH   1   7
TORSDOF 1
ENDMDL
MODEL 2
REMARK VINA RESULT:    -3.492      2.445      3.400
REMARK INTER + INTRA:          -3.714
REMARK INTER:                  -3.694
REMARK INTRA:                  -0.020
REMARK UNBOUND:                -0.017
REMARK SMILES O=C([O-])c1cccnc1
REMARK SMILES IDX 4 1 5 2 9 3 6 4 8 5 7 6 2 7 1 8 3 9
REMARK H PARENT
REMARK Flexibility Score: inf
ROOT
ATOM      1  C   UNL     1      -6.123  -5.291  -0.184  1.00  0.00     0.016 A 
ATOM      2  C   UNL     1      -5.673  -5.557  -1.487  1.00  0.00     0.013 A 
ATOM      3  C   UNL     1      -7.493  -5.441   0.094  1.00  0.00     0.120 A 
ATOM      4  C   UNL     1      -6.577  -5.959  -2.473  1.00  0.00     0.021 A 
ATOM      5  N   UNL     1      -8.353  -5.833  -0.885  1.00  0.00    -0.264 NA
ATOM      6  C   UNL     1      -7.927  -6.093  -2.149  1.00  0.00     0.111 A 
ENDROOT
BRANCH   1   7
ATOM      7  C   UNL     1      -5.175  -4.866   0.868  1.00  0.00     0.073 C 
ATOM      8  O   UNL     1      -4.302  -3.989   0.627  1.00  0.00    -0.545 OA
ATOM      9  O   UNL     1      -5.232  -5.429   2.138  1.00  0.00    -0.545 OA
ENDBRANCH   1   7
TORSDOF 1
ENDMDL
MODEL 3
REMARK VINA RESULT:    -3.491      1.728      2.052
REMARK INTER + INTRA:          -3.712
REMARK INTER:                  -3.696
REMARK INTRA:                  -0.017
REMARK UNBOUND:                -0.017
REMARK SMILES O=C([O-])c1cccnc1
REMARK SMILES IDX 4 1 5 2 9 3 6 4 8 5 7 6 2 7 1 8 3 9
REMARK H PARENT
REMARK Flexibility Score: inf
ROOT
ATOM      1  C   UNL     1      -5.780  -4.861  -1.137  1.00  0.00     0.016 A 
ATOM      2  C   UNL     1      -5.057  -5.274  -0.007  1.00  0.00     0.013 A 
ATOM      3  C   UNL     1      -6.155  -3.509  -1.234  1.00  0.00     0.120 A 
ATOM      4  C   UNL     1      -4.724  -4.353   0.988  1.00  0.00     0.021 A 
ATOM      5  N   UNL     1      -5.820  -2.632  -0.249  1.00  0.00    -0.264 NA
ATOM      6  C   UNL     1      -5.119  -3.022   0.848  1.00  0.00     0.111 A 
ENDROOT
BRANCH   1   7
ATOM      7  C   UNL     1      -6.137  -5.827  -2.198  1.00  0.00     0.073 C 
ATOM      8  O   UNL     1      -7.337  -6.171  -2.375  1.00  0.00    -0.545 OA
ATOM      9  O   UNL     1      -5.152  -6.372  -3.015  1.00  0.00    -0.545 OA
ENDBRANCH   1   7
TORSDOF 1
ENDMDL
MODEL 4
REMARK VINA RESULT:    -3.472      3.311      4.044
REMARK INTER + INTRA:          -3.692
REMARK INTER:                  -3.673
REMARK INTRA:                  -0.020
REMARK UNBOUND:                -0.017
REMARK SMILES O=C([O-])c1cccnc1
REMARK SMILES IDX 4 1 5 2 9 3 6 4 8 5 7 6 2 7 1 8 3 9
REMARK H PARENT
REMARK Flexibility Score: inf
ROOT
ATOM      1  C   UNL     1      -5.153  -3.756   2.562  1.00  0.00     0.016 A 
ATOM      2  C   UNL     1      -4.913  -3.182   3.820  1.00  0.00     0.013 A 
ATOM      3  C   UNL     1      -5.531  -5.109   2.505  1.00  0.00     0.120 A 
ATOM      4  C   UNL     1      -5.051  -3.949   4.979  1.00  0.00     0.021 A 
ATOM      5  N   UNL     1      -5.658  -5.835   3.649  1.00  0.00    -0.264 NA
ATOM      6  C   UNL     1      -5.428  -5.288   4.872  1.00  0.00     0.111 A 
ENDROOT
BRANCH   1   7
ATOM      7  C   UNL     1      -5.011  -2.953   1.329  1.00  0.00     0.073 C 
ATOM      8  O   UNL     1      -4.460  -3.441   0.305  1.00  0.00    -0.545 OA
ATOM      9  O   UNL     1      -5.484  -1.646   1.280  1.00  0.00    -0.545 OA
ENDBRANCH   1   7
TORSDOF 1
ENDMDL
MODEL 5
REMARK VINA RESULT:    -3.313      3.557      4.389
REMARK INTER + INTRA:          -3.524
REMARK INTER:                  -3.507
REMARK INTRA:                  -0.017
REMARK UNBOUND:                -0.017
REMARK SMILES O=C([O-])c1cccnc1
REMARK SMILES IDX 4 1 5 2 9 3 6 4 8 5 7 6 2 7 1 8 3 9
REMARK H PARENT
REMARK Flexibility Score: inf
ROOT
ATOM      1  C   UNL     1      -5.262  -3.989   2.710  1.00  0.00     0.016 A 
ATOM      2  C   UNL     1      -5.282  -4.452   4.035  1.00  0.00     0.013 A 
ATOM      3  C   UNL     1      -4.874  -2.660   2.472  1.00  0.00     0.120 A 
ATOM      4  C   UNL     1      -4.922  -3.599   5.081  1.00  0.00     0.021 A 
ATOM      5  N   UNL     1      -4.529  -1.849   3.509  1.00  0.00    -0.264 NA
ATOM      6  C   UNL     1      -4.544  -2.287   4.794  1.00  0.00     0.111 A 
ENDROOT
BRANCH   1   7
ATOM      7  C   UNL     1      -5.640  -4.883   1.595  1.00  0.00     0.073 C 
ATOM      8  O   UNL     1      -6.836  -5.255   1.448  1.00  0.00    -0.545 OA
ATOM      9  O   UNL     1      -4.681  -5.328   0.692  1.00  0.00    -0.545 OA
ENDBRANCH   1   7
TORSDOF 1
ENDMDL
MODEL 6
REMARK VINA RESULT:    -3.296      3.712      4.544
REMARK INTER + INTRA:          -3.506
REMARK INTER:                  -3.489
REMARK INTRA:                  -0.017
REMARK UNBOUND:                -0.017
REMARK SMILES O=C([O-])c1cccnc1
REMARK SMILES IDX 4 1 5 2 9 3 6 4 8 5 7 6 2 7 1 8 3 9
REMARK H PARENT
REMARK Flexibility Score: inf
ROOT
ATOM      1  C   UNL     1      -5.263  -4.034   3.002  1.00  0.00     0.016 A 
ATOM      2  C   UNL     1      -4.883  -2.694   2.820  1.00  0.00     0.013 A 
ATOM      3  C   UNL     1      -5.258  -4.559   4.306  1.00  0.00     0.120 A 
ATOM      4  C   UNL     1      -4.513  -1.915   3.918  1.00  0.00     0.021 A 
ATOM      5  N   UNL     1      -4.892  -3.779   5.359  1.00  0.00    -0.264 NA
ATOM      6  C   UNL     1      -4.524  -2.482   5.194  1.00  0.00     0.111 A 
ENDROOT
BRANCH   1   7
ATOM      7  C   UNL     1      -5.658  -4.867   1.846  1.00  0.00     0.073 C 
ATOM      8  O   UNL     1      -6.857  -5.228   1.697  1.00  0.00    -0.545 OA
ATOM      9  O   UNL     1      -4.713  -5.266   0.908  1.00  0.00    -0.545 OA
ENDBRANCH   1   7
TORSDOF 1
ENDMDL
MODEL 7
REMARK VINA RESULT:    -3.247      3.852      4.658
REMARK INTER + INTRA:          -3.455
REMARK INTER:                  -3.433
REMARK INTRA:                  -0.021
REMARK UNBOUND:                -0.017
REMARK SMILES O=C([O-])c1cccnc1
REMARK SMILES IDX 4 1 5 2 9 3 6 4 8 5 7 6 2 7 1 8 3 9
REMARK H PARENT
REMARK Flexibility Score: inf
ROOT
ATOM      1  C   UNL     1      -5.192  -3.469   1.648  1.00  0.00     0.016 A 
ATOM      2  C   UNL     1      -5.006  -4.807   1.266  1.00  0.00     0.013 A 
ATOM      3  C   UNL     1      -5.671  -2.560   0.689  1.00  0.00     0.120 A 
ATOM      4  C   UNL     1      -5.294  -5.210  -0.040  1.00  0.00     0.021 A 
ATOM      5  N   UNL     1      -5.943  -2.978  -0.578  1.00  0.00    -0.264 NA
ATOM      6  C   UNL     1      -5.767  -4.270  -0.957  1.00  0.00     0.111 A 
ENDROOT
BRANCH   1   7
ATOM      7  C   UNL     1      -4.892  -3.032   3.028  1.00  0.00     0.073 C 
ATOM      8  O   UNL     1      -4.507  -1.853   3.257  1.00  0.00    -0.545 OA
ATOM      9  O   UNL     1      -5.029  -3.915   4.093  1.00  0.00    -0.545 OA
ENDBRANCH   1   7
TORSDOF 1
ENDMDL
MODEL 8
REMARK VINA RESULT:    -3.219      4.489      5.332
REMARK INTER + INTRA:          -3.425
REMARK INTER:                  -3.409
REMARK INTRA:                  -0.016
REMARK UNBOUND:                -0.017
REMARK SMILES O=C([O-])c1cccnc1
REMARK SMILES IDX 4 1 5 2 9 3 6 4 8 5 7 6 2 7 1 8 3 9
REMARK H PARENT
REMARK Flexibility Score: inf
ROOT
ATOM      1  C   UNL     1      -5.100  -3.008   2.935  1.00  0.00     0.016 A 
ATOM      2  C   UNL     1      -4.802  -2.665   1.607  1.00  0.00     0.013 A 
ATOM      3  C   UNL     1      -5.376  -4.354   3.232  1.00  0.00     0.120 A 
ATOM      4  C   UNL     1      -4.786  -3.649   0.615  1.00  0.00     0.021 A 
ATOM      5  N   UNL     1      -5.355  -5.293   2.248  1.00  0.00    -0.264 NA
ATOM      6  C   UNL     1      -5.068  -4.972   0.960  1.00  0.00     0.111 A 
ENDROOT
BRANCH   1   7
ATOM      7  C   UNL     1      -5.119  -1.975   3.993  1.00  0.00     0.073 C 
ATOM      8  O   UNL     1      -4.101  -1.774   4.710  1.00  0.00    -0.545 OA
ATOM      9  O   UNL     1      -6.259  -1.212   4.213  1.00  0.00    -0.545 OA
ENDBRANCH   1   7
TORSDOF 1
ENDMDL
MODEL 9
REMARK VINA RESULT:    -3.199      3.464      4.075
REMARK INTER + INTRA:          -3.403
REMARK INTER:                  -3.379
REMARK INTRA:                  -0.024
REMARK UNBOUND:                -0.017
REMARK SMILES O=C([O-])c1cccnc1
REMARK SMILES IDX 4 1 5 2 9 3 6 4 8 5 7 6 2 7 1 8 3 9
REMARK H PARENT
REMARK Flexibility Score: inf
ROOT
ATOM      1  C   UNL     1      -5.548  -2.973   0.609  1.00  0.00     0.016 A 
ATOM      2  C   UNL     1      -4.814  -4.118   0.955  1.00  0.00     0.013 A 
ATOM      3  C   UNL     1      -6.314  -3.000  -0.570  1.00  0.00     0.120 A 
ATOM      4  C   UNL     1      -4.854  -5.250   0.138  1.00  0.00     0.021 A 
ATOM      5  N   UNL     1      -6.335  -4.115  -1.349  1.00  0.00    -0.264 NA
ATOM      6  C   UNL     1      -5.629  -5.229  -1.023  1.00  0.00     0.111 A 
ENDROOT
BRANCH   1   7
ATOM      7  C   UNL     1      -5.515  -1.769   1.467  1.00  0.00     0.073 C 
ATOM      8  O   UNL     1      -4.695  -1.686   2.422  1.00  0.00    -0.545 OA
ATOM      9  O   UNL     1      -6.386  -0.712   1.234  1.00  0.00    -0.545 OA
ENDBRANCH   1   7
TORSDOF 1
ENDMDL
