MODEL 1
REMARK VINA RESULT:    -4.303      0.000      0.000
REMARK INTER + INTRA:          -6.296
REMARK INTER:                  -5.812
REMARK INTRA:                  -0.484
REMARK UNBOUND:                -0.484
REMARK SMILES C[C@@H](O)[C@H](O)[C@@H](O)[C@@H](O)C=O
REMARK SMILES IDX 4 1 2 2 1 3 3 4 6 6 8 7 10 8 11 9 9 10 7 12 5 14
REMARK H PARENT 3 5 9 11 7 13 5 15
REMARK Flexibility Score: inf
ROOT
ATOM      1  C   UNL     1     -10.931  22.775  -3.077  1.00  0.00     0.174 C 
ENDROOT
BRANCH   1   2
ATOM      2  C   UNL     1     -11.578  23.672  -1.989  1.00  0.00     0.142 C 
ATOM      3  C   UNL     1     -13.001  24.124  -2.347  1.00  0.00     0.041 C 
BRANCH   2   4
ATOM      4  O   UNL     1     -11.592  23.006  -0.750  1.00  0.00    -0.391 OA
ATOM      5  H   UNL     1     -10.796  23.309  -0.239  1.00  0.00     0.211 HD
ENDBRANCH   2   4
ENDBRANCH   1   2
BRANCH   1   6
ATOM      6  C   UNL     1      -9.390  22.599  -2.876  1.00  0.00     0.181 C 
BRANCH   6   7
ATOM      7  C   UNL     1      -8.795  21.514  -3.815  1.00  0.00     0.209 C 
BRANCH   7   8
ATOM      8  C   UNL     1      -9.244  21.691  -5.241  1.00  0.00     0.258 C 
ATOM      9  O   UNL     1     -10.040  20.917  -5.747  1.00  0.00    -0.300 OA
ENDBRANCH   7   8
BRANCH   7  10
ATOM     10  O   UNL     1      -9.170  20.234  -3.376  1.00  0.00    -0.383 OA
ATOM     11  H   UNL     1      -9.911  19.934  -3.965  1.00  0.00     0.211 HD
ENDBRANCH   7  10
ENDBRANCH   6   7
BRANCH   6  12
ATOM     12  O   UNL     1      -9.104  22.277  -1.534  1.00  0.00    -0.387 OA
ATOM     13  H   UNL     1      -8.133  22.078  -1.480  1.00  0.00     0.211 HD
ENDBRANCH   6  12
ENDBRANCH   1   6
BRANCH   1  14
ATOM     14  O   UNL     1     -11.571  21.523  -3.038  1.00  0.00    -0.388 OA
ATOM     15  H   UNL     1     -10.903  20.864  -2.711  1.00  0.00     0.211 HD
ENDBRANCH   1  14
TORSDOF 8
ENDMDL
MODEL 2
REMARK VINA RESULT:    -4.219      1.910      4.475
REMARK INTER + INTRA:          -6.183
REMARK INTER:                  -5.661
REMARK INTRA:                  -0.523
REMARK UNBOUND:                -0.484
REMARK SMILES C[C@@H](O)[C@H](O)[C@@H](O)[C@@H](O)C=O
REMARK SMILES IDX 4 1 2 2 1 3 3 4 6 6 8 7 10 8 11 9 9 10 7 12 5 14
REMARK H PARENT 3 5 9 11 7 13 5 15
REMARK Flexibility Score: inf
ROOT
ATOM      1  C   UNL     1     -11.101  23.469  -1.723  1.00  0.00     0.174 C 
ENDROOT
BRANCH   1   2
ATOM      2  C   UNL     1      -9.866  22.937  -2.496  1.00  0.00     0.142 C 
ATOM      3  C   UNL     1      -9.095  24.039  -3.235  1.00  0.00     0.041 C 
BRANCH   2   4
ATOM      4  O   UNL     1      -8.998  22.258  -1.622  1.00  0.00    -0.391 OA
ATOM      5  H   UNL     1      -8.977  22.764  -0.767  1.00  0.00     0.211 HD
ENDBRANCH   2   4
ENDBRANCH   1   2
BRANCH   1   6
ATOM      6  C   UNL     1     -12.455  23.027  -2.370  1.00  0.00     0.181 C 
BRANCH   6   7
ATOM      7  C   UNL     1     -13.618  23.001  -1.340  1.00  0.00     0.209 C 
BRANCH   7   8
ATOM      8  C   UNL     1     -14.967  22.976  -2.008  1.00  0.00     0.258 C 
ATOM      9  O   UNL     1     -15.347  21.986  -2.613  1.00  0.00    -0.300 OA
ENDBRANCH   7   8
BRANCH   7  10
ATOM     10  O   UNL     1     -13.548  24.125  -0.501  1.00  0.00    -0.383 OA
ATOM     11  H   UNL     1     -14.013  23.884   0.343  1.00  0.00     0.211 HD
ENDBRANCH   7  10
ENDBRANCH   6   7
BRANCH   6  12
ATOM     12  O   UNL     1     -12.322  21.760  -2.969  1.00  0.00    -0.387 OA
ATOM     13  H   UNL     1     -13.238  21.417  -3.142  1.00  0.00     0.211 HD
ENDBRANCH   6  12
ENDBRANCH   1   6
BRANCH   1  14
ATOM     14  O   UNL     1     -11.019  22.994  -0.401  1.00  0.00    -0.388 OA
ATOM     15  H   UNL     1     -11.636  22.219  -0.330  1.00  0.00     0.211 HD
ENDBRANCH   1  14
TORSDOF 8
ENDMDL
MODEL 3
REMARK VINA RESULT:    -4.024      1.314      4.070
REMARK INTER + INTRA:          -5.920
REMARK INTER:                  -5.423
REMARK INTRA:                  -0.497
REMARK UNBOUND:                -0.484
REMARK SMILES C[C@@H](O)[C@H](O)[C@@H](O)[C@@H](O)C=O
REMARK SMILES IDX 4 1 2 2 1 3 3 4 6 6 8 7 10 8 11 9 9 10 7 12 5 14
REMARK H PARENT 3 5 9 11 7 13 5 15
REMARK Flexibility Score: inf
ROOT
ATOM      1  C   UNL     1      -9.356  22.799  -2.831  1.00  0.00     0.174 C 
ENDROOT
BRANCH   1   2
ATOM      2  C   UNL     1      -9.555  21.605  -3.802  1.00  0.00     0.142 C 
ATOM      3  C   UNL     1      -8.843  21.795  -5.148  1.00  0.00     0.041 C 
BRANCH   2   4
ATOM      4  O   UNL     1      -9.119  20.409  -3.202  1.00  0.00    -0.391 OA
ATOM      5  H   UNL     1      -8.339  20.630  -2.627  1.00  0.00     0.211 HD
ENDBRANCH   2   4
ENDBRANCH   1   2
BRANCH   1   6
ATOM      6  C   UNL     1     -10.632  23.696  -2.707  1.00  0.00     0.181 C 
BRANCH   6   7
ATOM      7  C   UNL     1     -11.749  23.016  -1.868  1.00  0.00     0.209 C 
BRANCH   7   8
ATOM      8  C   UNL     1     -13.072  23.720  -2.010  1.00  0.00     0.258 C 
ATOM      9  O   UNL     1     -13.821  23.463  -2.939  1.00  0.00    -0.300 OA
ENDBRANCH   7   8
BRANCH   7  10
ATOM     10  O   UNL     1     -11.390  22.994  -0.511  1.00  0.00    -0.383 OA
ATOM     11  H   UNL     1     -11.877  23.740  -0.072  1.00  0.00     0.211 HD
ENDBRANCH   7  10
ENDBRANCH   6   7
BRANCH   6  12
ATOM     12  O   UNL     1     -11.127  24.022  -3.985  1.00  0.00    -0.387 OA
ATOM     13  H   UNL     1     -10.361  24.352  -4.523  1.00  0.00     0.211 HD
ENDBRANCH   6  12
ENDBRANCH   1   6
BRANCH   1  14
ATOM     14  O   UNL     1      -9.008  22.276  -1.572  1.00  0.00    -0.388 OA
ATOM     15  H   UNL     1      -9.517  21.431  -1.456  1.00  0.00     0.211 HD
ENDBRANCH   1  14
TORSDOF 8
ENDMDL
MODEL 4
REMARK VINA RESULT:    -3.956      1.739      2.123
REMARK INTER + INTRA:          -5.828
REMARK INTER:                  -5.279
REMARK INTRA:                  -0.549
REMARK UNBOUND:                -0.484
REMARK SMILES C[C@@H](O)[C@H](O)[C@@H](O)[C@@H](O)C=O
REMARK SMILES IDX 4 1 2 2 1 3 3 4 6 6 8 7 10 8 11 9 9 10 7 12 5 14
REMARK H PARENT 3 5 9 11 7 13 5 15
REMARK Flexibility Score: inf
ROOT
ATOM      1  C   UNL     1     -11.922  23.236  -2.351  1.00  0.00     0.174 C 
ENDROOT
BRANCH   1   2
ATOM      2  C   UNL     1     -13.302  23.528  -1.706  1.00  0.00     0.142 C 
ATOM      3  C   UNL     1     -14.412  23.771  -2.739  1.00  0.00     0.041 C 
BRANCH   2   4
ATOM      4  O   UNL     1     -13.675  22.475  -0.852  1.00  0.00    -0.391 OA
ATOM      5  H   UNL     1     -14.542  22.116  -1.180  1.00  0.00     0.211 HD
ENDBRANCH   2   4
ENDBRANCH   1   2
BRANCH   1   6
ATOM      6  C   UNL     1     -10.729  23.529  -1.382  1.00  0.00     0.181 C 
BRANCH   6   7
ATOM      7  C   UNL     1      -9.352  23.226  -2.037  1.00  0.00     0.209 C 
BRANCH   7   8
ATOM      8  C   UNL     1      -9.190  23.922  -3.362  1.00  0.00     0.258 C 
ATOM      9  O   UNL     1      -8.952  23.287  -4.377  1.00  0.00    -0.300 OA
ENDBRANCH   7   8
BRANCH   7  10
ATOM     10  O   UNL     1      -9.199  21.844  -2.227  1.00  0.00    -0.383 OA
ATOM     11  H   UNL     1      -8.249  21.691  -2.470  1.00  0.00     0.211 HD
ENDBRANCH   7  10
ENDBRANCH   6   7
BRANCH   6  12
ATOM     12  O   UNL     1     -10.866  22.783  -0.195  1.00  0.00    -0.387 OA
ATOM     13  H   UNL     1      -9.984  22.788   0.260  1.00  0.00     0.211 HD
ENDBRANCH   6  12
ENDBRANCH   1   6
BRANCH   1  14
ATOM     14  O   UNL     1     -11.906  21.884  -2.742  1.00  0.00    -0.388 OA
ATOM     15  H   UNL     1     -11.446  21.377  -2.022  1.00  0.00     0.211 HD
ENDBRANCH   1  14
TORSDOF 8
ENDMDL
MODEL 5
REMARK VINA RESULT:    -3.879      1.531      4.422
REMARK INTER + INTRA:          -5.723
REMARK INTER:                  -5.011
REMARK INTRA:                  -0.713
REMARK UNBOUND:                -0.484
REMARK SMILES C[C@@H](O)[C@H](O)[C@@H](O)[C@@H](O)C=O
REMARK SMILES IDX 4 1 2 2 1 3 3 4 6 6 8 7 10 8 11 9 9 10 7 12 5 14
REMARK H PARENT 3 5 9 11 7 13 5 15
REMARK Flexibility Score: inf
ROOT
ATOM      1  C   UNL     1      -8.369  21.091  -4.200  1.00  0.00     0.174 C 
ENDROOT
BRANCH   1   2
ATOM      2  C   UNL     1      -8.389  20.726  -5.707  1.00  0.00     0.142 C 
ATOM      3  C   UNL     1      -7.474  19.544  -6.056  1.00  0.00     0.041 C 
BRANCH   2   4
ATOM      4  O   UNL     1      -9.703  20.446  -6.125  1.00  0.00    -0.391 OA
ATOM      5  H   UNL     1     -10.048  21.253  -6.590  1.00  0.00     0.211 HD
ENDBRANCH   2   4
ENDBRANCH   1   2
BRANCH   1   6
ATOM      6  C   UNL     1      -8.959  22.511  -3.913  1.00  0.00     0.181 C 
BRANCH   6   7
ATOM      7  C   UNL     1      -9.816  22.541  -2.618  1.00  0.00     0.209 C 
BRANCH   7   8
ATOM      8  C   UNL     1     -10.528  23.855  -2.441  1.00  0.00     0.258 C 
ATOM      9  O   UNL     1     -11.518  24.125  -3.102  1.00  0.00    -0.300 OA
ENDBRANCH   7   8
BRANCH   7  10
ATOM     10  O   UNL     1      -9.006  22.308  -1.495  1.00  0.00    -0.383 OA
ATOM     11  H   UNL     1      -8.722  21.358  -1.538  1.00  0.00     0.211 HD
ENDBRANCH   7  10
ENDBRANCH   6   7
BRANCH   6  12
ATOM     12  O   UNL     1      -9.732  22.950  -5.006  1.00  0.00    -0.387 OA
ATOM     13  H   UNL     1      -9.352  22.531  -5.823  1.00  0.00     0.211 HD
ENDBRANCH   6  12
ENDBRANCH   1   6
BRANCH   1  14
ATOM     14  O   UNL     1      -9.108  20.112  -3.510  1.00  0.00    -0.388 OA
ATOM     15  H   UNL     1      -8.454  19.474  -3.120  1.00  0.00     0.211 HD
ENDBRANCH   1  14
TORSDOF 8
ENDMDL
MODEL 6
REMARK VINA RESULT:    -3.780     23.080     24.220
REMARK INTER + INTRA:          -5.590
REMARK INTER:                  -5.411
REMARK INTRA:                  -0.179
REMARK UNBOUND:                -0.484
REMARK SMILES C[C@@H](O)[C@H](O)[C@@H](O)[C@@H](O)C=O
REMARK SMILES IDX 4 1 2 2 1 3 3 4 6 6 8 7 10 8 11 9 9 10 7 12 5 14
REMARK H PARENT 3 5 9 11 7 13 5 15
REMARK Flexibility Score: inf
ROOT
ATOM      1  C   UNL     1       0.541   7.606  12.899  1.00  0.00     0.174 C 
ENDROOT
BRANCH   1   2
ATOM      2  C   UNL     1       1.864   7.517  13.706  1.00  0.00     0.142 C 
ATOM      3  C   UNL     1       2.606   6.189  13.504  1.00  0.00     0.041 C 
BRANCH   2   4
ATOM      4  O   UNL     1       2.713   8.588  13.373  1.00  0.00    -0.391 OA
ATOM      5  H   UNL     1       3.132   8.910  14.214  1.00  0.00     0.211 HD
ENDBRANCH   2   4
ENDBRANCH   1   2
BRANCH   1   6
ATOM      6  C   UNL     1       0.093   6.225  12.319  1.00  0.00     0.181 C 
BRANCH   6   7
ATOM      7  C   UNL     1       0.087   6.214  10.765  1.00  0.00     0.209 C 
BRANCH   7   8
ATOM      8  C   UNL     1      -0.310   7.548  10.191  1.00  0.00     0.258 C 
ATOM      9  O   UNL     1      -0.638   7.652   9.020  1.00  0.00    -0.300 OA
ENDBRANCH   7   8
BRANCH   7  10
ATOM     10  O   UNL     1      -0.797   5.233  10.290  1.00  0.00    -0.383 OA
ATOM     11  H   UNL     1      -1.169   5.571   9.434  1.00  0.00     0.211 HD
ENDBRANCH   7  10
ENDBRANCH   6   7
BRANCH   6  12
ATOM     12  O   UNL     1      -1.184   5.880  12.802  1.00  0.00    -0.387 OA
ATOM     13  H   UNL     1      -1.255   4.890  12.768  1.00  0.00     0.211 HD
ENDBRANCH   6  12
ENDBRANCH   1   6
BRANCH   1  14
ATOM     14  O   UNL     1      -0.452   8.116  13.756  1.00  0.00    -0.388 OA
ATOM     15  H   UNL     1      -1.173   7.435  13.804  1.00  0.00     0.211 HD
ENDBRANCH   1  14
TORSDOF 8
ENDMDL
MODEL 7
REMARK VINA RESULT:    -3.752      1.387      4.391
REMARK INTER + INTRA:          -5.553
REMARK INTER:                  -4.945
REMARK INTRA:                  -0.607
REMARK UNBOUND:                -0.484
REMARK SMILES C[C@@H](O)[C@H](O)[C@@H](O)[C@@H](O)C=O
REMARK SMILES IDX 4 1 2 2 1 3 3 4 6 6 8 7 10 8 11 9 9 10 7 12 5 14
REMARK H PARENT 3 5 9 11 7 13 5 15
REMARK Flexibility Score: inf
ROOT
ATOM      1  C   UNL     1      -9.839  21.844  -3.847  1.00  0.00     0.174 C 
ENDROOT
BRANCH   1   2
ATOM      2  C   UNL     1      -9.410  20.427  -4.311  1.00  0.00     0.142 C 
ATOM      3  C   UNL     1      -8.175  20.438  -5.222  1.00  0.00     0.041 C 
BRANCH   2   4
ATOM      4  O   UNL     1      -9.169  19.600  -3.198  1.00  0.00    -0.391 OA
ATOM      5  H   UNL     1     -10.029  19.166  -2.956  1.00  0.00     0.211 HD
ENDBRANCH   2   4
ENDBRANCH   1   2
BRANCH   1   6
ATOM      6  C   UNL     1     -11.384  22.068  -3.943  1.00  0.00     0.181 C 
BRANCH   6   7
ATOM      7  C   UNL     1     -11.830  23.390  -3.258  1.00  0.00     0.209 C 
BRANCH   7   8
ATOM      8  C   UNL     1     -12.562  23.139  -1.966  1.00  0.00     0.258 C 
ATOM      9  O   UNL     1     -11.950  22.940  -0.928  1.00  0.00    -0.300 OA
ENDBRANCH   7   8
BRANCH   7  10
ATOM     10  O   UNL     1     -12.662  24.125  -4.116  1.00  0.00    -0.383 OA
ATOM     11  H   UNL     1     -12.416  25.080  -4.007  1.00  0.00     0.211 HD
ENDBRANCH   7  10
ENDBRANCH   6   7
BRANCH   6  12
ATOM     12  O   UNL     1     -12.074  20.980  -3.373  1.00  0.00    -0.387 OA
ATOM     13  H   UNL     1     -11.601  20.153  -3.653  1.00  0.00     0.211 HD
ENDBRANCH   6  12
ENDBRANCH   1   6
BRANCH   1  14
ATOM     14  O   UNL     1      -9.408  22.011  -2.518  1.00  0.00    -0.388 OA
ATOM     15  H   UNL     1      -8.415  22.046  -2.536  1.00  0.00     0.211 HD
ENDBRANCH   1  14
TORSDOF 8
ENDMDL
MODEL 8
REMARK VINA RESULT:    -3.726     17.705     19.553
REMARK INTER + INTRA:          -5.517
REMARK INTER:                  -5.207
REMARK INTRA:                  -0.310
REMARK UNBOUND:                -0.484
REMARK SMILES C[C@@H](O)[C@H](O)[C@@H](O)[C@@H](O)C=O
REMARK SMILES IDX 4 1 2 2 1 3 3 4 6 6 8 7 10 8 11 9 9 10 7 12 5 14
REMARK H PARENT 3 5 9 11 7 13 5 15
REMARK Flexibility Score: inf
ROOT
ATOM      1  C   UNL     1       1.623   8.517  -0.452  1.00  0.00     0.174 C 
ENDROOT
BRANCH   1   2
ATOM      2  C   UNL     1       1.925   9.782  -1.297  1.00  0.00     0.142 C 
ATOM      3  C   UNL     1       2.849   9.505  -2.491  1.00  0.00     0.041 C 
BRANCH   2   4
ATOM      4  O   UNL     1       0.727  10.363  -1.752  1.00  0.00    -0.391 OA
ATOM      5  H   UNL     1       0.226  10.680  -0.955  1.00  0.00     0.211 HD
ENDBRANCH   2   4
ENDBRANCH   1   2
BRANCH   1   6
ATOM      6  C   UNL     1       2.869   8.012   0.347  1.00  0.00     0.181 C 
BRANCH   6   7
ATOM      7  C   UNL     1       2.481   7.016   1.474  1.00  0.00     0.209 C 
BRANCH   7   8
ATOM      8  C   UNL     1       3.649   6.172   1.911  1.00  0.00     0.258 C 
ATOM      9  O   UNL     1       3.744   5.006   1.560  1.00  0.00    -0.300 OA
ENDBRANCH   7   8
BRANCH   7  10
ATOM     10  O   UNL     1       1.447   6.172   1.041  1.00  0.00    -0.383 OA
ATOM     11  H   UNL     1       0.803   6.097   1.793  1.00  0.00     0.211 HD
ENDBRANCH   7  10
ENDBRANCH   6   7
BRANCH   6  12
ATOM     12  O   UNL     1       3.574   9.102   0.895  1.00  0.00    -0.387 OA
ATOM     13  H   UNL     1       2.990   9.512   1.586  1.00  0.00     0.211 HD
ENDBRANCH   6  12
ENDBRANCH   1   6
BRANCH   1  14
ATOM     14  O   UNL     1       0.575   8.830   0.434  1.00  0.00    -0.388 OA
ATOM     15  H   UNL     1       0.922   9.514   1.066  1.00  0.00     0.211 HD
ENDBRANCH   1  14
TORSDOF 8
ENDMDL
MODEL 9
REMARK VINA RESULT:    -3.689      2.076      3.522
REMARK INTER + INTRA:          -5.467
REMARK INTER:                  -4.920
REMARK INTRA:                  -0.547
REMARK UNBOUND:                -0.484
REMARK SMILES C[C@@H](O)[C@H](O)[C@@H](O)[C@@H](O)C=O
REMARK SMILES IDX 4 1 2 2 1 3 3 4 6 6 8 7 10 8 11 9 9 10 7 12 5 14
REMARK H PARENT 3 5 9 11 7 13 5 15
REMARK Flexibility Score: inf
ROOT
ATOM      1  C   UNL     1     -11.136  22.895  -2.789  1.00  0.00     0.174 C 
ENDROOT
BRANCH   1   2
ATOM      2  C   UNL     1      -9.590  22.793  -2.719  1.00  0.00     0.142 C 
ATOM      3  C   UNL     1      -8.880  24.107  -3.073  1.00  0.00     0.041 C 
BRANCH   2   4
ATOM      4  O   UNL     1      -9.185  22.368  -1.440  1.00  0.00    -0.391 OA
ATOM      5  H   UNL     1      -8.747  21.482  -1.544  1.00  0.00     0.211 HD
ENDBRANCH   2   4
ENDBRANCH   1   2
BRANCH   1   6
ATOM      6  C   UNL     1     -11.760  21.910  -3.831  1.00  0.00     0.181 C 
BRANCH   6   7
ATOM      7  C   UNL     1     -13.283  21.701  -3.603  1.00  0.00     0.209 C 
BRANCH   7   8
ATOM      8  C   UNL     1     -13.962  21.117  -4.813  1.00  0.00     0.258 C 
ATOM      9  O   UNL     1     -13.431  20.229  -5.461  1.00  0.00    -0.300 OA
ENDBRANCH   7   8
BRANCH   7  10
ATOM     10  O   UNL     1     -13.898  22.921  -3.281  1.00  0.00    -0.383 OA
ATOM     11  H   UNL     1     -14.137  22.877  -2.318  1.00  0.00     0.211 HD
ENDBRANCH   7  10
ENDBRANCH   6   7
BRANCH   6  12
ATOM     12  O   UNL     1     -11.097  20.668  -3.790  1.00  0.00    -0.387 OA
ATOM     13  H   UNL     1     -10.862  20.429  -4.725  1.00  0.00     0.211 HD
ENDBRANCH   6  12
ENDBRANCH   1   6
BRANCH   1  14
ATOM     14  O   UNL     1     -11.643  22.626  -1.504  1.00  0.00    -0.388 OA
ATOM     15  H   UNL     1     -11.626  21.640  -1.384  1.00  0.00     0.211 HD
ENDBRANCH   1  14
TORSDOF 8
ENDMDL
