MODEL 1
REMARK VINA RESULT:    -5.052      0.000      0.000
REMARK INTER + INTRA:          -7.088
REMARK INTER:                  -6.824
REMARK INTRA:                  -0.264
REMARK UNBOUND:                -0.264
REMARK SMILES CCCCCCCC(=O)[O-]
REMARK SMILES IDX 5 1 6 2 7 3 8 4 9 5 10 6 4 7 3 8 2 9 1 10
REMARK H PARENT
REMARK Flexibility Score: inf
ROOT
ATOM      1  C   UNL     1     -13.073   1.073  -9.991  1.00  0.00     0.000 C 
ENDROOT
BRANCH   1   2
ATOM      2  C   UNL     1     -13.379   2.478  -9.448  1.00  0.00     0.006 C 
BRANCH   2   3
ATOM      3  C   UNL     1     -12.199   3.445  -9.614  1.00  0.00     0.053 C 
BRANCH   3   4
ATOM      4  C   UNL     1     -11.691   3.880  -8.276  1.00  0.00     0.041 C 
ATOM      5  O   UNL     1     -10.468   3.768  -7.995  1.00  0.00    -0.550 OA
ATOM      6  O   UNL     1     -12.559   4.454  -7.355  1.00  0.00    -0.550 OA
ENDBRANCH   3   4
ENDBRANCH   2   3
ENDBRANCH   1   2
BRANCH   1   7
ATOM      7  C   UNL     1     -11.568   0.770 -10.039  1.00  0.00     0.000 C 
BRANCH   7   8
ATOM      8  C   UNL     1     -11.287  -0.490 -10.871  1.00  0.00    -0.000 C 
BRANCH   8   9
ATOM      9  C   UNL     1     -12.502  -1.428 -10.952  1.00  0.00    -0.003 C 
ATOM     10  C   UNL     1     -12.234  -2.797 -10.327  1.00  0.00     0.004 C 
ENDBRANCH   8   9
ENDBRANCH   7   8
ENDBRANCH   1   7
TORSDOF 6
ENDMDL
MODEL 2
REMARK VINA RESULT:    -5.003      1.063      1.477
REMARK INTER + INTRA:          -7.021
REMARK INTER:                  -6.595
REMARK INTRA:                  -0.426
REMARK UNBOUND:                -0.264
REMARK SMILES CCCCCCCC(=O)[O-]
REMARK SMILES IDX 5 1 6 2 7 3 8 4 9 5 10 6 4 7 3 8 2 9 1 10
REMARK H PARENT
REMARK Flexibility Score: inf
ROOT
ATOM      1  C   UNL     1     -14.186   1.231  -9.442  1.00  0.00     0.000 C 
ENDROOT
BRANCH   1   2
ATOM      2  C   UNL     1     -13.650   2.663  -9.595  1.00  0.00     0.006 C 
BRANCH   2   3
ATOM      3  C   UNL     1     -12.122   2.739  -9.472  1.00  0.00     0.053 C 
BRANCH   3   4
ATOM      4  C   UNL     1     -11.734   3.679  -8.375  1.00  0.00     0.041 C 
ATOM      5  O   UNL     1     -10.543   3.719  -7.966  1.00  0.00    -0.550 OA
ATOM      6  O   UNL     1     -12.677   4.546  -7.836  1.00  0.00    -0.550 OA
ENDBRANCH   3   4
ENDBRANCH   2   3
ENDBRANCH   1   2
BRANCH   1   7
ATOM      7  C   UNL     1     -14.056   0.408 -10.733  1.00  0.00     0.000 C 
BRANCH   7   8
ATOM      8  C   UNL     1     -13.134  -0.802 -10.523  1.00  0.00    -0.000 C 
BRANCH   8   9
ATOM      9  C   UNL     1     -11.730  -0.583 -11.108  1.00  0.00    -0.003 C 
ATOM     10  C   UNL     1     -10.637  -0.586 -10.040  1.00  0.00     0.004 C 
ENDBRANCH   8   9
ENDBRANCH   7   8
ENDBRANCH   1   7
TORSDOF 6
ENDMDL
MODEL 3
REMARK VINA RESULT:    -4.973      2.979      5.265
REMARK INTER + INTRA:          -6.980
REMARK INTER:                  -6.688
REMARK INTRA:                  -0.292
REMARK UNBOUND:                -0.264
REMARK SMILES CCCCCCCC(=O)[O-]
REMARK SMILES IDX 5 1 6 2 7 3 8 4 9 5 10 6 4 7 3 8 2 9 1 10
REMARK H PARENT
REMARK Flexibility Score: inf
ROOT
ATOM      1  C   UNL     1     -13.003   0.952 -10.002  1.00  0.00     0.000 C 
ENDROOT
BRANCH   1   2
ATOM      2  C   UNL     1     -11.499   0.635 -10.008  1.00  0.00     0.006 C 
BRANCH   2   3
ATOM      3  C   UNL     1     -11.160  -0.609 -10.841  1.00  0.00     0.053 C 
BRANCH   3   4
ATOM      4  C   UNL     1     -11.015  -1.805  -9.953  1.00  0.00     0.041 C 
ATOM      5  O   UNL     1     -10.220  -1.777  -8.977  1.00  0.00    -0.550 OA
ATOM      6  O   UNL     1     -11.793  -2.935 -10.176  1.00  0.00    -0.550 OA
ENDBRANCH   3   4
ENDBRANCH   2   3
ENDBRANCH   1   2
BRANCH   1   7
ATOM      7  C   UNL     1     -13.305   2.390  -9.558  1.00  0.00     0.000 C 
BRANCH   7   8
ATOM      8  C   UNL     1     -12.051   3.272  -9.665  1.00  0.00    -0.000 C 
BRANCH   8   9
ATOM      9  C   UNL     1     -11.797   4.094  -8.391  1.00  0.00    -0.003 C 
ATOM     10  C   UNL     1     -13.087   4.489  -7.675  1.00  0.00     0.004 C 
ENDBRANCH   8   9
ENDBRANCH   7   8
ENDBRANCH   1   7
TORSDOF 6
ENDMDL
MODEL 4
REMARK VINA RESULT:    -4.890      3.195      5.496
REMARK INTER + INTRA:          -6.868
REMARK INTER:                  -6.632
REMARK INTRA:                  -0.236
REMARK UNBOUND:                -0.264
REMARK SMILES CCCCCCCC(=O)[O-]
REMARK SMILES IDX 5 1 6 2 7 3 8 4 9 5 10 6 4 7 3 8 2 9 1 10
REMARK H PARENT
REMARK Flexibility Score: inf
ROOT
ATOM      1  C   UNL     1     -11.373   0.644  -9.930  1.00  0.00     0.000 C 
ENDROOT
BRANCH   1   2
ATOM      2  C   UNL     1     -11.018  -0.588 -10.778  1.00  0.00     0.006 C 
BRANCH   2   3
ATOM      3  C   UNL     1     -11.443  -1.905 -10.113  1.00  0.00     0.053 C 
BRANCH   3   4
ATOM      4  C   UNL     1     -10.269  -2.560  -9.458  1.00  0.00     0.041 C 
ATOM      5  O   UNL     1      -9.934  -2.237  -8.287  1.00  0.00    -0.550 OA
ATOM      6  O   UNL     1      -9.571  -3.562 -10.121  1.00  0.00    -0.550 OA
ENDBRANCH   3   4
ENDBRANCH   2   3
ENDBRANCH   1   2
BRANCH   1   7
ATOM      7  C   UNL     1     -12.865   0.999  -9.997  1.00  0.00     0.000 C 
BRANCH   7   8
ATOM      8  C   UNL     1     -13.148   2.322  -9.268  1.00  0.00    -0.000 C 
BRANCH   8   9
ATOM      9  C   UNL     1     -12.062   3.380  -9.522  1.00  0.00    -0.003 C 
ATOM     10  C   UNL     1     -11.411   3.880  -8.233  1.00  0.00     0.004 C 
ENDBRANCH   8   9
ENDBRANCH   7   8
ENDBRANCH   1   7
TORSDOF 6
ENDMDL
MODEL 5
REMARK VINA RESULT:    -4.822      1.318      1.625
REMARK INTER + INTRA:          -6.777
REMARK INTER:                  -6.622
REMARK INTRA:                  -0.155
REMARK UNBOUND:                -0.264
REMARK SMILES CCCCCCCC(=O)[O-]
REMARK SMILES IDX 5 1 6 2 7 3 8 4 9 5 10 6 4 7 3 8 2 9 1 10
REMARK H PARENT
REMARK Flexibility Score: inf
ROOT
ATOM      1  C   UNL     1     -11.025   0.820  -9.500  1.00  0.00     0.000 C 
ENDROOT
BRANCH   1   2
ATOM      2  C   UNL     1     -12.300   1.678  -9.464  1.00  0.00     0.006 C 
BRANCH   2   3
ATOM      3  C   UNL     1     -12.008   3.176  -9.626  1.00  0.00     0.053 C 
BRANCH   3   4
ATOM      4  C   UNL     1     -11.624   3.776  -8.310  1.00  0.00     0.041 C 
ATOM      5  O   UNL     1     -10.426   3.744  -7.923  1.00  0.00    -0.550 OA
ATOM      6  O   UNL     1     -12.582   4.415  -7.531  1.00  0.00    -0.550 OA
ENDBRANCH   3   4
ENDBRANCH   2   3
ENDBRANCH   1   2
BRANCH   1   7
ATOM      7  C   UNL     1     -11.042  -0.220 -10.630  1.00  0.00     0.000 C 
BRANCH   7   8
ATOM      8  C   UNL     1     -11.371  -1.618 -10.085  1.00  0.00    -0.000 C 
BRANCH   8   9
ATOM      9  C   UNL     1     -10.121  -2.496  -9.918  1.00  0.00    -0.003 C 
ATOM     10  C   UNL     1      -9.965  -3.038  -8.498  1.00  0.00     0.004 C 
ENDBRANCH   8   9
ENDBRANCH   7   8
ENDBRANCH   1   7
TORSDOF 6
ENDMDL
MODEL 6
REMARK VINA RESULT:    -4.660      3.775      5.420
REMARK INTER + INTRA:          -6.558
REMARK INTER:                  -6.253
REMARK INTRA:                  -0.304
REMARK UNBOUND:                -0.264
REMARK SMILES CCCCCCCC(=O)[O-]
REMARK SMILES IDX 5 1 6 2 7 3 8 4 9 5 10 6 4 7 3 8 2 9 1 10
REMARK H PARENT
REMARK Flexibility Score: inf
ROOT
ATOM      1  C   UNL     1     -12.082  -0.696 -10.652  1.00  0.00     0.000 C 
ENDROOT
BRANCH   1   2
ATOM      2  C   UNL     1     -11.509  -2.040 -10.173  1.00  0.00     0.006 C 
BRANCH   2   3
ATOM      3  C   UNL     1     -10.291  -1.869  -9.255  1.00  0.00     0.053 C 
BRANCH   3   4
ATOM      4  C   UNL     1      -9.815  -3.201  -8.769  1.00  0.00     0.041 C 
ATOM      5  O   UNL     1      -9.085  -3.920  -9.503  1.00  0.00    -0.550 OA
ATOM      6  O   UNL     1     -10.135  -3.630  -7.487  1.00  0.00    -0.550 OA
ENDBRANCH   3   4
ENDBRANCH   2   3
ENDBRANCH   1   2
BRANCH   1   7
ATOM      7  C   UNL     1     -11.365   0.510 -10.029  1.00  0.00     0.000 C 
BRANCH   7   8
ATOM      8  C   UNL     1     -12.374   1.584  -9.595  1.00  0.00    -0.000 C 
BRANCH   8   9
ATOM      9  C   UNL     1     -13.802   1.280 -10.072  1.00  0.00    -0.003 C 
ATOM     10  C   UNL     1     -14.852   1.523  -8.989  1.00  0.00     0.004 C 
ENDBRANCH   8   9
ENDBRANCH   7   8
ENDBRANCH   1   7
TORSDOF 6
ENDMDL
MODEL 7
REMARK VINA RESULT:    -4.456      1.184      1.718
REMARK INTER + INTRA:          -6.283
REMARK INTER:                  -6.016
REMARK INTRA:                  -0.267
REMARK UNBOUND:                -0.264
REMARK SMILES CCCCCCCC(=O)[O-]
REMARK SMILES IDX 5 1 6 2 7 3 8 4 9 5 10 6 4 7 3 8 2 9 1 10
REMARK H PARENT
REMARK Flexibility Score: inf
ROOT
ATOM      1  C   UNL     1     -11.238   0.290 -10.316  1.00  0.00     0.000 C 
ENDROOT
BRANCH   1   2
ATOM      2  C   UNL     1     -11.604   1.227  -9.153  1.00  0.00     0.006 C 
BRANCH   2   3
ATOM      3  C   UNL     1     -11.897   2.660  -9.620  1.00  0.00     0.053 C 
BRANCH   3   4
ATOM      4  C   UNL     1     -11.644   3.630  -8.509  1.00  0.00     0.041 C 
ATOM      5  O   UNL     1     -10.474   3.812  -8.080  1.00  0.00    -0.550 OA
ATOM      6  O   UNL     1     -12.695   4.370  -7.979  1.00  0.00    -0.550 OA
ENDBRANCH   3   4
ENDBRANCH   2   3
ENDBRANCH   1   2
BRANCH   1   7
ATOM      7  C   UNL     1     -12.471  -0.329 -10.989  1.00  0.00     0.000 C 
BRANCH   7   8
ATOM      8  C   UNL     1     -12.540  -1.841 -10.725  1.00  0.00    -0.000 C 
BRANCH   8   9
ATOM      9  C   UNL     1     -13.973  -2.329 -10.459  1.00  0.00    -0.003 C 
ATOM     10  C   UNL     1     -14.913  -1.201 -10.037  1.00  0.00     0.004 C 
ENDBRANCH   8   9
ENDBRANCH   7   8
ENDBRANCH   1   7
TORSDOF 6
ENDMDL
MODEL 8
REMARK VINA RESULT:    -4.360      2.175      3.148
REMARK INTER + INTRA:          -6.153
REMARK INTER:                  -5.860
REMARK INTRA:                  -0.293
REMARK UNBOUND:                -0.264
REMARK SMILES CCCCCCCC(=O)[O-]
REMARK SMILES IDX 5 1 6 2 7 3 8 4 9 5 10 6 4 7 3 8 2 9 1 10
REMARK H PARENT
REMARK Flexibility Score: inf
ROOT
ATOM      1  C   UNL     1     -10.707  -0.320 -10.084  1.00  0.00     0.000 C 
ENDROOT
BRANCH   1   2
ATOM      2  C   UNL     1     -11.466   0.987  -9.803  1.00  0.00     0.006 C 
BRANCH   2   3
ATOM      3  C   UNL     1     -12.983   0.837  -9.977  1.00  0.00     0.053 C 
BRANCH   3   4
ATOM      4  C   UNL     1     -13.681   2.090  -9.551  1.00  0.00     0.041 C 
ATOM      5  O   UNL     1     -14.937   2.116  -9.458  1.00  0.00    -0.550 OA
ATOM      6  O   UNL     1     -12.942   3.217  -9.209  1.00  0.00    -0.550 OA
ENDBRANCH   3   4
ENDBRANCH   2   3
ENDBRANCH   1   2
BRANCH   1   7
ATOM      7  C   UNL     1     -11.646  -1.510 -10.331  1.00  0.00     0.000 C 
BRANCH   7   8
ATOM      8  C   UNL     1     -11.027  -2.815  -9.808  1.00  0.00    -0.000 C 
BRANCH   8   9
ATOM      9  C   UNL     1     -10.035  -2.580  -8.658  1.00  0.00    -0.003 C 
ATOM     10  C   UNL     1      -8.847  -3.541  -8.697  1.00  0.00     0.004 C 
ENDBRANCH   8   9
ENDBRANCH   7   8
ENDBRANCH   1   7
TORSDOF 6
ENDMDL
