MODEL 1
REMARK VINA RESULT:    -3.497      0.000      0.000
REMARK INTER + INTRA:          -4.643
REMARK INTER:                  -4.519
REMARK INTRA:                  -0.125
REMARK UNBOUND:                -0.125
REMARK SMILES CCCCCCC(=O)[O-]
REMARK SMILES IDX 5 1 6 2 7 3 8 4 9 5 4 6 3 7 2 8 1 9
REMARK H PARENT
REMARK Flexibility Score: inf
ROOT
ATOM      1  C   UNL     1     -31.617 -21.962 -34.401  1.00  0.00     0.006 C 
ENDROOT
BRANCH   1   2
ATOM      2  C   UNL     1     -31.599 -20.739 -33.476  1.00  0.00     0.053 C 
BRANCH   2   3
ATOM      3  C   UNL     1     -30.531 -20.847 -32.431  1.00  0.00     0.041 C 
ATOM      4  O   UNL     1     -29.333 -20.587 -32.719  1.00  0.00    -0.550 OA
ATOM      5  O   UNL     1     -30.854 -21.268 -31.147  1.00  0.00    -0.550 OA
ENDBRANCH   2   3
ENDBRANCH   1   2
BRANCH   1   6
ATOM      6  C   UNL     1     -32.801 -21.933 -35.380  1.00  0.00     0.000 C 
BRANCH   6   7
ATOM      7  C   UNL     1     -32.861 -23.222 -36.209  1.00  0.00    -0.000 C 
BRANCH   7   8
ATOM      8  C   UNL     1     -31.549 -23.449 -36.969  1.00  0.00    -0.003 C 
ATOM      9  C   UNL     1     -31.678 -24.603 -37.959  1.00  0.00     0.004 C 
ENDBRANCH   7   8
ENDBRANCH   6   7
ENDBRANCH   1   6
TORSDOF 5
ENDMDL
MODEL 2
REMARK VINA RESULT:    -3.351      2.982      5.205
REMARK INTER + INTRA:          -4.456
REMARK INTER:                  -4.314
REMARK INTRA:                  -0.142
REMARK UNBOUND:                -0.125
REMARK SMILES CCCCCCC(=O)[O-]
REMARK SMILES IDX 5 1 6 2 7 3 8 4 9 5 4 6 3 7 2 8 1 9
REMARK H PARENT
REMARK Flexibility Score: inf
ROOT
ATOM      1  C   UNL     1     -30.970 -21.318 -34.308  1.00  0.00     0.006 C 
ENDROOT
BRANCH   1   2
ATOM      2  C   UNL     1     -32.262 -21.999 -34.779  1.00  0.00     0.053 C 
BRANCH   2   3
ATOM      3  C   UNL     1     -32.102 -22.614 -36.136  1.00  0.00     0.041 C 
ATOM      4  O   UNL     1     -31.316 -22.103 -36.976  1.00  0.00    -0.550 OA
ATOM      5  O   UNL     1     -32.847 -23.734 -36.484  1.00  0.00    -0.550 OA
ENDBRANCH   2   3
ENDBRANCH   1   2
BRANCH   1   6
ATOM      6  C   UNL     1     -30.992 -21.010 -32.803  1.00  0.00     0.000 C 
BRANCH   6   7
ATOM      7  C   UNL     1     -30.454 -19.602 -32.522  1.00  0.00    -0.000 C 
BRANCH   7   8
ATOM      8  C   UNL     1     -29.147 -19.349 -33.281  1.00  0.00    -0.003 C 
ATOM      9  C   UNL     1     -28.044 -18.876 -32.339  1.00  0.00     0.004 C 
ENDBRANCH   7   8
ENDBRANCH   6   7
ENDBRANCH   1   6
TORSDOF 5
ENDMDL
MODEL 3
REMARK VINA RESULT:    -3.340      1.110      1.454
REMARK INTER + INTRA:          -4.441
REMARK INTER:                  -4.343
REMARK INTRA:                  -0.098
REMARK UNBOUND:                -0.125
REMARK SMILES CCCCCCC(=O)[O-]
REMARK SMILES IDX 5 1 6 2 7 3 8 4 9 5 4 6 3 7 2 8 1 9
REMARK H PARENT
REMARK Flexibility Score: inf
ROOT
ATOM      1  C   UNL     1     -30.760 -21.126 -33.884  1.00  0.00     0.006 C 
ENDROOT
BRANCH   1   2
ATOM      2  C   UNL     1     -31.302 -20.026 -32.962  1.00  0.00     0.053 C 
BRANCH   2   3
ATOM      3  C   UNL     1     -31.178 -20.399 -31.517  1.00  0.00     0.041 C 
ATOM      4  O   UNL     1     -30.802 -21.556 -31.191  1.00  0.00    -0.550 OA
ATOM      5  O   UNL     1     -31.509 -19.480 -30.530  1.00  0.00    -0.550 OA
ENDBRANCH   2   3
ENDBRANCH   1   2
BRANCH   1   6
ATOM      6  C   UNL     1     -31.883 -21.962 -34.515  1.00  0.00     0.000 C 
BRANCH   6   7
ATOM      7  C   UNL     1     -31.592 -22.248 -35.993  1.00  0.00    -0.000 C 
BRANCH   7   8
ATOM      8  C   UNL     1     -32.469 -23.391 -36.516  1.00  0.00    -0.003 C 
ATOM      9  C   UNL     1     -31.769 -24.154 -37.637  1.00  0.00     0.004 C 
ENDBRANCH   7   8
ENDBRANCH   6   7
ENDBRANCH   1   6
TORSDOF 5
ENDMDL
MODEL 4
REMARK VINA RESULT:    -3.293      2.199      3.934
REMARK INTER + INTRA:          -4.381
REMARK INTER:                  -4.122
REMARK INTRA:                  -0.258
REMARK UNBOUND:                -0.125
REMARK SMILES CCCCCCC(=O)[O-]
REMARK SMILES IDX 5 1 6 2 7 3 8 4 9 5 4 6 3 7 2 8 1 9
REMARK H PARENT
REMARK Flexibility Score: inf
ROOT
ATOM      1  C   UNL     1     -29.275 -19.407 -31.608  1.00  0.00     0.006 C 
ENDROOT
BRANCH   1   2
ATOM      2  C   UNL     1     -30.447 -18.875 -30.772  1.00  0.00     0.053 C 
BRANCH   2   3
ATOM      3  C   UNL     1     -31.126 -19.970 -30.006  1.00  0.00     0.041 C 
ATOM      4  O   UNL     1     -32.021 -19.694 -29.165  1.00  0.00    -0.550 OA
ATOM      5  O   UNL     1     -30.747 -21.292 -30.199  1.00  0.00    -0.550 OA
ENDBRANCH   2   3
ENDBRANCH   1   2
BRANCH   1   6
ATOM      6  C   UNL     1     -29.572 -19.367 -33.115  1.00  0.00     0.000 C 
BRANCH   6   7
ATOM      7  C   UNL     1     -29.953 -20.757 -33.637  1.00  0.00    -0.000 C 
BRANCH   7   8
ATOM      8  C   UNL     1     -31.470 -20.965 -33.594  1.00  0.00    -0.003 C 
ATOM      9  C   UNL     1     -31.924 -21.940 -34.677  1.00  0.00     0.004 C 
ENDBRANCH   7   8
ENDBRANCH   6   7
ENDBRANCH   1   6
TORSDOF 5
ENDMDL
MODEL 5
REMARK VINA RESULT:    -3.291      1.673      2.337
REMARK INTER + INTRA:          -4.378
REMARK INTER:                  -4.313
REMARK INTRA:                  -0.065
REMARK UNBOUND:                -0.125
REMARK SMILES CCCCCCC(=O)[O-]
REMARK SMILES IDX 5 1 6 2 7 3 8 4 9 5 4 6 3 7 2 8 1 9
REMARK H PARENT
REMARK Flexibility Score: inf
ROOT
ATOM      1  C   UNL     1     -29.956 -20.625 -33.409  1.00  0.00     0.006 C 
ENDROOT
BRANCH   1   2
ATOM      2  C   UNL     1     -30.021 -19.242 -32.748  1.00  0.00     0.053 C 
BRANCH   2   3
ATOM      3  C   UNL     1     -28.978 -19.084 -31.684  1.00  0.00     0.041 C 
ATOM      4  O   UNL     1     -27.778 -18.875 -32.000  1.00  0.00    -0.550 OA
ATOM      5  O   UNL     1     -29.328 -19.201 -30.345  1.00  0.00    -0.550 OA
ENDBRANCH   2   3
ENDBRANCH   1   2
BRANCH   1   6
ATOM      6  C   UNL     1     -31.351 -21.172 -33.750  1.00  0.00     0.000 C 
BRANCH   6   7
ATOM      7  C   UNL     1     -31.349 -21.867 -35.117  1.00  0.00    -0.000 C 
BRANCH   7   8
ATOM      8  C   UNL     1     -32.657 -22.632 -35.348  1.00  0.00    -0.003 C 
ATOM      9  C   UNL     1     -32.619 -23.406 -36.662  1.00  0.00     0.004 C 
ENDBRANCH   7   8
ENDBRANCH   6   7
ENDBRANCH   1   6
TORSDOF 5
ENDMDL
MODEL 6
REMARK VINA RESULT:    -3.290      2.747      5.322
REMARK INTER + INTRA:          -4.376
REMARK INTER:                  -4.158
REMARK INTRA:                  -0.218
REMARK UNBOUND:                -0.125
REMARK SMILES CCCCCCC(=O)[O-]
REMARK SMILES IDX 5 1 6 2 7 3 8 4 9 5 4 6 3 7 2 8 1 9
REMARK H PARENT
REMARK Flexibility Score: inf
ROOT
ATOM      1  C   UNL     1     -30.298 -20.875 -34.081  1.00  0.00     0.006 C 
ENDROOT
BRANCH   1   2
ATOM      2  C   UNL     1     -31.633 -21.631 -34.118  1.00  0.00     0.053 C 
BRANCH   2   3
ATOM      3  C   UNL     1     -31.873 -22.270 -35.452  1.00  0.00     0.041 C 
ATOM      4  O   UNL     1     -31.125 -22.001 -36.427  1.00  0.00    -0.550 OA
ATOM      5  O   UNL     1     -32.944 -23.138 -35.624  1.00  0.00    -0.550 OA
ENDBRANCH   2   3
ENDBRANCH   1   2
BRANCH   1   6
ATOM      6  C   UNL     1     -29.780 -20.681 -32.648  1.00  0.00     0.000 C 
BRANCH   6   7
ATOM      7  C   UNL     1     -30.820 -21.141 -31.620  1.00  0.00    -0.000 C 
BRANCH   7   8
ATOM      8  C   UNL     1     -30.901 -20.163 -30.443  1.00  0.00    -0.003 C 
ATOM      9  C   UNL     1     -29.738 -19.176 -30.465  1.00  0.00     0.004 C 
ENDBRANCH   7   8
ENDBRANCH   6   7
ENDBRANCH   1   6
TORSDOF 5
ENDMDL
MODEL 7
REMARK VINA RESULT:    -3.289      3.045      5.061
REMARK INTER + INTRA:          -4.375
REMARK INTER:                  -4.196
REMARK INTRA:                  -0.179
REMARK UNBOUND:                -0.125
REMARK SMILES CCCCCCC(=O)[O-]
REMARK SMILES IDX 5 1 6 2 7 3 8 4 9 5 4 6 3 7 2 8 1 9
REMARK H PARENT
REMARK Flexibility Score: inf
ROOT
ATOM      1  C   UNL     1     -32.402 -21.520 -34.926  1.00  0.00     0.006 C 
ENDROOT
BRANCH   1   2
ATOM      2  C   UNL     1     -32.340 -22.950 -35.480  1.00  0.00     0.053 C 
BRANCH   2   3
ATOM      3  C   UNL     1     -31.749 -22.988 -36.856  1.00  0.00     0.041 C 
ATOM      4  O   UNL     1     -31.479 -21.917 -37.460  1.00  0.00    -0.550 OA
ATOM      5  O   UNL     1     -31.527 -24.207 -37.484  1.00  0.00    -0.550 OA
ENDBRANCH   2   3
ENDBRANCH   1   2
BRANCH   1   6
ATOM      6  C   UNL     1     -31.510 -21.337 -33.689  1.00  0.00     0.000 C 
BRANCH   6   7
ATOM      7  C   UNL     1     -30.086 -20.936 -34.092  1.00  0.00    -0.000 C 
BRANCH   7   8
ATOM      8  C   UNL     1     -29.338 -20.303 -32.913  1.00  0.00    -0.003 C 
ATOM      9  C   UNL     1     -28.882 -18.885 -33.247  1.00  0.00     0.004 C 
ENDBRANCH   7   8
ENDBRANCH   6   7
ENDBRANCH   1   6
TORSDOF 5
ENDMDL
