MODEL 1
REMARK VINA RESULT:    -4.125      0.000      0.000
REMARK INTER + INTRA:          -9.474
REMARK INTER:                  -6.295
REMARK INTRA:                  -3.178
REMARK UNBOUND:                -3.178
REMARK SMILES CC(=O)CCC=C(C)CCC=C(C)CCC=C(C)C
REMARK SMILES IDX 10 1 11 2 12 3 13 4 14 5 15 6 16 7 18 8 17 9 19 10 9 11 7 12
REMARK SMILES IDX 6 13 8 14 5 15 4 16 2 17 3 18 1 19
REMARK H PARENT
REMARK Flexibility Score: inf
ROOT
ATOM      1  C   UNL     1      24.312 -11.638  47.387  1.00  0.00     0.032 C 
ENDROOT
BRANCH   1   2
ATOM      2  C   UNL     1      24.881 -10.531  46.535  1.00  0.00    -0.028 C 
ATOM      3  C   UNL     1      24.256  -9.931  45.494  1.00  0.00    -0.077 C 
ATOM      4  C   UNL     1      24.931  -8.734  44.870  1.00  0.00     0.039 C 
BRANCH   3   5
ATOM      5  C   UNL     1      22.864 -10.313  45.007  1.00  0.00     0.034 C 
BRANCH   5   6
ATOM      6  C   UNL     1      22.824 -10.649  43.504  1.00  0.00     0.032 C 
BRANCH   6   7
ATOM      7  C   UNL     1      22.664 -12.129  43.256  1.00  0.00    -0.028 C 
ATOM      8  C   UNL     1      25.125 -12.588  43.218  1.00  0.00     0.039 C 
ATOM      9  C   UNL     1      23.680 -13.011  43.134  1.00  0.00    -0.080 C 
ATOM     10  C   UNL     1      23.344 -14.465  42.917  1.00  0.00     0.039 C 
ENDBRANCH   6   7
ENDBRANCH   5   6
ENDBRANCH   3   5
ENDBRANCH   1   2
BRANCH   1  11
ATOM     11  C   UNL     1      24.791 -13.013  46.911  1.00  0.00     0.034 C 
BRANCH  11  12
ATOM     12  C   UNL     1      23.624 -13.950  46.704  1.00  0.00    -0.077 C 
ATOM     13  C   UNL     1      22.367 -13.458  46.786  1.00  0.00    -0.028 C 
ATOM     14  C   UNL     1      23.892 -15.414  46.440  1.00  0.00     0.039 C 
BRANCH  13  15
ATOM     15  C   UNL     1      21.114 -14.258  46.519  1.00  0.00     0.035 C 
BRANCH  15  16
ATOM     16  C   UNL     1      20.203 -13.556  45.504  1.00  0.00     0.079 C 
BRANCH  16  17
ATOM     17  C   UNL     1      19.903 -14.443  44.322  1.00  0.00     0.130 C 
ATOM     18  O   UNL     1      19.453 -13.951  43.298  1.00  0.00    -0.300 OA
ATOM     19  C   UNL     1      20.151 -15.922  44.375  1.00  0.00     0.087 C 
ENDBRANCH  16  17
ENDBRANCH  15  16
ENDBRANCH  13  15
ENDBRANCH  11  12
ENDBRANCH   1  11
TORSDOF 9
ENDMDL
MODEL 2
REMARK VINA RESULT:    -4.071     15.936     17.792
REMARK INTER + INTRA:          -9.391
REMARK INTER:                  -7.918
REMARK INTRA:                  -1.473
REMARK UNBOUND:                -3.178
REMARK SMILES CC(=O)CCC=C(C)CCC=C(C)CCC=C(C)C
REMARK SMILES IDX 10 1 11 2 12 3 13 4 14 5 15 6 16 7 18 8 17 9 19 10 9 11 7 12
REMARK SMILES IDX 6 13 8 14 5 15 4 16 2 17 3 18 1 19
REMARK H PARENT
REMARK Flexibility Score: inf
ROOT
ATOM      1  C   UNL     1       8.244  -0.844  40.831  1.00  0.00     0.032 C 
ENDROOT
BRANCH   1   2
ATOM      2  C   UNL     1       9.694  -0.907  41.240  1.00  0.00    -0.028 C 
ATOM      3  C   UNL     1      10.156  -1.208  42.478  1.00  0.00    -0.077 C 
ATOM      4  C   UNL     1      11.647  -1.376  42.645  1.00  0.00     0.039 C 
BRANCH   3   5
ATOM      5  C   UNL     1       9.255  -1.510  43.668  1.00  0.00     0.034 C 
BRANCH   5   6
ATOM      6  C   UNL     1       8.904  -0.256  44.491  1.00  0.00     0.032 C 
BRANCH   6   7
ATOM      7  C   UNL     1       9.184  -0.445  45.962  1.00  0.00    -0.028 C 
ATOM      8  C   UNL     1      11.477   0.555  45.856  1.00  0.00     0.039 C 
ATOM      9  C   UNL     1      10.323  -0.081  46.590  1.00  0.00    -0.080 C 
ATOM     10  C   UNL     1      10.428  -0.315  48.076  1.00  0.00     0.039 C 
ENDBRANCH   6   7
ENDBRANCH   5   6
ENDBRANCH   3   5
ENDBRANCH   1   2
BRANCH   1  11
ATOM     11  C   UNL     1       7.974  -1.703  39.592  1.00  0.00     0.034 C 
BRANCH  11  12
ATOM     12  C   UNL     1       8.157  -3.171  39.902  1.00  0.00    -0.077 C 
ATOM     13  C   UNL     1       7.734  -3.645  41.096  1.00  0.00    -0.028 C 
ATOM     14  C   UNL     1       8.832  -4.060  38.884  1.00  0.00     0.039 C 
BRANCH  13  15
ATOM     15  C   UNL     1       7.777  -5.098  41.505  1.00  0.00     0.035 C 
BRANCH  15  16
ATOM     16  C   UNL     1       7.782  -5.256  43.031  1.00  0.00     0.079 C 
BRANCH  16  17
ATOM     17  C   UNL     1       8.212  -6.640  43.445  1.00  0.00     0.130 C 
ATOM     18  O   UNL     1       7.829  -7.097  44.511  1.00  0.00    -0.300 OA
ATOM     19  C   UNL     1       9.100  -7.474  42.569  1.00  0.00     0.087 C 
ENDBRANCH  16  17
ENDBRANCH  15  16
ENDBRANCH  13  15
ENDBRANCH  11  12
ENDBRANCH   1  11
TORSDOF 9
ENDMDL
MODEL 3
REMARK VINA RESULT:    -4.065     15.582     17.827
REMARK INTER + INTRA:          -9.381
REMARK INTER:                  -8.483
REMARK INTRA:                  -0.899
REMARK UNBOUND:                -3.178
REMARK SMILES CC(=O)CCC=C(C)CCC=C(C)CCC=C(C)C
REMARK SMILES IDX 10 1 11 2 12 3 13 4 14 5 15 6 16 7 18 8 17 9 19 10 9 11 7 12
REMARK SMILES IDX 6 13 8 14 5 15 4 16 2 17 3 18 1 19
REMARK H PARENT
REMARK Flexibility Score: inf
ROOT
ATOM      1  C   UNL     1       8.855  -7.153  43.129  1.00  0.00     0.032 C 
ENDROOT
BRANCH   1   2
ATOM      2  C   UNL     1       8.089  -8.239  43.841  1.00  0.00    -0.028 C 
ATOM      3  C   UNL     1       7.692  -9.416  43.299  1.00  0.00    -0.077 C 
ATOM      4  C   UNL     1       7.075 -10.437  44.223  1.00  0.00     0.039 C 
BRANCH   3   5
ATOM      5  C   UNL     1       7.950  -9.810  41.851  1.00  0.00     0.034 C 
BRANCH   5   6
ATOM      6  C   UNL     1       6.729  -9.583  40.939  1.00  0.00     0.032 C 
BRANCH   6   7
ATOM      7  C   UNL     1       5.824 -10.790  40.889  1.00  0.00    -0.028 C 
ATOM      8  C   UNL     1       7.021 -11.854  38.965  1.00  0.00     0.039 C 
ATOM      9  C   UNL     1       5.945 -11.817  40.021  1.00  0.00    -0.080 C 
ATOM     10  C   UNL     1       4.971 -12.964  40.127  1.00  0.00     0.039 C 
ENDBRANCH   6   7
ENDBRANCH   5   6
ENDBRANCH   3   5
ENDBRANCH   1   2
BRANCH   1  11
ATOM     11  C   UNL     1       7.946  -5.978  42.756  1.00  0.00     0.034 C 
BRANCH  11  12
ATOM     12  C   UNL     1       8.653  -5.024  41.821  1.00  0.00    -0.077 C 
ATOM     13  C   UNL     1       7.972  -4.511  40.771  1.00  0.00    -0.028 C 
ATOM     14  C   UNL     1      10.106  -4.692  42.068  1.00  0.00     0.039 C 
BRANCH  13  15
ATOM     15  C   UNL     1       8.524  -3.486  39.809  1.00  0.00     0.035 C 
BRANCH  15  16
ATOM     16  C   UNL     1       7.468  -2.440  39.432  1.00  0.00     0.079 C 
BRANCH  16  17
ATOM     17  C   UNL     1       6.906  -2.690  38.055  1.00  0.00     0.130 C 
ATOM     18  O   UNL     1       7.200  -3.716  37.462  1.00  0.00    -0.300 OA
ATOM     19  C   UNL     1       5.986  -1.703  37.399  1.00  0.00     0.087 C 
ENDBRANCH  16  17
ENDBRANCH  15  16
ENDBRANCH  13  15
ENDBRANCH  11  12
ENDBRANCH   1  11
TORSDOF 9
ENDMDL
MODEL 4
REMARK VINA RESULT:    -4.063     15.919     17.903
REMARK INTER + INTRA:          -9.379
REMARK INTER:                  -7.061
REMARK INTRA:                  -2.317
REMARK UNBOUND:                -3.178
REMARK SMILES CC(=O)CCC=C(C)CCC=C(C)CCC=C(C)C
REMARK SMILES IDX 10 1 11 2 12 3 13 4 14 5 15 6 16 7 18 8 17 9 19 10 9 11 7 12
REMARK SMILES IDX 6 13 8 14 5 15 4 16 2 17 3 18 1 19
REMARK H PARENT
REMARK Flexibility Score: inf
ROOT
ATOM      1  C   UNL     1       7.505  -4.704  42.115  1.00  0.00     0.032 C 
ENDROOT
BRANCH   1   2
ATOM      2  C   UNL     1       7.925  -5.821  43.037  1.00  0.00    -0.028 C 
ATOM      3  C   UNL     1       8.631  -6.921  42.679  1.00  0.00    -0.077 C 
ATOM      4  C   UNL     1       9.089  -7.845  43.781  1.00  0.00     0.039 C 
BRANCH   3   5
ATOM      5  C   UNL     1       9.092  -7.205  41.256  1.00  0.00     0.034 C 
BRANCH   5   6
ATOM      6  C   UNL     1      10.528  -6.719  40.981  1.00  0.00     0.032 C 
BRANCH   6   7
ATOM      7  C   UNL     1      10.562  -5.573  39.999  1.00  0.00    -0.028 C 
ATOM      8  C   UNL     1      11.769  -4.022  41.549  1.00  0.00     0.039 C 
ATOM      9  C   UNL     1      11.119  -4.365  40.232  1.00  0.00    -0.080 C 
ATOM     10  C   UNL     1      11.093  -3.339  39.128  1.00  0.00     0.039 C 
ENDBRANCH   6   7
ENDBRANCH   5   6
ENDBRANCH   3   5
ENDBRANCH   1   2
BRANCH   1  11
ATOM     11  C   UNL     1       8.206  -3.389  42.473  1.00  0.00     0.034 C 
BRANCH  11  12
ATOM     12  C   UNL     1       8.226  -2.449  41.290  1.00  0.00    -0.077 C 
ATOM     13  C   UNL     1       7.697  -2.862  40.116  1.00  0.00    -0.028 C 
ATOM     14  C   UNL     1       8.863  -1.087  41.444  1.00  0.00     0.039 C 
BRANCH  13  15
ATOM     15  C   UNL     1       7.574  -2.001  38.882  1.00  0.00     0.035 C 
BRANCH  15  16
ATOM     16  C   UNL     1       6.373  -2.416  38.022  1.00  0.00     0.079 C 
BRANCH  16  17
ATOM     17  C   UNL     1       6.760  -2.593  36.576  1.00  0.00     0.130 C 
ATOM     18  O   UNL     1       7.118  -3.692  36.179  1.00  0.00    -0.300 OA
ATOM     19  C   UNL     1       6.712  -1.446  35.611  1.00  0.00     0.087 C 
ENDBRANCH  16  17
ENDBRANCH  15  16
ENDBRANCH  13  15
ENDBRANCH  11  12
ENDBRANCH   1  11
TORSDOF 9
ENDMDL
MODEL 5
REMARK VINA RESULT:    -4.038     17.615     19.345
REMARK INTER + INTRA:          -9.340
REMARK INTER:                  -8.046
REMARK INTRA:                  -1.294
REMARK UNBOUND:                -3.178
REMARK SMILES CC(=O)CCC=C(C)CCC=C(C)CCC=C(C)C
REMARK SMILES IDX 10 1 11 2 12 3 13 4 14 5 15 6 16 7 18 8 17 9 19 10 9 11 7 12
REMARK SMILES IDX 6 13 8 14 5 15 4 16 2 17 3 18 1 19
REMARK H PARENT
REMARK Flexibility Score: inf
ROOT
ATOM      1  C   UNL     1       8.785  -2.201  39.389  1.00  0.00     0.032 C 
ENDROOT
BRANCH   1   2
ATOM      2  C   UNL     1       7.368  -1.811  39.049  1.00  0.00    -0.028 C 
ATOM      3  C   UNL     1       6.630  -2.315  38.030  1.00  0.00    -0.077 C 
ATOM      4  C   UNL     1       5.178  -1.911  37.954  1.00  0.00     0.039 C 
BRANCH   3   5
ATOM      5  C   UNL     1       7.147  -3.354  37.043  1.00  0.00     0.034 C 
BRANCH   5   6
ATOM      6  C   UNL     1       6.821  -3.007  35.578  1.00  0.00     0.032 C 
BRANCH   6   7
ATOM      7  C   UNL     1       7.044  -1.545  35.277  1.00  0.00    -0.028 C 
ATOM      8  C   UNL     1       4.951  -1.302  33.924  1.00  0.00     0.039 C 
ATOM      9  C   UNL     1       6.216  -0.766  34.548  1.00  0.00    -0.080 C 
ATOM     10  C   UNL     1       6.574   0.687  34.367  1.00  0.00     0.039 C 
ENDBRANCH   6   7
ENDBRANCH   5   6
ENDBRANCH   3   5
ENDBRANCH   1   2
BRANCH   1  11
ATOM     11  C   UNL     1       8.929  -2.543  40.876  1.00  0.00     0.034 C 
BRANCH  11  12
ATOM     12  C   UNL     1       8.479  -3.960  41.150  1.00  0.00    -0.077 C 
ATOM     13  C   UNL     1       7.819  -4.225  42.301  1.00  0.00    -0.028 C 
ATOM     14  C   UNL     1       8.802  -5.042  40.147  1.00  0.00     0.039 C 
BRANCH  13  15
ATOM     15  C   UNL     1       7.239  -5.571  42.664  1.00  0.00     0.035 C 
BRANCH  15  16
ATOM     16  C   UNL     1       8.237  -6.417  43.465  1.00  0.00     0.079 C 
BRANCH  16  17
ATOM     17  C   UNL     1       8.199  -7.865  43.045  1.00  0.00     0.130 C 
ATOM     18  O   UNL     1       8.572  -8.728  43.825  1.00  0.00    -0.300 OA
ATOM     19  C   UNL     1       7.708  -8.269  41.687  1.00  0.00     0.087 C 
ENDBRANCH  16  17
ENDBRANCH  15  16
ENDBRANCH  13  15
ENDBRANCH  11  12
ENDBRANCH   1  11
TORSDOF 9
ENDMDL
MODEL 6
REMARK VINA RESULT:    -4.036     16.418     18.017
REMARK INTER + INTRA:          -9.338
REMARK INTER:                  -7.228
REMARK INTRA:                  -2.110
REMARK UNBOUND:                -3.178
REMARK SMILES CC(=O)CCC=C(C)CCC=C(C)CCC=C(C)C
REMARK SMILES IDX 10 1 11 2 12 3 13 4 14 5 15 6 16 7 18 8 17 9 19 10 9 11 7 12
REMARK SMILES IDX 6 13 8 14 5 15 4 16 2 17 3 18 1 19
REMARK H PARENT
REMARK Flexibility Score: inf
ROOT
ATOM      1  C   UNL     1       8.617  -1.443  42.900  1.00  0.00     0.032 C 
ENDROOT
BRANCH   1   2
ATOM      2  C   UNL     1       8.999  -1.076  44.312  1.00  0.00    -0.028 C 
ATOM      3  C   UNL     1      10.105  -0.386  44.680  1.00  0.00    -0.077 C 
ATOM      4  C   UNL     1      10.225   0.019  46.129  1.00  0.00     0.039 C 
BRANCH   3   5
ATOM      5  C   UNL     1      11.160   0.108  43.700  1.00  0.00     0.034 C 
BRANCH   5   6
ATOM      6  C   UNL     1      12.174  -0.983  43.305  1.00  0.00     0.032 C 
BRANCH   6   7
ATOM      7  C   UNL     1      12.135  -1.286  41.827  1.00  0.00    -0.028 C 
ATOM      8  C   UNL     1      11.848  -3.753  42.139  1.00  0.00     0.039 C 
ATOM      9  C   UNL     1      11.982  -2.515  41.288  1.00  0.00    -0.080 C 
ATOM     10  C   UNL     1      11.936  -2.638  39.786  1.00  0.00     0.039 C 
ENDBRANCH   6   7
ENDBRANCH   5   6
ENDBRANCH   3   5
ENDBRANCH   1   2
BRANCH   1  11
ATOM     11  C   UNL     1       8.388  -2.951  42.756  1.00  0.00     0.034 C 
BRANCH  11  12
ATOM     12  C   UNL     1       8.251  -3.341  41.302  1.00  0.00    -0.077 C 
ATOM     13  C   UNL     1       8.240  -2.368  40.362  1.00  0.00    -0.028 C 
ATOM     14  C   UNL     1       8.103  -4.800  40.941  1.00  0.00     0.039 C 
BRANCH  13  15
ATOM     15  C   UNL     1       8.194  -2.615  38.873  1.00  0.00     0.035 C 
BRANCH  15  16
ATOM     16  C   UNL     1       6.836  -2.224  38.278  1.00  0.00     0.079 C 
BRANCH  16  17
ATOM     17  C   UNL     1       6.883  -2.177  36.771  1.00  0.00     0.130 C 
ATOM     18  O   UNL     1       6.845  -1.098  36.201  1.00  0.00    -0.300 OA
ATOM     19  C   UNL     1       6.982  -3.433  35.956  1.00  0.00     0.087 C 
ENDBRANCH  16  17
ENDBRANCH  15  16
ENDBRANCH  13  15
ENDBRANCH  11  12
ENDBRANCH   1  11
TORSDOF 9
ENDMDL
MODEL 7
REMARK VINA RESULT:    -4.035     15.776     18.216
REMARK INTER + INTRA:          -9.336
REMARK INTER:                  -8.238
REMARK INTRA:                  -1.098
REMARK UNBOUND:                -3.178
REMARK SMILES CC(=O)CCC=C(C)CCC=C(C)CCC=C(C)C
REMARK SMILES IDX 10 1 11 2 12 3 13 4 14 5 15 6 16 7 18 8 17 9 19 10 9 11 7 12
REMARK SMILES IDX 6 13 8 14 5 15 4 16 2 17 3 18 1 19
REMARK H PARENT
REMARK Flexibility Score: inf
ROOT
ATOM      1  C   UNL     1       7.832  -5.755  41.477  1.00  0.00     0.032 C 
ENDROOT
BRANCH   1   2
ATOM      2  C   UNL     1       8.005  -6.597  42.716  1.00  0.00    -0.028 C 
ATOM      3  C   UNL     1       8.171  -7.942  42.744  1.00  0.00    -0.077 C 
ATOM      4  C   UNL     1       8.487  -8.578  44.076  1.00  0.00     0.039 C 
BRANCH   3   5
ATOM      5  C   UNL     1       8.183  -8.820  41.500  1.00  0.00     0.034 C 
BRANCH   5   6
ATOM      6  C   UNL     1       6.912  -9.678  41.357  1.00  0.00     0.032 C 
BRANCH   6   7
ATOM      7  C   UNL     1       7.173 -11.134  41.659  1.00  0.00    -0.028 C 
ATOM      8  C   UNL     1       5.976 -11.095  43.858  1.00  0.00     0.039 C 
ATOM      9  C   UNL     1       6.755 -11.785  42.766  1.00  0.00    -0.080 C 
ATOM     10  C   UNL     1       7.077 -13.252  42.899  1.00  0.00     0.039 C 
ENDBRANCH   6   7
ENDBRANCH   5   6
ENDBRANCH   3   5
ENDBRANCH   1   2
BRANCH   1  11
ATOM     11  C   UNL     1       7.876  -4.259  41.807  1.00  0.00     0.034 C 
BRANCH  11  12
ATOM     12  C   UNL     1       8.158  -3.441  40.567  1.00  0.00    -0.077 C 
ATOM     13  C   UNL     1       8.390  -4.082  39.399  1.00  0.00    -0.028 C 
ATOM     14  C   UNL     1       8.202  -1.935  40.674  1.00  0.00     0.039 C 
BRANCH  13  15
ATOM     15  C   UNL     1       8.601  -3.394  38.072  1.00  0.00     0.035 C 
BRANCH  15  16
ATOM     16  C   UNL     1       7.393  -3.576  37.144  1.00  0.00     0.079 C 
BRANCH  16  17
ATOM     17  C   UNL     1       6.844  -2.250  36.682  1.00  0.00     0.130 C 
ATOM     18  O   UNL     1       6.775  -1.319  37.470  1.00  0.00    -0.300 OA
ATOM     19  C   UNL     1       6.384  -2.047  35.268  1.00  0.00     0.087 C 
ENDBRANCH  16  17
ENDBRANCH  15  16
ENDBRANCH  13  15
ENDBRANCH  11  12
ENDBRANCH   1  11
TORSDOF 9
ENDMDL
MODEL 8
REMARK VINA RESULT:    -3.935     15.949     17.621
REMARK INTER + INTRA:          -9.184
REMARK INTER:                  -8.276
REMARK INTRA:                  -0.908
REMARK UNBOUND:                -3.178
REMARK SMILES CC(=O)CCC=C(C)CCC=C(C)CCC=C(C)C
REMARK SMILES IDX 10 1 11 2 12 3 13 4 14 5 15 6 16 7 18 8 17 9 19 10 9 11 7 12
REMARK SMILES IDX 6 13 8 14 5 15 4 16 2 17 3 18 1 19
REMARK H PARENT
REMARK Flexibility Score: inf
ROOT
ATOM      1  C   UNL     1       8.498  -3.272  40.298  1.00  0.00     0.032 C 
ENDROOT
BRANCH   1   2
ATOM      2  C   UNL     1       7.510  -2.562  39.407  1.00  0.00    -0.028 C 
ATOM      3  C   UNL     1       7.322  -2.798  38.086  1.00  0.00    -0.077 C 
ATOM      4  C   UNL     1       6.173  -2.091  37.408  1.00  0.00     0.039 C 
BRANCH   3   5
ATOM      5  C   UNL     1       8.116  -3.823  37.287  1.00  0.00     0.034 C 
BRANCH   5   6
ATOM      6  C   UNL     1       7.905  -3.695  35.766  1.00  0.00     0.032 C 
BRANCH   6   7
ATOM      7  C   UNL     1       8.565  -4.819  35.005  1.00  0.00    -0.028 C 
ATOM      8  C   UNL     1      10.707  -3.577  34.637  1.00  0.00     0.039 C 
ATOM      9  C   UNL     1       9.818  -4.787  34.501  1.00  0.00    -0.080 C 
ATOM     10  C   UNL     1      10.335  -6.012  33.790  1.00  0.00     0.039 C 
ENDBRANCH   6   7
ENDBRANCH   5   6
ENDBRANCH   3   5
ENDBRANCH   1   2
BRANCH   1  11
ATOM     11  C   UNL     1       7.806  -4.314  41.183  1.00  0.00     0.034 C 
BRANCH  11  12
ATOM     12  C   UNL     1       8.553  -5.627  41.156  1.00  0.00    -0.077 C 
ATOM     13  C   UNL     1       7.974  -6.721  41.702  1.00  0.00    -0.028 C 
ATOM     14  C   UNL     1       9.936  -5.675  40.549  1.00  0.00     0.039 C 
BRANCH  13  15
ATOM     15  C   UNL     1       8.567  -8.109  41.671  1.00  0.00     0.035 C 
BRANCH  15  16
ATOM     16  C   UNL     1       7.492  -9.186  41.860  1.00  0.00     0.079 C 
BRANCH  16  17
ATOM     17  C   UNL     1       7.473  -9.710  43.274  1.00  0.00     0.130 C 
ATOM     18  O   UNL     1       8.191  -9.193  44.117  1.00  0.00    -0.300 OA
ATOM     19  C   UNL     1       6.584 -10.852  43.670  1.00  0.00     0.087 C 
ENDBRANCH  16  17
ENDBRANCH  15  16
ENDBRANCH  13  15
ENDBRANCH  11  12
ENDBRANCH   1  11
TORSDOF 9
ENDMDL
MODEL 9
REMARK VINA RESULT:    -3.898     16.421     18.437
REMARK INTER + INTRA:          -9.127
REMARK INTER:                  -7.660
REMARK INTRA:                  -1.467
REMARK UNBOUND:                -3.178
REMARK SMILES CC(=O)CCC=C(C)CCC=C(C)CCC=C(C)C
REMARK SMILES IDX 10 1 11 2 12 3 13 4 14 5 15 6 16 7 18 8 17 9 19 10 9 11 7 12
REMARK SMILES IDX 6 13 8 14 5 15 4 16 2 17 3 18 1 19
REMARK H PARENT
REMARK Flexibility Score: inf
ROOT
ATOM      1  C   UNL     1       7.781  -3.509  38.993  1.00  0.00     0.032 C 
ENDROOT
BRANCH   1   2
ATOM      2  C   UNL     1       7.851  -2.501  40.113  1.00  0.00    -0.028 C 
ATOM      3  C   UNL     1       8.849  -2.394  41.022  1.00  0.00    -0.077 C 
ATOM      4  C   UNL     1       8.810  -1.217  41.966  1.00  0.00     0.039 C 
BRANCH   3   5
ATOM      5  C   UNL     1      10.064  -3.312  41.059  1.00  0.00     0.034 C 
BRANCH   5   6
ATOM      6  C   UNL     1      10.061  -4.265  42.269  1.00  0.00     0.032 C 
BRANCH   6   7
ATOM      7  C   UNL     1       9.474  -5.614  41.930  1.00  0.00    -0.028 C 
ATOM      8  C   UNL     1       7.224  -5.099  42.901  1.00  0.00     0.039 C 
ATOM      9  C   UNL     1       8.207  -6.000  42.196  1.00  0.00    -0.080 C 
ATOM     10  C   UNL     1       7.771  -7.376  41.760  1.00  0.00     0.039 C 
ENDBRANCH   6   7
ENDBRANCH   5   6
ENDBRANCH   3   5
ENDBRANCH   1   2
BRANCH   1  11
ATOM     11  C   UNL     1       6.789  -3.075  37.910  1.00  0.00     0.034 C 
BRANCH  11  12
ATOM     12  C   UNL     1       7.426  -3.131  36.540  1.00  0.00    -0.077 C 
ATOM     13  C   UNL     1       8.605  -3.777  36.393  1.00  0.00    -0.028 C 
ATOM     14  C   UNL     1       6.744  -2.440  35.383  1.00  0.00     0.039 C 
BRANCH  13  15
ATOM     15  C   UNL     1       9.309  -3.983  35.073  1.00  0.00     0.035 C 
BRANCH  15  16
ATOM     16  C   UNL     1       9.081  -5.398  34.527  1.00  0.00     0.079 C 
BRANCH  16  17
ATOM     17  C   UNL     1      10.385  -6.103  34.250  1.00  0.00     0.130 C 
ATOM     18  O   UNL     1      11.437  -5.496  34.377  1.00  0.00    -0.300 OA
ATOM     19  C   UNL     1      10.417  -7.541  33.823  1.00  0.00     0.087 C 
ENDBRANCH  16  17
ENDBRANCH  15  16
ENDBRANCH  13  15
ENDBRANCH  11  12
ENDBRANCH   1  11
TORSDOF 9
ENDMDL
