MODEL 1
REMARK VINA RESULT:    -4.044      0.000      0.000
REMARK INTER + INTRA:          -5.553
REMARK INTER:                  -5.227
REMARK INTRA:                  -0.326
REMARK UNBOUND:                -0.326
REMARK SMILES CCO[C@@H]1O[C@H](CO)[C@@H](O)[C@H](O)[C@@H]1O
REMARK SMILES IDX 4 1 13 2 11 3 9 4 6 5 5 6 3 7 2 8 1 9 14 10 12 12 7 14 8 15
REMARK SMILES IDX 10 17
REMARK H PARENT 14 11 12 13 8 16 10 18
REMARK Flexibility Score: inf
ROOT
ATOM      1  C   UNL     1       7.683   3.133   3.688  1.00  0.00     0.281 C 
ATOM      2  C   UNL     1       8.787   3.962   3.000  1.00  0.00     0.202 C 
ATOM      3  C   UNL     1       8.370   4.397   1.588  1.00  0.00     0.179 C 
ATOM      4  C   UNL     1       7.001   5.099   1.656  1.00  0.00     0.177 C 
ATOM      5  C   UNL     1       5.965   4.277   2.466  1.00  0.00     0.178 C 
ATOM      6  O   UNL     1       6.443   3.834   3.734  1.00  0.00    -0.341 OA
ENDROOT
BRANCH   1   7
ATOM      7  O   UNL     1       7.539   1.868   3.066  1.00  0.00    -0.350 OA
BRANCH   7   8
ATOM      8  C   UNL     1       6.854   0.975   3.920  1.00  0.00     0.160 C 
ATOM      9  C   UNL     1       6.874  -0.416   3.305  1.00  0.00     0.035 C 
ENDBRANCH   7   8
ENDBRANCH   1   7
BRANCH   2  10
ATOM     10  O   UNL     1      10.018   3.280   2.988  1.00  0.00    -0.385 OA
ATOM     11  H   UNL     1      10.730   3.918   3.253  1.00  0.00     0.211 HD
ENDBRANCH   2  10
BRANCH   3  12
ATOM     12  O   UNL     1       8.318   3.291   0.723  1.00  0.00    -0.387 OA
ATOM     13  H   UNL     1       9.240   2.929   0.662  1.00  0.00     0.211 HD
ENDBRANCH   3  12
BRANCH   5  14
ATOM     14  C   UNL     1       5.291   3.156   1.650  1.00  0.00     0.191 C 
BRANCH  14  15
ATOM     15  O   UNL     1       5.178   3.547   0.310  1.00  0.00    -0.394 OA
ATOM     16  H   UNL     1       6.030   4.000   0.081  1.00  0.00     0.210 HD
ENDBRANCH  14  15
ENDBRANCH   5  14
BRANCH   4  17
ATOM     17  O   UNL     1       7.148   6.358   2.263  1.00  0.00    -0.387 OA
ATOM     18  H   UNL     1       8.076   6.662   2.081  1.00  0.00     0.211 HD
ENDBRANCH   4  17
TORSDOF 7
ENDMDL
MODEL 2
REMARK VINA RESULT:    -3.651      2.450      3.674
REMARK INTER + INTRA:          -5.044
REMARK INTER:                  -4.605
REMARK INTRA:                  -0.439
REMARK UNBOUND:                -0.326
REMARK SMILES CCO[C@@H]1O[C@H](CO)[C@@H](O)[C@H](O)[C@@H]1O
REMARK SMILES IDX 4 1 13 2 11 3 9 4 6 5 5 6 3 7 2 8 1 9 14 10 12 12 7 14 8 15
REMARK SMILES IDX 10 17
REMARK H PARENT 14 11 12 13 8 16 10 18
REMARK Flexibility Score: inf
ROOT
ATOM      1  C   UNL     1      10.055   4.978   3.857  1.00  0.00     0.281 C 
ATOM      2  C   UNL     1      10.131   6.410   3.287  1.00  0.00     0.202 C 
ATOM      3  C   UNL     1       9.529   6.489   1.878  1.00  0.00     0.179 C 
ATOM      4  C   UNL     1       8.112   5.888   1.895  1.00  0.00     0.177 C 
ATOM      5  C   UNL     1       8.075   4.503   2.590  1.00  0.00     0.178 C 
ATOM      6  O   UNL     1       8.722   4.477   3.861  1.00  0.00    -0.341 OA
ENDROOT
BRANCH   1   7
ATOM      7  O   UNL     1      10.932   4.110   3.160  1.00  0.00    -0.350 OA
BRANCH   7   8
ATOM      8  C   UNL     1      11.823   3.484   4.060  1.00  0.00     0.160 C 
ATOM      9  C   UNL     1      13.249   3.875   3.700  1.00  0.00     0.035 C 
ENDBRANCH   7   8
ENDBRANCH   1   7
BRANCH   2  10
ATOM     10  O   UNL     1      11.444   6.913   3.319  1.00  0.00    -0.385 OA
ATOM     11  H   UNL     1      12.029   6.232   3.740  1.00  0.00     0.211 HD
ENDBRANCH   2  10
BRANCH   3  12
ATOM     12  O   UNL     1      10.344   5.814   0.953  1.00  0.00    -0.387 OA
ATOM     13  H   UNL     1      11.076   6.436   0.706  1.00  0.00     0.211 HD
ENDBRANCH   3  12
BRANCH   5  14
ATOM     14  C   UNL     1       8.500   3.339   1.674  1.00  0.00     0.191 C 
BRANCH  14  15
ATOM     15  O   UNL     1       8.473   3.754   0.337  1.00  0.00    -0.394 OA
ATOM     16  H   UNL     1       8.665   4.727   0.345  1.00  0.00     0.210 HD
ENDBRANCH  14  15
ENDBRANCH   5  14
BRANCH   4  17
ATOM     17  O   UNL     1       7.242   6.757   2.577  1.00  0.00    -0.387 OA
ATOM     18  H   UNL     1       7.362   6.584   3.548  1.00  0.00     0.211 HD
ENDBRANCH   4  17
TORSDOF 7
ENDMDL
MODEL 3
REMARK VINA RESULT:    -3.600      1.658      4.525
REMARK INTER + INTRA:          -4.979
REMARK INTER:                  -4.577
REMARK INTRA:                  -0.401
REMARK UNBOUND:                -0.326
REMARK SMILES CCO[C@@H]1O[C@H](CO)[C@@H](O)[C@H](O)[C@@H]1O
REMARK SMILES IDX 4 1 13 2 11 3 9 4 6 5 5 6 3 7 2 8 1 9 14 10 12 12 7 14 8 15
REMARK SMILES IDX 10 17
REMARK H PARENT 14 11 12 13 8 16 10 18
REMARK Flexibility Score: inf
ROOT
ATOM      1  C   UNL     1       6.642   4.936   2.439  1.00  0.00     0.281 C 
ATOM      2  C   UNL     1       6.642   3.801   1.394  1.00  0.00     0.202 C 
ATOM      3  C   UNL     1       8.060   3.274   1.133  1.00  0.00     0.179 C 
ATOM      4  C   UNL     1       8.720   2.902   2.473  1.00  0.00     0.177 C 
ATOM      5  C   UNL     1       8.580   4.033   3.524  1.00  0.00     0.178 C 
ATOM      6  O   UNL     1       7.252   4.534   3.661  1.00  0.00    -0.341 OA
ENDROOT
BRANCH   1   7
ATOM      7  O   UNL     1       7.252   6.104   1.916  1.00  0.00    -0.350 OA
BRANCH   7   8
ATOM      8  C   UNL     1       6.765   7.252   2.579  1.00  0.00     0.160 C 
ATOM      9  C   UNL     1       6.935   8.460   1.671  1.00  0.00     0.035 C 
ENDBRANCH   7   8
ENDBRANCH   1   7
BRANCH   2  10
ATOM     10  O   UNL     1       6.007   4.192   0.201  1.00  0.00    -0.385 OA
ATOM     11  H   UNL     1       5.044   3.966   0.272  1.00  0.00     0.211 HD
ENDBRANCH   2  10
BRANCH   3  12
ATOM     12  O   UNL     1       8.827   4.234   0.451  1.00  0.00    -0.387 OA
ATOM     13  H   UNL     1       8.920   5.013   1.059  1.00  0.00     0.211 HD
ENDBRANCH   3  12
BRANCH   5  14
ATOM     14  C   UNL     1       9.633   5.148   3.377  1.00  0.00     0.191 C 
BRANCH  14  15
ATOM     15  O   UNL     1      10.743   4.663   2.674  1.00  0.00    -0.394 OA
ATOM     16  H   UNL     1      10.891   5.292   1.921  1.00  0.00     0.210 HD
ENDBRANCH  14  15
ENDBRANCH   5  14
BRANCH   4  17
ATOM     17  O   UNL     1       8.120   1.737   2.984  1.00  0.00    -0.387 OA
ATOM     18  H   UNL     1       8.618   0.965   2.607  1.00  0.00     0.211 HD
ENDBRANCH   4  17
TORSDOF 7
ENDMDL
MODEL 4
REMARK VINA RESULT:    -3.288      1.322      3.571
REMARK INTER + INTRA:          -4.575
REMARK INTER:                  -4.160
REMARK INTRA:                  -0.415
REMARK UNBOUND:                -0.326
REMARK SMILES CCO[C@@H]1O[C@H](CO)[C@@H](O)[C@H](O)[C@@H]1O
REMARK SMILES IDX 4 1 13 2 11 3 9 4 6 5 5 6 3 7 2 8 1 9 14 10 12 12 7 14 8 15
REMARK SMILES IDX 10 17
REMARK H PARENT 14 11 12 13 8 16 10 18
REMARK Flexibility Score: inf
ROOT
ATOM      1  C   UNL     1       8.229   2.794   2.305  1.00  0.00     0.281 C 
ATOM      2  C   UNL     1       6.943   2.089   2.785  1.00  0.00     0.202 C 
ATOM      3  C   UNL     1       5.801   3.090   3.010  1.00  0.00     0.179 C 
ATOM      4  C   UNL     1       5.619   3.946   1.743  1.00  0.00     0.177 C 
ATOM      5  C   UNL     1       6.963   4.527   1.235  1.00  0.00     0.178 C 
ATOM      6  O   UNL     1       8.006   3.560   1.125  1.00  0.00    -0.341 OA
ENDROOT
BRANCH   1   7
ATOM      7  O   UNL     1       8.788   3.586   3.338  1.00  0.00    -0.350 OA
BRANCH   7   8
ATOM      8  C   UNL     1      10.188   3.410   3.392  1.00  0.00     0.160 C 
ATOM      9  C   UNL     1      10.855   4.767   3.553  1.00  0.00     0.035 C 
ENDBRANCH   7   8
ENDBRANCH   1   7
BRANCH   2  10
ATOM     10  O   UNL     1       7.177   1.305   3.930  1.00  0.00    -0.385 OA
ATOM     11  H   UNL     1       8.097   1.489   4.251  1.00  0.00     0.211 HD
ENDBRANCH   2  10
BRANCH   3  12
ATOM     12  O   UNL     1       6.067   3.903   4.125  1.00  0.00    -0.387 OA
ATOM     13  H   UNL     1       5.192   4.235   4.454  1.00  0.00     0.211 HD
ENDBRANCH   3  12
BRANCH   5  14
ATOM     14  C   UNL     1       7.403   5.807   1.972  1.00  0.00     0.191 C 
BRANCH  14  15
ATOM     15  O   UNL     1       8.661   6.213   1.509  1.00  0.00    -0.394 OA
ATOM     16  H   UNL     1       9.202   5.386   1.418  1.00  0.00     0.210 HD
ENDBRANCH  14  15
ENDBRANCH   5  14
BRANCH   4  17
ATOM     17  O   UNL     1       5.054   3.161   0.723  1.00  0.00    -0.387 OA
ATOM     18  H   UNL     1       4.217   2.770   1.087  1.00  0.00     0.211 HD
ENDBRANCH   4  17
TORSDOF 7
ENDMDL
MODEL 5
REMARK VINA RESULT:    -3.241      1.813      3.810
REMARK INTER + INTRA:          -4.514
REMARK INTER:                  -4.004
REMARK INTRA:                  -0.510
REMARK UNBOUND:                -0.326
REMARK SMILES CCO[C@@H]1O[C@H](CO)[C@@H](O)[C@H](O)[C@@H]1O
REMARK SMILES IDX 4 1 13 2 11 3 9 4 6 5 5 6 3 7 2 8 1 9 14 10 12 12 7 14 8 15
REMARK SMILES IDX 10 17
REMARK H PARENT 14 11 12 13 8 16 10 18
REMARK Flexibility Score: inf
ROOT
ATOM      1  C   UNL     1       7.409   6.080   2.279  1.00  0.00     0.281 C 
ATOM      2  C   UNL     1       8.906   5.808   2.025  1.00  0.00     0.202 C 
ATOM      3  C   UNL     1       9.244   4.320   2.181  1.00  0.00     0.179 C 
ATOM      4  C   UNL     1       8.292   3.487   1.303  1.00  0.00     0.177 C 
ATOM      5  C   UNL     1       6.809   3.889   1.510  1.00  0.00     0.178 C 
ATOM      6  O   UNL     1       6.575   5.294   1.433  1.00  0.00    -0.341 OA
ENDROOT
BRANCH   1   7
ATOM      7  O   UNL     1       7.085   5.890   3.645  1.00  0.00    -0.350 OA
BRANCH   7   8
ATOM      8  C   UNL     1       5.991   6.706   4.010  1.00  0.00     0.160 C 
ATOM      9  C   UNL     1       6.286   8.143   3.607  1.00  0.00     0.035 C 
ENDBRANCH   7   8
ENDBRANCH   1   7
BRANCH   2  10
ATOM     10  O   UNL     1       9.726   6.613   2.837  1.00  0.00    -0.385 OA
ATOM     11  H   UNL     1       9.466   6.468   3.784  1.00  0.00     0.211 HD
ENDBRANCH   2  10
BRANCH   3  12
ATOM     12  O   UNL     1       9.148   3.928   3.527  1.00  0.00    -0.387 OA
ATOM     13  H   UNL     1       8.217   4.112   3.815  1.00  0.00     0.211 HD
ENDBRANCH   3  12
BRANCH   5  14
ATOM     14  C   UNL     1       6.156   3.236   2.744  1.00  0.00     0.191 C 
BRANCH  14  15
ATOM     15  O   UNL     1       6.820   2.043   3.056  1.00  0.00    -0.394 OA
ATOM     16  H   UNL     1       7.531   1.935   2.372  1.00  0.00     0.210 HD
ENDBRANCH  14  15
ENDBRANCH   5  14
BRANCH   4  17
ATOM     17  O   UNL     1       8.622   3.669  -0.051  1.00  0.00    -0.387 OA
ATOM     18  H   UNL     1       8.870   2.777  -0.411  1.00  0.00     0.211 HD
ENDBRANCH   4  17
TORSDOF 7
ENDMDL
MODEL 6
REMARK VINA RESULT:    -3.225      2.367      4.972
REMARK INTER + INTRA:          -4.494
REMARK INTER:                  -4.029
REMARK INTRA:                  -0.465
REMARK UNBOUND:                -0.326
REMARK SMILES CCO[C@@H]1O[C@H](CO)[C@@H](O)[C@H](O)[C@@H]1O
REMARK SMILES IDX 4 1 13 2 11 3 9 4 6 5 5 6 3 7 2 8 1 9 14 10 12 12 7 14 8 15
REMARK SMILES IDX 10 17
REMARK H PARENT 14 11 12 13 8 16 10 18
REMARK Flexibility Score: inf
ROOT
ATOM      1  C   UNL     1       7.710   6.209   3.124  1.00  0.00     0.281 C 
ATOM      2  C   UNL     1       7.605   4.673   3.032  1.00  0.00     0.202 C 
ATOM      3  C   UNL     1       8.724   4.082   2.163  1.00  0.00     0.179 C 
ATOM      4  C   UNL     1      10.085   4.595   2.667  1.00  0.00     0.177 C 
ATOM      5  C   UNL     1      10.092   6.133   2.859  1.00  0.00     0.178 C 
ATOM      6  O   UNL     1       8.983   6.627   3.607  1.00  0.00    -0.341 OA
ENDROOT
BRANCH   1   7
ATOM      7  O   UNL     1       7.406   6.812   1.879  1.00  0.00    -0.350 OA
BRANCH   7   8
ATOM      8  C   UNL     1       6.753   8.049   2.077  1.00  0.00     0.160 C 
ATOM      9  C   UNL     1       7.369   9.090   1.154  1.00  0.00     0.035 C 
ENDBRANCH   7   8
ENDBRANCH   1   7
BRANCH   2  10
ATOM     10  O   UNL     1       6.334   4.264   2.589  1.00  0.00    -0.385 OA
ATOM     11  H   UNL     1       5.899   3.752   3.319  1.00  0.00     0.211 HD
ENDBRANCH   2  10
BRANCH   3  12
ATOM     12  O   UNL     1       8.534   4.422   0.813  1.00  0.00    -0.387 OA
ATOM     13  H   UNL     1       7.739   3.918   0.497  1.00  0.00     0.211 HD
ENDBRANCH   3  12
BRANCH   5  14
ATOM     14  C   UNL     1      10.339   6.918   1.556  1.00  0.00     0.191 C 
BRANCH  14  15
ATOM     15  O   UNL     1      10.898   6.072   0.591  1.00  0.00    -0.394 OA
ATOM     16  H   UNL     1      10.135   5.669   0.101  1.00  0.00     0.210 HD
ENDBRANCH  14  15
ENDBRANCH   5  14
BRANCH   4  17
ATOM     17  O   UNL     1      10.390   3.987   3.897  1.00  0.00    -0.387 OA
ATOM     18  H   UNL     1       9.774   3.214   4.000  1.00  0.00     0.211 HD
ENDBRANCH   4  17
TORSDOF 7
ENDMDL
MODEL 7
REMARK VINA RESULT:    -3.197      3.004      3.977
REMARK INTER + INTRA:          -4.458
REMARK INTER:                  -3.988
REMARK INTRA:                  -0.470
REMARK UNBOUND:                -0.326
REMARK SMILES CCO[C@@H]1O[C@H](CO)[C@@H](O)[C@H](O)[C@@H]1O
REMARK SMILES IDX 4 1 13 2 11 3 9 4 6 5 5 6 3 7 2 8 1 9 14 10 12 12 7 14 8 15
REMARK SMILES IDX 10 17
REMARK H PARENT 14 11 12 13 8 16 10 18
REMARK Flexibility Score: inf
ROOT
ATOM      1  C   UNL     1      10.455   5.435   3.320  1.00  0.00     0.281 C 
ATOM      2  C   UNL     1      11.715   5.979   2.614  1.00  0.00     0.202 C 
ATOM      3  C   UNL     1      11.352   6.924   1.461  1.00  0.00     0.179 C 
ATOM      4  C   UNL     1      10.396   8.014   1.979  1.00  0.00     0.177 C 
ATOM      5  C   UNL     1       9.215   7.417   2.787  1.00  0.00     0.178 C 
ATOM      6  O   UNL     1       9.615   6.485   3.789  1.00  0.00    -0.341 OA
ENDROOT
BRANCH   1   7
ATOM      7  O   UNL     1       9.748   4.543   2.477  1.00  0.00    -0.350 OA
BRANCH   7   8
ATOM      8  C   UNL     1       9.263   3.443   3.218  1.00  0.00     0.160 C 
ATOM      9  C   UNL     1       8.230   2.698   2.387  1.00  0.00     0.035 C 
ENDBRANCH   7   8
ENDBRANCH   1   7
BRANCH   2  10
ATOM     10  O   UNL     1      12.560   4.939   2.184  1.00  0.00    -0.385 OA
ATOM     11  H   UNL     1      12.013   4.118   2.074  1.00  0.00     0.211 HD
ENDBRANCH   2  10
BRANCH   3  12
ATOM     12  O   UNL     1      10.765   6.212   0.402  1.00  0.00    -0.387 OA
ATOM     13  H   UNL     1      11.073   5.272   0.481  1.00  0.00     0.211 HD
ENDBRANCH   3  12
BRANCH   5  14
ATOM     14  C   UNL     1       8.062   6.899   1.907  1.00  0.00     0.191 C 
BRANCH  14  15
ATOM     15  O   UNL     1       7.126   6.224   2.700  1.00  0.00    -0.394 OA
ATOM     16  H   UNL     1       6.236   6.423   2.309  1.00  0.00     0.210 HD
ENDBRANCH  14  15
ENDBRANCH   5  14
BRANCH   4  17
ATOM     17  O   UNL     1      11.103   8.904   2.807  1.00  0.00    -0.387 OA
ATOM     18  H   UNL     1      10.428   9.422   3.319  1.00  0.00     0.211 HD
ENDBRANCH   4  17
TORSDOF 7
ENDMDL
MODEL 8
REMARK VINA RESULT:    -3.155      4.313      6.867
REMARK INTER + INTRA:          -4.404
REMARK INTER:                  -3.904
REMARK INTRA:                  -0.500
REMARK UNBOUND:                -0.326
REMARK SMILES CCO[C@@H]1O[C@H](CO)[C@@H](O)[C@H](O)[C@@H]1O
REMARK SMILES IDX 4 1 13 2 11 3 9 4 6 5 5 6 3 7 2 8 1 9 14 10 12 12 7 14 8 15
REMARK SMILES IDX 10 17
REMARK H PARENT 14 11 12 13 8 16 10 18
REMARK Flexibility Score: inf
ROOT
ATOM      1  C   UNL     1      10.731   8.079   2.746  1.00  0.00     0.281 C 
ATOM      2  C   UNL     1       9.546   7.277   2.170  1.00  0.00     0.202 C 
ATOM      3  C   UNL     1       9.990   5.897   1.666  1.00  0.00     0.179 C 
ATOM      4  C   UNL     1      10.762   5.172   2.784  1.00  0.00     0.177 C 
ATOM      5  C   UNL     1      11.859   6.070   3.411  1.00  0.00     0.178 C 
ATOM      6  O   UNL     1      11.400   7.368   3.783  1.00  0.00    -0.341 OA
ENDROOT
BRANCH   1   7
ATOM      7  O   UNL     1      11.629   8.463   1.720  1.00  0.00    -0.350 OA
BRANCH   7   8
ATOM      8  C   UNL     1      12.057   9.796   1.912  1.00  0.00     0.160 C 
ATOM      9  C   UNL     1      13.575   9.824   1.999  1.00  0.00     0.035 C 
ENDBRANCH   7   8
ENDBRANCH   1   7
BRANCH   2  10
ATOM     10  O   UNL     1       8.866   7.999   1.171  1.00  0.00    -0.385 OA
ATOM     11  H   UNL     1       8.820   7.435   0.356  1.00  0.00     0.211 HD
ENDBRANCH   2  10
BRANCH   3  12
ATOM     12  O   UNL     1      10.785   6.023   0.514  1.00  0.00    -0.387 OA
ATOM     13  H   UNL     1      10.834   5.123   0.098  1.00  0.00     0.211 HD
ENDBRANCH   3  12
BRANCH   5  14
ATOM     14  C   UNL     1      13.169   6.103   2.601  1.00  0.00     0.191 C 
BRANCH  14  15
ATOM     15  O   UNL     1      13.303   4.918   1.866  1.00  0.00    -0.394 OA
ATOM     16  H   UNL     1      12.894   4.203   2.418  1.00  0.00     0.210 HD
ENDBRANCH  14  15
ENDBRANCH   5  14
BRANCH   4  17
ATOM     17  O   UNL     1       9.867   4.783   3.796  1.00  0.00    -0.387 OA
ATOM     18  H   UNL     1       9.045   4.454   3.346  1.00  0.00     0.211 HD
ENDBRANCH   4  17
TORSDOF 7
ENDMDL
MODEL 9
REMARK VINA RESULT:    -3.106      3.106      4.540
REMARK INTER + INTRA:          -4.340
REMARK INTER:                  -3.902
REMARK INTRA:                  -0.438
REMARK UNBOUND:                -0.326
REMARK SMILES CCO[C@@H]1O[C@H](CO)[C@@H](O)[C@H](O)[C@@H]1O
REMARK SMILES IDX 4 1 13 2 11 3 9 4 6 5 5 6 3 7 2 8 1 9 14 10 12 12 7 14 8 15
REMARK SMILES IDX 10 17
REMARK H PARENT 14 11 12 13 8 16 10 18
REMARK Flexibility Score: inf
ROOT
ATOM      1  C   UNL     1       8.964   6.147   3.017  1.00  0.00     0.281 C 
ATOM      2  C   UNL     1      10.399   5.596   2.884  1.00  0.00     0.202 C 
ATOM      3  C   UNL     1      11.214   6.386   1.852  1.00  0.00     0.179 C 
ATOM      4  C   UNL     1      11.141   7.887   2.187  1.00  0.00     0.177 C 
ATOM      5  C   UNL     1       9.684   8.359   2.432  1.00  0.00     0.178 C 
ATOM      6  O   UNL     1       8.956   7.535   3.339  1.00  0.00    -0.341 OA
ENDROOT
BRANCH   1   7
ATOM      7  O   UNL     1       8.211   5.884   1.846  1.00  0.00    -0.350 OA
BRANCH   7   8
ATOM      8  C   UNL     1       7.045   5.153   2.164  1.00  0.00     0.160 C 
ATOM      9  C   UNL     1       6.807   4.102   1.091  1.00  0.00     0.035 C 
ENDBRANCH   7   8
ENDBRANCH   1   7
BRANCH   2  10
ATOM     10  O   UNL     1      10.402   4.218   2.601  1.00  0.00    -0.385 OA
ATOM     11  H   UNL     1       9.470   3.884   2.667  1.00  0.00     0.211 HD
ENDBRANCH   2  10
BRANCH   3  12
ATOM     12  O   UNL     1      10.737   6.144   0.552  1.00  0.00    -0.387 OA
ATOM     13  H   UNL     1       9.826   5.760   0.646  1.00  0.00     0.211 HD
ENDBRANCH   3  12
BRANCH   5  14
ATOM     14  C   UNL     1       8.907   8.665   1.137  1.00  0.00     0.191 C 
BRANCH  14  15
ATOM     15  O   UNL     1       7.542   8.798   1.424  1.00  0.00    -0.394 OA
ATOM     16  H   UNL     1       7.086   8.915   0.551  1.00  0.00     0.210 HD
ENDBRANCH  14  15
ENDBRANCH   5  14
BRANCH   4  17
ATOM     17  O   UNL     1      11.898   8.148   3.342  1.00  0.00    -0.387 OA
ATOM     18  H   UNL     1      12.848   8.203   3.061  1.00  0.00     0.211 HD
ENDBRANCH   4  17
TORSDOF 7
ENDMDL
