MODEL 1
REMARK VINA RESULT:    -4.603      0.000      0.000
REMARK INTER + INTRA:          -6.990
REMARK INTER:                  -7.025
REMARK INTRA:                   0.035
REMARK UNBOUND:                 0.035
REMARK SMILES CC1=CCC[C@@H](C)C(=O)C[C@H](C(C)C)C(=O)C1
REMARK SMILES IDX 8 1 9 2 6 3 7 4 5 5 4 6 3 7 2 8 1 9 10 11 11 12 15 13 16 14
REMARK SMILES IDX 17 15 12 17 13 18 14 19
REMARK H PARENT
REMARK Flexibility Score: 70.00
ROOT
ATOM      1  C   UNL     1     -12.879 -16.113  28.609  1.00  0.00     0.136 C 
ATOM      2  O   UNL     1     -13.564 -15.552  27.764  1.00  0.00    -0.299 OA
ENDROOT
BRANCH   1   3
ATOM      3  C   UNL     1     -12.245 -17.454  28.299  1.00  0.00     0.053 C 
ATOM      4  C   UNL     1     -11.562 -17.382  26.928  1.00  0.00     0.016 C 
BRANCH   3   5
ATOM      5  C   UNL     1     -13.259 -18.621  28.330  1.00  0.00     0.015 C 
BRANCH   5   6
ATOM      6  C   UNL     1     -12.956 -19.678  29.408  1.00  0.00     0.028 C 
BRANCH   6   7
ATOM      7  C   UNL     1     -11.679 -19.360  30.150  1.00  0.00    -0.028 C 
ATOM      8  C   UNL     1     -11.598 -18.697  31.325  1.00  0.00    -0.070 CG0
ATOM      9  C   UNL     1     -10.229 -18.466  31.915  1.00  0.00     0.039 C 
ATOM     10  G   UNL     1     -12.815 -18.181  32.070  1.00  0.00     0.000 G0
ENDBRANCH   6   7
ENDBRANCH   5   6
ENDBRANCH   3   5
ENDBRANCH   1   3
BRANCH   1  11
ATOM     11  C   UNL     1     -12.622 -15.424  29.927  1.00  0.00     0.087 C 
BRANCH  11  12
ATOM     12  C   UNL     1     -13.602 -15.896  31.025  1.00  0.00     0.066 C 
BRANCH  12  13
ATOM     13  C   UNL     1     -12.866 -16.681  32.103  1.00  0.00     0.140 C 
ATOM     14  O   UNL     1     -12.324 -16.086  33.023  1.00  0.00    -0.299 OA
BRANCH  13  15
ATOM     15  C   UNL     1     -12.802 -18.188  32.075  1.00  0.00     0.106 CG0
ATOM     16  G   UNL     1     -11.598 -18.700  31.307  1.00  0.00     0.000 G0
ENDBRANCH  13  15
ENDBRANCH  12  13
BRANCH  12  17
ATOM     17  C   UNL     1     -14.449 -14.722  31.602  1.00  0.00    -0.006 C 
ATOM     18  C   UNL     1     -15.398 -15.126  32.745  1.00  0.00     0.008 C 
ATOM     19  C   UNL     1     -15.238 -14.006  30.495  1.00  0.00     0.008 C 
ENDBRANCH  12  17
ENDBRANCH  11  12
ENDBRANCH   1  11
TORSDOF 1
ENDMDL
MODEL 2
REMARK VINA RESULT:    -4.451      2.018      3.668
REMARK INTER + INTRA:          -6.757
REMARK INTER:                  -7.064
REMARK INTRA:                   0.307
REMARK UNBOUND:                 0.035
REMARK SMILES CC1=CCC[C@@H](C)C(=O)C[C@H](C(C)C)C(=O)C1
REMARK SMILES IDX 8 1 9 2 6 3 7 4 5 5 4 6 3 7 2 8 1 9 10 11 11 12 15 13 16 14
REMARK SMILES IDX 17 15 12 17 13 18 14 19
REMARK H PARENT
REMARK Flexibility Score: 70.00
ROOT
ATOM      1  C   UNL     1     -11.485 -18.666  31.125  1.00  0.00     0.136 C 
ATOM      2  O   UNL     1     -10.545 -18.981  30.407  1.00  0.00    -0.299 OA
ENDROOT
BRANCH   1   3
ATOM      3  C   UNL     1     -12.707 -19.558  31.205  1.00  0.00     0.053 C 
ATOM      4  C   UNL     1     -12.408 -20.739  32.135  1.00  0.00     0.016 C 
BRANCH   3   5
ATOM      5  C   UNL     1     -13.168 -20.072  29.821  1.00  0.00     0.015 C 
BRANCH   5   6
ATOM      6  C   UNL     1     -13.795 -18.982  28.932  1.00  0.00     0.028 C 
BRANCH   6   7
ATOM      7  C   UNL     1     -12.833 -18.518  27.863  1.00  0.00    -0.028 C 
ATOM      8  C   UNL     1     -12.310 -17.275  27.764  1.00  0.00    -0.070 CG0
ATOM      9  C   UNL     1     -11.366 -16.994  26.622  1.00  0.00     0.039 C 
ATOM     10  G   UNL     1     -12.627 -16.163  28.746  1.00  0.00     0.000 G0
ENDBRANCH   6   7
ENDBRANCH   5   6
ENDBRANCH   3   5
ENDBRANCH   1   3
BRANCH   1  11
ATOM     11  C   UNL     1     -11.380 -17.421  31.973  1.00  0.00     0.087 C 
BRANCH  11  12
ATOM     12  C   UNL     1     -12.105 -16.220  31.326  1.00  0.00     0.066 C 
BRANCH  12  13
ATOM     13  C   UNL     1     -11.662 -16.038  29.881  1.00  0.00     0.140 C 
ATOM     14  O   UNL     1     -10.488 -15.806  29.630  1.00  0.00    -0.299 OA
BRANCH  13  15
ATOM     15  C   UNL     1     -12.639 -16.153  28.737  1.00  0.00     0.106 CG0
ATOM     16  G   UNL     1     -12.282 -17.279  27.784  1.00  0.00     0.000 G0
ENDBRANCH  13  15
ENDBRANCH  12  13
BRANCH  12  17
ATOM     17  C   UNL     1     -13.653 -16.316  31.478  1.00  0.00    -0.006 C 
ATOM     18  C   UNL     1     -14.389 -14.971  31.341  1.00  0.00     0.008 C 
ATOM     19  C   UNL     1     -14.043 -16.995  32.800  1.00  0.00     0.008 C 
ENDBRANCH  12  17
ENDBRANCH  11  12
ENDBRANCH   1  11
TORSDOF 1
ENDMDL
MODEL 3
REMARK VINA RESULT:    -4.378      1.843      3.467
REMARK INTER + INTRA:          -6.647
REMARK INTER:                  -7.423
REMARK INTRA:                   0.776
REMARK UNBOUND:                 0.035
REMARK SMILES CC1=CCC[C@@H](C)C(=O)C[C@H](C(C)C)C(=O)C1
REMARK SMILES IDX 8 1 9 2 6 3 7 4 5 5 4 6 3 7 2 8 1 9 10 11 11 12 15 13 16 14
REMARK SMILES IDX 17 15 12 17 13 18 14 19
REMARK H PARENT
REMARK Flexibility Score: 70.00
ROOT
ATOM      1  C   UNL     1     -11.638 -19.019  29.437  1.00  0.00     0.136 C 
ATOM      2  O   UNL     1     -10.641 -19.163  30.132  1.00  0.00    -0.299 OA
ENDROOT
BRANCH   1   3
ATOM      3  C   UNL     1     -12.810 -19.967  29.590  1.00  0.00     0.053 C 
ATOM      4  C   UNL     1     -13.895 -19.594  28.573  1.00  0.00     0.016 C 
BRANCH   3   5
ATOM      5  C   UNL     1     -13.397 -19.971  31.021  1.00  0.00     0.015 C 
BRANCH   5   6
ATOM      6  C   UNL     1     -12.679 -19.012  31.988  1.00  0.00     0.028 C 
BRANCH   6   7
ATOM      7  C   UNL     1     -13.472 -17.744  32.201  1.00  0.00    -0.028 C 
ATOM      8  C   UNL     1     -13.000 -16.487  32.042  1.00  0.00    -0.070 CG0
ATOM      9  C   UNL     1     -13.941 -15.339  32.306  1.00  0.00     0.039 C 
ATOM     10  G   UNL     1     -11.576 -16.186  31.611  1.00  0.00     0.000 G0
ENDBRANCH   6   7
ENDBRANCH   5   6
ENDBRANCH   3   5
ENDBRANCH   1   3
BRANCH   1  11
ATOM     11  C   UNL     1     -11.709 -17.851  28.482  1.00  0.00     0.087 C 
BRANCH  11  12
ATOM     12  C   UNL     1     -12.365 -16.613  29.133  1.00  0.00     0.066 C 
BRANCH  12  13
ATOM     13  C   UNL     1     -11.417 -15.962  30.130  1.00  0.00     0.140 C 
ATOM     14  O   UNL     1     -10.526 -15.227  29.730  1.00  0.00    -0.299 OA
BRANCH  13  15
ATOM     15  C   UNL     1     -11.557 -16.190  31.615  1.00  0.00     0.106 CG0
ATOM     16  G   UNL     1     -12.991 -16.469  32.024  1.00  0.00     0.000 G0
ENDBRANCH  13  15
ENDBRANCH  12  13
BRANCH  12  17
ATOM     17  C   UNL     1     -12.910 -15.610  28.072  1.00  0.00    -0.006 C 
ATOM     18  C   UNL     1     -13.986 -14.646  28.604  1.00  0.00     0.008 C 
ATOM     19  C   UNL     1     -13.433 -16.344  26.828  1.00  0.00     0.008 C 
ENDBRANCH  12  17
ENDBRANCH  11  12
ENDBRANCH   1  11
TORSDOF 1
ENDMDL
MODEL 4
REMARK VINA RESULT:    -4.124      1.735      2.088
REMARK INTER + INTRA:          -6.258
REMARK INTER:                  -6.903
REMARK INTRA:                   0.645
REMARK UNBOUND:                 0.035
REMARK SMILES CC1=CCC[C@@H](C)C(=O)C[C@H](C(C)C)C(=O)C1
REMARK SMILES IDX 8 1 9 2 6 3 7 4 5 5 4 6 3 7 2 8 1 9 10 11 11 12 15 13 16 14
REMARK SMILES IDX 17 15 12 17 13 18 14 19
REMARK H PARENT
REMARK Flexibility Score: 70.00
ROOT
ATOM      1  C   UNL     1     -12.797 -16.634  29.118  1.00  0.00     0.136 C 
ATOM      2  O   UNL     1     -13.405 -17.694  29.068  1.00  0.00    -0.299 OA
ENDROOT
BRANCH   1   3
ATOM      3  C   UNL     1     -11.681 -16.355  28.132  1.00  0.00     0.053 C 
ATOM      4  C   UNL     1     -11.774 -17.353  26.972  1.00  0.00     0.016 C 
BRANCH   3   5
ATOM      5  C   UNL     1     -10.277 -16.416  28.779  1.00  0.00     0.015 C 
BRANCH   5   6
ATOM      6  C   UNL     1     -10.235 -15.879  30.222  1.00  0.00     0.028 C 
BRANCH   6   7
ATOM      7  C   UNL     1      -9.880 -16.968  31.207  1.00  0.00    -0.028 C 
ATOM      8  C   UNL     1     -10.555 -17.246  32.346  1.00  0.00    -0.070 CG0
ATOM      9  C   UNL     1     -10.047 -18.371  33.212  1.00  0.00     0.039 C 
ATOM     10  G   UNL     1     -11.791 -16.483  32.783  1.00  0.00     0.000 G0
ENDBRANCH   6   7
ENDBRANCH   5   6
ENDBRANCH   3   5
ENDBRANCH   1   3
BRANCH   1  11
ATOM     11  C   UNL     1     -13.216 -15.590  30.125  1.00  0.00     0.087 C 
BRANCH  11  12
ATOM     12  C   UNL     1     -13.992 -16.211  31.310  1.00  0.00     0.066 C 
BRANCH  12  13
ATOM     13  C   UNL     1     -13.070 -17.064  32.169  1.00  0.00     0.140 C 
ATOM     14  O   UNL     1     -13.335 -18.243  32.358  1.00  0.00    -0.299 OA
BRANCH  13  15
ATOM     15  C   UNL     1     -11.817 -16.495  32.786  1.00  0.00     0.106 CG0
ATOM     16  G   UNL     1     -10.569 -17.245  32.358  1.00  0.00     0.000 G0
ENDBRANCH  13  15
ENDBRANCH  12  13
BRANCH  12  17
ATOM     17  C   UNL     1     -14.766 -15.137  32.133  1.00  0.00    -0.006 C 
ATOM     18  C   UNL     1     -15.777 -15.716  33.138  1.00  0.00     0.008 C 
ATOM     19  C   UNL     1     -15.463 -14.124  31.212  1.00  0.00     0.008 C 
ENDBRANCH  12  17
ENDBRANCH  11  12
ENDBRANCH   1  11
TORSDOF 1
ENDMDL
MODEL 5
REMARK VINA RESULT:    -4.091      1.446      2.129
REMARK INTER + INTRA:          -6.209
REMARK INTER:                  -6.868
REMARK INTRA:                   0.659
REMARK UNBOUND:                 0.035
REMARK SMILES CC1=CCC[C@@H](C)C(=O)C[C@H](C(C)C)C(=O)C1
REMARK SMILES IDX 8 1 9 2 6 3 7 4 5 5 4 6 3 7 2 8 1 9 10 11 11 12 15 13 16 14
REMARK SMILES IDX 17 15 12 17 13 18 14 19
REMARK H PARENT
REMARK Flexibility Score: 70.00
ROOT
ATOM      1  C   UNL     1     -12.782 -15.867  28.762  1.00  0.00     0.136 C 
ATOM      2  O   UNL     1     -13.471 -14.912  28.425  1.00  0.00    -0.299 OA
ENDROOT
BRANCH   1   3
ATOM      3  C   UNL     1     -12.710 -17.096  27.880  1.00  0.00     0.053 C 
ATOM      4  C   UNL     1     -12.875 -16.674  26.415  1.00  0.00     0.016 C 
BRANCH   3   5
ATOM      5  C   UNL     1     -13.765 -18.165  28.250  1.00  0.00     0.015 C 
BRANCH   5   6
ATOM      6  C   UNL     1     -13.203 -19.598  28.304  1.00  0.00     0.028 C 
BRANCH   6   7
ATOM      7  C   UNL     1     -13.246 -20.156  29.708  1.00  0.00    -0.028 C 
ATOM      8  C   UNL     1     -12.284 -19.998  30.645  1.00  0.00    -0.070 CG0
ATOM      9  C   UNL     1     -12.501 -20.635  31.995  1.00  0.00     0.039 C 
ATOM     10  G   UNL     1     -11.010 -19.212  30.400  1.00  0.00     0.000 G0
ENDBRANCH   6   7
ENDBRANCH   5   6
ENDBRANCH   3   5
ENDBRANCH   1   3
BRANCH   1  11
ATOM     11  C   UNL     1     -11.961 -15.773  30.026  1.00  0.00     0.087 C 
BRANCH  11  12
ATOM     12  C   UNL     1     -12.259 -16.940  30.994  1.00  0.00     0.066 C 
BRANCH  12  13
ATOM     13  C   UNL     1     -11.049 -17.854  31.125  1.00  0.00     0.140 C 
ATOM     14  O   UNL     1     -10.096 -17.506  31.808  1.00  0.00    -0.299 OA
BRANCH  13  15
ATOM     15  C   UNL     1     -10.999 -19.198  30.442  1.00  0.00     0.106 CG0
ATOM     16  G   UNL     1     -12.277 -19.993  30.638  1.00  0.00     0.000 G0
ENDBRANCH  13  15
ENDBRANCH  12  13
BRANCH  12  17
ATOM     17  C   UNL     1     -12.793 -16.440  32.371  1.00  0.00    -0.006 C 
ATOM     18  C   UNL     1     -14.091 -15.617  32.286  1.00  0.00     0.008 C 
ATOM     19  C   UNL     1     -11.719 -15.648  33.131  1.00  0.00     0.008 C 
ENDBRANCH  12  17
ENDBRANCH  11  12
ENDBRANCH   1  11
TORSDOF 1
ENDMDL
MODEL 6
REMARK VINA RESULT:    -3.902      2.123      3.934
REMARK INTER + INTRA:          -5.920
REMARK INTER:                  -6.453
REMARK INTRA:                   0.533
REMARK UNBOUND:                 0.035
REMARK SMILES CC1=CCC[C@@H](C)C(=O)C[C@H](C(C)C)C(=O)C1
REMARK SMILES IDX 8 1 9 2 6 3 7 4 5 5 4 6 3 7 2 8 1 9 10 11 11 12 15 13 16 14
REMARK SMILES IDX 17 15 12 17 13 18 14 19
REMARK H PARENT
REMARK Flexibility Score: 70.00
ROOT
ATOM      1  C   UNL     1     -11.176 -16.240  30.808  1.00  0.00     0.136 C 
ATOM      2  O   UNL     1     -10.062 -15.965  30.381  1.00  0.00    -0.299 OA
ENDROOT
BRANCH   1   3
ATOM      3  C   UNL     1     -11.324 -16.909  32.159  1.00  0.00     0.053 C 
ATOM      4  C   UNL     1     -10.122 -16.542  33.036  1.00  0.00     0.016 C 
BRANCH   3   5
ATOM      5  C   UNL     1     -11.461 -18.447  32.056  1.00  0.00     0.015 C 
BRANCH   5   6
ATOM      6  C   UNL     1     -12.907 -18.926  31.833  1.00  0.00     0.028 C 
BRANCH   6   7
ATOM      7  C   UNL     1     -12.981 -19.975  30.748  1.00  0.00    -0.028 C 
ATOM      8  C   UNL     1     -13.320 -19.748  29.458  1.00  0.00    -0.070 CG0
ATOM      9  C   UNL     1     -13.344 -20.925  28.516  1.00  0.00     0.039 C 
ATOM     10  G   UNL     1     -13.671 -18.372  28.925  1.00  0.00     0.000 G0
ENDBRANCH   6   7
ENDBRANCH   5   6
ENDBRANCH   3   5
ENDBRANCH   1   3
BRANCH   1  11
ATOM     11  C   UNL     1     -12.392 -15.844  30.005  1.00  0.00     0.087 C 
BRANCH  11  12
ATOM     12  C   UNL     1     -12.236 -16.200  28.509  1.00  0.00     0.066 C 
BRANCH  12  13
ATOM     13  C   UNL     1     -12.497 -17.682  28.278  1.00  0.00     0.140 C 
ATOM     14  O   UNL     1     -11.734 -18.330  27.577  1.00  0.00    -0.299 OA
BRANCH  13  15
ATOM     15  C   UNL     1     -13.674 -18.382  28.911  1.00  0.00     0.106 CG0
ATOM     16  G   UNL     1     -13.304 -19.744  29.468  1.00  0.00     0.000 G0
ENDBRANCH  13  15
ENDBRANCH  12  13
BRANCH  12  17
ATOM     17  C   UNL     1     -13.100 -15.282  27.593  1.00  0.00    -0.006 C 
ATOM     18  C   UNL     1     -14.094 -14.384  28.351  1.00  0.00     0.008 C 
ATOM     19  C   UNL     1     -13.842 -16.100  26.524  1.00  0.00     0.008 C 
ENDBRANCH  12  17
ENDBRANCH  11  12
ENDBRANCH   1  11
TORSDOF 1
ENDMDL
MODEL 7
REMARK VINA RESULT:    -3.884      2.179      4.114
REMARK INTER + INTRA:          -5.892
REMARK INTER:                  -5.809
REMARK INTRA:                  -0.083
REMARK UNBOUND:                 0.035
REMARK SMILES CC1=CCC[C@@H](C)C(=O)C[C@H](C(C)C)C(=O)C1
REMARK SMILES IDX 8 1 9 2 6 3 7 4 5 5 4 6 3 7 2 8 1 9 10 11 11 12 15 13 16 14
REMARK SMILES IDX 17 15 12 17 13 18 14 19
REMARK H PARENT
REMARK Flexibility Score: 70.00
ROOT
ATOM      1  C   UNL     1     -12.407 -19.278  29.507  1.00  0.00     0.136 C 
ATOM      2  O   UNL     1     -13.113 -20.065  28.891  1.00  0.00    -0.299 OA
ENDROOT
BRANCH   1   3
ATOM      3  C   UNL     1     -12.356 -19.334  31.020  1.00  0.00     0.053 C 
ATOM      4  C   UNL     1     -12.078 -20.775  31.461  1.00  0.00     0.016 C 
BRANCH   3   5
ATOM      5  C   UNL     1     -13.651 -18.811  31.685  1.00  0.00     0.015 C 
BRANCH   5   6
ATOM      6  C   UNL     1     -13.453 -17.517  32.495  1.00  0.00     0.028 C 
BRANCH   6   7
ATOM      7  C   UNL     1     -11.992 -17.143  32.592  1.00  0.00    -0.028 C 
ATOM      8  C   UNL     1     -11.360 -16.239  31.811  1.00  0.00    -0.070 CG0
ATOM      9  C   UNL     1      -9.890 -16.000  32.051  1.00  0.00     0.039 C 
ATOM     10  G   UNL     1     -12.061 -15.460  30.713  1.00  0.00     0.000 G0
ENDBRANCH   6   7
ENDBRANCH   5   6
ENDBRANCH   3   5
ENDBRANCH   1   3
BRANCH   1  11
ATOM     11  C   UNL     1     -11.544 -18.305  28.740  1.00  0.00     0.087 C 
BRANCH  11  12
ATOM     12  C   UNL     1     -12.257 -16.951  28.521  1.00  0.00     0.066 C 
BRANCH  12  13
ATOM     13  C   UNL     1     -11.582 -15.851  29.327  1.00  0.00     0.140 C 
ATOM     14  O   UNL     1     -10.638 -15.240  28.850  1.00  0.00    -0.299 OA
BRANCH  13  15
ATOM     15  C   UNL     1     -12.064 -15.478  30.708  1.00  0.00     0.106 CG0
ATOM     16  G   UNL     1     -11.344 -16.249  31.798  1.00  0.00     0.000 G0
ENDBRANCH  13  15
ENDBRANCH  12  13
BRANCH  12  17
ATOM     17  C   UNL     1     -12.394 -16.598  27.009  1.00  0.00    -0.006 C 
ATOM     18  C   UNL     1     -13.812 -16.787  26.439  1.00  0.00     0.008 C 
ATOM     19  C   UNL     1     -11.379 -17.377  26.159  1.00  0.00     0.008 C 
ENDBRANCH  12  17
ENDBRANCH  11  12
ENDBRANCH   1  11
TORSDOF 1
ENDMDL
MODEL 8
REMARK VINA RESULT:    -3.864      1.658      3.869
REMARK INTER + INTRA:          -5.862
REMARK INTER:                  -7.043
REMARK INTRA:                   1.181
REMARK UNBOUND:                 0.035
REMARK SMILES CC1=CCC[C@@H](C)C(=O)C[C@H](C(C)C)C(=O)C1
REMARK SMILES IDX 8 1 9 2 6 3 7 4 5 5 4 6 3 7 2 8 1 9 10 11 11 12 15 13 16 14
REMARK SMILES IDX 17 15 12 17 13 18 14 19
REMARK H PARENT
REMARK Flexibility Score: 70.00
ROOT
ATOM      1  C   UNL     1     -13.193 -16.612  32.065  1.00  0.00     0.136 C 
ATOM      2  O   UNL     1     -14.054 -17.319  32.571  1.00  0.00    -0.299 OA
ENDROOT
BRANCH   1   3
ATOM      3  C   UNL     1     -11.866 -16.417  32.770  1.00  0.00     0.053 C 
ATOM      4  C   UNL     1     -11.922 -15.129  33.600  1.00  0.00     0.016 C 
BRANCH   3   5
ATOM      5  C   UNL     1     -10.668 -16.370  31.793  1.00  0.00     0.015 C 
BRANCH   5   6
ATOM      6  C   UNL     1      -9.902 -17.702  31.686  1.00  0.00     0.028 C 
BRANCH   6   7
ATOM      7  C   UNL     1     -10.793 -18.879  32.010  1.00  0.00    -0.028 C 
ATOM      8  C   UNL     1     -11.606 -19.512  31.136  1.00  0.00    -0.070 CG0
ATOM      9  C   UNL     1     -12.429 -20.669  31.644  1.00  0.00     0.039 C 
ATOM     10  G   UNL     1     -11.723 -19.113  29.677  1.00  0.00     0.000 G0
ENDBRANCH   6   7
ENDBRANCH   5   6
ENDBRANCH   3   5
ENDBRANCH   1   3
BRANCH   1  11
ATOM     11  C   UNL     1     -13.445 -15.999  30.709  1.00  0.00     0.087 C 
BRANCH  11  12
ATOM     12  C   UNL     1     -12.536 -16.614  29.621  1.00  0.00     0.066 C 
BRANCH  12  13
ATOM     13  C   UNL     1     -12.820 -18.100  29.458  1.00  0.00     0.140 C 
ATOM     14  O   UNL     1     -13.937 -18.473  29.131  1.00  0.00    -0.299 OA
BRANCH  13  15
ATOM     15  C   UNL     1     -11.745 -19.136  29.677  1.00  0.00     0.106 CG0
ATOM     16  G   UNL     1     -11.603 -19.522  31.137  1.00  0.00     0.000 G0
ENDBRANCH  13  15
ENDBRANCH  12  13
BRANCH  12  17
ATOM     17  C   UNL     1     -12.618 -15.830  28.275  1.00  0.00    -0.006 C 
ATOM     18  C   UNL     1     -13.639 -14.679  28.273  1.00  0.00     0.008 C 
ATOM     19  C   UNL     1     -12.891 -16.775  27.095  1.00  0.00     0.008 C 
ENDBRANCH  12  17
ENDBRANCH  11  12
ENDBRANCH   1  11
TORSDOF 1
ENDMDL
MODEL 9
REMARK VINA RESULT:    -3.836      2.391      4.111
REMARK INTER + INTRA:          -5.820
REMARK INTER:                  -6.060
REMARK INTRA:                   0.240
REMARK UNBOUND:                 0.035
REMARK SMILES CC1=CCC[C@@H](C)C(=O)C[C@H](C(C)C)C(=O)C1
REMARK SMILES IDX 8 1 9 2 6 3 7 4 5 5 4 6 3 7 2 8 1 9 10 11 11 12 15 13 16 14
REMARK SMILES IDX 17 15 12 17 13 18 14 19
REMARK H PARENT
REMARK Flexibility Score: 70.00
ROOT
ATOM      1  C   UNL     1     -13.348 -18.026  31.987  1.00  0.00     0.136 C 
ATOM      2  O   UNL     1     -14.015 -17.760  32.979  1.00  0.00    -0.299 OA
ENDROOT
BRANCH   1   3
ATOM      3  C   UNL     1     -13.352 -19.435  31.430  1.00  0.00     0.053 C 
ATOM      4  C   UNL     1     -11.955 -20.044  31.592  1.00  0.00     0.016 C 
BRANCH   3   5
ATOM      5  C   UNL     1     -13.793 -19.494  29.948  1.00  0.00     0.015 C 
BRANCH   5   6
ATOM      6  C   UNL     1     -12.620 -19.606  28.957  1.00  0.00     0.028 C 
BRANCH   6   7
ATOM      7  C   UNL     1     -12.607 -18.451  27.983  1.00  0.00    -0.028 C 
ATOM      8  C   UNL     1     -11.620 -17.534  27.867  1.00  0.00    -0.070 CG0
ATOM      9  C   UNL     1     -11.785 -16.444  26.837  1.00  0.00     0.039 C 
ATOM     10  G   UNL     1     -10.365 -17.555  28.719  1.00  0.00     0.000 G0
ENDBRANCH   6   7
ENDBRANCH   5   6
ENDBRANCH   3   5
ENDBRANCH   1   3
BRANCH   1  11
ATOM     11  C   UNL     1     -12.583 -16.924  31.295  1.00  0.00     0.087 C 
BRANCH  11  12
ATOM     12  C   UNL     1     -11.067 -17.221  31.239  1.00  0.00     0.066 C 
BRANCH  12  13
ATOM     13  C   UNL     1     -10.463 -16.698  29.944  1.00  0.00     0.140 C 
ATOM     14  O   UNL     1     -10.034 -15.554  29.894  1.00  0.00    -0.299 OA
BRANCH  13  15
ATOM     15  C   UNL     1     -10.362 -17.565  28.714  1.00  0.00     0.106 CG0
ATOM     16  G   UNL     1     -11.627 -17.528  27.877  1.00  0.00     0.000 G0
ENDBRANCH  13  15
ENDBRANCH  12  13
BRANCH  12  17
ATOM     17  C   UNL     1     -10.321 -16.709  32.508  1.00  0.00    -0.006 C 
ATOM     18  C   UNL     1      -9.880 -17.821  33.477  1.00  0.00     0.008 C 
ATOM     19  C   UNL     1     -11.153 -15.658  33.259  1.00  0.00     0.008 C 
ENDBRANCH  12  17
ENDBRANCH  11  12
ENDBRANCH   1  11
TORSDOF 1
ENDMDL
