MODEL 1
REMARK VINA RESULT:    -4.320      0.000      0.000
REMARK INTER + INTRA:          -6.916
REMARK INTER:                  -6.594
REMARK INTRA:                  -0.322
REMARK UNBOUND:                -0.322
REMARK SMILES O=C([O-])CCCCCCCCC(=O)[O-]
REMARK SMILES IDX 7 1 6 2 5 3 4 4 2 5 1 6 3 7 8 8 9 9 10 10 11 11 12 12 13 13
REMARK SMILES IDX 14 14
REMARK H PARENT
REMARK Flexibility Score: inf
ROOT
ATOM      1  C   UNL     1     300.617 324.353 647.879  1.00  0.00     0.000 C 
ENDROOT
BRANCH   1   2
ATOM      2  C   UNL     1     299.343 323.888 647.156  1.00  0.00     0.000 C 
BRANCH   2   3
ATOM      3  C   UNL     1     299.021 324.736 645.914  1.00  0.00     0.006 C 
BRANCH   3   4
ATOM      4  C   UNL     1     298.987 326.238 646.233  1.00  0.00     0.053 C 
BRANCH   4   5
ATOM      5  C   UNL     1     300.076 326.982 645.523  1.00  0.00     0.041 C 
ATOM      6  O   UNL     1     300.091 328.241 645.526  1.00  0.00    -0.550 OA
ATOM      7  O   UNL     1     301.092 326.284 644.882  1.00  0.00    -0.550 OA
ENDBRANCH   4   5
ENDBRANCH   3   4
ENDBRANCH   2   3
ENDBRANCH   1   2
BRANCH   1   8
ATOM      8  C   UNL     1     301.854 323.526 647.490  1.00  0.00     0.000 C 
BRANCH   8   9
ATOM      9  C   UNL     1     303.120 323.964 648.245  1.00  0.00     0.000 C 
BRANCH   9  10
ATOM     10  C   UNL     1     304.052 322.785 648.574  1.00  0.00     0.006 C 
BRANCH  10  11
ATOM     11  C   UNL     1     304.808 322.996 649.893  1.00  0.00     0.053 C 
BRANCH  11  12
ATOM     12  C   UNL     1     305.319 321.704 650.454  1.00  0.00     0.041 C 
ATOM     13  O   UNL     1     306.185 321.708 651.368  1.00  0.00    -0.550 OA
ATOM     14  O   UNL     1     304.861 320.496 649.946  1.00  0.00    -0.550 OA
ENDBRANCH  11  12
ENDBRANCH  10  11
ENDBRANCH   9  10
ENDBRANCH   8   9
ENDBRANCH   1   8
TORSDOF 9
ENDMDL
MODEL 2
REMARK VINA RESULT:    -4.170      1.280      1.772
REMARK INTER + INTRA:          -6.686
REMARK INTER:                  -6.331
REMARK INTRA:                  -0.355
REMARK UNBOUND:                -0.322
REMARK SMILES O=C([O-])CCCCCCCCC(=O)[O-]
REMARK SMILES IDX 7 1 6 2 5 3 4 4 2 5 1 6 3 7 8 8 9 9 10 10 11 11 12 12 13 13
REMARK SMILES IDX 14 14
REMARK H PARENT
REMARK Flexibility Score: inf
ROOT
ATOM      1  C   UNL     1     301.885 324.573 647.567  1.00  0.00     0.000 C 
ENDROOT
BRANCH   1   2
ATOM      2  C   UNL     1     300.621 323.700 647.494  1.00  0.00     0.000 C 
BRANCH   2   3
ATOM      3  C   UNL     1     299.357 324.514 647.170  1.00  0.00     0.006 C 
BRANCH   3   4
ATOM      4  C   UNL     1     298.924 324.352 645.706  1.00  0.00     0.053 C 
BRANCH   4   5
ATOM      5  C   UNL     1     299.429 325.472 644.850  1.00  0.00     0.041 C 
ATOM      6  O   UNL     1     300.129 325.227 643.832  1.00  0.00    -0.550 OA
ATOM      7  O   UNL     1     299.104 326.786 645.160  1.00  0.00    -0.550 OA
ENDBRANCH   4   5
ENDBRANCH   3   4
ENDBRANCH   2   3
ENDBRANCH   1   2
BRANCH   1   8
ATOM      8  C   UNL     1     303.019 323.906 648.365  1.00  0.00     0.000 C 
BRANCH   8   9
ATOM      9  C   UNL     1     303.471 322.572 647.747  1.00  0.00     0.000 C 
BRANCH   9  10
ATOM     10  C   UNL     1     304.463 321.810 648.642  1.00  0.00     0.006 C 
BRANCH  10  11
ATOM     11  C   UNL     1     304.976 322.673 649.803  1.00  0.00     0.053 C 
BRANCH  11  12
ATOM     12  C   UNL     1     306.211 322.095 650.423  1.00  0.00     0.041 C 
ATOM     13  O   UNL     1     306.206 321.734 651.629  1.00  0.00    -0.550 OA
ATOM     14  O   UNL     1     307.376 321.981 649.676  1.00  0.00    -0.550 OA
ENDBRANCH  11  12
ENDBRANCH  10  11
ENDBRANCH   9  10
ENDBRANCH   8   9
ENDBRANCH   1   8
TORSDOF 9
ENDMDL
MODEL 3
REMARK VINA RESULT:    -4.170      1.253      7.582
REMARK INTER + INTRA:          -6.686
REMARK INTER:                  -6.295
REMARK INTRA:                  -0.390
REMARK UNBOUND:                -0.322
REMARK SMILES O=C([O-])CCCCCCCCC(=O)[O-]
REMARK SMILES IDX 7 1 6 2 5 3 4 4 2 5 1 6 3 7 8 8 9 9 10 10 11 11 12 12 13 13
REMARK SMILES IDX 14 14
REMARK H PARENT
REMARK Flexibility Score: inf
ROOT
ATOM      1  C   UNL     1     302.996 323.966 648.246  1.00  0.00     0.000 C 
ENDROOT
BRANCH   1   2
ATOM      2  C   UNL     1     303.683 322.884 647.397  1.00  0.00     0.000 C 
BRANCH   2   3
ATOM      3  C   UNL     1     304.621 321.988 648.224  1.00  0.00     0.006 C 
BRANCH   3   4
ATOM      4  C   UNL     1     305.023 322.642 649.553  1.00  0.00     0.053 C 
BRANCH   4   5
ATOM      5  C   UNL     1     306.117 321.882 650.238  1.00  0.00     0.041 C 
ATOM      6  O   UNL     1     307.056 321.377 649.567  1.00  0.00    -0.550 OA
ATOM      7  O   UNL     1     306.115 321.756 651.621  1.00  0.00    -0.550 OA
ENDBRANCH   4   5
ENDBRANCH   3   4
ENDBRANCH   2   3
ENDBRANCH   1   2
BRANCH   1   8
ATOM      8  C   UNL     1     301.759 324.564 647.554  1.00  0.00     0.000 C 
BRANCH   8   9
ATOM      9  C   UNL     1     300.577 323.583 647.505  1.00  0.00     0.000 C 
BRANCH   9  10
ATOM     10  C   UNL     1     299.249 324.271 647.143  1.00  0.00     0.006 C 
BRANCH  10  11
ATOM     11  C   UNL     1     299.091 324.460 645.627  1.00  0.00     0.053 C 
BRANCH  11  12
ATOM     12  C   UNL     1     299.055 325.909 645.249  1.00  0.00     0.041 C 
ATOM     13  O   UNL     1     298.875 326.248 644.050  1.00  0.00    -0.550 OA
ATOM     14  O   UNL     1     299.249 326.886 646.218  1.00  0.00    -0.550 OA
ENDBRANCH  11  12
ENDBRANCH  10  11
ENDBRANCH   9  10
ENDBRANCH   8   9
ENDBRANCH   1   8
TORSDOF 9
ENDMDL
MODEL 4
REMARK VINA RESULT:    -4.103      0.647      7.532
REMARK INTER + INTRA:          -6.585
REMARK INTER:                  -6.259
REMARK INTRA:                  -0.325
REMARK UNBOUND:                -0.322
REMARK SMILES O=C([O-])CCCCCCCCC(=O)[O-]
REMARK SMILES IDX 7 1 6 2 5 3 4 4 2 5 1 6 3 7 8 8 9 9 10 10 11 11 12 12 13 13
REMARK SMILES IDX 14 14
REMARK H PARENT
REMARK Flexibility Score: inf
ROOT
ATOM      1  C   UNL     1     302.254 324.006 648.228  1.00  0.00     0.000 C 
ENDROOT
BRANCH   1   2
ATOM      2  C   UNL     1     303.616 323.319 648.032  1.00  0.00     0.000 C 
BRANCH   2   3
ATOM      3  C   UNL     1     304.453 323.283 649.321  1.00  0.00     0.006 C 
BRANCH   3   4
ATOM      4  C   UNL     1     305.539 322.198 649.275  1.00  0.00     0.053 C 
BRANCH   4   5
ATOM      5  C   UNL     1     305.555 321.373 650.526  1.00  0.00     0.041 C 
ATOM      6  O   UNL     1     304.965 320.261 650.559  1.00  0.00    -0.550 OA
ATOM      7  O   UNL     1     306.245 321.820 651.645  1.00  0.00    -0.550 OA
ENDBRANCH   4   5
ENDBRANCH   3   4
ENDBRANCH   2   3
ENDBRANCH   1   2
BRANCH   1   8
ATOM      8  C   UNL     1     301.248 323.652 647.120  1.00  0.00     0.000 C 
BRANCH   8   9
ATOM      9  C   UNL     1     299.804 324.031 647.489  1.00  0.00     0.000 C 
BRANCH   9  10
ATOM     10  C   UNL     1     299.128 324.904 646.419  1.00  0.00     0.006 C 
BRANCH  10  11
ATOM     11  C   UNL     1     299.287 326.403 646.710  1.00  0.00     0.053 C 
BRANCH  11  12
ATOM     12  C   UNL     1     300.104 327.090 645.658  1.00  0.00     0.041 C 
ATOM     13  O   UNL     1     300.084 328.345 645.558  1.00  0.00    -0.550 OA
ATOM     14  O   UNL     1     300.866 326.341 644.770  1.00  0.00    -0.550 OA
ENDBRANCH  11  12
ENDBRANCH  10  11
ENDBRANCH   9  10
ENDBRANCH   8   9
ENDBRANCH   1   8
TORSDOF 9
ENDMDL
MODEL 5
REMARK VINA RESULT:    -4.082      1.246      7.732
REMARK INTER + INTRA:          -6.552
REMARK INTER:                  -6.204
REMARK INTRA:                  -0.349
REMARK UNBOUND:                -0.322
REMARK SMILES O=C([O-])CCCCCCCCC(=O)[O-]
REMARK SMILES IDX 7 1 6 2 5 3 4 4 2 5 1 6 3 7 8 8 9 9 10 10 11 11 12 12 13 13
REMARK SMILES IDX 14 14
REMARK H PARENT
REMARK Flexibility Score: inf
ROOT
ATOM      1  C   UNL     1     303.950 323.637 647.292  1.00  0.00     0.000 C 
ENDROOT
BRANCH   1   2
ATOM      2  C   UNL     1     304.257 322.463 648.236  1.00  0.00     0.000 C 
BRANCH   2   3
ATOM      3  C   UNL     1     305.460 322.738 649.154  1.00  0.00     0.006 C 
BRANCH   3   4
ATOM      4  C   UNL     1     305.263 322.148 650.557  1.00  0.00     0.053 C 
BRANCH   4   5
ATOM      5  C   UNL     1     306.055 320.890 650.747  1.00  0.00     0.041 C 
ATOM      6  O   UNL     1     305.960 320.236 651.819  1.00  0.00    -0.550 OA
ATOM      7  O   UNL     1     306.878 320.426 649.729  1.00  0.00    -0.550 OA
ENDBRANCH   4   5
ENDBRANCH   3   4
ENDBRANCH   2   3
ENDBRANCH   1   2
BRANCH   1   8
ATOM      8  C   UNL     1     302.678 324.403 647.694  1.00  0.00     0.000 C 
BRANCH   8   9
ATOM      9  C   UNL     1     301.401 323.566 647.506  1.00  0.00     0.000 C 
BRANCH   9  10
ATOM     10  C   UNL     1     300.118 324.380 647.745  1.00  0.00     0.006 C 
BRANCH  10  11
ATOM     11  C   UNL     1     299.183 324.357 646.528  1.00  0.00     0.053 C 
BRANCH  11  12
ATOM     12  C   UNL     1     299.250 325.636 645.750  1.00  0.00     0.041 C 
ATOM     13  O   UNL     1     298.876 325.668 644.548  1.00  0.00    -0.550 OA
ATOM     14  O   UNL     1     299.752 326.786 646.345  1.00  0.00    -0.550 OA
ENDBRANCH  11  12
ENDBRANCH  10  11
ENDBRANCH   9  10
ENDBRANCH   8   9
ENDBRANCH   1   8
TORSDOF 9
ENDMDL
MODEL 6
REMARK VINA RESULT:    -4.025      1.281      7.277
REMARK INTER + INTRA:          -6.465
REMARK INTER:                  -6.083
REMARK INTRA:                  -0.382
REMARK UNBOUND:                -0.322
REMARK SMILES O=C([O-])CCCCCCCCC(=O)[O-]
REMARK SMILES IDX 7 1 6 2 5 3 4 4 2 5 1 6 3 7 8 8 9 9 10 10 11 11 12 12 13 13
REMARK SMILES IDX 14 14
REMARK H PARENT
REMARK Flexibility Score: inf
ROOT
ATOM      1  C   UNL     1     302.461 324.358 647.429  1.00  0.00     0.000 C 
ENDROOT
BRANCH   1   2
ATOM      2  C   UNL     1     303.468 323.712 648.395  1.00  0.00     0.000 C 
BRANCH   2   3
ATOM      3  C   UNL     1     303.813 322.263 648.010  1.00  0.00     0.006 C 
BRANCH   3   4
ATOM      4  C   UNL     1     305.204 321.848 648.510  1.00  0.00     0.053 C 
BRANCH   4   5
ATOM      5  C   UNL     1     305.152 321.289 649.899  1.00  0.00     0.041 C 
ATOM      6  O   UNL     1     305.435 322.016 650.887  1.00  0.00    -0.550 OA
ATOM      7  O   UNL     1     304.763 319.971 650.104  1.00  0.00    -0.550 OA
ENDBRANCH   4   5
ENDBRANCH   3   4
ENDBRANCH   2   3
ENDBRANCH   1   2
BRANCH   1   8
ATOM      8  C   UNL     1     301.073 323.698 647.494  1.00  0.00     0.000 C 
BRANCH   8   9
ATOM      9  C   UNL     1     299.972 324.680 647.930  1.00  0.00     0.000 C 
BRANCH   9  10
ATOM     10  C   UNL     1     299.239 325.317 646.736  1.00  0.00     0.006 C 
BRANCH  10  11
ATOM     11  C   UNL     1     299.244 324.405 645.501  1.00  0.00     0.053 C 
BRANCH  11  12
ATOM     12  C   UNL     1     299.909 325.060 644.329  1.00  0.00     0.041 C 
ATOM     13  O   UNL     1     300.672 324.396 643.579  1.00  0.00    -0.550 OA
ATOM     14  O   UNL     1     299.709 326.412 644.082  1.00  0.00    -0.550 OA
ENDBRANCH  11  12
ENDBRANCH  10  11
ENDBRANCH   9  10
ENDBRANCH   8   9
ENDBRANCH   1   8
TORSDOF 9
ENDMDL
MODEL 7
REMARK VINA RESULT:    -4.002      1.900      6.813
REMARK INTER + INTRA:          -6.430
REMARK INTER:                  -5.840
REMARK INTRA:                  -0.590
REMARK UNBOUND:                -0.322
REMARK SMILES O=C([O-])CCCCCCCCC(=O)[O-]
REMARK SMILES IDX 7 1 6 2 5 3 4 4 2 5 1 6 3 7 8 8 9 9 10 10 11 11 12 12 13 13
REMARK SMILES IDX 14 14
REMARK H PARENT
REMARK Flexibility Score: inf
ROOT
ATOM      1  C   UNL     1     303.020 324.345 646.847  1.00  0.00     0.000 C 
ENDROOT
BRANCH   1   2
ATOM      2  C   UNL     1     302.739 323.169 647.797  1.00  0.00     0.000 C 
BRANCH   2   3
ATOM      3  C   UNL     1     304.009 322.379 648.156  1.00  0.00     0.006 C 
BRANCH   3   4
ATOM      4  C   UNL     1     304.661 322.889 649.449  1.00  0.00     0.053 C 
BRANCH   4   5
ATOM      5  C   UNL     1     305.326 321.782 650.210  1.00  0.00     0.041 C 
ATOM      6  O   UNL     1     304.874 320.609 650.148  1.00  0.00    -0.550 OA
ATOM      7  O   UNL     1     306.462 322.043 650.965  1.00  0.00    -0.550 OA
ENDBRANCH   4   5
ENDBRANCH   3   4
ENDBRANCH   2   3
ENDBRANCH   1   2
BRANCH   1   8
ATOM      8  C   UNL     1     302.597 324.048 645.398  1.00  0.00     0.000 C 
BRANCH   8   9
ATOM      9  C   UNL     1     301.488 324.990 644.902  1.00  0.00     0.000 C 
BRANCH   9  10
ATOM     10  C   UNL     1     300.133 324.279 644.739  1.00  0.00     0.006 C 
BRANCH  10  11
ATOM     11  C   UNL     1     299.049 324.887 645.640  1.00  0.00     0.053 C 
BRANCH  11  12
ATOM     12  C   UNL     1     299.302 324.597 647.088  1.00  0.00     0.041 C 
ATOM     13  O   UNL     1     299.752 325.496 647.847  1.00  0.00    -0.550 OA
ATOM     14  O   UNL     1     299.067 323.325 647.593  1.00  0.00    -0.550 OA
ENDBRANCH  11  12
ENDBRANCH  10  11
ENDBRANCH   9  10
ENDBRANCH   8   9
ENDBRANCH   1   8
TORSDOF 9
ENDMDL
MODEL 8
REMARK VINA RESULT:    -3.827      2.514      3.394
REMARK INTER + INTRA:          -6.163
REMARK INTER:                  -5.394
REMARK INTRA:                  -0.769
REMARK UNBOUND:                -0.322
REMARK SMILES O=C([O-])CCCCCCCCC(=O)[O-]
REMARK SMILES IDX 7 1 6 2 5 3 4 4 2 5 1 6 3 7 8 8 9 9 10 10 11 11 12 12 13 13
REMARK SMILES IDX 14 14
REMARK H PARENT
REMARK Flexibility Score: inf
ROOT
ATOM      1  C   UNL     1     299.303 325.281 646.647  1.00  0.00     0.000 C 
ENDROOT
BRANCH   1   2
ATOM      2  C   UNL     1     299.234 324.447 645.357  1.00  0.00     0.000 C 
BRANCH   2   3
ATOM      3  C   UNL     1     300.158 324.986 644.252  1.00  0.00     0.006 C 
BRANCH   3   4
ATOM      4  C   UNL     1     301.374 324.079 644.020  1.00  0.00     0.053 C 
BRANCH   4   5
ATOM      5  C   UNL     1     301.471 323.631 642.594  1.00  0.00     0.041 C 
ATOM      6  O   UNL     1     300.793 324.205 641.701  1.00  0.00    -0.550 OA
ATOM      7  O   UNL     1     302.333 322.599 642.246  1.00  0.00    -0.550 OA
ENDBRANCH   4   5
ENDBRANCH   3   4
ENDBRANCH   2   3
ENDBRANCH   1   2
BRANCH   1   8
ATOM      8  C   UNL     1     299.653 324.434 647.882  1.00  0.00     0.000 C 
BRANCH   8   9
ATOM      9  C   UNL     1     300.949 323.626 647.696  1.00  0.00     0.000 C 
BRANCH   9  10
ATOM     10  C   UNL     1     302.213 324.477 647.903  1.00  0.00     0.006 C 
BRANCH  10  11
ATOM     11  C   UNL     1     303.450 323.843 647.252  1.00  0.00     0.053 C 
BRANCH  11  12
ATOM     12  C   UNL     1     304.152 322.905 648.186  1.00  0.00     0.041 C 
ATOM     13  O   UNL     1     304.487 321.755 647.799  1.00  0.00    -0.550 OA
ATOM     14  O   UNL     1     304.410 323.293 649.495  1.00  0.00    -0.550 OA
ENDBRANCH  11  12
ENDBRANCH  10  11
ENDBRANCH   9  10
ENDBRANCH   8   9
ENDBRANCH   1   8
TORSDOF 9
ENDMDL
MODEL 9
REMARK VINA RESULT:    -3.362      1.494      6.747
REMARK INTER + INTRA:          -5.453
REMARK INTER:                  -4.825
REMARK INTRA:                  -0.628
REMARK UNBOUND:                -0.322
REMARK SMILES O=C([O-])CCCCCCCCC(=O)[O-]
REMARK SMILES IDX 7 1 6 2 5 3 4 4 2 5 1 6 3 7 8 8 9 9 10 10 11 11 12 12 13 13
REMARK SMILES IDX 14 14
REMARK H PARENT
REMARK Flexibility Score: inf
ROOT
ATOM      1  C   UNL     1     300.628 324.686 647.845  1.00  0.00     0.000 C 
ENDROOT
BRANCH   1   2
ATOM      2  C   UNL     1     301.871 324.218 647.070  1.00  0.00     0.000 C 
BRANCH   2   3
ATOM      3  C   UNL     1     303.162 324.899 647.554  1.00  0.00     0.006 C 
BRANCH   3   4
ATOM      4  C   UNL     1     304.375 323.960 647.476  1.00  0.00     0.053 C 
BRANCH   4   5
ATOM      5  C   UNL     1     304.353 322.933 648.566  1.00  0.00     0.041 C 
ATOM      6  O   UNL     1     304.501 323.279 649.768  1.00  0.00    -0.550 OA
ATOM      7  O   UNL     1     304.141 321.595 648.257  1.00  0.00    -0.550 OA
ENDBRANCH   4   5
ENDBRANCH   3   4
ENDBRANCH   2   3
ENDBRANCH   1   2
BRANCH   1   8
ATOM      8  C   UNL     1     299.343 323.974 647.388  1.00  0.00     0.000 C 
BRANCH   8   9
ATOM      9  C   UNL     1     298.906 324.393 645.974  1.00  0.00     0.000 C 
BRANCH   9  10
ATOM     10  C   UNL     1     298.875 325.920 645.791  1.00  0.00     0.006 C 
BRANCH  10  11
ATOM     11  C   UNL     1     299.040 326.330 644.321  1.00  0.00     0.053 C 
BRANCH  11  12
ATOM     12  C   UNL     1     300.459 326.192 643.861  1.00  0.00     0.041 C 
ATOM     13  O   UNL     1     301.394 326.713 644.523  1.00  0.00    -0.550 OA
ATOM     14  O   UNL     1     300.745 325.510 642.685  1.00  0.00    -0.550 OA
ENDBRANCH  11  12
ENDBRANCH  10  11
ENDBRANCH   9  10
ENDBRANCH   8   9
ENDBRANCH   1   8
TORSDOF 9
ENDMDL
