MODEL 1
REMARK VINA RESULT:    -4.713      0.000      0.000
REMARK INTER + INTRA:          -8.336
REMARK INTER:                  -7.467
REMARK INTRA:                  -0.868
REMARK UNBOUND:                -0.868
REMARK SMILES CCCCCCCCCCCC(=O)[O-]
REMARK SMILES IDX 7 1 8 2 9 3 10 4 11 5 12 6 13 7 14 8 6 9 5 10 4 11 3 12 2 13
REMARK SMILES IDX 1 14
REMARK H PARENT
REMARK Flexibility Score: inf
ROOT
ATOM      1  C   UNL     1      10.990 -15.400  15.251  1.00  0.00     0.000 C 
ENDROOT
BRANCH   1   2
ATOM      2  C   UNL     1      11.371 -16.189  13.984  1.00  0.00     0.000 C 
BRANCH   2   3
ATOM      3  C   UNL     1      12.623 -15.678  13.251  1.00  0.00     0.000 C 
BRANCH   3   4
ATOM      4  C   UNL     1      13.623 -16.796  12.921  1.00  0.00     0.006 C 
BRANCH   4   5
ATOM      5  C   UNL     1      13.626 -17.869  14.014  1.00  0.00     0.053 C 
BRANCH   5   6
ATOM      6  C   UNL     1      14.847 -17.743  14.869  1.00  0.00     0.041 C 
ATOM      7  O   UNL     1      14.737 -17.654  16.120  1.00  0.00    -0.550 OA
ATOM      8  O   UNL     1      16.108 -17.775  14.289  1.00  0.00    -0.550 OA
ENDBRANCH   5   6
ENDBRANCH   4   5
ENDBRANCH   3   4
ENDBRANCH   2   3
ENDBRANCH   1   2
BRANCH   1   9
ATOM      9  C   UNL     1      12.181 -15.173  16.195  1.00  0.00     0.000 C 
BRANCH   9  10
ATOM     10  C   UNL     1      12.062 -13.817  16.909  1.00  0.00    -0.000 C 
BRANCH  10  11
ATOM     11  C   UNL     1      11.362 -12.751  16.051  1.00  0.00    -0.000 C 
BRANCH  11  12
ATOM     12  C   UNL     1      12.325 -12.054  15.074  1.00  0.00    -0.000 C 
BRANCH  12  13
ATOM     13  C   UNL     1      12.381 -10.533  15.289  1.00  0.00    -0.003 C 
ATOM     14  C   UNL     1      11.000  -9.878  15.256  1.00  0.00     0.004 C 
ENDBRANCH  12  13
ENDBRANCH  11  12
ENDBRANCH  10  11
ENDBRANCH   9  10
ENDBRANCH   1   9
TORSDOF 10
ENDMDL
MODEL 2
REMARK VINA RESULT:    -4.611      3.206      6.046
REMARK INTER + INTRA:          -8.175
REMARK INTER:                  -6.981
REMARK INTRA:                  -1.194
REMARK UNBOUND:                -0.868
REMARK SMILES CCCCCCCCCCCC(=O)[O-]
REMARK SMILES IDX 7 1 8 2 9 3 10 4 11 5 12 6 13 7 14 8 6 9 5 10 4 11 3 12 2 13
REMARK SMILES IDX 1 14
REMARK H PARENT
REMARK Flexibility Score: inf
ROOT
ATOM      1  C   UNL     1      11.118 -15.169  13.557  1.00  0.00     0.000 C 
ENDROOT
BRANCH   1   2
ATOM      2  C   UNL     1      11.112 -15.570  15.043  1.00  0.00     0.000 C 
BRANCH   2   3
ATOM      3  C   UNL     1      11.800 -14.570  15.990  1.00  0.00     0.000 C 
BRANCH   3   4
ATOM      4  C   UNL     1      12.173 -13.251  15.300  1.00  0.00     0.006 C 
BRANCH   4   5
ATOM      5  C   UNL     1      11.249 -12.116  15.749  1.00  0.00     0.053 C 
BRANCH   5   6
ATOM      6  C   UNL     1      11.792 -10.792  15.311  1.00  0.00     0.041 C 
ATOM      7  O   UNL     1      13.008 -10.677  15.003  1.00  0.00    -0.550 OA
ATOM      8  O   UNL     1      10.946  -9.697  15.195  1.00  0.00    -0.550 OA
ENDBRANCH   5   6
ENDBRANCH   4   5
ENDBRANCH   3   4
ENDBRANCH   2   3
ENDBRANCH   1   2
BRANCH   1   9
ATOM      9  C   UNL     1      11.350 -16.361  12.616  1.00  0.00     0.000 C 
BRANCH   9  10
ATOM     10  C   UNL     1      12.750 -16.296  11.985  1.00  0.00    -0.000 C 
BRANCH  10  11
ATOM     11  C   UNL     1      13.726 -17.316  12.595  1.00  0.00    -0.000 C 
BRANCH  11  12
ATOM     12  C   UNL     1      14.903 -16.645  13.324  1.00  0.00    -0.000 C 
BRANCH  12  13
ATOM     13  C   UNL     1      14.780 -16.744  14.852  1.00  0.00    -0.003 C 
ATOM     14  C   UNL     1      13.891 -17.902  15.302  1.00  0.00     0.004 C 
ENDBRANCH  12  13
ENDBRANCH  11  12
ENDBRANCH  10  11
ENDBRANCH   9  10
ENDBRANCH   1   9
TORSDOF 10
ENDMDL
MODEL 3
REMARK VINA RESULT:    -4.590      1.355      1.909
REMARK INTER + INTRA:          -8.142
REMARK INTER:                  -7.564
REMARK INTRA:                  -0.578
REMARK UNBOUND:                -0.868
REMARK SMILES CCCCCCCCCCCC(=O)[O-]
REMARK SMILES IDX 7 1 8 2 9 3 10 4 11 5 12 6 13 7 14 8 6 9 5 10 4 11 3 12 2 13
REMARK SMILES IDX 1 14
REMARK H PARENT
REMARK Flexibility Score: inf
ROOT
ATOM      1  C   UNL     1      11.329 -15.077  15.775  1.00  0.00     0.000 C 
ENDROOT
BRANCH   1   2
ATOM      2  C   UNL     1      11.402 -15.874  14.459  1.00  0.00     0.000 C 
BRANCH   2   3
ATOM      3  C   UNL     1      12.639 -16.778  14.313  1.00  0.00     0.000 C 
BRANCH   3   4
ATOM      4  C   UNL     1      13.441 -16.911  15.616  1.00  0.00     0.006 C 
BRANCH   4   5
ATOM      5  C   UNL     1      14.796 -17.577  15.360  1.00  0.00     0.053 C 
BRANCH   5   6
ATOM      6  C   UNL     1      15.462 -16.968  14.166  1.00  0.00     0.041 C 
ATOM      7  O   UNL     1      15.566 -17.623  13.096  1.00  0.00    -0.550 OA
ATOM      8  O   UNL     1      15.925 -15.660  14.220  1.00  0.00    -0.550 OA
ENDBRANCH   5   6
ENDBRANCH   4   5
ENDBRANCH   3   4
ENDBRANCH   2   3
ENDBRANCH   1   2
BRANCH   1   9
ATOM      9  C   UNL     1      11.338 -13.557  15.555  1.00  0.00     0.000 C 
BRANCH   9  10
ATOM     10  C   UNL     1      12.775 -13.037  15.389  1.00  0.00    -0.000 C 
BRANCH  10  11
ATOM     11  C   UNL     1      12.831 -11.535  15.067  1.00  0.00    -0.000 C 
BRANCH  11  12
ATOM     12  C   UNL     1      11.478 -10.833  15.283  1.00  0.00    -0.000 C 
BRANCH  12  13
ATOM     13  C   UNL     1      11.614  -9.304  15.356  1.00  0.00    -0.003 C 
ATOM     14  C   UNL     1      13.060  -8.830  15.213  1.00  0.00     0.004 C 
ENDBRANCH  12  13
ENDBRANCH  11  12
ENDBRANCH  10  11
ENDBRANCH   9  10
ENDBRANCH   1   9
TORSDOF 10
ENDMDL
MODEL 4
REMARK VINA RESULT:    -4.454      2.847      5.297
REMARK INTER + INTRA:          -7.925
REMARK INTER:                  -6.553
REMARK INTRA:                  -1.373
REMARK UNBOUND:                -0.868
REMARK SMILES CCCCCCCCCCCC(=O)[O-]
REMARK SMILES IDX 7 1 8 2 9 3 10 4 11 5 12 6 13 7 14 8 6 9 5 10 4 11 3 12 2 13
REMARK SMILES IDX 1 14
REMARK H PARENT
REMARK Flexibility Score: inf
ROOT
ATOM      1  C   UNL     1      15.765 -17.602  14.409  1.00  0.00     0.000 C 
ENDROOT
BRANCH   1   2
ATOM      2  C   UNL     1      14.514 -17.820  15.280  1.00  0.00     0.000 C 
BRANCH   2   3
ATOM      3  C   UNL     1      14.065 -16.593  16.093  1.00  0.00     0.000 C 
BRANCH   3   4
ATOM      4  C   UNL     1      12.718 -16.024  15.625  1.00  0.00     0.006 C 
BRANCH   4   5
ATOM      5  C   UNL     1      12.815 -14.515  15.381  1.00  0.00     0.053 C 
BRANCH   5   6
ATOM      6  C   UNL     1      11.993 -13.768  16.383  1.00  0.00     0.041 C 
ATOM      7  O   UNL     1      11.970 -14.139  17.586  1.00  0.00    -0.550 OA
ATOM      8  O   UNL     1      11.292 -12.632  16.000  1.00  0.00    -0.550 OA
ENDBRANCH   5   6
ENDBRANCH   4   5
ENDBRANCH   3   4
ENDBRANCH   2   3
ENDBRANCH   1   2
BRANCH   1   9
ATOM      9  C   UNL     1      15.434 -17.433  12.918  1.00  0.00     0.000 C 
BRANCH   9  10
ATOM     10  C   UNL     1      15.313 -15.946  12.550  1.00  0.00    -0.000 C 
BRANCH  10  11
ATOM     11  C   UNL     1      13.991 -15.614  11.840  1.00  0.00    -0.000 C 
BRANCH  11  12
ATOM     12  C   UNL     1      12.942 -16.730  11.993  1.00  0.00    -0.000 C 
BRANCH  12  13
ATOM     13  C   UNL     1      11.558 -16.310  11.475  1.00  0.00    -0.003 C 
ATOM     14  C   UNL     1      10.646 -15.780  12.581  1.00  0.00     0.004 C 
ENDBRANCH  12  13
ENDBRANCH  11  12
ENDBRANCH  10  11
ENDBRANCH   9  10
ENDBRANCH   1   9
TORSDOF 10
ENDMDL
MODEL 5
REMARK VINA RESULT:    -4.448      2.788      5.400
REMARK INTER + INTRA:          -7.917
REMARK INTER:                  -6.912
REMARK INTRA:                  -1.005
REMARK UNBOUND:                -0.868
REMARK SMILES CCCCCCCCCCCC(=O)[O-]
REMARK SMILES IDX 7 1 8 2 9 3 10 4 11 5 12 6 13 7 14 8 6 9 5 10 4 11 3 12 2 13
REMARK SMILES IDX 1 14
REMARK H PARENT
REMARK Flexibility Score: inf
ROOT
ATOM      1  C   UNL     1      14.267 -15.960  15.834  1.00  0.00     0.000 C 
ENDROOT
BRANCH   1   2
ATOM      2  C   UNL     1      13.093 -15.709  16.799  1.00  0.00     0.000 C 
BRANCH   2   3
ATOM      3  C   UNL     1      11.801 -15.202  16.135  1.00  0.00     0.000 C 
BRANCH   3   4
ATOM      4  C   UNL     1      11.635 -13.679  16.232  1.00  0.00     0.006 C 
BRANCH   4   5
ATOM      5  C   UNL     1      11.951 -13.007  14.892  1.00  0.00     0.053 C 
BRANCH   5   6
ATOM      6  C   UNL     1      12.780 -11.780  15.104  1.00  0.00     0.041 C 
ATOM      7  O   UNL     1      14.037 -11.852  15.074  1.00  0.00    -0.550 OA
ATOM      8  O   UNL     1      12.165 -10.548  15.285  1.00  0.00    -0.550 OA
ENDBRANCH   5   6
ENDBRANCH   4   5
ENDBRANCH   3   4
ENDBRANCH   2   3
ENDBRANCH   1   2
BRANCH   1   9
ATOM      9  C   UNL     1      14.411 -17.437  15.437  1.00  0.00     0.000 C 
BRANCH   9  10
ATOM     10  C   UNL     1      13.355 -17.828  14.392  1.00  0.00    -0.000 C 
BRANCH  10  11
ATOM     11  C   UNL     1      13.749 -17.416  12.964  1.00  0.00    -0.000 C 
BRANCH  11  12
ATOM     12  C   UNL     1      13.133 -16.069  12.547  1.00  0.00    -0.000 C 
BRANCH  12  13
ATOM     13  C   UNL     1      11.779 -16.236  11.839  1.00  0.00    -0.003 C 
ATOM     14  C   UNL     1      10.607 -15.723  12.675  1.00  0.00     0.004 C 
ENDBRANCH  12  13
ENDBRANCH  11  12
ENDBRANCH  10  11
ENDBRANCH   9  10
ENDBRANCH   1   9
TORSDOF 10
ENDMDL
MODEL 6
REMARK VINA RESULT:    -4.445      1.253      2.181
REMARK INTER + INTRA:          -7.912
REMARK INTER:                  -6.977
REMARK INTRA:                  -0.935
REMARK UNBOUND:                -0.868
REMARK SMILES CCCCCCCCCCCC(=O)[O-]
REMARK SMILES IDX 7 1 8 2 9 3 10 4 11 5 12 6 13 7 14 8 6 9 5 10 4 11 3 12 2 13
REMARK SMILES IDX 1 14
REMARK H PARENT
REMARK Flexibility Score: inf
ROOT
ATOM      1  C   UNL     1      11.408 -15.929  11.970  1.00  0.00     0.000 C 
ENDROOT
BRANCH   1   2
ATOM      2  C   UNL     1      12.512 -16.909  11.530  1.00  0.00     0.000 C 
BRANCH   2   3
ATOM      3  C   UNL     1      13.948 -16.371  11.656  1.00  0.00     0.000 C 
BRANCH   3   4
ATOM      4  C   UNL     1      14.835 -17.236  12.562  1.00  0.00     0.006 C 
BRANCH   4   5
ATOM      5  C   UNL     1      14.920 -16.645  13.972  1.00  0.00     0.053 C 
BRANCH   5   6
ATOM      6  C   UNL     1      14.359 -17.602  14.977  1.00  0.00     0.041 C 
ATOM      7  O   UNL     1      14.871 -17.688  16.124  1.00  0.00    -0.550 OA
ATOM      8  O   UNL     1      13.241 -18.364  14.662  1.00  0.00    -0.550 OA
ENDBRANCH   5   6
ENDBRANCH   4   5
ENDBRANCH   3   4
ENDBRANCH   2   3
ENDBRANCH   1   2
BRANCH   1   9
ATOM      9  C   UNL     1      11.139 -15.970  13.482  1.00  0.00     0.000 C 
BRANCH   9  10
ATOM     10  C   UNL     1      11.737 -14.737  14.177  1.00  0.00    -0.000 C 
BRANCH  10  11
ATOM     11  C   UNL     1      11.361 -14.652  15.666  1.00  0.00    -0.000 C 
BRANCH  11  12
ATOM     12  C   UNL     1      11.375 -13.208  16.197  1.00  0.00    -0.000 C 
BRANCH  12  13
ATOM     13  C   UNL     1      11.952 -12.213  15.179  1.00  0.00    -0.003 C 
ATOM     14  C   UNL     1      11.358 -10.811  15.318  1.00  0.00     0.004 C 
ENDBRANCH  12  13
ENDBRANCH  11  12
ENDBRANCH  10  11
ENDBRANCH   9  10
ENDBRANCH   1   9
TORSDOF 10
ENDMDL
MODEL 7
REMARK VINA RESULT:    -4.430      2.818      5.461
REMARK INTER + INTRA:          -7.887
REMARK INTER:                  -6.600
REMARK INTRA:                  -1.287
REMARK UNBOUND:                -0.868
REMARK SMILES CCCCCCCCCCCC(=O)[O-]
REMARK SMILES IDX 7 1 8 2 9 3 10 4 11 5 12 6 13 7 14 8 6 9 5 10 4 11 3 12 2 13
REMARK SMILES IDX 1 14
REMARK H PARENT
REMARK Flexibility Score: inf
ROOT
ATOM      1  C   UNL     1      11.368 -16.523  10.849  1.00  0.00     0.000 C 
ENDROOT
BRANCH   1   2
ATOM      2  C   UNL     1      10.683 -15.544  11.821  1.00  0.00     0.000 C 
BRANCH   2   3
ATOM      3  C   UNL     1      10.730 -15.957  13.302  1.00  0.00     0.000 C 
BRANCH   3   4
ATOM      4  C   UNL     1      11.436 -14.923  14.191  1.00  0.00     0.006 C 
BRANCH   4   5
ATOM      5  C   UNL     1      11.173 -15.203  15.673  1.00  0.00     0.053 C 
BRANCH   5   6
ATOM      6  C   UNL     1      12.068 -14.366  16.532  1.00  0.00     0.041 C 
ATOM      7  O   UNL     1      12.737 -13.429  16.024  1.00  0.00    -0.550 OA
ATOM      8  O   UNL     1      12.125 -14.590  17.902  1.00  0.00    -0.550 OA
ENDBRANCH   5   6
ENDBRANCH   4   5
ENDBRANCH   3   4
ENDBRANCH   2   3
ENDBRANCH   1   2
BRANCH   1   9
ATOM      9  C   UNL     1      12.722 -16.008  10.336  1.00  0.00     0.000 C 
BRANCH   9  10
ATOM     10  C   UNL     1      13.882 -16.767  10.997  1.00  0.00    -0.000 C 
BRANCH  10  11
ATOM     11  C   UNL     1      14.456 -16.032  12.219  1.00  0.00    -0.000 C 
BRANCH  11  12
ATOM     12  C   UNL     1      14.964 -16.997  13.305  1.00  0.00    -0.000 C 
BRANCH  12  13
ATOM     13  C   UNL     1      13.827 -17.793  13.963  1.00  0.00    -0.003 C 
ATOM     14  C   UNL     1      13.886 -17.758  15.490  1.00  0.00     0.004 C 
ENDBRANCH  12  13
ENDBRANCH  11  12
ENDBRANCH  10  11
ENDBRANCH   9  10
ENDBRANCH   1   9
TORSDOF 10
ENDMDL
MODEL 8
REMARK VINA RESULT:    -4.419      1.781      2.078
REMARK INTER + INTRA:          -7.870
REMARK INTER:                  -6.933
REMARK INTRA:                  -0.937
REMARK UNBOUND:                -0.868
REMARK SMILES CCCCCCCCCCCC(=O)[O-]
REMARK SMILES IDX 7 1 8 2 9 3 10 4 11 5 12 6 13 7 14 8 6 9 5 10 4 11 3 12 2 13
REMARK SMILES IDX 1 14
REMARK H PARENT
REMARK Flexibility Score: inf
ROOT
ATOM      1  C   UNL     1      11.012 -15.323  13.963  1.00  0.00     0.000 C 
ENDROOT
BRANCH   1   2
ATOM      2  C   UNL     1      11.889 -16.320  13.182  1.00  0.00     0.000 C 
BRANCH   2   3
ATOM      3  C   UNL     1      12.986 -17.011  14.012  1.00  0.00     0.000 C 
BRANCH   3   4
ATOM      4  C   UNL     1      14.240 -17.343  13.190  1.00  0.00     0.006 C 
BRANCH   4   5
ATOM      5  C   UNL     1      15.471 -16.631  13.757  1.00  0.00     0.053 C 
BRANCH   5   6
ATOM      6  C   UNL     1      15.558 -15.234  13.228  1.00  0.00     0.041 C 
ATOM      7  O   UNL     1      16.128 -14.336  13.902  1.00  0.00    -0.550 OA
ATOM      8  O   UNL     1      15.055 -14.935  11.968  1.00  0.00    -0.550 OA
ENDBRANCH   5   6
ENDBRANCH   4   5
ENDBRANCH   3   4
ENDBRANCH   2   3
ENDBRANCH   1   2
BRANCH   1   9
ATOM      9  C   UNL     1      11.278 -15.349  15.476  1.00  0.00     0.000 C 
BRANCH   9  10
ATOM     10  C   UNL     1      11.680 -13.956  15.985  1.00  0.00    -0.000 C 
BRANCH  10  11
ATOM     11  C   UNL     1      12.797 -13.315  15.145  1.00  0.00    -0.000 C 
BRANCH  11  12
ATOM     12  C   UNL     1      12.673 -11.782  15.070  1.00  0.00    -0.000 C 
BRANCH  12  13
ATOM     13  C   UNL     1      11.243 -11.294  15.344  1.00  0.00    -0.003 C 
ATOM     14  C   UNL     1      11.118  -9.771  15.302  1.00  0.00     0.004 C 
ENDBRANCH  12  13
ENDBRANCH  11  12
ENDBRANCH  10  11
ENDBRANCH   9  10
ENDBRANCH   1   9
TORSDOF 10
ENDMDL
MODEL 9
REMARK VINA RESULT:    -4.384      3.617      6.410
REMARK INTER + INTRA:          -7.814
REMARK INTER:                  -7.182
REMARK INTRA:                  -0.632
REMARK UNBOUND:                -0.868
REMARK SMILES CCCCCCCCCCCC(=O)[O-]
REMARK SMILES IDX 7 1 8 2 9 3 10 4 11 5 12 6 13 7 14 8 6 9 5 10 4 11 3 12 2 13
REMARK SMILES IDX 1 14
REMARK H PARENT
REMARK Flexibility Score: inf
ROOT
ATOM      1  C   UNL     1      11.710 -13.561  16.323  1.00  0.00     0.000 C 
ENDROOT
BRANCH   1   2
ATOM      2  C   UNL     1      12.252 -12.557  15.289  1.00  0.00     0.000 C 
BRANCH   2   3
ATOM      3  C   UNL     1      11.504 -11.214  15.232  1.00  0.00     0.000 C 
BRANCH   3   4
ATOM      4  C   UNL     1      12.447 -10.002  15.217  1.00  0.00     0.006 C 
BRANCH   4   5
ATOM      5  C   UNL     1      13.860 -10.413  14.793  1.00  0.00     0.053 C 
BRANCH   5   6
ATOM      6  C   UNL     1      14.587  -9.250  14.196  1.00  0.00     0.041 C 
ATOM      7  O   UNL     1      14.750  -8.194  14.862  1.00  0.00    -0.550 OA
ATOM      8  O   UNL     1      15.129  -9.349  12.920  1.00  0.00    -0.550 OA
ENDBRANCH   5   6
ENDBRANCH   4   5
ENDBRANCH   3   4
ENDBRANCH   2   3
ENDBRANCH   1   2
BRANCH   1   9
ATOM      9  C   UNL     1      11.357 -14.924  15.708  1.00  0.00     0.000 C 
BRANCH   9  10
ATOM     10  C   UNL     1      11.362 -14.849  14.173  1.00  0.00    -0.000 C 
BRANCH  10  11
ATOM     11  C   UNL     1      11.929 -16.118  13.517  1.00  0.00    -0.000 C 
BRANCH  11  12
ATOM     12  C   UNL     1      12.378 -17.167  14.549  1.00  0.00    -0.000 C 
BRANCH  12  13
ATOM     13  C   UNL     1      13.815 -17.655  14.305  1.00  0.00    -0.003 C 
ATOM     14  C   UNL     1      14.653 -17.693  15.582  1.00  0.00     0.004 C 
ENDBRANCH  12  13
ENDBRANCH  11  12
ENDBRANCH  10  11
ENDBRANCH   9  10
ENDBRANCH   1   9
TORSDOF 10
ENDMDL
