MODEL 1
REMARK VINA RESULT:    -3.078      0.000      0.000
REMARK INTER + INTRA:          -3.042
REMARK INTER:                  -3.797
REMARK INTRA:                   0.756
REMARK UNBOUND:                 0.756
REMARK SMILES CC1=CC=CC(C)(C)CC1=O
REMARK SMILES IDX 1 1 2 2 3 3 10 4 11 5 9 6 4 8 5 9 6 10 7 11 8 12
REMARK H PARENT
REMARK Flexibility Score: 80.00
ROOT
ATOM      1  C   UNL     1      48.754  21.766  20.001  1.00  0.00     0.048 C 
ATOM      2  C   UNL     1      49.631  22.994  19.934  1.00  0.00    -0.008 C 
ATOM      3  C   UNL     1      49.778  23.594  18.734  1.00  0.00     0.007 C 
ENDROOT
BRANCH   2   4
ATOM      4  C   UNL     1      50.202  23.486  21.213  1.00  0.00     0.159 C 
ATOM      5  O   UNL     1      49.801  22.976  22.295  1.00  0.00    -0.295 OA
BRANCH   4   6
ATOM      6  C   UNL     1      51.247  24.557  21.294  1.00  0.00     0.091 CG0
ATOM      7  G   UNL     1      50.809  25.886  20.640  1.00  0.00     0.000 G0
ENDBRANCH   4   6
ENDBRANCH   2   4
BRANCH   3   8
ATOM      8  C   UNL     1      50.539  24.810  18.365  1.00  0.00    -0.003 C 
ATOM      9  C   UNL     1      50.975  25.805  19.150  1.00  0.00    -0.020 C 
BRANCH   9  10
ATOM     10  C   UNL     1      50.809  25.904  20.648  1.00  0.00    -0.010 CG0
ATOM     11  C   UNL     1      49.358  26.313  20.992  1.00  0.00     0.016 C 
ATOM     12  C   UNL     1      51.753  27.012  21.168  1.00  0.00     0.016 C 
ATOM     13  G   UNL     1      51.224  24.570  21.307  1.00  0.00     0.000 G0
ENDBRANCH   9  10
ENDBRANCH   3   8
TORSDOF 0
ENDMDL
MODEL 2
REMARK VINA RESULT:    -3.047     12.241     13.641
REMARK INTER + INTRA:          -3.003
REMARK INTER:                  -3.762
REMARK INTRA:                   0.759
REMARK UNBOUND:                 0.756
REMARK SMILES CC1=CC=CC(C)(C)CC1=O
REMARK SMILES IDX 1 1 2 2 3 3 10 4 11 5 9 6 4 8 5 9 6 10 7 11 8 12
REMARK H PARENT
REMARK Flexibility Score: 80.00
ROOT
ATOM      1  C   UNL     1      35.988  32.375  22.466  1.00  0.00     0.048 C 
ATOM      2  C   UNL     1      37.379  32.155  21.921  1.00  0.00    -0.008 C 
ATOM      3  C   UNL     1      37.633  32.579  20.664  1.00  0.00     0.007 C 
ENDROOT
BRANCH   2   4
ATOM      4  C   UNL     1      38.378  31.557  22.842  1.00  0.00     0.159 C 
ATOM      5  O   UNL     1      38.091  31.451  24.066  1.00  0.00    -0.295 OA
BRANCH   4   6
ATOM      6  C   UNL     1      39.717  31.054  22.394  1.00  0.00     0.091 CG0
ATOM      7  G   UNL     1      40.594  32.150  21.749  1.00  0.00     0.000 G0
ENDBRANCH   4   6
ENDBRANCH   2   4
BRANCH   3   8
ATOM      8  C   UNL     1      38.889  32.529  19.880  1.00  0.00    -0.003 C 
ATOM      9  C   UNL     1      40.146  32.356  20.308  1.00  0.00    -0.020 C 
BRANCH   9  10
ATOM     10  C   UNL     1      40.586  32.138  21.736  1.00  0.00    -0.010 CG0
ATOM     11  C   UNL     1      40.556  33.477  22.508  1.00  0.00     0.016 C 
ATOM     12  C   UNL     1      42.045  31.628  21.721  1.00  0.00     0.016 C 
ATOM     13  G   UNL     1      39.704  31.052  22.392  1.00  0.00     0.000 G0
ENDBRANCH   9  10
ENDBRANCH   3   8
TORSDOF 0
ENDMDL
MODEL 3
REMARK VINA RESULT:    -2.953      1.402      2.224
REMARK INTER + INTRA:          -2.888
REMARK INTER:                  -3.625
REMARK INTRA:                   0.737
REMARK UNBOUND:                 0.756
REMARK SMILES CC1=CC=CC(C)(C)CC1=O
REMARK SMILES IDX 1 1 2 2 3 3 10 4 11 5 9 6 4 8 5 9 6 10 7 11 8 12
REMARK H PARENT
REMARK Flexibility Score: 80.00
ROOT
ATOM      1  C   UNL     1      48.463  21.614  20.935  1.00  0.00     0.048 C 
ATOM      2  C   UNL     1      48.811  23.072  20.751  1.00  0.00    -0.008 C 
ATOM      3  C   UNL     1      48.115  23.977  21.472  1.00  0.00     0.007 C 
ENDROOT
BRANCH   2   4
ATOM      4  C   UNL     1      49.945  23.386  19.846  1.00  0.00     0.159 C 
ATOM      5  O   UNL     1      50.687  22.446  19.450  1.00  0.00    -0.295 OA
BRANCH   4   6
ATOM      6  C   UNL     1      50.255  24.770  19.361  1.00  0.00     0.091 CG0
ATOM      7  G   UNL     1      50.556  25.763  20.504  1.00  0.00     0.000 G0
ENDBRANCH   4   6
ENDBRANCH   2   4
BRANCH   3   8
ATOM      8  C   UNL     1      48.244  25.452  21.525  1.00  0.00    -0.003 C 
ATOM      9  C   UNL     1      49.268  26.225  21.140  1.00  0.00    -0.020 C 
BRANCH   9  10
ATOM     10  C   UNL     1      50.560  25.756  20.513  1.00  0.00    -0.010 CG0
ATOM     11  C   UNL     1      51.489  25.167  21.599  1.00  0.00     0.016 C 
ATOM     12  C   UNL     1      51.269  26.981  19.891  1.00  0.00     0.016 C 
ATOM     13  G   UNL     1      50.254  24.751  19.381  1.00  0.00     0.000 G0
ENDBRANCH   9  10
ENDBRANCH   3   8
TORSDOF 0
ENDMDL
MODEL 4
REMARK VINA RESULT:    -2.898     11.382     12.414
REMARK INTER + INTRA:          -2.819
REMARK INTER:                  -3.567
REMARK INTRA:                   0.747
REMARK UNBOUND:                 0.756
REMARK SMILES CC1=CC=CC(C)(C)CC1=O
REMARK SMILES IDX 1 1 2 2 3 3 10 4 11 5 9 6 4 8 5 9 6 10 7 11 8 12
REMARK H PARENT
REMARK Flexibility Score: 80.00
ROOT
ATOM      1  C   UNL     1      36.975  22.726  22.187  1.00  0.00     0.048 C 
ATOM      2  C   UNL     1      37.729  23.325  23.351  1.00  0.00    -0.008 C 
ATOM      3  C   UNL     1      38.244  22.476  24.266  1.00  0.00     0.007 C 
ENDROOT
BRANCH   2   4
ATOM      4  C   UNL     1      37.906  24.798  23.354  1.00  0.00     0.159 C 
ATOM      5  O   UNL     1      37.603  25.450  22.316  1.00  0.00    -0.295 OA
BRANCH   4   6
ATOM      6  C   UNL     1      38.416  25.567  24.535  1.00  0.00     0.091 CG0
ATOM      7  G   UNL     1      39.828  25.129  24.983  1.00  0.00     0.000 G0
ENDBRANCH   4   6
ENDBRANCH   2   4
BRANCH   3   8
ATOM      8  C   UNL     1      39.043  22.759  25.481  1.00  0.00    -0.003 C 
ATOM      9  C   UNL     1      39.728  23.864  25.804  1.00  0.00    -0.020 C 
BRANCH   9  10
ATOM     10  C   UNL     1      39.825  25.131  24.986  1.00  0.00    -0.010 CG0
ATOM     11  C   UNL     1      40.807  24.926  23.810  1.00  0.00     0.016 C 
ATOM     12  C   UNL     1      40.390  26.249  25.891  1.00  0.00     0.016 C 
ATOM     13  G   UNL     1      38.416  25.556  24.518  1.00  0.00     0.000 G0
ENDBRANCH   9  10
ENDBRANCH   3   8
TORSDOF 0
ENDMDL
MODEL 5
REMARK VINA RESULT:    -2.836      2.091      3.102
REMARK INTER + INTRA:          -2.743
REMARK INTER:                  -3.495
REMARK INTRA:                   0.752
REMARK UNBOUND:                 0.756
REMARK SMILES CC1=CC=CC(C)(C)CC1=O
REMARK SMILES IDX 1 1 2 2 3 3 10 4 11 5 9 6 4 8 5 9 6 10 7 11 8 12
REMARK H PARENT
REMARK Flexibility Score: 80.00
ROOT
ATOM      1  C   UNL     1      51.486  24.538  17.363  1.00  0.00     0.048 C 
ATOM      2  C   UNL     1      50.982  24.812  18.760  1.00  0.00    -0.008 C 
ATOM      3  C   UNL     1      50.993  23.790  19.642  1.00  0.00     0.007 C 
ENDROOT
BRANCH   2   4
ATOM      4  C   UNL     1      50.584  26.208  19.071  1.00  0.00     0.159 C 
ATOM      5  O   UNL     1      50.849  27.118  18.238  1.00  0.00    -0.295 OA
BRANCH   4   6
ATOM      6  C   UNL     1      49.866  26.602  20.327  1.00  0.00     0.091 CG0
ATOM      7  G   UNL     1      50.648  26.251  21.611  1.00  0.00     0.000 G0
ENDBRANCH   4   6
ENDBRANCH   2   4
BRANCH   3   8
ATOM      8  C   UNL     1      50.593  23.760  21.068  1.00  0.00    -0.003 C 
ATOM      9  C   UNL     1      50.443  24.778  21.925  1.00  0.00    -0.020 C 
BRANCH   9  10
ATOM     10  C   UNL     1      50.626  26.246  21.616  1.00  0.00    -0.010 CG0
ATOM     11  C   UNL     1      52.132  26.587  21.553  1.00  0.00     0.016 C 
ATOM     12  C   UNL     1      49.999  27.065  22.767  1.00  0.00     0.016 C 
ATOM     13  G   UNL     1      49.879  26.600  20.311  1.00  0.00     0.000 G0
ENDBRANCH   9  10
ENDBRANCH   3   8
TORSDOF 0
ENDMDL
MODEL 6
REMARK VINA RESULT:    -2.795      3.180      4.809
REMARK INTER + INTRA:          -2.693
REMARK INTER:                  -3.448
REMARK INTRA:                   0.755
REMARK UNBOUND:                 0.756
REMARK SMILES CC1=CC=CC(C)(C)CC1=O
REMARK SMILES IDX 1 1 2 2 3 3 10 4 11 5 9 6 4 8 5 9 6 10 7 11 8 12
REMARK H PARENT
REMARK Flexibility Score: 80.00
ROOT
ATOM      1  C   UNL     1      43.756  21.817  21.055  1.00  0.00     0.048 C 
ATOM      2  C   UNL     1      45.265  21.784  21.119  1.00  0.00    -0.008 C 
ATOM      3  C   UNL     1      45.866  20.576  21.099  1.00  0.00     0.007 C 
ENDROOT
BRANCH   2   4
ATOM      4  C   UNL     1      45.968  23.091  21.125  1.00  0.00     0.159 C 
ATOM      5  O   UNL     1      45.305  24.141  20.899  1.00  0.00    -0.295 OA
BRANCH   4   6
ATOM      6  C   UNL     1      47.434  23.239  21.398  1.00  0.00     0.091 CG0
ATOM      7  G   UNL     1      48.321  22.448  20.412  1.00  0.00     0.000 G0
ENDBRANCH   4   6
ENDBRANCH   2   4
BRANCH   3   8
ATOM      8  C   UNL     1      47.307  20.230  21.121  1.00  0.00    -0.003 C 
ATOM      9  C   UNL     1      48.365  20.998  20.829  1.00  0.00    -0.020 C 
BRANCH   9  10
ATOM     10  C   UNL     1      48.333  22.452  20.421  1.00  0.00    -0.010 CG0
ATOM     11  C   UNL     1      47.885  22.577  18.947  1.00  0.00     0.016 C 
ATOM     12  C   UNL     1      49.767  23.018  20.534  1.00  0.00     0.016 C 
ATOM     13  G   UNL     1      47.425  23.244  21.388  1.00  0.00     0.000 G0
ENDBRANCH   9  10
ENDBRANCH   3   8
TORSDOF 0
ENDMDL
MODEL 7
REMARK VINA RESULT:    -2.749     12.001     13.544
REMARK INTER + INTRA:          -2.636
REMARK INTER:                  -3.398
REMARK INTRA:                   0.762
REMARK UNBOUND:                 0.756
REMARK SMILES CC1=CC=CC(C)(C)CC1=O
REMARK SMILES IDX 1 1 2 2 3 3 10 4 11 5 9 6 4 8 5 9 6 10 7 11 8 12
REMARK H PARENT
REMARK Flexibility Score: 80.00
ROOT
ATOM      1  C   UNL     1      36.828  32.028  20.794  1.00  0.00     0.048 C 
ATOM      2  C   UNL     1      37.806  31.837  21.931  1.00  0.00    -0.008 C 
ATOM      3  C   UNL     1      37.374  31.172  23.023  1.00  0.00     0.007 C 
ENDROOT
BRANCH   2   4
ATOM      4  C   UNL     1      39.188  32.334  21.721  1.00  0.00     0.159 C 
ATOM      5  O   UNL     1      39.533  32.709  20.566  1.00  0.00    -0.295 OA
BRANCH   4   6
ATOM      6  C   UNL     1      40.207  32.429  22.817  1.00  0.00     0.091 CG0
ATOM      7  G   UNL     1      40.512  31.070  23.484  1.00  0.00     0.000 G0
ENDBRANCH   4   6
ENDBRANCH   2   4
BRANCH   3   8
ATOM      8  C   UNL     1      38.097  30.811  24.264  1.00  0.00    -0.003 C 
ATOM      9  C   UNL     1      39.416  30.750  24.486  1.00  0.00    -0.020 C 
BRANCH   9  10
ATOM     10  C   UNL     1      40.509  31.072  23.494  1.00  0.00    -0.010 CG0
ATOM     11  C   UNL     1      40.661  29.914  22.481  1.00  0.00     0.016 C 
ATOM     12  C   UNL     1      41.841  31.208  24.266  1.00  0.00     0.016 C 
ATOM     13  G   UNL     1      40.209  32.425  22.811  1.00  0.00     0.000 G0
ENDBRANCH   9  10
ENDBRANCH   3   8
TORSDOF 0
ENDMDL
MODEL 8
REMARK VINA RESULT:    -2.740     11.473     12.493
REMARK INTER + INTRA:          -2.624
REMARK INTER:                  -3.392
REMARK INTRA:                   0.767
REMARK UNBOUND:                 0.756
REMARK SMILES CC1=CC=CC(C)(C)CC1=O
REMARK SMILES IDX 1 1 2 2 3 3 10 4 11 5 9 6 4 8 5 9 6 10 7 11 8 12
REMARK H PARENT
REMARK Flexibility Score: 80.00
ROOT
ATOM      1  C   UNL     1      36.782  24.876  20.870  1.00  0.00     0.048 C 
ATOM      2  C   UNL     1      37.835  24.481  21.879  1.00  0.00    -0.008 C 
ATOM      3  C   UNL     1      38.824  25.365  22.129  1.00  0.00     0.007 C 
ENDROOT
BRANCH   2   4
ATOM      4  C   UNL     1      37.652  23.180  22.570  1.00  0.00     0.159 C 
ATOM      5  O   UNL     1      36.560  22.564  22.430  1.00  0.00    -0.295 OA
BRANCH   4   6
ATOM      6  C   UNL     1      38.707  22.543  23.424  1.00  0.00     0.091 CG0
ATOM      7  G   UNL     1      39.143  23.427  24.613  1.00  0.00     0.000 G0
ENDBRANCH   4   6
ENDBRANCH   2   4
BRANCH   3   8
ATOM      8  C   UNL     1      39.964  25.274  23.071  1.00  0.00    -0.003 C 
ATOM      9  C   UNL     1      40.121  24.473  24.133  1.00  0.00    -0.020 C 
BRANCH   9  10
ATOM     10  C   UNL     1      39.149  23.422  24.616  1.00  0.00    -0.010 CG0
ATOM     11  C   UNL     1      37.958  24.096  25.336  1.00  0.00     0.016 C 
ATOM     12  C   UNL     1      39.878  22.521  25.639  1.00  0.00     0.016 C 
ATOM     13  G   UNL     1      38.706  22.539  23.428  1.00  0.00     0.000 G0
ENDBRANCH   9  10
ENDBRANCH   3   8
TORSDOF 0
ENDMDL
MODEL 9
REMARK VINA RESULT:    -2.724      1.655      2.228
REMARK INTER + INTRA:          -2.605
REMARK INTER:                  -3.347
REMARK INTRA:                   0.742
REMARK UNBOUND:                 0.756
REMARK SMILES CC1=CC=CC(C)(C)CC1=O
REMARK SMILES IDX 1 1 2 2 3 3 10 4 11 5 9 6 4 8 5 9 6 10 7 11 8 12
REMARK H PARENT
REMARK Flexibility Score: 80.00
ROOT
ATOM      1  C   UNL     1      51.110  23.237  19.009  1.00  0.00     0.048 C 
ATOM      2  C   UNL     1      50.991  24.740  19.110  1.00  0.00    -0.008 C 
ATOM      3  C   UNL     1      50.638  25.416  17.997  1.00  0.00     0.007 C 
ENDROOT
BRANCH   2   4
ATOM      4  C   UNL     1      51.199  25.344  20.450  1.00  0.00     0.159 C 
ATOM      5  O   UNL     1      51.268  24.586  21.456  1.00  0.00    -0.295 OA
BRANCH   4   6
ATOM      6  C   UNL     1      51.347  26.818  20.677  1.00  0.00     0.091 CG0
ATOM      7  G   UNL     1      50.129  27.634  20.192  1.00  0.00     0.000 G0
ENDBRANCH   4   6
ENDBRANCH   2   4
BRANCH   3   8
ATOM      8  C   UNL     1      50.419  26.867  17.795  1.00  0.00    -0.003 C 
ATOM      9  C   UNL     1      50.190  27.822  18.707  1.00  0.00    -0.020 C 
BRANCH   9  10
ATOM     10  C   UNL     1      50.129  27.636  20.205  1.00  0.00    -0.010 CG0
ATOM     11  C   UNL     1      48.774  27.009  20.604  1.00  0.00     0.016 C 
ATOM     12  C   UNL     1      50.225  29.028  20.870  1.00  0.00     0.016 C 
ATOM     13  G   UNL     1      51.337  26.795  20.674  1.00  0.00     0.000 G0
ENDBRANCH   9  10
ENDBRANCH   3   8
TORSDOF 0
ENDMDL
