MODEL 1
REMARK VINA RESULT:    -3.642      0.000      0.000
REMARK INTER + INTRA:          -8.826
REMARK INTER:                  -6.623
REMARK INTRA:                  -2.203
REMARK UNBOUND:                -2.203
REMARK SMILES CCCCCCCCCCCCCCCC(=O)[O-]
REMARK SMILES IDX 9 1 10 2 11 3 12 4 13 5 14 6 15 7 16 8 17 9 18 10 8 11 7 12
REMARK SMILES IDX 6 13 5 14 4 15 3 16 2 17 1 18
REMARK H PARENT
REMARK Flexibility Score: inf
ROOT
ATOM      1  C   UNL     1      19.221  19.996  13.962  1.00  0.00     0.000 C 
ENDROOT
BRANCH   1   2
ATOM      2  C   UNL     1      20.716  20.215  14.250  1.00  0.00     0.000 C 
BRANCH   2   3
ATOM      3  C   UNL     1      21.286  19.208  15.265  1.00  0.00     0.000 C 
BRANCH   3   4
ATOM      4  C   UNL     1      21.321  19.697  16.724  1.00  0.00     0.000 C 
BRANCH   4   5
ATOM      5  C   UNL     1      21.658  21.190  16.849  1.00  0.00     0.000 C 
BRANCH   5   6
ATOM      6  C   UNL     1      23.084  21.387  17.378  1.00  0.00     0.006 C 
BRANCH   6   7
ATOM      7  C   UNL     1      24.081  21.540  16.226  1.00  0.00     0.053 C 
BRANCH   7   8
ATOM      8  C   UNL     1      25.000  20.362  16.168  1.00  0.00     0.041 C 
ATOM      9  O   UNL     1      25.093  19.582  17.153  1.00  0.00    -0.550 OA
ATOM     10  O   UNL     1      25.715  20.093  15.009  1.00  0.00    -0.550 OA
ENDBRANCH   7   8
ENDBRANCH   6   7
ENDBRANCH   5   6
ENDBRANCH   4   5
ENDBRANCH   3   4
ENDBRANCH   2   3
ENDBRANCH   1   2
BRANCH   1  11
ATOM     11  C   UNL     1      18.718  18.633  14.466  1.00  0.00     0.000 C 
BRANCH  11  12
ATOM     12  C   UNL     1      17.186  18.529  14.463  1.00  0.00    -0.000 C 
BRANCH  12  13
ATOM     13  C   UNL     1      16.610  18.861  15.844  1.00  0.00    -0.000 C 
BRANCH  13  14
ATOM     14  C   UNL     1      17.716  18.882  16.911  1.00  0.00    -0.000 C 
BRANCH  14  15
ATOM     15  C   UNL     1      17.781  20.215  17.673  1.00  0.00    -0.000 C 
BRANCH  15  16
ATOM     16  C   UNL     1      17.091  21.364  16.918  1.00  0.00    -0.000 C 
BRANCH  16  17
ATOM     17  C   UNL     1      18.087  22.415  16.406  1.00  0.00    -0.003 C 
ATOM     18  C   UNL     1      18.714  23.236  17.532  1.00  0.00     0.004 C 
ENDBRANCH  16  17
ENDBRANCH  15  16
ENDBRANCH  14  15
ENDBRANCH  13  14
ENDBRANCH  12  13
ENDBRANCH  11  12
ENDBRANCH   1  11
TORSDOF 14
ENDMDL
MODEL 2
REMARK VINA RESULT:    -3.629      3.657      6.762
REMARK INTER + INTRA:          -8.801
REMARK INTER:                  -6.877
REMARK INTRA:                  -1.924
REMARK UNBOUND:                -2.203
REMARK SMILES CCCCCCCCCCCCCCCC(=O)[O-]
REMARK SMILES IDX 9 1 10 2 11 3 12 4 13 5 14 6 15 7 16 8 17 9 18 10 8 11 7 12
REMARK SMILES IDX 6 13 5 14 4 15 3 16 2 17 1 18
REMARK H PARENT
REMARK Flexibility Score: inf
ROOT
ATOM      1  C   UNL     1      18.805  22.152  16.426  1.00  0.00     0.000 C 
ENDROOT
BRANCH   1   2
ATOM      2  C   UNL     1      17.391  22.643  16.778  1.00  0.00     0.000 C 
BRANCH   2   3
ATOM      3  C   UNL     1      16.354  21.506  16.824  1.00  0.00     0.000 C 
BRANCH   3   4
ATOM      4  C   UNL     1      14.910  21.949  17.119  1.00  0.00     0.000 C 
BRANCH   4   5
ATOM      5  C   UNL     1      13.931  20.770  17.231  1.00  0.00     0.000 C 
BRANCH   5   6
ATOM      6  C   UNL     1      13.848  20.262  18.675  1.00  0.00     0.006 C 
BRANCH   6   7
ATOM      7  C   UNL     1      14.623  18.952  18.843  1.00  0.00     0.053 C 
BRANCH   7   8
ATOM      8  C   UNL     1      15.714  19.114  19.854  1.00  0.00     0.041 C 
ATOM      9  O   UNL     1      15.454  19.033  21.084  1.00  0.00    -0.550 OA
ATOM     10  O   UNL     1      17.025  19.302  19.439  1.00  0.00    -0.550 OA
ENDBRANCH   7   8
ENDBRANCH   6   7
ENDBRANCH   5   6
ENDBRANCH   4   5
ENDBRANCH   3   4
ENDBRANCH   2   3
ENDBRANCH   1   2
BRANCH   1  11
ATOM     11  C   UNL     1      19.141  20.804  17.085  1.00  0.00     0.000 C 
BRANCH  11  12
ATOM     12  C   UNL     1      20.587  20.358  16.819  1.00  0.00    -0.000 C 
BRANCH  12  13
ATOM     13  C   UNL     1      20.635  19.257  15.753  1.00  0.00    -0.000 C 
BRANCH  13  14
ATOM     14  C   UNL     1      20.522  19.854  14.341  1.00  0.00    -0.000 C 
BRANCH  14  15
ATOM     15  C   UNL     1      19.141  19.620  13.706  1.00  0.00    -0.000 C 
BRANCH  15  16
ATOM     16  C   UNL     1      18.492  18.304  14.167  1.00  0.00    -0.000 C 
BRANCH  16  17
ATOM     17  C   UNL     1      17.122  18.523  14.827  1.00  0.00    -0.003 C 
ATOM     18  C   UNL     1      17.002  17.835  16.187  1.00  0.00     0.004 C 
ENDBRANCH  16  17
ENDBRANCH  15  16
ENDBRANCH  14  15
ENDBRANCH  13  14
ENDBRANCH  12  13
ENDBRANCH  11  12
ENDBRANCH   1  11
TORSDOF 14
ENDMDL
MODEL 3
REMARK VINA RESULT:    -3.627      2.067      3.762
REMARK INTER + INTRA:          -8.797
REMARK INTER:                  -6.715
REMARK INTRA:                  -2.082
REMARK UNBOUND:                -2.203
REMARK SMILES CCCCCCCCCCCCCCCC(=O)[O-]
REMARK SMILES IDX 9 1 10 2 11 3 12 4 13 5 14 6 15 7 16 8 17 9 18 10 8 11 7 12
REMARK SMILES IDX 6 13 5 14 4 15 3 16 2 17 1 18
REMARK H PARENT
REMARK Flexibility Score: inf
ROOT
ATOM      1  C   UNL     1      19.020  17.936  17.408  1.00  0.00     0.000 C 
ENDROOT
BRANCH   1   2
ATOM      2  C   UNL     1      18.635  17.049  16.212  1.00  0.00     0.000 C 
BRANCH   2   3
ATOM      3  C   UNL     1      18.168  17.859  14.990  1.00  0.00     0.000 C 
BRANCH   3   4
ATOM      4  C   UNL     1      19.297  18.429  14.112  1.00  0.00     0.000 C 
BRANCH   4   5
ATOM      5  C   UNL     1      19.327  19.964  14.092  1.00  0.00     0.000 C 
BRANCH   5   6
ATOM      6  C   UNL     1      20.760  20.487  14.253  1.00  0.00     0.006 C 
BRANCH   6   7
ATOM      7  C   UNL     1      21.409  19.927  15.522  1.00  0.00     0.053 C 
BRANCH   7   8
ATOM      8  C   UNL     1      22.125  21.008  16.267  1.00  0.00     0.041 C 
ATOM      9  O   UNL     1      21.572  21.576  17.246  1.00  0.00    -0.550 OA
ATOM     10  O   UNL     1      23.423  21.354  15.914  1.00  0.00    -0.550 OA
ENDBRANCH   7   8
ENDBRANCH   6   7
ENDBRANCH   5   6
ENDBRANCH   4   5
ENDBRANCH   3   4
ENDBRANCH   2   3
ENDBRANCH   1   2
BRANCH   1  11
ATOM     11  C   UNL     1      17.857  18.133  18.394  1.00  0.00     0.000 C 
BRANCH  11  12
ATOM     12  C   UNL     1      17.494  19.613  18.595  1.00  0.00    -0.000 C 
BRANCH  12  13
ATOM     13  C   UNL     1      18.233  20.501  17.587  1.00  0.00    -0.000 C 
BRANCH  13  14
ATOM     14  C   UNL     1      17.249  21.400  16.821  1.00  0.00    -0.000 C 
BRANCH  14  15
ATOM     15  C   UNL     1      15.876  20.740  16.616  1.00  0.00    -0.000 C 
BRANCH  15  16
ATOM     16  C   UNL     1      14.725  21.572  17.206  1.00  0.00    -0.000 C 
BRANCH  16  17
ATOM     17  C   UNL     1      13.532  20.704  17.638  1.00  0.00    -0.003 C 
ATOM     18  C   UNL     1      13.808  19.911  18.915  1.00  0.00     0.004 C 
ENDBRANCH  16  17
ENDBRANCH  15  16
ENDBRANCH  14  15
ENDBRANCH  13  14
ENDBRANCH  12  13
ENDBRANCH  11  12
ENDBRANCH   1  11
TORSDOF 14
ENDMDL
MODEL 4
REMARK VINA RESULT:    -3.614      3.791      5.467
REMARK INTER + INTRA:          -8.774
REMARK INTER:                  -7.207
REMARK INTRA:                  -1.567
REMARK UNBOUND:                -2.203
REMARK SMILES CCCCCCCCCCCCCCCC(=O)[O-]
REMARK SMILES IDX 9 1 10 2 11 3 12 4 13 5 14 6 15 7 16 8 17 9 18 10 8 11 7 12
REMARK SMILES IDX 6 13 5 14 4 15 3 16 2 17 1 18
REMARK H PARENT
REMARK Flexibility Score: inf
ROOT
ATOM      1  C   UNL     1      16.688  21.267  16.627  1.00  0.00     0.000 C 
ENDROOT
BRANCH   1   2
ATOM      2  C   UNL     1      17.713  22.414  16.639  1.00  0.00     0.000 C 
BRANCH   2   3
ATOM      3  C   UNL     1      19.136  21.943  16.989  1.00  0.00     0.000 C 
BRANCH   3   4
ATOM      4  C   UNL     1      19.572  20.625  16.324  1.00  0.00     0.000 C 
BRANCH   4   5
ATOM      5  C   UNL     1      19.861  20.776  14.823  1.00  0.00     0.000 C 
BRANCH   5   6
ATOM      6  C   UNL     1      19.000  19.811  14.000  1.00  0.00     0.006 C 
BRANCH   6   7
ATOM      7  C   UNL     1      19.268  18.357  14.400  1.00  0.00     0.053 C 
BRANCH   7   8
ATOM      8  C   UNL     1      17.981  17.626  14.617  1.00  0.00     0.041 C 
ATOM      9  O   UNL     1      17.590  16.770  13.780  1.00  0.00    -0.550 OA
ATOM     10  O   UNL     1      17.240  17.851  15.769  1.00  0.00    -0.550 OA
ENDBRANCH   7   8
ENDBRANCH   6   7
ENDBRANCH   5   6
ENDBRANCH   4   5
ENDBRANCH   3   4
ENDBRANCH   2   3
ENDBRANCH   1   2
BRANCH   1  11
ATOM     11  C   UNL     1      15.298  21.714  17.106  1.00  0.00     0.000 C 
BRANCH  11  12
ATOM     12  C   UNL     1      14.316  20.542  17.252  1.00  0.00    -0.000 C 
BRANCH  12  13
ATOM     13  C   UNL     1      13.206  20.877  18.256  1.00  0.00    -0.000 C 
BRANCH  13  14
ATOM     14  C   UNL     1      13.135  19.820  19.370  1.00  0.00    -0.000 C 
BRANCH  14  15
ATOM     15  C   UNL     1      14.364  18.897  19.394  1.00  0.00    -0.000 C 
BRANCH  15  16
ATOM     16  C   UNL     1      14.975  18.761  20.799  1.00  0.00    -0.000 C 
BRANCH  16  17
ATOM     17  C   UNL     1      16.483  19.057  20.818  1.00  0.00    -0.003 C 
ATOM     18  C   UNL     1      17.105  19.050  19.422  1.00  0.00     0.004 C 
ENDBRANCH  16  17
ENDBRANCH  15  16
ENDBRANCH  14  15
ENDBRANCH  13  14
ENDBRANCH  12  13
ENDBRANCH  11  12
ENDBRANCH   1  11
TORSDOF 14
ENDMDL
MODEL 5
REMARK VINA RESULT:    -3.599      2.830      4.686
REMARK INTER + INTRA:          -8.748
REMARK INTER:                  -6.598
REMARK INTRA:                  -2.150
REMARK UNBOUND:                -2.203
REMARK SMILES CCCCCCCCCCCCCCCC(=O)[O-]
REMARK SMILES IDX 9 1 10 2 11 3 12 4 13 5 14 6 15 7 16 8 17 9 18 10 8 11 7 12
REMARK SMILES IDX 6 13 5 14 4 15 3 16 2 17 1 18
REMARK H PARENT
REMARK Flexibility Score: inf
ROOT
ATOM      1  C   UNL     1      17.202  19.309  19.125  1.00  0.00     0.000 C 
ENDROOT
BRANCH   1   2
ATOM      2  C   UNL     1      17.989  18.019  18.835  1.00  0.00     0.000 C 
BRANCH   2   3
ATOM      3  C   UNL     1      18.450  17.913  17.371  1.00  0.00     0.000 C 
BRANCH   3   4
ATOM      4  C   UNL     1      17.400  17.358  16.392  1.00  0.00     0.000 C 
BRANCH   4   5
ATOM      5  C   UNL     1      17.150  18.282  15.191  1.00  0.00     0.000 C 
BRANCH   5   6
ATOM      6  C   UNL     1      18.308  18.203  14.188  1.00  0.00     0.006 C 
BRANCH   6   7
ATOM      7  C   UNL     1      18.871  19.596  13.889  1.00  0.00     0.053 C 
BRANCH   7   8
ATOM      8  C   UNL     1      20.342  19.635  14.160  1.00  0.00     0.041 C 
ATOM      9  O   UNL     1      20.931  18.616  14.608  1.00  0.00    -0.550 OA
ATOM     10  O   UNL     1      21.072  20.779  13.867  1.00  0.00    -0.550 OA
ENDBRANCH   7   8
ENDBRANCH   6   7
ENDBRANCH   5   6
ENDBRANCH   4   5
ENDBRANCH   3   4
ENDBRANCH   2   3
ENDBRANCH   1   2
BRANCH   1  11
ATOM     11  C   UNL     1      16.069  19.092  20.140  1.00  0.00     0.000 C 
BRANCH  11  12
ATOM     12  C   UNL     1      14.674  19.234  19.511  1.00  0.00    -0.000 C 
BRANCH  12  13
ATOM     13  C   UNL     1      14.772  19.392  17.989  1.00  0.00    -0.000 C 
BRANCH  13  14
ATOM     14  C   UNL     1      14.078  20.682  17.525  1.00  0.00    -0.000 C 
BRANCH  14  15
ATOM     15  C   UNL     1      15.062  21.847  17.327  1.00  0.00    -0.000 C 
BRANCH  15  16
ATOM     16  C   UNL     1      16.344  21.422  16.591  1.00  0.00    -0.000 C 
BRANCH  16  17
ATOM     17  C   UNL     1      17.460  22.473  16.698  1.00  0.00    -0.003 C 
ATOM     18  C   UNL     1      18.828  21.856  16.988  1.00  0.00     0.004 C 
ENDBRANCH  16  17
ENDBRANCH  15  16
ENDBRANCH  14  15
ENDBRANCH  13  14
ENDBRANCH  12  13
ENDBRANCH  11  12
ENDBRANCH   1  11
TORSDOF 14
ENDMDL
MODEL 6
REMARK VINA RESULT:    -3.549      1.805      2.882
REMARK INTER + INTRA:          -8.656
REMARK INTER:                  -6.963
REMARK INTRA:                  -1.692
REMARK UNBOUND:                -2.203
REMARK SMILES CCCCCCCCCCCCCCCC(=O)[O-]
REMARK SMILES IDX 9 1 10 2 11 3 12 4 13 5 14 6 15 7 16 8 17 9 18 10 8 11 7 12
REMARK SMILES IDX 6 13 5 14 4 15 3 16 2 17 1 18
REMARK H PARENT
REMARK Flexibility Score: inf
ROOT
ATOM      1  C   UNL     1      18.695  18.553  14.515  1.00  0.00     0.000 C 
ENDROOT
BRANCH   1   2
ATOM      2  C   UNL     1      19.289  17.181  14.152  1.00  0.00     0.000 C 
BRANCH   2   3
ATOM      3  C   UNL     1      20.764  17.262  13.720  1.00  0.00     0.000 C 
BRANCH   3   4
ATOM      4  C   UNL     1      21.781  16.792  14.776  1.00  0.00     0.000 C 
BRANCH   4   5
ATOM      5  C   UNL     1      22.021  17.829  15.882  1.00  0.00     0.000 C 
BRANCH   5   6
ATOM      6  C   UNL     1      23.521  18.081  16.082  1.00  0.00     0.006 C 
BRANCH   6   7
ATOM      7  C   UNL     1      23.758  19.251  17.041  1.00  0.00     0.053 C 
BRANCH   7   8
ATOM      8  C   UNL     1      23.672  20.554  16.310  1.00  0.00     0.041 C 
ATOM      9  O   UNL     1      22.887  21.454  16.710  1.00  0.00    -0.550 OA
ATOM     10  O   UNL     1      24.495  20.795  15.218  1.00  0.00    -0.550 OA
ENDBRANCH   7   8
ENDBRANCH   6   7
ENDBRANCH   5   6
ENDBRANCH   4   5
ENDBRANCH   3   4
ENDBRANCH   2   3
ENDBRANCH   1   2
BRANCH   1  11
ATOM     11  C   UNL     1      19.346  19.703  13.731  1.00  0.00     0.000 C 
BRANCH  11  12
ATOM     12  C   UNL     1      20.028  20.732  14.646  1.00  0.00    -0.000 C 
BRANCH  12  13
ATOM     13  C   UNL     1      19.580  20.556  16.102  1.00  0.00    -0.000 C 
BRANCH  13  14
ATOM     14  C   UNL     1      19.019  21.871  16.667  1.00  0.00    -0.000 C 
BRANCH  14  15
ATOM     15  C   UNL     1      17.486  21.945  16.590  1.00  0.00    -0.000 C 
BRANCH  15  16
ATOM     16  C   UNL     1      16.810  20.607  16.934  1.00  0.00    -0.000 C 
BRANCH  16  17
ATOM     17  C   UNL     1      15.306  20.608  16.617  1.00  0.00    -0.003 C 
ATOM     18  C   UNL     1      14.552  21.736  17.321  1.00  0.00     0.004 C 
ENDBRANCH  16  17
ENDBRANCH  15  16
ENDBRANCH  14  15
ENDBRANCH  13  14
ENDBRANCH  12  13
ENDBRANCH  11  12
ENDBRANCH   1  11
TORSDOF 14
ENDMDL
MODEL 7
REMARK VINA RESULT:    -3.533      4.141      6.926
REMARK INTER + INTRA:          -8.627
REMARK INTER:                  -6.731
REMARK INTRA:                  -1.897
REMARK UNBOUND:                -2.203
REMARK SMILES CCCCCCCCCCCCCCCC(=O)[O-]
REMARK SMILES IDX 9 1 10 2 11 3 12 4 13 5 14 6 15 7 16 8 17 9 18 10 8 11 7 12
REMARK SMILES IDX 6 13 5 14 4 15 3 16 2 17 1 18
REMARK H PARENT
REMARK Flexibility Score: inf
ROOT
ATOM      1  C   UNL     1      17.857  19.738  17.777  1.00  0.00     0.000 C 
ENDROOT
BRANCH   1   2
ATOM      2  C   UNL     1      18.174  21.159  17.282  1.00  0.00     0.000 C 
BRANCH   2   3
ATOM      3  C   UNL     1      16.932  21.902  16.756  1.00  0.00     0.000 C 
BRANCH   3   4
ATOM      4  C   UNL     1      15.632  21.078  16.746  1.00  0.00     0.000 C 
BRANCH   4   5
ATOM      5  C   UNL     1      14.517  21.705  17.596  1.00  0.00     0.000 C 
BRANCH   5   6
ATOM      6  C   UNL     1      13.566  20.629  18.133  1.00  0.00     0.006 C 
BRANCH   6   7
ATOM      7  C   UNL     1      14.327  19.345  18.476  1.00  0.00     0.053 C 
BRANCH   7   8
ATOM      8  C   UNL     1      14.448  19.188  19.959  1.00  0.00     0.041 C 
ATOM      9  O   UNL     1      13.415  19.069  20.670  1.00  0.00    -0.550 OA
ATOM     10  O   UNL     1      15.702  19.119  20.551  1.00  0.00    -0.550 OA
ENDBRANCH   7   8
ENDBRANCH   6   7
ENDBRANCH   5   6
ENDBRANCH   4   5
ENDBRANCH   3   4
ENDBRANCH   2   3
ENDBRANCH   1   2
BRANCH   1  11
ATOM     11  C   UNL     1      18.457  18.651  16.870  1.00  0.00     0.000 C 
BRANCH  11  12
ATOM     12  C   UNL     1      18.030  18.802  15.402  1.00  0.00    -0.000 C 
BRANCH  12  13
ATOM     13  C   UNL     1      19.252  18.863  14.477  1.00  0.00    -0.000 C 
BRANCH  13  14
ATOM     14  C   UNL     1      19.728  20.312  14.291  1.00  0.00    -0.000 C 
BRANCH  14  15
ATOM     15  C   UNL     1      21.233  20.483  14.559  1.00  0.00    -0.000 C 
BRANCH  15  16
ATOM     16  C   UNL     1      21.771  19.468  15.582  1.00  0.00    -0.000 C 
BRANCH  16  17
ATOM     17  C   UNL     1      21.740  20.010  17.020  1.00  0.00    -0.003 C 
ATOM     18  C   UNL     1      21.895  21.529  17.085  1.00  0.00     0.004 C 
ENDBRANCH  16  17
ENDBRANCH  15  16
ENDBRANCH  14  15
ENDBRANCH  13  14
ENDBRANCH  12  13
ENDBRANCH  11  12
ENDBRANCH   1  11
TORSDOF 14
ENDMDL
MODEL 8
REMARK VINA RESULT:    -3.515      2.854      4.771
REMARK INTER + INTRA:          -8.595
REMARK INTER:                  -5.860
REMARK INTRA:                  -2.735
REMARK UNBOUND:                -2.203
REMARK SMILES CCCCCCCCCCCCCCCC(=O)[O-]
REMARK SMILES IDX 9 1 10 2 11 3 12 4 13 5 14 6 15 7 16 8 17 9 18 10 8 11 7 12
REMARK SMILES IDX 6 13 5 14 4 15 3 16 2 17 1 18
REMARK H PARENT
REMARK Flexibility Score: inf
ROOT
ATOM      1  C   UNL     1      16.165  18.103  19.076  1.00  0.00     0.000 C 
ENDROOT
BRANCH   1   2
ATOM      2  C   UNL     1      17.161  19.270  19.185  1.00  0.00     0.000 C 
BRANCH   2   3
ATOM      3  C   UNL     1      18.010  19.455  17.914  1.00  0.00     0.000 C 
BRANCH   3   4
ATOM      4  C   UNL     1      18.233  20.916  17.483  1.00  0.00     0.000 C 
BRANCH   4   5
ATOM      5  C   UNL     1      18.129  21.116  15.964  1.00  0.00     0.000 C 
BRANCH   5   6
ATOM      6  C   UNL     1      18.259  19.779  15.224  1.00  0.00     0.006 C 
BRANCH   6   7
ATOM      7  C   UNL     1      19.345  19.851  14.146  1.00  0.00     0.053 C 
BRANCH   7   8
ATOM      8  C   UNL     1      20.704  19.839  14.770  1.00  0.00     0.041 C 
ATOM      9  O   UNL     1      21.573  20.678  14.412  1.00  0.00    -0.550 OA
ATOM     10  O   UNL     1      20.997  18.937  15.784  1.00  0.00    -0.550 OA
ENDBRANCH   7   8
ENDBRANCH   6   7
ENDBRANCH   5   6
ENDBRANCH   4   5
ENDBRANCH   3   4
ENDBRANCH   2   3
ENDBRANCH   1   2
BRANCH   1  11
ATOM     11  C   UNL     1      16.275  17.358  17.736  1.00  0.00     0.000 C 
BRANCH  11  12
ATOM     12  C   UNL     1      14.955  17.354  16.950  1.00  0.00    -0.000 C 
BRANCH  12  13
ATOM     13  C   UNL     1      14.957  18.439  15.866  1.00  0.00    -0.000 C 
BRANCH  13  14
ATOM     14  C   UNL     1      13.920  19.530  16.178  1.00  0.00    -0.000 C 
BRANCH  14  15
ATOM     15  C   UNL     1      14.547  20.783  16.811  1.00  0.00    -0.000 C 
BRANCH  15  16
ATOM     16  C   UNL     1      14.011  21.064  18.224  1.00  0.00    -0.000 C 
BRANCH  16  17
ATOM     17  C   UNL     1      12.717  20.292  18.528  1.00  0.00    -0.003 C 
ATOM     18  C   UNL     1      12.832  19.409  19.769  1.00  0.00     0.004 C 
ENDBRANCH  16  17
ENDBRANCH  15  16
ENDBRANCH  14  15
ENDBRANCH  13  14
ENDBRANCH  12  13
ENDBRANCH  11  12
ENDBRANCH   1  11
TORSDOF 14
ENDMDL
MODEL 9
REMARK VINA RESULT:    -3.501      3.849      5.848
REMARK INTER + INTRA:          -8.570
REMARK INTER:                  -6.949
REMARK INTRA:                  -1.620
REMARK UNBOUND:                -2.203
REMARK SMILES CCCCCCCCCCCCCCCC(=O)[O-]
REMARK SMILES IDX 9 1 10 2 11 3 12 4 13 5 14 6 15 7 16 8 17 9 18 10 8 11 7 12
REMARK SMILES IDX 6 13 5 14 4 15 3 16 2 17 1 18
REMARK H PARENT
REMARK Flexibility Score: inf
ROOT
ATOM      1  C   UNL     1      14.305  19.470  17.559  1.00  0.00     0.000 C 
ENDROOT
BRANCH   1   2
ATOM      2  C   UNL     1      14.082  20.950  17.913  1.00  0.00     0.000 C 
BRANCH   2   3
ATOM      3  C   UNL     1      15.003  21.901  17.126  1.00  0.00     0.000 C 
BRANCH   3   4
ATOM      4  C   UNL     1      16.403  21.344  16.810  1.00  0.00     0.000 C 
BRANCH   4   5
ATOM      5  C   UNL     1      17.482  22.434  16.742  1.00  0.00     0.000 C 
BRANCH   5   6
ATOM      6  C   UNL     1      18.853  21.829  16.418  1.00  0.00     0.006 C 
BRANCH   6   7
ATOM      7  C   UNL     1      18.704  20.509  15.657  1.00  0.00     0.053 C 
BRANCH   7   8
ATOM      8  C   UNL     1      19.953  20.200  14.893  1.00  0.00     0.041 C 
ATOM      9  O   UNL     1      19.931  20.155  13.634  1.00  0.00    -0.550 OA
ATOM     10  O   UNL     1      21.153  20.014  15.566  1.00  0.00    -0.550 OA
ENDBRANCH   7   8
ENDBRANCH   6   7
ENDBRANCH   5   6
ENDBRANCH   4   5
ENDBRANCH   3   4
ENDBRANCH   2   3
ENDBRANCH   1   2
BRANCH   1  11
ATOM     11  C   UNL     1      13.476  18.523  18.441  1.00  0.00     0.000 C 
BRANCH  11  12
ATOM     12  C   UNL     1      12.894  19.222  19.678  1.00  0.00    -0.000 C 
BRANCH  12  13
ATOM     13  C   UNL     1      12.903  18.286  20.893  1.00  0.00    -0.000 C 
BRANCH  13  14
ATOM     14  C   UNL     1      13.843  18.816  21.988  1.00  0.00    -0.000 C 
BRANCH  14  15
ATOM     15  C   UNL     1      15.242  18.182  21.929  1.00  0.00    -0.000 C 
BRANCH  15  16
ATOM     16  C   UNL     1      16.342  19.207  21.602  1.00  0.00    -0.000 C 
BRANCH  16  17
ATOM     17  C   UNL     1      16.721  19.209  20.112  1.00  0.00    -0.003 C 
ATOM     18  C   UNL     1      17.201  17.844  19.620  1.00  0.00     0.004 C 
ENDBRANCH  16  17
ENDBRANCH  15  16
ENDBRANCH  14  15
ENDBRANCH  13  14
ENDBRANCH  12  13
ENDBRANCH  11  12
ENDBRANCH   1  11
TORSDOF 14
ENDMDL
