MODEL 1
REMARK VINA RESULT:    -5.005      0.000      0.000
REMARK INTER + INTRA:         -10.623
REMARK INTER:                  -9.101
REMARK INTRA:                  -1.522
REMARK UNBOUND:                -1.522
REMARK SMILES CCCCCC=CCC=CCCCCCCCC(=O)[O-]
REMARK SMILES IDX 11 1 12 2 13 3 14 4 15 5 16 6 17 7 18 8 19 9 20 10 10 11
REMARK SMILES IDX 9 12 8 13 7 14 6 15 5 16 4 17 3 18 2 19 1 20
REMARK H PARENT
REMARK Flexibility Score: inf
ROOT
ATOM      1  C   UNL     1       4.329  11.375  19.147  1.00  0.00     0.027 C 
ENDROOT
BRANCH   1   2
ATOM      2  C   UNL     1       5.725  11.130  18.555  1.00  0.00     0.004 C 
BRANCH   2   3
ATOM      3  C   UNL     1       6.174  12.284  17.642  1.00  0.00     0.000 C 
BRANCH   3   4
ATOM      4  C   UNL     1       5.756  12.076  16.179  1.00  0.00     0.000 C 
BRANCH   4   5
ATOM      5  C   UNL     1       4.551  12.945  15.778  1.00  0.00     0.000 C 
BRANCH   5   6
ATOM      6  C   UNL     1       4.066  12.662  14.344  1.00  0.00     0.006 C 
BRANCH   6   7
ATOM      7  C   UNL     1       2.898  11.668  14.260  1.00  0.00     0.053 C 
BRANCH   7   8
ATOM      8  C   UNL     1       3.291  10.398  13.572  1.00  0.00     0.041 C 
ATOM      9  O   UNL     1       2.594   9.948  12.626  1.00  0.00    -0.550 OA
ATOM     10  O   UNL     1       4.444   9.726  13.958  1.00  0.00    -0.550 OA
ENDBRANCH   7   8
ENDBRANCH   6   7
ENDBRANCH   5   6
ENDBRANCH   4   5
ENDBRANCH   3   4
ENDBRANCH   2   3
ENDBRANCH   1   2
BRANCH   1  11
ATOM     11  C   UNL     1       3.292  10.452  18.566  1.00  0.00    -0.031 C 
ATOM     12  C   UNL     1       3.442   9.900  17.353  1.00  0.00    -0.027 C 
BRANCH  12  13
ATOM     13  C   UNL     1       2.409   8.971  16.781  1.00  0.00     0.054 C 
BRANCH  13  14
ATOM     14  C   UNL     1       1.415   8.544  17.827  1.00  0.00    -0.027 C 
ATOM     15  C   UNL     1       0.922   7.298  17.831  1.00  0.00    -0.031 C 
BRANCH  15  16
ATOM     16  C   UNL     1      -0.069   6.841  18.868  1.00  0.00     0.027 C 
BRANCH  16  17
ATOM     17  C   UNL     1       0.095   5.355  19.224  1.00  0.00     0.004 C 
BRANCH  17  18
ATOM     18  C   UNL     1       0.904   4.591  18.162  1.00  0.00     0.000 C 
BRANCH  18  19
ATOM     19  C   UNL     1       1.952   3.654  18.783  1.00  0.00    -0.003 C 
ATOM     20  C   UNL     1       2.271   4.001  20.236  1.00  0.00     0.004 C 
ENDBRANCH  18  19
ENDBRANCH  17  18
ENDBRANCH  16  17
ENDBRANCH  15  16
ENDBRANCH  13  14
ENDBRANCH  12  13
ENDBRANCH   1  11
TORSDOF 14
ENDMDL
MODEL 2
REMARK VINA RESULT:    -4.797      2.304      4.081
REMARK INTER + INTRA:         -10.245
REMARK INTER:                  -9.031
REMARK INTRA:                  -1.213
REMARK UNBOUND:                -1.522
REMARK SMILES CCCCCC=CCC=CCCCCCCCC(=O)[O-]
REMARK SMILES IDX 11 1 12 2 13 3 14 4 15 5 16 6 17 7 18 8 19 9 20 10 10 11
REMARK SMILES IDX 9 12 8 13 7 14 6 15 5 16 4 17 3 18 2 19 1 20
REMARK H PARENT
REMARK Flexibility Score: inf
ROOT
ATOM      1  C   UNL     1       3.129  12.474  14.064  1.00  0.00     0.027 C 
ENDROOT
BRANCH   1   2
ATOM      2  C   UNL     1       2.468  13.504  14.993  1.00  0.00     0.004 C 
BRANCH   2   3
ATOM      3  C   UNL     1       3.268  13.704  16.292  1.00  0.00     0.000 C 
BRANCH   3   4
ATOM      4  C   UNL     1       2.371  14.055  17.489  1.00  0.00     0.000 C 
BRANCH   4   5
ATOM      5  C   UNL     1       2.695  13.216  18.738  1.00  0.00     0.000 C 
BRANCH   5   6
ATOM      6  C   UNL     1       3.373  11.878  18.394  1.00  0.00     0.006 C 
BRANCH   6   7
ATOM      7  C   UNL     1       4.168  11.260  19.553  1.00  0.00     0.053 C 
BRANCH   7   8
ATOM      8  C   UNL     1       5.646  11.335  19.323  1.00  0.00     0.041 C 
ATOM      9  O   UNL     1       6.096  11.601  18.178  1.00  0.00    -0.550 OA
ATOM     10  O   UNL     1       6.525  11.140  20.380  1.00  0.00    -0.550 OA
ENDBRANCH   7   8
ENDBRANCH   6   7
ENDBRANCH   5   6
ENDBRANCH   4   5
ENDBRANCH   3   4
ENDBRANCH   2   3
ENDBRANCH   1   2
BRANCH   1  11
ATOM     11  C   UNL     1       3.140  11.092  14.659  1.00  0.00    -0.031 C 
ATOM     12  C   UNL     1       4.122  10.686  15.478  1.00  0.00    -0.027 C 
BRANCH  12  13
ATOM     13  C   UNL     1       4.124   9.309  16.077  1.00  0.00     0.054 C 
BRANCH  13  14
ATOM     14  C   UNL     1       2.725   8.805  16.301  1.00  0.00    -0.027 C 
ATOM     15  C   UNL     1       2.155   8.887  17.512  1.00  0.00    -0.031 C 
BRANCH  15  16
ATOM     16  C   UNL     1       0.754   8.396  17.764  1.00  0.00     0.027 C 
BRANCH  16  17
ATOM     17  C   UNL     1       0.666   6.863  17.799  1.00  0.00     0.004 C 
BRANCH  17  18
ATOM     18  C   UNL     1       0.092   6.345  19.129  1.00  0.00     0.000 C 
BRANCH  18  19
ATOM     19  C   UNL     1       0.634   4.957  19.504  1.00  0.00    -0.003 C 
ATOM     20  C   UNL     1       1.470   4.328  18.391  1.00  0.00     0.004 C 
ENDBRANCH  18  19
ENDBRANCH  17  18
ENDBRANCH  16  17
ENDBRANCH  15  16
ENDBRANCH  13  14
ENDBRANCH  12  13
ENDBRANCH   1  11
TORSDOF 14
ENDMDL
MODEL 3
REMARK VINA RESULT:    -4.626      2.856      6.894
REMARK INTER + INTRA:          -9.935
REMARK INTER:                  -8.269
REMARK INTRA:                  -1.666
REMARK UNBOUND:                -1.522
REMARK SMILES CCCCCC=CCC=CCCCCCCCC(=O)[O-]
REMARK SMILES IDX 11 1 12 2 13 3 14 4 15 5 16 6 17 7 18 8 19 9 20 10 10 11
REMARK SMILES IDX 9 12 8 13 7 14 6 15 5 16 4 17 3 18 2 19 1 20
REMARK H PARENT
REMARK Flexibility Score: inf
ROOT
ATOM      1  C   UNL     1       3.519   9.168  14.526  1.00  0.00     0.027 C 
ENDROOT
BRANCH   1   2
ATOM      2  C   UNL     1       3.090   8.343  15.749  1.00  0.00     0.004 C 
BRANCH   2   3
ATOM      3  C   UNL     1       2.747   9.237  16.954  1.00  0.00     0.000 C 
BRANCH   3   4
ATOM      4  C   UNL     1       1.406   8.863  17.603  1.00  0.00     0.000 C 
BRANCH   4   5
ATOM      5  C   UNL     1       1.147   7.346  17.597  1.00  0.00     0.000 C 
BRANCH   5   6
ATOM      6  C   UNL     1       0.394   6.868  18.851  1.00  0.00     0.006 C 
BRANCH   6   7
ATOM      7  C   UNL     1       0.032   5.375  18.835  1.00  0.00     0.053 C 
BRANCH   7   8
ATOM      8  C   UNL     1       1.170   4.517  19.293  1.00  0.00     0.041 C 
ATOM      9  O   UNL     1       1.463   4.453  20.515  1.00  0.00    -0.550 OA
ATOM     10  O   UNL     1       1.889   3.766  18.372  1.00  0.00    -0.550 OA
ENDBRANCH   7   8
ENDBRANCH   6   7
ENDBRANCH   5   6
ENDBRANCH   4   5
ENDBRANCH   3   4
ENDBRANCH   2   3
ENDBRANCH   1   2
BRANCH   1  11
ATOM     11  C   UNL     1       3.672  10.630  14.847  1.00  0.00    -0.031 C 
ATOM     12  C   UNL     1       2.999  11.574  14.172  1.00  0.00    -0.027 C 
BRANCH  12  13
ATOM     13  C   UNL     1       3.149  13.031  14.504  1.00  0.00     0.054 C 
BRANCH  13  14
ATOM     14  C   UNL     1       3.578  13.229  15.931  1.00  0.00    -0.027 C 
ATOM     15  C   UNL     1       2.764  12.895  16.942  1.00  0.00    -0.031 C 
BRANCH  15  16
ATOM     16  C   UNL     1       3.170  13.077  18.380  1.00  0.00     0.027 C 
BRANCH  16  17
ATOM     17  C   UNL     1       3.486  11.743  19.075  1.00  0.00     0.004 C 
BRANCH  17  18
ATOM     18  C   UNL     1       4.997  11.539  19.278  1.00  0.00     0.000 C 
BRANCH  18  19
ATOM     19  C   UNL     1       5.672  10.892  18.058  1.00  0.00    -0.003 C 
ATOM     20  C   UNL     1       6.478  11.890  17.228  1.00  0.00     0.004 C 
ENDBRANCH  18  19
ENDBRANCH  17  18
ENDBRANCH  16  17
ENDBRANCH  15  16
ENDBRANCH  13  14
ENDBRANCH  12  13
ENDBRANCH   1  11
TORSDOF 14
ENDMDL
MODEL 4
REMARK VINA RESULT:    -4.605      1.423      2.251
REMARK INTER + INTRA:          -9.897
REMARK INTER:                  -8.517
REMARK INTRA:                  -1.380
REMARK UNBOUND:                -1.522
REMARK SMILES CCCCCC=CCC=CCCCCCCCC(=O)[O-]
REMARK SMILES IDX 11 1 12 2 13 3 14 4 15 5 16 6 17 7 18 8 19 9 20 10 10 11
REMARK SMILES IDX 9 12 8 13 7 14 6 15 5 16 4 17 3 18 2 19 1 20
REMARK H PARENT
REMARK Flexibility Score: inf
ROOT
ATOM      1  C   UNL     1       6.321  11.216  17.397  1.00  0.00     0.027 C 
ENDROOT
BRANCH   1   2
ATOM      2  C   UNL     1       5.812  11.134  18.844  1.00  0.00     0.004 C 
BRANCH   2   3
ATOM      3  C   UNL     1       4.923  12.335  19.210  1.00  0.00     0.000 C 
BRANCH   3   4
ATOM      4  C   UNL     1       3.428  12.046  19.008  1.00  0.00     0.000 C 
BRANCH   4   5
ATOM      5  C   UNL     1       2.733  13.105  18.134  1.00  0.00     0.000 C 
BRANCH   5   6
ATOM      6  C   UNL     1       3.497  13.391  16.829  1.00  0.00     0.006 C 
BRANCH   6   7
ATOM      7  C   UNL     1       2.601  13.489  15.585  1.00  0.00     0.053 C 
BRANCH   7   8
ATOM      8  C   UNL     1       3.121  12.660  14.452  1.00  0.00     0.041 C 
ATOM      9  O   UNL     1       4.352  12.645  14.192  1.00  0.00    -0.550 OA
ATOM     10  O   UNL     1       2.249  11.882  13.701  1.00  0.00    -0.550 OA
ENDBRANCH   7   8
ENDBRANCH   6   7
ENDBRANCH   5   6
ENDBRANCH   4   5
ENDBRANCH   3   4
ENDBRANCH   2   3
ENDBRANCH   1   2
BRANCH   1  11
ATOM     11  C   UNL     1       5.491  10.389  16.452  1.00  0.00    -0.031 C 
ATOM     12  C   UNL     1       4.244  10.006  16.762  1.00  0.00    -0.027 C 
BRANCH  12  13
ATOM     13  C   UNL     1       3.415   9.189  15.811  1.00  0.00     0.054 C 
BRANCH  13  14
ATOM     14  C   UNL     1       2.421   8.333  16.545  1.00  0.00    -0.027 C 
ATOM     15  C   UNL     1       1.642   8.858  17.502  1.00  0.00    -0.031 C 
BRANCH  15  16
ATOM     16  C   UNL     1       0.634   8.025  18.249  1.00  0.00     0.027 C 
BRANCH  16  17
ATOM     17  C   UNL     1       0.569   6.579  17.734  1.00  0.00     0.004 C 
BRANCH  17  18
ATOM     18  C   UNL     1       0.266   5.576  18.860  1.00  0.00     0.000 C 
BRANCH  18  19
ATOM     19  C   UNL     1       1.134   4.311  18.770  1.00  0.00    -0.003 C 
ATOM     20  C   UNL     1       2.044   4.129  19.983  1.00  0.00     0.004 C 
ENDBRANCH  18  19
ENDBRANCH  17  18
ENDBRANCH  16  17
ENDBRANCH  15  16
ENDBRANCH  13  14
ENDBRANCH  12  13
ENDBRANCH   1  11
TORSDOF 14
ENDMDL
MODEL 5
REMARK VINA RESULT:    -4.539      2.800      6.666
REMARK INTER + INTRA:          -9.777
REMARK INTER:                  -9.336
REMARK INTRA:                  -0.440
REMARK UNBOUND:                -1.522
REMARK SMILES CCCCCC=CCC=CCCCCCCCC(=O)[O-]
REMARK SMILES IDX 11 1 12 2 13 3 14 4 15 5 16 6 17 7 18 8 19 9 20 10 10 11
REMARK SMILES IDX 9 12 8 13 7 14 6 15 5 16 4 17 3 18 2 19 1 20
REMARK H PARENT
REMARK Flexibility Score: inf
ROOT
ATOM      1  C   UNL     1       4.066  10.517  19.506  1.00  0.00     0.027 C 
ENDROOT
BRANCH   1   2
ATOM      2  C   UNL     1       2.759  10.010  18.879  1.00  0.00     0.004 C 
BRANCH   2   3
ATOM      3  C   UNL     1       2.925   9.686  17.384  1.00  0.00     0.000 C 
BRANCH   3   4
ATOM      4  C   UNL     1       2.213   8.386  16.980  1.00  0.00     0.000 C 
BRANCH   4   5
ATOM      5  C   UNL     1       0.941   8.125  17.805  1.00  0.00     0.000 C 
BRANCH   5   6
ATOM      6  C   UNL     1       0.490   6.655  17.751  1.00  0.00     0.006 C 
BRANCH   6   7
ATOM      7  C   UNL     1       0.272   6.013  19.129  1.00  0.00     0.053 C 
BRANCH   7   8
ATOM      8  C   UNL     1       1.070   4.757  19.296  1.00  0.00     0.041 C 
ATOM      9  O   UNL     1       1.312   4.024  18.301  1.00  0.00    -0.550 OA
ATOM     10  O   UNL     1       1.570   4.411  20.544  1.00  0.00    -0.550 OA
ENDBRANCH   7   8
ENDBRANCH   6   7
ENDBRANCH   5   6
ENDBRANCH   4   5
ENDBRANCH   3   4
ENDBRANCH   2   3
ENDBRANCH   1   2
BRANCH   1  11
ATOM     11  C   UNL     1       4.746  11.553  18.651  1.00  0.00    -0.031 C 
ATOM     12  C   UNL     1       5.572  11.208  17.652  1.00  0.00    -0.027 C 
BRANCH  12  13
ATOM     13  C   UNL     1       6.240  12.244  16.794  1.00  0.00     0.054 C 
BRANCH  13  14
ATOM     14  C   UNL     1       5.352  12.675  15.660  1.00  0.00    -0.027 C 
ATOM     15  C   UNL     1       4.019  12.693  15.804  1.00  0.00    -0.031 C 
BRANCH  15  16
ATOM     16  C   UNL     1       3.106  13.125  14.688  1.00  0.00     0.027 C 
BRANCH  16  17
ATOM     17  C   UNL     1       2.549  11.935  13.891  1.00  0.00     0.004 C 
BRANCH  17  18
ATOM     18  C   UNL     1       3.094  10.590  14.401  1.00  0.00     0.000 C 
BRANCH  18  19
ATOM     19  C   UNL     1       3.719   9.745  13.280  1.00  0.00    -0.003 C 
ATOM     20  C   UNL     1       3.374   8.261  13.394  1.00  0.00     0.004 C 
ENDBRANCH  18  19
ENDBRANCH  17  18
ENDBRANCH  16  17
ENDBRANCH  15  16
ENDBRANCH  13  14
ENDBRANCH  12  13
ENDBRANCH   1  11
TORSDOF 14
ENDMDL
MODEL 6
REMARK VINA RESULT:    -4.129      5.109      8.580
REMARK INTER + INTRA:          -9.030
REMARK INTER:                  -7.874
REMARK INTRA:                  -1.156
REMARK UNBOUND:                -1.522
REMARK SMILES CCCCCC=CCC=CCCCCCCCC(=O)[O-]
REMARK SMILES IDX 11 1 12 2 13 3 14 4 15 5 16 6 17 7 18 8 19 9 20 10 10 11
REMARK SMILES IDX 9 12 8 13 7 14 6 15 5 16 4 17 3 18 2 19 1 20
REMARK H PARENT
REMARK Flexibility Score: inf
ROOT
ATOM      1  C   UNL     1       3.631  13.095  14.984  1.00  0.00     0.027 C 
ENDROOT
BRANCH   1   2
ATOM      2  C   UNL     1       2.941  11.846  14.415  1.00  0.00     0.004 C 
BRANCH   2   3
ATOM      3  C   UNL     1       3.771  10.571  14.653  1.00  0.00     0.000 C 
BRANCH   3   4
ATOM      4  C   UNL     1       3.270   9.757  15.855  1.00  0.00     0.000 C 
BRANCH   4   5
ATOM      5  C   UNL     1       4.188   9.888  17.083  1.00  0.00     0.000 C 
BRANCH   5   6
ATOM      6  C   UNL     1       3.425  10.311  18.352  1.00  0.00     0.006 C 
BRANCH   6   7
ATOM      7  C   UNL     1       4.055  11.498  19.097  1.00  0.00     0.053 C 
BRANCH   7   8
ATOM      8  C   UNL     1       5.549  11.494  18.997  1.00  0.00     0.041 C 
ATOM      9  O   UNL     1       6.246  11.065  19.953  1.00  0.00    -0.550 OA
ATOM     10  O   UNL     1       6.169  11.938  17.837  1.00  0.00    -0.550 OA
ENDBRANCH   7   8
ENDBRANCH   6   7
ENDBRANCH   5   6
ENDBRANCH   4   5
ENDBRANCH   3   4
ENDBRANCH   2   3
ENDBRANCH   1   2
BRANCH   1  11
ATOM     11  C   UNL     1       3.112  13.463  16.348  1.00  0.00    -0.031 C 
ATOM     12  C   UNL     1       2.158  14.391  16.511  1.00  0.00    -0.027 C 
BRANCH  12  13
ATOM     13  C   UNL     1       1.636  14.747  17.874  1.00  0.00     0.054 C 
BRANCH  13  14
ATOM     14  C   UNL     1       0.691  15.915  17.812  1.00  0.00    -0.027 C 
ATOM     15  C   UNL     1      -0.527  15.839  18.368  1.00  0.00    -0.031 C 
BRANCH  15  16
ATOM     16  C   UNL     1      -1.491  16.995  18.326  1.00  0.00     0.027 C 
BRANCH  16  17
ATOM     17  C   UNL     1      -1.394  17.887  19.573  1.00  0.00     0.004 C 
BRANCH  17  18
ATOM     18  C   UNL     1      -1.084  19.351  19.216  1.00  0.00     0.000 C 
BRANCH  18  19
ATOM     19  C   UNL     1       0.354  19.541  18.710  1.00  0.00    -0.003 C 
ATOM     20  C   UNL     1       0.415  19.971  17.246  1.00  0.00     0.004 C 
ENDBRANCH  18  19
ENDBRANCH  17  18
ENDBRANCH  16  17
ENDBRANCH  15  16
ENDBRANCH  13  14
ENDBRANCH  12  13
ENDBRANCH   1  11
TORSDOF 14
ENDMDL
MODEL 7
REMARK VINA RESULT:    -4.069      2.459      3.823
REMARK INTER + INTRA:          -8.921
REMARK INTER:                  -7.454
REMARK INTRA:                  -1.466
REMARK UNBOUND:                -1.522
REMARK SMILES CCCCCC=CCC=CCCCCCCCC(=O)[O-]
REMARK SMILES IDX 11 1 12 2 13 3 14 4 15 5 16 6 17 7 18 8 19 9 20 10 10 11
REMARK SMILES IDX 9 12 8 13 7 14 6 15 5 16 4 17 3 18 2 19 1 20
REMARK H PARENT
REMARK Flexibility Score: inf
ROOT
ATOM      1  C   UNL     1       3.815   9.932  14.362  1.00  0.00     0.027 C 
ENDROOT
BRANCH   1   2
ATOM      2  C   UNL     1       3.092  11.239  14.001  1.00  0.00     0.004 C 
BRANCH   2   3
ATOM      3  C   UNL     1       4.044  12.448  14.020  1.00  0.00     0.000 C 
BRANCH   3   4
ATOM      4  C   UNL     1       4.171  13.077  15.415  1.00  0.00     0.000 C 
BRANCH   4   5
ATOM      5  C   UNL     1       5.467  12.664  16.135  1.00  0.00     0.000 C 
BRANCH   5   6
ATOM      6  C   UNL     1       5.241  12.339  17.623  1.00  0.00     0.006 C 
BRANCH   6   7
ATOM      7  C   UNL     1       6.085  11.167  18.146  1.00  0.00     0.053 C 
BRANCH   7   8
ATOM      8  C   UNL     1       5.990  11.027  19.634  1.00  0.00     0.041 C 
ATOM      9  O   UNL     1       4.868  11.062  20.202  1.00  0.00    -0.550 OA
ATOM     10  O   UNL     1       7.139  10.829  20.388  1.00  0.00    -0.550 OA
ENDBRANCH   7   8
ENDBRANCH   6   7
ENDBRANCH   5   6
ENDBRANCH   4   5
ENDBRANCH   3   4
ENDBRANCH   2   3
ENDBRANCH   1   2
BRANCH   1  11
ATOM     11  C   UNL     1       3.507   9.476  15.762  1.00  0.00    -0.031 C 
ATOM     12  C   UNL     1       2.822  10.248  16.619  1.00  0.00    -0.027 C 
BRANCH  12  13
ATOM     13  C   UNL     1       2.508   9.785  18.013  1.00  0.00     0.054 C 
BRANCH  13  14
ATOM     14  C   UNL     1       2.005   8.368  18.021  1.00  0.00    -0.027 C 
ATOM     15  C   UNL     1       0.703   8.103  17.843  1.00  0.00    -0.031 C 
BRANCH  15  16
ATOM     16  C   UNL     1       0.173   6.694  17.840  1.00  0.00     0.027 C 
BRANCH  16  17
ATOM     17  C   UNL     1      -0.184   6.198  19.249  1.00  0.00     0.004 C 
BRANCH  17  18
ATOM     18  C   UNL     1       0.567   4.907  19.617  1.00  0.00     0.000 C 
BRANCH  18  19
ATOM     19  C   UNL     1       1.479   4.413  18.483  1.00  0.00    -0.003 C 
ATOM     20  C   UNL     1       2.339   3.219  18.892  1.00  0.00     0.004 C 
ENDBRANCH  18  19
ENDBRANCH  17  18
ENDBRANCH  16  17
ENDBRANCH  15  16
ENDBRANCH  13  14
ENDBRANCH  12  13
ENDBRANCH   1  11
TORSDOF 14
ENDMDL
MODEL 8
REMARK VINA RESULT:    -3.959      1.578      2.792
REMARK INTER + INTRA:          -8.721
REMARK INTER:                  -7.699
REMARK INTRA:                  -1.022
REMARK UNBOUND:                -1.522
REMARK SMILES CCCCCC=CCC=CCCCCCCCC(=O)[O-]
REMARK SMILES IDX 11 1 12 2 13 3 14 4 15 5 16 6 17 7 18 8 19 9 20 10 10 11
REMARK SMILES IDX 9 12 8 13 7 14 6 15 5 16 4 17 3 18 2 19 1 20
REMARK H PARENT
REMARK Flexibility Score: inf
ROOT
ATOM      1  C   UNL     1       2.346  14.093  18.572  1.00  0.00     0.027 C 
ENDROOT
BRANCH   1   2
ATOM      2  C   UNL     1       2.133  14.505  17.108  1.00  0.00     0.004 C 
BRANCH   2   3
ATOM      3  C   UNL     1       3.052  13.727  16.150  1.00  0.00     0.000 C 
BRANCH   3   4
ATOM      4  C   UNL     1       2.397  13.464  14.786  1.00  0.00     0.000 C 
BRANCH   4   5
ATOM      5  C   UNL     1       3.255  12.563  13.881  1.00  0.00     0.000 C 
BRANCH   5   6
ATOM      6  C   UNL     1       4.052  11.512  14.675  1.00  0.00     0.006 C 
BRANCH   6   7
ATOM      7  C   UNL     1       3.385  10.129  14.733  1.00  0.00     0.053 C 
BRANCH   7   8
ATOM      8  C   UNL     1       3.851   9.235  13.625  1.00  0.00     0.041 C 
ATOM      9  O   UNL     1       3.171   8.228  13.296  1.00  0.00    -0.550 OA
ATOM     10  O   UNL     1       5.021   9.530  12.939  1.00  0.00    -0.550 OA
ENDBRANCH   7   8
ENDBRANCH   6   7
ENDBRANCH   5   6
ENDBRANCH   4   5
ENDBRANCH   3   4
ENDBRANCH   2   3
ENDBRANCH   1   2
BRANCH   1  11
ATOM     11  C   UNL     1       2.747  12.649  18.706  1.00  0.00    -0.031 C 
ATOM     12  C   UNL     1       3.993  12.294  19.054  1.00  0.00    -0.027 C 
BRANCH  12  13
ATOM     13  C   UNL     1       4.386  10.851  19.196  1.00  0.00     0.054 C 
BRANCH  13  14
ATOM     14  C   UNL     1       3.685   9.988  18.183  1.00  0.00    -0.027 C 
ATOM     15  C   UNL     1       2.460   9.503  18.430  1.00  0.00    -0.031 C 
BRANCH  15  16
ATOM     16  C   UNL     1       1.732   8.642  17.432  1.00  0.00     0.027 C 
BRANCH  16  17
ATOM     17  C   UNL     1       0.474   7.990  18.026  1.00  0.00     0.004 C 
BRANCH  17  18
ATOM     18  C   UNL     1       0.476   6.461  17.851  1.00  0.00     0.000 C 
BRANCH  18  19
ATOM     19  C   UNL     1       0.483   5.716  19.195  1.00  0.00    -0.003 C 
ATOM     20  C   UNL     1       1.229   4.384  19.130  1.00  0.00     0.004 C 
ENDBRANCH  18  19
ENDBRANCH  17  18
ENDBRANCH  16  17
ENDBRANCH  15  16
ENDBRANCH  13  14
ENDBRANCH  12  13
ENDBRANCH   1  11
TORSDOF 14
ENDMDL
MODEL 9
REMARK VINA RESULT:    -3.777      5.222      8.594
REMARK INTER + INTRA:          -8.390
REMARK INTER:                  -7.390
REMARK INTRA:                  -1.000
REMARK UNBOUND:                -1.522
REMARK SMILES CCCCCC=CCC=CCCCCCCCC(=O)[O-]
REMARK SMILES IDX 11 1 12 2 13 3 14 4 15 5 16 6 17 7 18 8 19 9 20 10 10 11
REMARK SMILES IDX 9 12 8 13 7 14 6 15 5 16 4 17 3 18 2 19 1 20
REMARK H PARENT
REMARK Flexibility Score: inf
ROOT
ATOM      1  C   UNL     1       3.890  12.408  15.356  1.00  0.00     0.027 C 
ENDROOT
BRANCH   1   2
ATOM      2  C   UNL     1       4.015  10.896  15.595  1.00  0.00     0.004 C 
BRANCH   2   3
ATOM      3  C   UNL     1       4.467  10.575  17.030  1.00  0.00     0.000 C 
BRANCH   3   4
ATOM      4  C   UNL     1       3.360   9.913  17.864  1.00  0.00     0.000 C 
BRANCH   4   5
ATOM      5  C   UNL     1       2.318   9.187  16.995  1.00  0.00     0.000 C 
BRANCH   5   6
ATOM      6  C   UNL     1       1.274   8.427  17.833  1.00  0.00     0.006 C 
BRANCH   6   7
ATOM      7  C   UNL     1       1.130   6.943  17.462  1.00  0.00     0.053 C 
BRANCH   7   8
ATOM      8  C   UNL     1       0.491   6.150  18.559  1.00  0.00     0.041 C 
ATOM      9  O   UNL     1      -0.479   6.627  19.203  1.00  0.00    -0.550 OA
ATOM     10  O   UNL     1       0.950   4.872  18.851  1.00  0.00    -0.550 OA
ENDBRANCH   7   8
ENDBRANCH   6   7
ENDBRANCH   5   6
ENDBRANCH   4   5
ENDBRANCH   3   4
ENDBRANCH   2   3
ENDBRANCH   1   2
BRANCH   1  11
ATOM     11  C   UNL     1       3.512  13.155  16.607  1.00  0.00    -0.031 C 
ATOM     12  C   UNL     1       2.377  13.866  16.685  1.00  0.00    -0.027 C 
BRANCH  12  13
ATOM     13  C   UNL     1       1.998  14.602  17.939  1.00  0.00     0.054 C 
BRANCH  13  14
ATOM     14  C   UNL     1       0.973  15.667  17.662  1.00  0.00    -0.027 C 
ATOM     15  C   UNL     1      -0.149  15.742  18.393  1.00  0.00    -0.031 C 
BRANCH  15  16
ATOM     16  C   UNL     1      -1.189  16.800  18.142  1.00  0.00     0.027 C 
BRANCH  16  17
ATOM     17  C   UNL     1      -1.457  17.667  19.382  1.00  0.00     0.004 C 
BRANCH  17  18
ATOM     18  C   UNL     1      -0.604  18.947  19.389  1.00  0.00     0.000 C 
BRANCH  18  19
ATOM     19  C   UNL     1      -0.460  19.566  17.990  1.00  0.00    -0.003 C 
ATOM     20  C   UNL     1       0.986  19.585  17.497  1.00  0.00     0.004 C 
ENDBRANCH  18  19
ENDBRANCH  17  18
ENDBRANCH  16  17
ENDBRANCH  15  16
ENDBRANCH  13  14
ENDBRANCH  12  13
ENDBRANCH   1  11
TORSDOF 14
ENDMDL
