MODEL 1
REMARK VINA RESULT:    -5.261      0.000      0.000
REMARK INTER + INTRA:          -7.137
REMARK INTER:                  -6.799
REMARK INTRA:                  -0.338
REMARK UNBOUND:                -0.338
REMARK SMILES CCO[C@@H]1O[C@@H](CO)[C@H](O)[C@@H](O)[C@@H]1O
REMARK SMILES IDX 4 1 13 2 11 3 9 4 6 5 5 6 3 7 2 8 1 9 14 10 12 12 7 14 8 15
REMARK SMILES IDX 10 17
REMARK H PARENT 14 11 12 13 8 16 10 18
REMARK Flexibility Score: inf
ROOT
ATOM      1  C   UNL     1      29.805 -37.048 -13.277  1.00  0.00     0.281 C 
ATOM      2  C   UNL     1      29.290 -36.064 -14.342  1.00  0.00     0.202 C 
ATOM      3  C   UNL     1      30.114 -36.195 -15.635  1.00  0.00     0.179 C 
ATOM      4  C   UNL     1      30.170 -37.666 -16.072  1.00  0.00     0.177 C 
ATOM      5  C   UNL     1      30.640 -38.544 -14.888  1.00  0.00     0.178 C 
ATOM      6  O   UNL     1      29.778 -38.381 -13.771  1.00  0.00    -0.341 OA
ENDROOT
BRANCH   1   7
ATOM      7  O   UNL     1      31.106 -36.675 -12.852  1.00  0.00    -0.350 OA
BRANCH   7   8
ATOM      8  C   UNL     1      31.377 -37.218 -11.576  1.00  0.00     0.160 C 
ATOM      9  C   UNL     1      30.109 -37.179 -10.738  1.00  0.00     0.035 C 
ENDBRANCH   7   8
ENDBRANCH   1   7
BRANCH   2  10
ATOM     10  O   UNL     1      29.373 -34.753 -13.842  1.00  0.00    -0.385 OA
ATOM     11  H   UNL     1      29.982 -34.780 -13.058  1.00  0.00     0.211 HD
ENDBRANCH   2  10
BRANCH   3  12
ATOM     12  O   UNL     1      29.527 -35.434 -16.660  1.00  0.00    -0.387 OA
ATOM     13  H   UNL     1      29.985 -35.686 -17.504  1.00  0.00     0.211 HD
ENDBRANCH   3  12
BRANCH   5  14
ATOM     14  C   UNL     1      30.647 -40.028 -15.275  1.00  0.00     0.191 C 
BRANCH  14  15
ATOM     15  O   UNL     1      31.845 -40.337 -15.932  1.00  0.00    -0.394 OA
ATOM     16  H   UNL     1      31.983 -41.312 -15.808  1.00  0.00     0.210 HD
ENDBRANCH  14  15
ENDBRANCH   5  14
BRANCH   4  17
ATOM     17  O   UNL     1      31.063 -37.783 -17.150  1.00  0.00    -0.387 OA
ATOM     18  H   UNL     1      31.972 -37.586 -16.802  1.00  0.00     0.211 HD
ENDBRANCH   4  17
TORSDOF 7
ENDMDL
MODEL 2
REMARK VINA RESULT:    -5.006     10.290     11.248
REMARK INTER + INTRA:          -6.807
REMARK INTER:                  -6.358
REMARK INTRA:                  -0.449
REMARK UNBOUND:                -0.338
REMARK SMILES CCO[C@@H]1O[C@@H](CO)[C@H](O)[C@@H](O)[C@@H]1O
REMARK SMILES IDX 4 1 13 2 11 3 9 4 6 5 5 6 3 7 2 8 1 9 14 10 12 12 7 14 8 15
REMARK SMILES IDX 10 17
REMARK H PARENT 14 11 12 13 8 16 10 18
REMARK Flexibility Score: inf
ROOT
ATOM      1  C   UNL     1      34.923 -39.594  -4.466  1.00  0.00     0.281 C 
ATOM      2  C   UNL     1      34.503 -38.529  -3.437  1.00  0.00     0.202 C 
ATOM      3  C   UNL     1      33.085 -38.016  -3.748  1.00  0.00     0.179 C 
ATOM      4  C   UNL     1      32.122 -39.202  -3.899  1.00  0.00     0.177 C 
ATOM      5  C   UNL     1      32.700 -40.219  -4.911  1.00  0.00     0.178 C 
ATOM      6  O   UNL     1      33.985 -40.661  -4.496  1.00  0.00    -0.341 OA
ENDROOT
BRANCH   1   7
ATOM      7  O   UNL     1      35.084 -39.004  -5.746  1.00  0.00    -0.350 OA
BRANCH   7   8
ATOM      8  C   UNL     1      36.127 -39.644  -6.451  1.00  0.00     0.160 C 
ATOM      9  C   UNL     1      37.463 -39.203  -5.873  1.00  0.00     0.035 C 
ENDBRANCH   7   8
ENDBRANCH   1   7
BRANCH   2  10
ATOM     10  O   UNL     1      35.422 -37.468  -3.465  1.00  0.00    -0.385 OA
ATOM     11  H   UNL     1      34.898 -36.632  -3.575  1.00  0.00     0.211 HD
ENDBRANCH   2  10
BRANCH   3  12
ATOM     12  O   UNL     1      32.634 -37.187  -2.708  1.00  0.00    -0.387 OA
ATOM     13  H   UNL     1      31.745 -36.839  -2.981  1.00  0.00     0.211 HD
ENDBRANCH   3  12
BRANCH   5  14
ATOM     14  C   UNL     1      31.789 -41.446  -5.037  1.00  0.00     0.191 C 
BRANCH  14  15
ATOM     15  O   UNL     1      30.876 -41.465  -3.975  1.00  0.00    -0.394 OA
ATOM     16  H   UNL     1      31.410 -41.635  -3.156  1.00  0.00     0.210 HD
ENDBRANCH  14  15
ENDBRANCH   5  14
BRANCH   4  17
ATOM     17  O   UNL     1      30.880 -38.720  -4.348  1.00  0.00    -0.387 OA
ATOM     18  H   UNL     1      31.055 -38.154  -5.146  1.00  0.00     0.211 HD
ENDBRANCH   4  17
TORSDOF 7
ENDMDL
MODEL 3
REMARK VINA RESULT:    -4.953      1.746      2.866
REMARK INTER + INTRA:          -6.739
REMARK INTER:                  -6.291
REMARK INTRA:                  -0.448
REMARK UNBOUND:                -0.338
REMARK SMILES CCO[C@@H]1O[C@@H](CO)[C@H](O)[C@@H](O)[C@@H]1O
REMARK SMILES IDX 4 1 13 2 11 3 9 4 6 5 5 6 3 7 2 8 1 9 14 10 12 12 7 14 8 15
REMARK SMILES IDX 10 17
REMARK H PARENT 14 11 12 13 8 16 10 18
REMARK Flexibility Score: inf
ROOT
ATOM      1  C   UNL     1      29.704 -38.208 -13.661  1.00  0.00     0.281 C 
ATOM      2  C   UNL     1      29.466 -36.779 -13.143  1.00  0.00     0.202 C 
ATOM      3  C   UNL     1      29.679 -35.757 -14.274  1.00  0.00     0.179 C 
ATOM      4  C   UNL     1      28.851 -36.158 -15.503  1.00  0.00     0.177 C 
ATOM      5  C   UNL     1      29.142 -37.632 -15.870  1.00  0.00     0.178 C 
ATOM      6  O   UNL     1      28.861 -38.486 -14.771  1.00  0.00    -0.341 OA
ENDROOT
BRANCH   1   7
ATOM      7  O   UNL     1      31.073 -38.391 -13.986  1.00  0.00    -0.350 OA
BRANCH   7   8
ATOM      8  C   UNL     1      31.460 -39.726 -13.736  1.00  0.00     0.160 C 
ATOM      9  C   UNL     1      31.863 -39.862 -12.275  1.00  0.00     0.035 C 
ENDBRANCH   7   8
ENDBRANCH   1   7
BRANCH   2  10
ATOM     10  O   UNL     1      30.345 -36.518 -12.079  1.00  0.00    -0.385 OA
ATOM     11  H   UNL     1      31.192 -36.997 -12.278  1.00  0.00     0.211 HD
ENDBRANCH   2  10
BRANCH   3  12
ATOM     12  O   UNL     1      29.282 -34.478 -13.850  1.00  0.00    -0.387 OA
ATOM     13  H   UNL     1      28.385 -34.310 -14.242  1.00  0.00     0.211 HD
ENDBRANCH   3  12
BRANCH   5  14
ATOM     14  C   UNL     1      28.282 -38.082 -17.058  1.00  0.00     0.191 C 
BRANCH  14  15
ATOM     15  O   UNL     1      27.046 -37.422 -17.021  1.00  0.00    -0.394 OA
ATOM     16  H   UNL     1      26.521 -37.863 -16.303  1.00  0.00     0.210 HD
ENDBRANCH  14  15
ENDBRANCH   5  14
BRANCH   4  17
ATOM     17  O   UNL     1      29.191 -35.312 -16.573  1.00  0.00    -0.387 OA
ATOM     18  H   UNL     1      30.149 -35.473 -16.780  1.00  0.00     0.211 HD
ENDBRANCH   4  17
TORSDOF 7
ENDMDL
MODEL 4
REMARK VINA RESULT:    -4.915      1.588      3.549
REMARK INTER + INTRA:          -6.689
REMARK INTER:                  -6.418
REMARK INTRA:                  -0.272
REMARK UNBOUND:                -0.338
REMARK SMILES CCO[C@@H]1O[C@@H](CO)[C@H](O)[C@@H](O)[C@@H]1O
REMARK SMILES IDX 4 1 13 2 11 3 9 4 6 5 5 6 3 7 2 8 1 9 14 10 12 12 7 14 8 15
REMARK SMILES IDX 10 17
REMARK H PARENT 14 11 12 13 8 16 10 18
REMARK Flexibility Score: inf
ROOT
ATOM      1  C   UNL     1      30.066 -37.033 -15.183  1.00  0.00     0.281 C 
ATOM      2  C   UNL     1      30.715 -36.210 -14.056  1.00  0.00     0.202 C 
ATOM      3  C   UNL     1      30.797 -37.043 -12.764  1.00  0.00     0.179 C 
ATOM      4  C   UNL     1      31.459 -38.396 -13.055  1.00  0.00     0.177 C 
ATOM      5  C   UNL     1      30.748 -39.080 -14.247  1.00  0.00     0.178 C 
ATOM      6  O   UNL     1      30.780 -38.244 -15.395  1.00  0.00    -0.341 OA
ENDROOT
BRANCH   1   7
ATOM      7  O   UNL     1      28.700 -37.278 -14.888  1.00  0.00    -0.350 OA
BRANCH   7   8
ATOM      8  C   UNL     1      27.950 -37.358 -16.082  1.00  0.00     0.160 C 
ATOM      9  C   UNL     1      28.347 -36.210 -16.998  1.00  0.00     0.035 C 
ENDBRANCH   7   8
ENDBRANCH   1   7
BRANCH   2  10
ATOM     10  O   UNL     1      29.961 -35.045 -13.839  1.00  0.00    -0.385 OA
ATOM     11  H   UNL     1      29.055 -35.335 -13.556  1.00  0.00     0.211 HD
ENDBRANCH   2  10
BRANCH   3  12
ATOM     12  O   UNL     1      31.553 -36.360 -11.797  1.00  0.00    -0.387 OA
ATOM     13  H   UNL     1      31.582 -35.407 -12.074  1.00  0.00     0.211 HD
ENDBRANCH   3  12
BRANCH   5  14
ATOM     14  C   UNL     1      31.428 -40.408 -14.603  1.00  0.00     0.191 C 
BRANCH  14  15
ATOM     15  O   UNL     1      31.905 -40.355 -15.918  1.00  0.00    -0.394 OA
ATOM     16  H   UNL     1      32.893 -40.423 -15.856  1.00  0.00     0.210 HD
ENDBRANCH  14  15
ENDBRANCH   5  14
BRANCH   4  17
ATOM     17  O   UNL     1      31.368 -39.200 -11.906  1.00  0.00    -0.387 OA
ATOM     18  H   UNL     1      31.689 -40.107 -12.156  1.00  0.00     0.211 HD
ENDBRANCH   4  17
TORSDOF 7
ENDMDL
MODEL 5
REMARK VINA RESULT:    -4.880      1.592      4.284
REMARK INTER + INTRA:          -6.644
REMARK INTER:                  -6.192
REMARK INTRA:                  -0.452
REMARK UNBOUND:                -0.338
REMARK SMILES CCO[C@@H]1O[C@@H](CO)[C@H](O)[C@@H](O)[C@@H]1O
REMARK SMILES IDX 4 1 13 2 11 3 9 4 6 5 5 6 3 7 2 8 1 9 14 10 12 12 7 14 8 15
REMARK SMILES IDX 10 17
REMARK H PARENT 14 11 12 13 8 16 10 18
REMARK Flexibility Score: inf
ROOT
ATOM      1  C   UNL     1      29.928 -39.093 -15.622  1.00  0.00     0.281 C 
ATOM      2  C   UNL     1      30.664 -38.073 -16.508  1.00  0.00     0.202 C 
ATOM      3  C   UNL     1      30.067 -36.667 -16.313  1.00  0.00     0.179 C 
ATOM      4  C   UNL     1      30.015 -36.324 -14.818  1.00  0.00     0.177 C 
ATOM      5  C   UNL     1      29.309 -37.462 -14.045  1.00  0.00     0.178 C 
ATOM      6  O   UNL     1      29.974 -38.698 -14.257  1.00  0.00    -0.341 OA
ENDROOT
BRANCH   1   7
ATOM      7  O   UNL     1      28.593 -39.262 -16.071  1.00  0.00    -0.350 OA
BRANCH   7   8
ATOM      8  C   UNL     1      28.192 -40.607 -15.918  1.00  0.00     0.160 C 
ATOM      9  C   UNL     1      29.173 -41.506 -16.653  1.00  0.00     0.035 C 
ENDBRANCH   7   8
ENDBRANCH   1   7
BRANCH   2  10
ATOM     10  O   UNL     1      30.559 -38.465 -17.853  1.00  0.00    -0.385 OA
ATOM     11  H   UNL     1      31.360 -38.112 -18.321  1.00  0.00     0.211 HD
ENDBRANCH   2  10
BRANCH   3  12
ATOM     12  O   UNL     1      30.855 -35.713 -16.977  1.00  0.00    -0.387 OA
ATOM     13  H   UNL     1      30.236 -35.021 -17.328  1.00  0.00     0.211 HD
ENDBRANCH   3  12
BRANCH   5  14
ATOM     14  C   UNL     1      29.296 -37.176 -12.538  1.00  0.00     0.191 C 
BRANCH  14  15
ATOM     15  O   UNL     1      28.371 -36.163 -12.259  1.00  0.00    -0.394 OA
ATOM     16  H   UNL     1      27.993 -35.887 -13.134  1.00  0.00     0.210 HD
ENDBRANCH  14  15
ENDBRANCH   5  14
BRANCH   4  17
ATOM     17  O   UNL     1      29.314 -35.116 -14.657  1.00  0.00    -0.387 OA
ATOM     18  H   UNL     1      29.360 -34.632 -15.523  1.00  0.00     0.211 HD
ENDBRANCH   4  17
TORSDOF 7
ENDMDL
MODEL 6
REMARK VINA RESULT:    -4.859      2.128      3.627
REMARK INTER + INTRA:          -6.618
REMARK INTER:                  -6.232
REMARK INTRA:                  -0.385
REMARK UNBOUND:                -0.338
REMARK SMILES CCO[C@@H]1O[C@@H](CO)[C@H](O)[C@@H](O)[C@@H]1O
REMARK SMILES IDX 4 1 13 2 11 3 9 4 6 5 5 6 3 7 2 8 1 9 14 10 12 12 7 14 8 15
REMARK SMILES IDX 10 17
REMARK H PARENT 14 11 12 13 8 16 10 18
REMARK Flexibility Score: inf
ROOT
ATOM      1  C   UNL     1      29.680 -36.746 -14.859  1.00  0.00     0.281 C 
ATOM      2  C   UNL     1      30.647 -37.759 -15.498  1.00  0.00     0.202 C 
ATOM      3  C   UNL     1      29.861 -38.822 -16.287  1.00  0.00     0.179 C 
ATOM      4  C   UNL     1      28.887 -38.140 -17.257  1.00  0.00     0.177 C 
ATOM      5  C   UNL     1      28.028 -37.106 -16.493  1.00  0.00     0.178 C 
ATOM      6  O   UNL     1      28.854 -36.147 -15.849  1.00  0.00    -0.341 OA
ENDROOT
BRANCH   1   7
ATOM      7  O   UNL     1      28.910 -37.373 -13.846  1.00  0.00    -0.350 OA
BRANCH   7   8
ATOM      8  C   UNL     1      28.991 -36.635 -12.644  1.00  0.00     0.160 C 
ATOM      9  C   UNL     1      29.688 -37.479 -11.588  1.00  0.00     0.035 C 
ENDBRANCH   7   8
ENDBRANCH   1   7
BRANCH   2  10
ATOM     10  O   UNL     1      31.414 -38.367 -14.491  1.00  0.00    -0.385 OA
ATOM     11  H   UNL     1      31.428 -39.341 -14.685  1.00  0.00     0.211 HD
ENDBRANCH   2  10
BRANCH   3  12
ATOM     12  O   UNL     1      30.747 -39.632 -17.018  1.00  0.00    -0.387 OA
ATOM     13  H   UNL     1      31.326 -40.095 -16.358  1.00  0.00     0.211 HD
ENDBRANCH   3  12
BRANCH   5  14
ATOM     14  C   UNL     1      27.086 -36.362 -17.448  1.00  0.00     0.191 C 
BRANCH  14  15
ATOM     15  O   UNL     1      25.825 -36.972 -17.435  1.00  0.00    -0.394 OA
ATOM     16  H   UNL     1      25.313 -36.530 -16.708  1.00  0.00     0.210 HD
ENDBRANCH  14  15
ENDBRANCH   5  14
BRANCH   4  17
ATOM     17  O   UNL     1      28.067 -39.123 -17.838  1.00  0.00    -0.387 OA
ATOM     18  H   UNL     1      28.147 -39.940 -17.279  1.00  0.00     0.211 HD
ENDBRANCH   4  17
TORSDOF 7
ENDMDL
MODEL 7
REMARK VINA RESULT:    -4.829     10.023     12.120
REMARK INTER + INTRA:          -6.579
REMARK INTER:                  -6.322
REMARK INTRA:                  -0.257
REMARK UNBOUND:                -0.338
REMARK SMILES CCO[C@@H]1O[C@@H](CO)[C@H](O)[C@@H](O)[C@@H]1O
REMARK SMILES IDX 4 1 13 2 11 3 9 4 6 5 5 6 3 7 2 8 1 9 14 10 12 12 7 14 8 15
REMARK SMILES IDX 10 17
REMARK H PARENT 14 11 12 13 8 16 10 18
REMARK Flexibility Score: inf
ROOT
ATOM      1  C   UNL     1      34.826 -40.389  -4.921  1.00  0.00     0.281 C 
ATOM      2  C   UNL     1      35.747 -39.781  -5.993  1.00  0.00     0.202 C 
ATOM      3  C   UNL     1      36.976 -39.128  -5.335  1.00  0.00     0.179 C 
ATOM      4  C   UNL     1      37.647 -40.123  -4.379  1.00  0.00     0.177 C 
ATOM      5  C   UNL     1      36.595 -40.701  -3.403  1.00  0.00     0.178 C 
ATOM      6  O   UNL     1      35.538 -41.322  -4.119  1.00  0.00    -0.341 OA
ENDROOT
BRANCH   1   7
ATOM      7  O   UNL     1      34.243 -39.362  -4.134  1.00  0.00    -0.350 OA
BRANCH   7   8
ATOM      8  C   UNL     1      32.971 -39.764  -3.670  1.00  0.00     0.160 C 
ATOM      9  C   UNL     1      32.235 -40.478  -4.793  1.00  0.00     0.035 C 
ENDBRANCH   7   8
ENDBRANCH   1   7
BRANCH   2  10
ATOM     10  O   UNL     1      35.029 -38.830  -6.737  1.00  0.00    -0.385 OA
ATOM     11  H   UNL     1      35.510 -37.967  -6.645  1.00  0.00     0.211 HD
ENDBRANCH   2  10
BRANCH   3  12
ATOM     12  O   UNL     1      37.901 -38.741  -6.319  1.00  0.00    -0.387 OA
ATOM     13  H   UNL     1      37.943 -37.749  -6.302  1.00  0.00     0.211 HD
ENDBRANCH   3  12
BRANCH   5  14
ATOM     14  C   UNL     1      37.224 -41.746  -2.474  1.00  0.00     0.191 C 
BRANCH  14  15
ATOM     15  O   UNL     1      36.793 -43.026  -2.845  1.00  0.00    -0.394 OA
ATOM     16  H   UNL     1      35.937 -42.898  -3.331  1.00  0.00     0.210 HD
ENDBRANCH  14  15
ENDBRANCH   5  14
BRANCH   4  17
ATOM     17  O   UNL     1      38.657 -39.454  -3.667  1.00  0.00    -0.387 OA
ATOM     18  H   UNL     1      38.467 -39.578  -2.700  1.00  0.00     0.211 HD
ENDBRANCH   4  17
TORSDOF 7
ENDMDL
MODEL 8
REMARK VINA RESULT:    -4.703     10.759     12.816
REMARK INTER + INTRA:          -6.415
REMARK INTER:                  -6.064
REMARK INTRA:                  -0.351
REMARK UNBOUND:                -0.338
REMARK SMILES CCO[C@@H]1O[C@@H](CO)[C@H](O)[C@@H](O)[C@@H]1O
REMARK SMILES IDX 4 1 13 2 11 3 9 4 6 5 5 6 3 7 2 8 1 9 14 10 12 12 7 14 8 15
REMARK SMILES IDX 10 17
REMARK H PARENT 14 11 12 13 8 16 10 18
REMARK Flexibility Score: inf
ROOT
ATOM      1  C   UNL     1      35.728 -40.603  -4.296  1.00  0.00     0.281 C 
ATOM      2  C   UNL     1      35.886 -41.003  -2.819  1.00  0.00     0.202 C 
ATOM      3  C   UNL     1      35.068 -40.060  -1.919  1.00  0.00     0.179 C 
ATOM      4  C   UNL     1      33.621 -39.978  -2.427  1.00  0.00     0.177 C 
ATOM      5  C   UNL     1      33.616 -39.634  -3.935  1.00  0.00     0.178 C 
ATOM      6  O   UNL     1      34.356 -40.597  -4.670  1.00  0.00    -0.341 OA
ENDROOT
BRANCH   1   7
ATOM      7  O   UNL     1      36.339 -39.345  -4.534  1.00  0.00    -0.350 OA
BRANCH   7   8
ATOM      8  C   UNL     1      37.324 -39.463  -5.539  1.00  0.00     0.160 C 
ATOM      9  C   UNL     1      36.643 -39.555  -6.895  1.00  0.00     0.035 C 
ENDBRANCH   7   8
ENDBRANCH   1   7
BRANCH   2  10
ATOM     10  O   UNL     1      37.246 -40.953  -2.468  1.00  0.00    -0.385 OA
ATOM     11  H   UNL     1      37.383 -40.112  -1.959  1.00  0.00     0.211 HD
ENDBRANCH   2  10
BRANCH   3  12
ATOM     12  O   UNL     1      35.064 -40.536  -0.598  1.00  0.00    -0.387 OA
ATOM     13  H   UNL     1      35.048 -41.528  -0.648  1.00  0.00     0.211 HD
ENDBRANCH   3  12
BRANCH   5  14
ATOM     14  C   UNL     1      32.185 -39.606  -4.486  1.00  0.00     0.191 C 
BRANCH  14  15
ATOM     15  O   UNL     1      31.362 -40.423  -3.700  1.00  0.00    -0.394 OA
ATOM     16  H   UNL     1      31.516 -41.352  -4.015  1.00  0.00     0.210 HD
ENDBRANCH  14  15
ENDBRANCH   5  14
BRANCH   4  17
ATOM     17  O   UNL     1      32.942 -38.986  -1.697  1.00  0.00    -0.387 OA
ATOM     18  H   UNL     1      33.628 -38.460  -1.209  1.00  0.00     0.211 HD
ENDBRANCH   4  17
TORSDOF 7
ENDMDL
MODEL 9
REMARK VINA RESULT:    -4.678      1.633      3.707
REMARK INTER + INTRA:          -6.383
REMARK INTER:                  -6.141
REMARK INTRA:                  -0.241
REMARK UNBOUND:                -0.338
REMARK SMILES CCO[C@@H]1O[C@@H](CO)[C@H](O)[C@@H](O)[C@@H]1O
REMARK SMILES IDX 4 1 13 2 11 3 9 4 6 5 5 6 3 7 2 8 1 9 14 10 12 12 7 14 8 15
REMARK SMILES IDX 10 17
REMARK H PARENT 14 11 12 13 8 16 10 18
REMARK Flexibility Score: inf
ROOT
ATOM      1  C   UNL     1      29.896 -37.500 -15.801  1.00  0.00     0.281 C 
ATOM      2  C   UNL     1      29.735 -36.000 -15.498  1.00  0.00     0.202 C 
ATOM      3  C   UNL     1      29.273 -35.794 -14.044  1.00  0.00     0.179 C 
ATOM      4  C   UNL     1      30.196 -36.563 -13.089  1.00  0.00     0.177 C 
ATOM      5  C   UNL     1      30.316 -38.034 -13.549  1.00  0.00     0.178 C 
ATOM      6  O   UNL     1      30.799 -38.103 -14.883  1.00  0.00    -0.341 OA
ENDROOT
BRANCH   1   7
ATOM      7  O   UNL     1      28.631 -38.142 -15.787  1.00  0.00    -0.350 OA
BRANCH   7   8
ATOM      8  C   UNL     1      28.584 -39.149 -16.776  1.00  0.00     0.160 C 
ATOM      9  C   UNL     1      28.439 -40.504 -16.101  1.00  0.00     0.035 C 
ENDBRANCH   7   8
ENDBRANCH   1   7
BRANCH   2  10
ATOM     10  O   UNL     1      28.803 -35.444 -16.389  1.00  0.00    -0.385 OA
ATOM     11  H   UNL     1      29.138 -34.542 -16.635  1.00  0.00     0.211 HD
ENDBRANCH   2  10
BRANCH   3  12
ATOM     12  O   UNL     1      29.307 -34.429 -13.716  1.00  0.00    -0.387 OA
ATOM     13  H   UNL     1      29.788 -34.351 -12.852  1.00  0.00     0.211 HD
ENDBRANCH   3  12
BRANCH   5  14
ATOM     14  C   UNL     1      31.283 -38.814 -12.649  1.00  0.00     0.191 C 
BRANCH  14  15
ATOM     15  O   UNL     1      32.556 -38.835 -13.233  1.00  0.00    -0.394 OA
ATOM     16  H   UNL     1      32.997 -39.660 -12.902  1.00  0.00     0.210 HD
ENDBRANCH  14  15
ENDBRANCH   5  14
BRANCH   4  17
ATOM     17  O   UNL     1      29.657 -36.500 -11.792  1.00  0.00    -0.387 OA
ATOM     18  H   UNL     1      28.736 -36.867 -11.839  1.00  0.00     0.211 HD
ENDBRANCH   4  17
TORSDOF 7
ENDMDL
