MODEL 1
REMARK VINA RESULT:    -2.588      0.000      0.000
REMARK INTER + INTRA:          -5.392
REMARK INTER:                  -4.176
REMARK INTRA:                  -1.216
REMARK UNBOUND:                -1.216
REMARK SMILES CCCCCCCCCCCCO
REMARK SMILES IDX 7 1 6 2 5 3 4 4 3 5 2 6 1 7 8 8 9 9 10 10 11 11 12 12 13 13
REMARK H PARENT 13 14
REMARK Flexibility Score: inf
ROOT
ATOM      1  C   UNL     1     108.648 117.154 108.562  1.00  0.00     0.000 C 
ENDROOT
BRANCH   1   2
ATOM      2  C   UNL     1     107.207 117.542 108.177  1.00  0.00    -0.000 C 
BRANCH   2   3
ATOM      3  C   UNL     1     106.507 116.578 107.199  1.00  0.00    -0.000 C 
BRANCH   3   4
ATOM      4  C   UNL     1     106.002 115.268 107.829  1.00  0.00    -0.000 C 
BRANCH   4   5
ATOM      5  C   UNL     1     106.846 114.049 107.426  1.00  0.00    -0.000 C 
BRANCH   5   6
ATOM      6  C   UNL     1     106.708 112.923 108.456  1.00  0.00    -0.003 C 
ATOM      7  C   UNL     1     107.257 111.606 107.912  1.00  0.00     0.004 C 
ENDBRANCH   5   6
ENDBRANCH   4   5
ENDBRANCH   3   4
ENDBRANCH   2   3
ENDBRANCH   1   2
BRANCH   1   8
ATOM      8  C   UNL     1     109.533 116.674 107.396  1.00  0.00     0.000 C 
BRANCH   8   9
ATOM      9  C   UNL     1     110.436 115.490 107.780  1.00  0.00     0.000 C 
BRANCH   9  10
ATOM     10  C   UNL     1     110.079 114.884 109.150  1.00  0.00     0.002 C 
BRANCH  10  11
ATOM     11  C   UNL     1     110.333 113.369 109.283  1.00  0.00     0.028 C 
BRANCH  11  12
ATOM     12  C   UNL     1     111.799 113.003 109.551  1.00  0.00     0.156 C 
BRANCH  12  13
ATOM     13  O   UNL     1     112.321 113.754 110.614  1.00  0.00    -0.396 OA
ATOM     14  H   UNL     1     111.928 113.380 111.445  1.00  0.00     0.210 HD
ENDBRANCH  12  13
ENDBRANCH  11  12
ENDBRANCH  10  11
ENDBRANCH   9  10
ENDBRANCH   8   9
ENDBRANCH   1   8
TORSDOF 11
ENDMDL
MODEL 2
REMARK VINA RESULT:    -2.495      8.835     11.037
REMARK INTER + INTRA:          -5.242
REMARK INTER:                  -3.856
REMARK INTRA:                  -1.385
REMARK UNBOUND:                -1.216
REMARK SMILES CCCCCCCCCCCCO
REMARK SMILES IDX 7 1 6 2 5 3 4 4 3 5 2 6 1 7 8 8 9 9 10 10 11 11 12 12 13 13
REMARK H PARENT 13 14
REMARK Flexibility Score: inf
ROOT
ATOM      1  C   UNL     1     115.696 105.879 108.144  1.00  0.00     0.000 C 
ENDROOT
BRANCH   1   2
ATOM      2  C   UNL     1     114.457 106.789 108.031  1.00  0.00    -0.000 C 
BRANCH   2   3
ATOM      3  C   UNL     1     114.457 107.751 106.827  1.00  0.00    -0.000 C 
BRANCH   3   4
ATOM      4  C   UNL     1     114.706 109.229 107.177  1.00  0.00    -0.000 C 
BRANCH   4   5
ATOM      5  C   UNL     1     115.046 109.441 108.660  1.00  0.00    -0.000 C 
BRANCH   5   6
ATOM      6  C   UNL     1     116.440 110.058 108.820  1.00  0.00    -0.003 C 
ATOM      7  C   UNL     1     116.810 110.907 107.606  1.00  0.00     0.004 C 
ENDBRANCH   5   6
ENDBRANCH   4   5
ENDBRANCH   3   4
ENDBRANCH   2   3
ENDBRANCH   1   2
BRANCH   1   8
ATOM      8  C   UNL     1     116.850 106.220 107.182  1.00  0.00     0.000 C 
BRANCH   8   9
ATOM      9  C   UNL     1     118.101 106.741 107.910  1.00  0.00     0.000 C 
BRANCH   9  10
ATOM     10  C   UNL     1     118.818 107.865 107.140  1.00  0.00     0.002 C 
BRANCH  10  11
ATOM     11  C   UNL     1     119.874 108.643 107.948  1.00  0.00     0.028 C 
BRANCH  11  12
ATOM     12  C   UNL     1     119.805 108.399 109.462  1.00  0.00     0.156 C 
BRANCH  12  13
ATOM     13  O   UNL     1     119.666 109.605 110.163  1.00  0.00    -0.396 OA
ATOM     14  H   UNL     1     120.566 110.025 110.188  1.00  0.00     0.210 HD
ENDBRANCH  12  13
ENDBRANCH  11  12
ENDBRANCH  10  11
ENDBRANCH   9  10
ENDBRANCH   8   9
ENDBRANCH   1   8
TORSDOF 11
ENDMDL
MODEL 3
REMARK VINA RESULT:    -2.490      1.860      2.734
REMARK INTER + INTRA:          -5.234
REMARK INTER:                  -3.851
REMARK INTRA:                  -1.383
REMARK UNBOUND:                -1.216
REMARK SMILES CCCCCCCCCCCCO
REMARK SMILES IDX 7 1 6 2 5 3 4 4 3 5 2 6 1 7 8 8 9 9 10 10 11 11 12 12 13 13
REMARK H PARENT 13 14
REMARK Flexibility Score: inf
ROOT
ATOM      1  C   UNL     1     110.271 116.652 107.901  1.00  0.00     0.000 C 
ENDROOT
BRANCH   1   2
ATOM      2  C   UNL     1     109.001 117.033 108.687  1.00  0.00    -0.000 C 
BRANCH   2   3
ATOM      3  C   UNL     1     107.816 117.513 107.826  1.00  0.00    -0.000 C 
BRANCH   3   4
ATOM      4  C   UNL     1     106.514 116.714 108.011  1.00  0.00    -0.000 C 
BRANCH   4   5
ATOM      5  C   UNL     1     106.645 115.249 107.568  1.00  0.00    -0.000 C 
BRANCH   5   6
ATOM      6  C   UNL     1     106.768 115.147 106.043  1.00  0.00    -0.003 C 
ATOM      7  C   UNL     1     108.065 114.451 105.640  1.00  0.00     0.004 C 
ENDBRANCH   5   6
ENDBRANCH   4   5
ENDBRANCH   3   4
ENDBRANCH   2   3
ENDBRANCH   1   2
BRANCH   1   8
ATOM      8  C   UNL     1     110.748 115.200 108.088  1.00  0.00     0.000 C 
BRANCH   8   9
ATOM      9  C   UNL     1     109.957 114.447 109.171  1.00  0.00     0.000 C 
BRANCH   9  10
ATOM     10  C   UNL     1     110.029 112.917 109.010  1.00  0.00     0.002 C 
BRANCH  10  11
ATOM     11  C   UNL     1     108.705 112.237 108.609  1.00  0.00     0.028 C 
BRANCH  11  12
ATOM     12  C   UNL     1     108.157 111.266 109.664  1.00  0.00     0.156 C 
BRANCH  12  13
ATOM     13  O   UNL     1     107.491 111.954 110.687  1.00  0.00    -0.396 OA
ATOM     14  H   UNL     1     106.964 112.673 110.249  1.00  0.00     0.210 HD
ENDBRANCH  12  13
ENDBRANCH  11  12
ENDBRANCH  10  11
ENDBRANCH   9  10
ENDBRANCH   8   9
ENDBRANCH   1   8
TORSDOF 11
ENDMDL
MODEL 4
REMARK VINA RESULT:    -2.475      1.287      3.425
REMARK INTER + INTRA:          -5.210
REMARK INTER:                  -3.916
REMARK INTRA:                  -1.294
REMARK UNBOUND:                -1.216
REMARK SMILES CCCCCCCCCCCCO
REMARK SMILES IDX 7 1 6 2 5 3 4 4 3 5 2 6 1 7 8 8 9 9 10 10 11 11 12 12 13 13
REMARK H PARENT 13 14
REMARK Flexibility Score: inf
ROOT
ATOM      1  C   UNL     1     108.510 113.972 106.076  1.00  0.00     0.000 C 
ENDROOT
BRANCH   1   2
ATOM      2  C   UNL     1     107.091 114.106 106.663  1.00  0.00    -0.000 C 
BRANCH   2   3
ATOM      3  C   UNL     1     106.829 115.402 107.456  1.00  0.00    -0.000 C 
BRANCH   3   4
ATOM      4  C   UNL     1     107.808 116.553 107.161  1.00  0.00    -0.000 C 
BRANCH   4   5
ATOM      5  C   UNL     1     108.495 117.090 108.426  1.00  0.00    -0.000 C 
BRANCH   5   6
ATOM      6  C   UNL     1     110.013 117.164 108.235  1.00  0.00    -0.003 C 
ATOM      7  C   UNL     1     110.387 117.114 106.755  1.00  0.00     0.004 C 
ENDBRANCH   5   6
ENDBRANCH   4   5
ENDBRANCH   3   4
ENDBRANCH   2   3
ENDBRANCH   1   2
BRANCH   1   8
ATOM      8  C   UNL     1     109.505 113.174 106.938  1.00  0.00     0.000 C 
BRANCH   8   9
ATOM      9  C   UNL     1     108.810 112.299 107.995  1.00  0.00     0.000 C 
BRANCH   9  10
ATOM     10  C   UNL     1     109.325 112.561 109.423  1.00  0.00     0.002 C 
BRANCH  10  11
ATOM     11  C   UNL     1     110.299 113.747 109.561  1.00  0.00     0.028 C 
BRANCH  11  12
ATOM     12  C   UNL     1     111.774 113.335 109.663  1.00  0.00     0.156 C 
BRANCH  12  13
ATOM     13  O   UNL     1     112.341 113.780 110.865  1.00  0.00    -0.396 OA
ATOM     14  H   UNL     1     111.612 114.218 111.378  1.00  0.00     0.210 HD
ENDBRANCH  12  13
ENDBRANCH  11  12
ENDBRANCH  10  11
ENDBRANCH   9  10
ENDBRANCH   8   9
ENDBRANCH   1   8
TORSDOF 11
ENDMDL
MODEL 5
REMARK VINA RESULT:    -2.466      8.629     11.055
REMARK INTER + INTRA:          -5.195
REMARK INTER:                  -3.943
REMARK INTRA:                  -1.252
REMARK UNBOUND:                -1.216
REMARK SMILES CCCCCCCCCCCCO
REMARK SMILES IDX 7 1 6 2 5 3 4 4 3 5 2 6 1 7 8 8 9 9 10 10 11 11 12 12 13 13
REMARK H PARENT 13 14
REMARK Flexibility Score: inf
ROOT
ATOM      1  C   UNL     1     118.249 108.193 106.097  1.00  0.00     0.000 C 
ENDROOT
BRANCH   1   2
ATOM      2  C   UNL     1     117.727 106.794 106.479  1.00  0.00    -0.000 C 
BRANCH   2   3
ATOM      3  C   UNL     1     116.192 106.653 106.511  1.00  0.00    -0.000 C 
BRANCH   3   4
ATOM      4  C   UNL     1     115.568 106.675 107.918  1.00  0.00    -0.000 C 
BRANCH   4   5
ATOM      5  C   UNL     1     114.522 107.788 108.088  1.00  0.00    -0.000 C 
BRANCH   5   6
ATOM      6  C   UNL     1     115.152 109.042 108.705  1.00  0.00    -0.003 C 
ATOM      7  C   UNL     1     115.353 110.132 107.655  1.00  0.00     0.004 C 
ENDBRANCH   5   6
ENDBRANCH   4   5
ENDBRANCH   3   4
ENDBRANCH   2   3
ENDBRANCH   1   2
BRANCH   1   8
ATOM      8  C   UNL     1     119.260 108.808 107.083  1.00  0.00     0.000 C 
BRANCH   8   9
ATOM      9  C   UNL     1     119.172 108.192 108.489  1.00  0.00     0.000 C 
BRANCH   9  10
ATOM     10  C   UNL     1     119.518 109.195 109.606  1.00  0.00     0.002 C 
BRANCH  10  11
ATOM     11  C   UNL     1     118.441 110.262 109.885  1.00  0.00     0.028 C 
BRANCH  11  12
ATOM     12  C   UNL     1     118.910 111.702 109.639  1.00  0.00     0.156 C 
BRANCH  12  13
ATOM     13  O   UNL     1     118.030 112.627 110.218  1.00  0.00    -0.396 OA
ATOM     14  H   UNL     1     118.476 113.513 110.169  1.00  0.00     0.210 HD
ENDBRANCH  12  13
ENDBRANCH  11  12
ENDBRANCH  10  11
ENDBRANCH   9  10
ENDBRANCH   8   9
ENDBRANCH   1   8
TORSDOF 11
ENDMDL
MODEL 6
REMARK VINA RESULT:    -2.451     12.707     15.616
REMARK INTER + INTRA:          -5.171
REMARK INTER:                  -3.966
REMARK INTRA:                  -1.205
REMARK UNBOUND:                -1.216
REMARK SMILES CCCCCCCCCCCCO
REMARK SMILES IDX 7 1 6 2 5 3 4 4 3 5 2 6 1 7 8 8 9 9 10 10 11 11 12 12 13 13
REMARK H PARENT 13 14
REMARK Flexibility Score: inf
ROOT
ATOM      1  C   UNL     1     124.503 115.559 107.034  1.00  0.00     0.000 C 
ENDROOT
BRANCH   1   2
ATOM      2  C   UNL     1     125.728 116.404 107.438  1.00  0.00    -0.000 C 
BRANCH   2   3
ATOM      3  C   UNL     1     125.406 117.821 107.951  1.00  0.00    -0.000 C 
BRANCH   3   4
ATOM      4  C   UNL     1     124.418 118.618 107.082  1.00  0.00    -0.000 C 
BRANCH   4   5
ATOM      5  C   UNL     1     123.972 119.933 107.739  1.00  0.00    -0.000 C 
BRANCH   5   6
ATOM      6  C   UNL     1     124.138 119.870 109.261  1.00  0.00    -0.003 C 
ATOM      7  C   UNL     1     123.891 121.234 109.901  1.00  0.00     0.004 C 
ENDBRANCH   5   6
ENDBRANCH   4   5
ENDBRANCH   3   4
ENDBRANCH   2   3
ENDBRANCH   1   2
BRANCH   1   8
ATOM      8  C   UNL     1     123.680 114.993 108.206  1.00  0.00     0.000 C 
BRANCH   8   9
ATOM      9  C   UNL     1     122.224 115.487 108.207  1.00  0.00     0.000 C 
BRANCH   9  10
ATOM     10  C   UNL     1     122.025 116.763 109.046  1.00  0.00     0.002 C 
BRANCH  10  11
ATOM     11  C   UNL     1     120.892 117.693 108.568  1.00  0.00     0.028 C 
BRANCH  11  12
ATOM     12  C   UNL     1     120.523 118.794 109.571  1.00  0.00     0.156 C 
BRANCH  12  13
ATOM     13  O   UNL     1     119.713 118.291 110.598  1.00  0.00    -0.396 OA
ATOM     14  H   UNL     1     118.773 118.465 110.330  1.00  0.00     0.210 HD
ENDBRANCH  12  13
ENDBRANCH  11  12
ENDBRANCH  10  11
ENDBRANCH   9  10
ENDBRANCH   8   9
ENDBRANCH   1   8
TORSDOF 11
ENDMDL
MODEL 7
REMARK VINA RESULT:    -2.412      8.657     10.807
REMARK INTER + INTRA:          -5.109
REMARK INTER:                  -3.918
REMARK INTRA:                  -1.191
REMARK UNBOUND:                -1.216
REMARK SMILES CCCCCCCCCCCCO
REMARK SMILES IDX 7 1 6 2 5 3 4 4 3 5 2 6 1 7 8 8 9 9 10 10 11 11 12 12 13 13
REMARK H PARENT 13 14
REMARK Flexibility Score: inf
ROOT
ATOM      1  C   UNL     1     117.238 123.880 108.305  1.00  0.00     0.000 C 
ENDROOT
BRANCH   1   2
ATOM      2  C   UNL     1     117.596 124.319 106.872  1.00  0.00    -0.000 C 
BRANCH   2   3
ATOM      3  C   UNL     1     116.400 124.461 105.910  1.00  0.00    -0.000 C 
BRANCH   3   4
ATOM      4  C   UNL     1     115.223 125.289 106.455  1.00  0.00    -0.000 C 
BRANCH   4   5
ATOM      5  C   UNL     1     113.936 124.466 106.610  1.00  0.00    -0.000 C 
BRANCH   5   6
ATOM      6  C   UNL     1     113.263 124.750 107.957  1.00  0.00    -0.003 C 
ATOM      7  C   UNL     1     111.974 123.946 108.111  1.00  0.00     0.004 C 
ENDBRANCH   5   6
ENDBRANCH   4   5
ENDBRANCH   3   4
ENDBRANCH   2   3
ENDBRANCH   1   2
BRANCH   1   8
ATOM      8  C   UNL     1     116.980 122.372 108.485  1.00  0.00     0.000 C 
BRANCH   8   9
ATOM      9  C   UNL     1     115.515 122.053 108.826  1.00  0.00     0.000 C 
BRANCH   9  10
ATOM     10  C   UNL     1     114.969 120.840 108.051  1.00  0.00     0.002 C 
BRANCH  10  11
ATOM     11  C   UNL     1     113.472 120.545 108.265  1.00  0.00     0.028 C 
BRANCH  11  12
ATOM     12  C   UNL     1     113.035 120.568 109.736  1.00  0.00     0.156 C 
BRANCH  12  13
ATOM     13  O   UNL     1     113.763 119.641 110.495  1.00  0.00    -0.396 OA
ATOM     14  H   UNL     1     114.607 120.091 110.761  1.00  0.00     0.210 HD
ENDBRANCH  12  13
ENDBRANCH  11  12
ENDBRANCH  10  11
ENDBRANCH   9  10
ENDBRANCH   8   9
ENDBRANCH   1   8
TORSDOF 11
ENDMDL
MODEL 8
REMARK VINA RESULT:    -2.343      8.608     10.806
REMARK INTER + INTRA:          -4.997
REMARK INTER:                  -3.667
REMARK INTRA:                  -1.331
REMARK UNBOUND:                -1.216
REMARK SMILES CCCCCCCCCCCCO
REMARK SMILES IDX 7 1 6 2 5 3 4 4 3 5 2 6 1 7 8 8 9 9 10 10 11 11 12 12 13 13
REMARK H PARENT 13 14
REMARK Flexibility Score: inf
ROOT
ATOM      1  C   UNL     1     114.872 125.016 107.412  1.00  0.00     0.000 C 
ENDROOT
BRANCH   1   2
ATOM      2  C   UNL     1     116.094 124.928 106.476  1.00  0.00    -0.000 C 
BRANCH   2   3
ATOM      3  C   UNL     1     117.315 124.189 107.059  1.00  0.00    -0.000 C 
BRANCH   3   4
ATOM      4  C   UNL     1     117.081 123.529 108.429  1.00  0.00    -0.000 C 
BRANCH   4   5
ATOM      5  C   UNL     1     117.107 121.994 108.365  1.00  0.00    -0.000 C 
BRANCH   5   6
ATOM      6  C   UNL     1     117.230 121.509 106.917  1.00  0.00    -0.003 C 
ATOM      7  C   UNL     1     115.897 120.971 106.400  1.00  0.00     0.004 C 
ENDBRANCH   5   6
ENDBRANCH   4   5
ENDBRANCH   3   4
ENDBRANCH   2   3
ENDBRANCH   1   2
BRANCH   1   8
ATOM      8  C   UNL     1     113.548 124.506 106.812  1.00  0.00     0.000 C 
BRANCH   8   9
ATOM      9  C   UNL     1     113.138 123.128 107.359  1.00  0.00     0.000 C 
BRANCH   9  10
ATOM     10  C   UNL     1     113.457 122.958 108.856  1.00  0.00     0.002 C 
BRANCH  10  11
ATOM     11  C   UNL     1     112.829 121.719 109.523  1.00  0.00     0.028 C 
BRANCH  11  12
ATOM     12  C   UNL     1     113.663 120.439 109.373  1.00  0.00     0.156 C 
BRANCH  12  13
ATOM     13  O   UNL     1     113.731 119.735 110.583  1.00  0.00    -0.396 OA
ATOM     14  H   UNL     1     114.531 119.149 110.526  1.00  0.00     0.210 HD
ENDBRANCH  12  13
ENDBRANCH  11  12
ENDBRANCH  10  11
ENDBRANCH   9  10
ENDBRANCH   8   9
ENDBRANCH   1   8
TORSDOF 11
ENDMDL
MODEL 9
REMARK VINA RESULT:    -2.280     11.802     14.119
REMARK INTER + INTRA:          -4.896
REMARK INTER:                  -3.560
REMARK INTRA:                  -1.335
REMARK UNBOUND:                -1.216
REMARK SMILES CCCCCCCCCCCCO
REMARK SMILES IDX 7 1 6 2 5 3 4 4 3 5 2 6 1 7 8 8 9 9 10 10 11 11 12 12 13 13
REMARK H PARENT 13 14
REMARK Flexibility Score: inf
ROOT
ATOM      1  C   UNL     1     123.088 116.934 105.288  1.00  0.00     0.000 C 
ENDROOT
BRANCH   1   2
ATOM      2  C   UNL     1     124.257 116.259 106.033  1.00  0.00    -0.000 C 
BRANCH   2   3
ATOM      3  C   UNL     1     123.947 114.865 106.615  1.00  0.00    -0.000 C 
BRANCH   3   4
ATOM      4  C   UNL     1     123.688 114.838 108.131  1.00  0.00    -0.000 C 
BRANCH   4   5
ATOM      5  C   UNL     1     122.199 114.972 108.484  1.00  0.00    -0.000 C 
BRANCH   5   6
ATOM      6  C   UNL     1     121.316 114.462 107.340  1.00  0.00    -0.003 C 
ATOM      7  C   UNL     1     120.110 115.373 107.125  1.00  0.00     0.004 C 
ENDBRANCH   5   6
ENDBRANCH   4   5
ENDBRANCH   3   4
ENDBRANCH   2   3
ENDBRANCH   1   2
BRANCH   1   8
ATOM      8  C   UNL     1     122.865 118.419 105.628  1.00  0.00     0.000 C 
BRANCH   8   9
ATOM      9  C   UNL     1     121.752 118.633 106.668  1.00  0.00     0.000 C 
BRANCH   9  10
ATOM     10  C   UNL     1     122.295 119.024 108.055  1.00  0.00     0.002 C 
BRANCH  10  11
ATOM     11  C   UNL     1     121.662 118.272 109.243  1.00  0.00     0.028 C 
BRANCH  11  12
ATOM     12  C   UNL     1     120.168 118.563 109.440  1.00  0.00     0.156 C 
BRANCH  12  13
ATOM     13  O   UNL     1     119.769 118.289 110.756  1.00  0.00    -0.396 OA
ATOM     14  H   UNL     1     120.556 118.470 111.334  1.00  0.00     0.210 HD
ENDBRANCH  12  13
ENDBRANCH  11  12
ENDBRANCH  10  11
ENDBRANCH   9  10
ENDBRANCH   8   9
ENDBRANCH   1   8
TORSDOF 11
ENDMDL
