MODEL 1
REMARK VINA RESULT:    -5.471      0.000      0.000
REMARK INTER + INTRA:          -5.471
REMARK INTER:                  -5.471
REMARK INTRA:                   0.000
REMARK UNBOUND:                 0.000
REMARK SMILES CC1(C)O[C@]2(C)CC[C@H]1CC2
REMARK SMILES IDX 1 1 2 2 9 3 10 4 11 5 5 6 4 7 7 8 8 9 6 10 3 11
REMARK H PARENT
REMARK Flexibility Score: inf
ROOT
ATOM      1  C   UNL     1      -8.601  -5.765  18.385  1.00  0.00     0.042 C 
ATOM      2  C   UNL     1      -7.283  -6.153  17.680  1.00  0.00     0.066 C 
ATOM      3  C   UNL     1      -7.533  -7.295  16.619  1.00  0.00     0.021 C 
ATOM      4  C   UNL     1      -8.480  -6.746  15.525  1.00  0.00     0.009 C 
ATOM      5  C   UNL     1      -7.918  -5.406  14.991  1.00  0.00     0.035 C 
ATOM      6  C   UNL     1      -6.548  -5.103  15.664  1.00  0.00     0.066 C 
ATOM      7  O   UNL     1      -6.737  -4.973  17.074  1.00  0.00    -0.369 OA
ATOM      8  C   UNL     1      -5.576  -6.286  15.386  1.00  0.00     0.035 C 
ATOM      9  C   UNL     1      -6.193  -7.606  15.910  1.00  0.00     0.009 C 
ATOM     10  C   UNL     1      -5.965  -3.796  15.120  1.00  0.00     0.042 C 
ATOM     11  C   UNL     1      -6.301  -6.630  18.772  1.00  0.00     0.042 C 
ENDROOT
TORSDOF 0
ENDMDL
MODEL 2
REMARK VINA RESULT:    -5.448      0.863      3.325
REMARK INTER + INTRA:          -5.448
REMARK INTER:                  -5.448
REMARK INTRA:                   0.000
REMARK UNBOUND:                 0.000
REMARK SMILES CC1(C)O[C@]2(C)CC[C@H]1CC2
REMARK SMILES IDX 1 1 2 2 9 3 10 4 11 5 5 6 4 7 7 8 8 9 6 10 3 11
REMARK H PARENT
REMARK Flexibility Score: inf
ROOT
ATOM      1  C   UNL     1      -5.248  -5.932  15.011  1.00  0.00     0.042 C 
ATOM      2  C   UNL     1      -6.350  -5.365  15.932  1.00  0.00     0.066 C 
ATOM      3  C   UNL     1      -7.758  -5.974  15.557  1.00  0.00     0.021 C 
ATOM      4  C   UNL     1      -7.710  -7.502  15.804  1.00  0.00     0.009 C 
ATOM      5  C   UNL     1      -7.191  -7.770  17.237  1.00  0.00     0.035 C 
ATOM      6  C   UNL     1      -6.978  -6.420  17.982  1.00  0.00     0.066 C 
ATOM      7  O   UNL     1      -5.989  -5.655  17.290  1.00  0.00    -0.369 OA
ATOM      8  C   UNL     1      -8.319  -5.632  17.993  1.00  0.00     0.035 C 
ATOM      9  C   UNL     1      -8.812  -5.414  16.542  1.00  0.00     0.009 C 
ATOM     10  C   UNL     1      -6.495  -6.672  19.413  1.00  0.00     0.042 C 
ATOM     11  C   UNL     1      -6.355  -3.832  15.753  1.00  0.00     0.042 C 
ENDROOT
TORSDOF 0
ENDMDL
MODEL 3
REMARK VINA RESULT:    -5.393      1.167      2.407
REMARK INTER + INTRA:          -5.393
REMARK INTER:                  -5.393
REMARK INTRA:                   0.000
REMARK UNBOUND:                 0.000
REMARK SMILES CC1(C)O[C@]2(C)CC[C@H]1CC2
REMARK SMILES IDX 1 1 2 2 9 3 10 4 11 5 5 6 4 7 7 8 8 9 6 10 3 11
REMARK H PARENT
REMARK Flexibility Score: inf
ROOT
ATOM      1  C   UNL     1      -6.113  -7.478  18.098  1.00  0.00     0.042 C 
ATOM      2  C   UNL     1      -6.967  -7.102  16.868  1.00  0.00     0.066 C 
ATOM      3  C   UNL     1      -8.137  -6.126  17.280  1.00  0.00     0.021 C 
ATOM      4  C   UNL     1      -7.515  -4.812  17.811  1.00  0.00     0.009 C 
ATOM      5  C   UNL     1      -6.492  -4.281  16.778  1.00  0.00     0.035 C 
ATOM      6  C   UNL     1      -6.496  -5.189  15.516  1.00  0.00     0.066 C 
ATOM      7  O   UNL     1      -6.101  -6.511  15.888  1.00  0.00    -0.369 OA
ATOM      8  C   UNL     1      -7.937  -5.233  14.929  1.00  0.00     0.035 C 
ATOM      9  C   UNL     1      -8.926  -5.742  16.005  1.00  0.00     0.009 C 
ATOM     10  C   UNL     1      -5.512  -4.655  14.471  1.00  0.00     0.042 C 
ATOM     11  C   UNL     1      -7.532  -8.413  16.282  1.00  0.00     0.042 C 
ENDROOT
TORSDOF 0
ENDMDL
MODEL 4
REMARK VINA RESULT:    -5.343      1.175      2.437
REMARK INTER + INTRA:          -5.343
REMARK INTER:                  -5.343
REMARK INTRA:                   0.000
REMARK UNBOUND:                 0.000
REMARK SMILES CC1(C)O[C@]2(C)CC[C@H]1CC2
REMARK SMILES IDX 1 1 2 2 9 3 10 4 11 5 5 6 4 7 7 8 8 9 6 10 3 11
REMARK H PARENT
REMARK Flexibility Score: inf
ROOT
ATOM      1  C   UNL     1      -8.449  -7.941  16.128  1.00  0.00     0.042 C 
ATOM      2  C   UNL     1      -8.121  -6.524  16.647  1.00  0.00     0.066 C 
ATOM      3  C   UNL     1      -6.871  -6.558  17.609  1.00  0.00     0.021 C 
ATOM      4  C   UNL     1      -5.641  -7.032  16.797  1.00  0.00     0.009 C 
ATOM      5  C   UNL     1      -5.515  -6.172  15.517  1.00  0.00     0.035 C 
ATOM      6  C   UNL     1      -6.606  -5.063  15.517  1.00  0.00     0.066 C 
ATOM      7  O   UNL     1      -7.897  -5.675  15.512  1.00  0.00    -0.369 OA
ATOM      8  C   UNL     1      -6.453  -4.203  16.804  1.00  0.00     0.035 C 
ATOM      9  C   UNL     1      -6.557  -5.110  18.055  1.00  0.00     0.009 C 
ATOM     10  C   UNL     1      -6.472  -4.183  14.270  1.00  0.00     0.042 C 
ATOM     11  C   UNL     1      -9.370  -6.008  17.393  1.00  0.00     0.042 C 
ENDROOT
TORSDOF 0
ENDMDL
MODEL 5
REMARK VINA RESULT:    -5.062      1.342      3.331
REMARK INTER + INTRA:          -5.062
REMARK INTER:                  -5.062
REMARK INTRA:                   0.000
REMARK UNBOUND:                 0.000
REMARK SMILES CC1(C)O[C@]2(C)CC[C@H]1CC2
REMARK SMILES IDX 1 1 2 2 9 3 10 4 11 5 5 6 4 7 7 8 8 9 6 10 3 11
REMARK H PARENT
REMARK Flexibility Score: inf
ROOT
ATOM      1  C   UNL     1      -7.980  -5.385  14.297  1.00  0.00     0.042 C 
ATOM      2  C   UNL     1      -7.000  -5.594  15.472  1.00  0.00     0.066 C 
ATOM      3  C   UNL     1      -7.490  -4.813  16.753  1.00  0.00     0.021 C 
ATOM      4  C   UNL     1      -8.851  -5.405  17.195  1.00  0.00     0.009 C 
ATOM      5  C   UNL     1      -8.719  -6.942  17.321  1.00  0.00     0.035 C 
ATOM      6  C   UNL     1      -7.248  -7.370  17.051  1.00  0.00     0.066 C 
ATOM      7  O   UNL     1      -6.891  -7.003  15.717  1.00  0.00    -0.369 OA
ATOM      8  C   UNL     1      -6.315  -6.629  18.052  1.00  0.00     0.035 C 
ATOM      9  C   UNL     1      -6.502  -5.099  17.909  1.00  0.00     0.009 C 
ATOM     10  C   UNL     1      -7.097  -8.886  17.205  1.00  0.00     0.042 C 
ATOM     11  C   UNL     1      -5.619  -5.077  15.015  1.00  0.00     0.042 C 
ENDROOT
TORSDOF 0
ENDMDL
MODEL 6
REMARK VINA RESULT:    -5.053      1.143      3.245
REMARK INTER + INTRA:          -5.053
REMARK INTER:                  -5.053
REMARK INTRA:                   0.000
REMARK UNBOUND:                 0.000
REMARK SMILES CC1(C)O[C@]2(C)CC[C@H]1CC2
REMARK SMILES IDX 1 1 2 2 9 3 10 4 11 5 5 6 4 7 7 8 8 9 6 10 3 11
REMARK H PARENT
REMARK Flexibility Score: inf
ROOT
ATOM      1  C   UNL     1      -6.292  -3.750  16.542  1.00  0.00     0.042 C 
ATOM      2  C   UNL     1      -6.893  -5.039  15.942  1.00  0.00     0.066 C 
ATOM      3  C   UNL     1      -5.991  -6.288  16.286  1.00  0.00     0.021 C 
ATOM      4  C   UNL     1      -5.978  -6.474  17.823  1.00  0.00     0.009 C 
ATOM      5  C   UNL     1      -7.436  -6.499  18.344  1.00  0.00     0.035 C 
ATOM      6  C   UNL     1      -8.426  -6.421  17.147  1.00  0.00     0.066 C 
ATOM      7  O   UNL     1      -8.226  -5.189  16.453  1.00  0.00    -0.369 OA
ATOM      8  C   UNL     1      -8.141  -7.605  16.178  1.00  0.00     0.035 C 
ATOM      9  C   UNL     1      -6.667  -7.554  15.707  1.00  0.00     0.009 C 
ATOM     10  C   UNL     1      -9.873  -6.479  17.646  1.00  0.00     0.042 C 
ATOM     11  C   UNL     1      -6.984  -4.836  14.415  1.00  0.00     0.042 C 
ENDROOT
TORSDOF 0
ENDMDL
MODEL 7
REMARK VINA RESULT:    -4.908      6.712      7.994
REMARK INTER + INTRA:          -4.908
REMARK INTER:                  -4.908
REMARK INTRA:                   0.000
REMARK UNBOUND:                 0.000
REMARK SMILES CC1(C)O[C@]2(C)CC[C@H]1CC2
REMARK SMILES IDX 1 1 2 2 9 3 10 4 11 5 5 6 4 7 7 8 8 9 6 10 3 11
REMARK H PARENT
REMARK Flexibility Score: inf
ROOT
ATOM      1  C   UNL     1      -3.306  -3.351  10.520  1.00  0.00     0.042 C 
ATOM      2  C   UNL     1      -2.457  -3.074  11.779  1.00  0.00     0.066 C 
ATOM      3  C   UNL     1      -1.156  -2.262  11.406  1.00  0.00     0.021 C 
ATOM      4  C   UNL     1      -1.584  -0.885  10.842  1.00  0.00     0.009 C 
ATOM      5  C   UNL     1      -2.567  -0.214  11.832  1.00  0.00     0.035 C 
ATOM      6  C   UNL     1      -2.727  -1.101  13.100  1.00  0.00     0.066 C 
ATOM      7  O   UNL     1      -3.275  -2.365  12.721  1.00  0.00    -0.369 OA
ATOM      8  C   UNL     1      -1.327  -1.323  13.741  1.00  0.00     0.035 C 
ATOM      9  C   UNL     1      -0.372  -1.967  12.707  1.00  0.00     0.009 C 
ATOM     10  C   UNL     1      -3.673  -0.433  14.102  1.00  0.00     0.042 C 
ATOM     11  C   UNL     1      -2.088  -4.440  12.395  1.00  0.00     0.042 C 
ENDROOT
TORSDOF 0
ENDMDL
MODEL 8
REMARK VINA RESULT:    -4.903      6.654      7.983
REMARK INTER + INTRA:          -4.903
REMARK INTER:                  -4.903
REMARK INTRA:                   0.000
REMARK UNBOUND:                 0.000
REMARK SMILES CC1(C)O[C@]2(C)CC[C@H]1CC2
REMARK SMILES IDX 1 1 2 2 9 3 10 4 11 5 5 6 4 7 7 8 8 9 6 10 3 11
REMARK H PARENT
REMARK Flexibility Score: inf
ROOT
ATOM      1  C   UNL     1      -2.976  -0.707  13.614  1.00  0.00     0.042 C 
ATOM      2  C   UNL     1      -4.405  -0.122  13.599  1.00  0.00     0.066 C 
ATOM      3  C   UNL     1      -4.426   1.278  12.869  1.00  0.00     0.021 C 
ATOM      4  C   UNL     1      -4.014   1.065  11.392  1.00  0.00     0.009 C 
ATOM      5  C   UNL     1      -4.886  -0.058  10.778  1.00  0.00     0.035 C 
ATOM      6  C   UNL     1      -5.942  -0.534  11.817  1.00  0.00     0.066 C 
ATOM      7  O   UNL     1      -5.268  -1.071  12.957  1.00  0.00    -0.369 OA
ATOM      8  C   UNL     1      -6.801   0.685  12.259  1.00  0.00     0.035 C 
ATOM      9  C   UNL     1      -5.886   1.791  12.838  1.00  0.00     0.009 C 
ATOM     10  C   UNL     1      -6.832  -1.622  11.211  1.00  0.00     0.042 C 
ATOM     11  C   UNL     1      -4.857   0.023  15.068  1.00  0.00     0.042 C 
ENDROOT
TORSDOF 0
ENDMDL
MODEL 9
REMARK VINA RESULT:    -4.894     10.464     12.130
REMARK INTER + INTRA:          -4.894
REMARK INTER:                  -4.894
REMARK INTRA:                   0.000
REMARK UNBOUND:                 0.000
REMARK SMILES CC1(C)O[C@]2(C)CC[C@H]1CC2
REMARK SMILES IDX 1 1 2 2 9 3 10 4 11 5 5 6 4 7 7 8 8 9 6 10 3 11
REMARK H PARENT
REMARK Flexibility Score: inf
ROOT
ATOM      1  C   UNL     1     -15.844 -13.529  24.851  1.00  0.00     0.042 C 
ATOM      2  C   UNL     1     -15.382 -13.264  23.401  1.00  0.00     0.066 C 
ATOM      3  C   UNL     1     -16.125 -12.008  22.800  1.00  0.00     0.021 C 
ATOM      4  C   UNL     1     -15.729 -10.763  23.630  1.00  0.00     0.009 C 
ATOM      5  C   UNL     1     -14.186 -10.684  23.724  1.00  0.00     0.035 C 
ATOM      6  C   UNL     1     -13.547 -11.825  22.882  1.00  0.00     0.066 C 
ATOM      7  O   UNL     1     -13.958 -13.086  23.413  1.00  0.00    -0.369 OA
ATOM      8  C   UNL     1     -14.040 -11.704  21.411  1.00  0.00     0.035 C 
ATOM      9  C   UNL     1     -15.587 -11.759  21.370  1.00  0.00     0.009 C 
ATOM     10  C   UNL     1     -12.019 -11.738  22.940  1.00  0.00     0.042 C 
ATOM     11  C   UNL     1     -15.700 -14.531  22.579  1.00  0.00     0.042 C 
ENDROOT
TORSDOF 0
ENDMDL
