MODEL 1
REMARK VINA RESULT:    -4.733      0.000      0.000
REMARK INTER + INTRA:          -5.090
REMARK INTER:                  -5.839
REMARK INTRA:                   0.749
REMARK UNBOUND:                 0.749
REMARK SMILES CC1=CC=CC(C)(C)CC1=O
REMARK SMILES IDX 1 1 2 2 3 3 10 4 11 5 9 6 4 8 5 9 6 10 7 11 8 12
REMARK H PARENT
REMARK Flexibility Score: 80.00
ROOT
ATOM      1  C   UNL     1      -7.290  32.745  20.117  1.00  0.00     0.048 C 
ATOM      2  C   UNL     1      -7.461  32.358  21.567  1.00  0.00    -0.008 C 
ATOM      3  C   UNL     1      -7.453  31.042  21.867  1.00  0.00     0.007 C 
ENDROOT
BRANCH   2   4
ATOM      4  C   UNL     1      -7.702  33.455  22.535  1.00  0.00     0.159 C 
ATOM      5  O   UNL     1      -7.932  34.615  22.097  1.00  0.00    -0.295 OA
BRANCH   4   6
ATOM      6  C   UNL     1      -7.672  33.267  24.022  1.00  0.00     0.091 CG0
ATOM      7  G   UNL     1      -8.694  32.223  24.524  1.00  0.00     0.000 G0
ENDBRANCH   4   6
ENDBRANCH   2   4
BRANCH   3   8
ATOM      8  C   UNL     1      -7.621  30.363  23.175  1.00  0.00    -0.003 C 
ATOM      9  C   UNL     1      -8.153  30.836  24.309  1.00  0.00    -0.020 C 
BRANCH   9  10
ATOM     10  C   UNL     1      -8.697  32.227  24.533  1.00  0.00    -0.010 CG0
ATOM     11  C   UNL     1     -10.087  32.363  23.872  1.00  0.00     0.016 C 
ATOM     12  C   UNL     1      -8.868  32.441  26.055  1.00  0.00     0.016 C 
ATOM     13  G   UNL     1      -7.684  33.271  24.012  1.00  0.00     0.000 G0
ENDBRANCH   9  10
ENDBRANCH   3   8
TORSDOF 0
ENDMDL
MODEL 2
REMARK VINA RESULT:    -4.610      1.475      2.377
REMARK INTER + INTRA:          -4.939
REMARK INTER:                  -5.699
REMARK INTRA:                   0.760
REMARK UNBOUND:                 0.749
REMARK SMILES CC1=CC=CC(C)(C)CC1=O
REMARK SMILES IDX 1 1 2 2 3 3 10 4 11 5 9 6 4 8 5 9 6 10 7 11 8 12
REMARK H PARENT
REMARK Flexibility Score: 80.00
ROOT
ATOM      1  C   UNL     1      -7.579  33.127  20.116  1.00  0.00     0.048 C 
ATOM      2  C   UNL     1      -8.064  33.131  21.547  1.00  0.00    -0.008 C 
ATOM      3  C   UNL     1      -7.489  34.006  22.399  1.00  0.00     0.007 C 
ENDROOT
BRANCH   2   4
ATOM      4  C   UNL     1      -9.082  32.117  21.917  1.00  0.00     0.159 C 
ATOM      5  O   UNL     1      -9.360  31.203  21.094  1.00  0.00    -0.295 OA
BRANCH   4   6
ATOM      6  C   UNL     1      -9.818  32.125  23.222  1.00  0.00     0.091 CG0
ATOM      7  G   UNL     1      -8.883  32.044  24.450  1.00  0.00     0.000 G0
ENDBRANCH   4   6
ENDBRANCH   2   4
BRANCH   3   8
ATOM      8  C   UNL     1      -7.730  34.223  23.846  1.00  0.00    -0.003 C 
ATOM      9  C   UNL     1      -8.308  33.407  24.737  1.00  0.00    -0.020 C 
BRANCH   9  10
ATOM     10  C   UNL     1      -8.891  32.042  24.458  1.00  0.00    -0.010 CG0
ATOM     11  C   UNL     1      -7.756  31.006  24.296  1.00  0.00     0.016 C 
ATOM     12  C   UNL     1      -9.749  31.624  25.674  1.00  0.00     0.016 C 
ATOM     13  G   UNL     1      -9.814  32.114  23.221  1.00  0.00     0.000 G0
ENDBRANCH   9  10
ENDBRANCH   3   8
TORSDOF 0
ENDMDL
MODEL 3
REMARK VINA RESULT:    -4.421      1.827      3.453
REMARK INTER + INTRA:          -4.706
REMARK INTER:                  -5.474
REMARK INTRA:                   0.768
REMARK UNBOUND:                 0.749
REMARK SMILES CC1=CC=CC(C)(C)CC1=O
REMARK SMILES IDX 1 1 2 2 3 3 10 4 11 5 9 6 4 8 5 9 6 10 7 11 8 12
REMARK H PARENT
REMARK Flexibility Score: 80.00
ROOT
ATOM      1  C   UNL     1      -7.725  34.946  25.553  1.00  0.00     0.048 C 
ATOM      2  C   UNL     1      -7.741  34.051  24.336  1.00  0.00    -0.008 C 
ATOM      3  C   UNL     1      -7.628  34.638  23.126  1.00  0.00     0.007 C 
ENDROOT
BRANCH   2   4
ATOM      4  C   UNL     1      -7.957  32.601  24.568  1.00  0.00     0.159 C 
ATOM      5  O   UNL     1      -8.332  32.216  25.708  1.00  0.00    -0.295 OA
BRANCH   4   6
ATOM      6  C   UNL     1      -7.738  31.556  23.517  1.00  0.00     0.091 CG0
ATOM      7  G   UNL     1      -8.636  31.744  22.274  1.00  0.00     0.000 G0
ENDBRANCH   4   6
ENDBRANCH   2   4
BRANCH   3   8
ATOM      8  C   UNL     1      -7.637  34.036  21.771  1.00  0.00    -0.003 C 
ATOM      9  C   UNL     1      -8.067  32.827  21.388  1.00  0.00    -0.020 C 
BRANCH   9  10
ATOM     10  C   UNL     1      -8.635  31.751  22.283  1.00  0.00    -0.010 CG0
ATOM     11  C   UNL     1     -10.092  32.097  22.666  1.00  0.00     0.016 C 
ATOM     12  C   UNL     1      -8.651  30.423  21.494  1.00  0.00     0.016 C 
ATOM     13  G   UNL     1      -7.723  31.566  23.517  1.00  0.00     0.000 G0
ENDBRANCH   9  10
ENDBRANCH   3   8
TORSDOF 0
ENDMDL
MODEL 4
REMARK VINA RESULT:    -4.347      1.787      3.105
REMARK INTER + INTRA:          -4.615
REMARK INTER:                  -5.363
REMARK INTRA:                   0.748
REMARK UNBOUND:                 0.749
REMARK SMILES CC1=CC=CC(C)(C)CC1=O
REMARK SMILES IDX 1 1 2 2 3 3 10 4 11 5 9 6 4 8 5 9 6 10 7 11 8 12
REMARK H PARENT
REMARK Flexibility Score: 80.00
ROOT
ATOM      1  C   UNL     1      -7.669  34.624  22.499  1.00  0.00     0.048 C 
ATOM      2  C   UNL     1      -8.183  33.218  22.695  1.00  0.00    -0.008 C 
ATOM      3  C   UNL     1      -8.743  32.917  23.886  1.00  0.00     0.007 C 
ENDROOT
BRANCH   2   4
ATOM      4  C   UNL     1      -7.960  32.257  21.587  1.00  0.00     0.159 C 
ATOM      5  O   UNL     1      -7.205  32.591  20.633  1.00  0.00    -0.295 OA
BRANCH   4   6
ATOM      6  C   UNL     1      -8.600  30.903  21.526  1.00  0.00     0.091 CG0
ATOM      7  G   UNL     1      -8.248  30.009  22.737  1.00  0.00     0.000 G0
ENDBRANCH   4   6
ENDBRANCH   2   4
BRANCH   3   8
ATOM      8  C   UNL     1      -9.305  31.636  24.378  1.00  0.00    -0.003 C 
ATOM      9  C   UNL     1      -9.104  30.395  23.917  1.00  0.00    -0.020 C 
BRANCH   9  10
ATOM     10  C   UNL     1      -8.252  30.004  22.732  1.00  0.00    -0.010 CG0
ATOM     11  C   UNL     1      -6.757  30.050  23.119  1.00  0.00     0.016 C 
ATOM     12  C   UNL     1      -8.601  28.549  22.344  1.00  0.00     0.016 C 
ATOM     13  G   UNL     1      -8.585  30.915  21.529  1.00  0.00     0.000 G0
ENDBRANCH   9  10
ENDBRANCH   3   8
TORSDOF 0
ENDMDL
MODEL 5
REMARK VINA RESULT:    -4.235      1.550      2.227
REMARK INTER + INTRA:          -4.477
REMARK INTER:                  -5.231
REMARK INTRA:                   0.754
REMARK UNBOUND:                 0.749
REMARK SMILES CC1=CC=CC(C)(C)CC1=O
REMARK SMILES IDX 1 1 2 2 3 3 10 4 11 5 9 6 4 8 5 9 6 10 7 11 8 12
REMARK H PARENT
REMARK Flexibility Score: 80.00
ROOT
ATOM      1  C   UNL     1      -7.734  35.213  21.984  1.00  0.00     0.048 C 
ATOM      2  C   UNL     1      -7.933  33.723  22.131  1.00  0.00    -0.008 C 
ATOM      3  C   UNL     1      -8.519  33.066  21.108  1.00  0.00     0.007 C 
ENDROOT
BRANCH   2   4
ATOM      4  C   UNL     1      -7.536  33.113  23.424  1.00  0.00     0.159 C 
ATOM      5  O   UNL     1      -7.241  33.870  24.389  1.00  0.00    -0.295 OA
BRANCH   4   6
ATOM      6  C   UNL     1      -7.451  31.634  23.649  1.00  0.00     0.091 CG0
ATOM      7  G   UNL     1      -8.794  30.905  23.417  1.00  0.00     0.000 G0
ENDBRANCH   4   6
ENDBRANCH   2   4
BRANCH   3   8
ATOM      8  C   UNL     1      -8.867  31.632  20.972  1.00  0.00    -0.003 C 
ATOM      9  C   UNL     1      -8.996  30.701  21.926  1.00  0.00    -0.020 C 
BRANCH   9  10
ATOM     10  C   UNL     1      -8.783  30.898  23.408  1.00  0.00    -0.010 CG0
ATOM     11  C   UNL     1      -9.996  31.633  24.023  1.00  0.00     0.016 C 
ATOM     12  C   UNL     1      -8.680  29.507  24.073  1.00  0.00     0.016 C 
ATOM     13  G   UNL     1      -7.451  31.645  23.647  1.00  0.00     0.000 G0
ENDBRANCH   9  10
ENDBRANCH   3   8
TORSDOF 0
ENDMDL
MODEL 6
REMARK VINA RESULT:    -4.150      1.902      3.554
REMARK INTER + INTRA:          -4.372
REMARK INTER:                  -5.109
REMARK INTRA:                   0.737
REMARK UNBOUND:                 0.749
REMARK SMILES CC1=CC=CC(C)(C)CC1=O
REMARK SMILES IDX 1 1 2 2 3 3 10 4 11 5 9 6 4 8 5 9 6 10 7 11 8 12
REMARK H PARENT
REMARK Flexibility Score: 80.00
ROOT
ATOM      1  C   UNL     1      -7.596  30.273  26.587  1.00  0.00     0.048 C 
ATOM      2  C   UNL     1      -7.867  30.576  25.132  1.00  0.00    -0.008 C 
ATOM      3  C   UNL     1      -6.976  30.126  24.224  1.00  0.00     0.007 C 
ENDROOT
BRANCH   2   4
ATOM      4  C   UNL     1      -9.054  31.412  24.827  1.00  0.00     0.159 C 
ATOM      5  O   UNL     1      -9.656  31.985  25.775  1.00  0.00    -0.295 OA
BRANCH   4   6
ATOM      6  C   UNL     1      -9.594  31.604  23.442  1.00  0.00     0.091 CG0
ATOM      7  G   UNL     1      -8.566  32.224  22.469  1.00  0.00     0.000 G0
ENDBRANCH   4   6
ENDBRANCH   2   4
BRANCH   3   8
ATOM      8  C   UNL     1      -6.957  30.285  22.750  1.00  0.00    -0.003 C 
ATOM      9  C   UNL     1      -7.612  31.171  21.988  1.00  0.00    -0.020 C 
BRANCH   9  10
ATOM     10  C   UNL     1      -8.577  32.229  22.470  1.00  0.00    -0.010 CG0
ATOM     11  C   UNL     1      -7.797  33.420  23.072  1.00  0.00     0.016 C 
ATOM     12  C   UNL     1      -9.375  32.748  21.252  1.00  0.00     0.016 C 
ATOM     13  G   UNL     1      -9.576  31.605  23.469  1.00  0.00     0.000 G0
ENDBRANCH   9  10
ENDBRANCH   3   8
TORSDOF 0
ENDMDL
MODEL 7
REMARK VINA RESULT:    -4.056      2.023      3.889
REMARK INTER + INTRA:          -4.255
REMARK INTER:                  -5.017
REMARK INTRA:                   0.762
REMARK UNBOUND:                 0.749
REMARK SMILES CC1=CC=CC(C)(C)CC1=O
REMARK SMILES IDX 1 1 2 2 3 3 10 4 11 5 9 6 4 8 5 9 6 10 7 11 8 12
REMARK H PARENT
REMARK Flexibility Score: 80.00
ROOT
ATOM      1  C   UNL     1      -8.541  30.936  26.234  1.00  0.00     0.048 C 
ATOM      2  C   UNL     1      -8.240  31.585  24.903  1.00  0.00    -0.008 C 
ATOM      3  C   UNL     1      -8.017  32.916  24.893  1.00  0.00     0.007 C 
ENDROOT
BRANCH   2   4
ATOM      4  C   UNL     1      -8.290  30.716  23.702  1.00  0.00     0.159 C 
ATOM      5  O   UNL     1      -8.783  29.560  23.807  1.00  0.00    -0.295 OA
BRANCH   4   6
ATOM      6  C   UNL     1      -7.770  31.131  22.360  1.00  0.00     0.091 CG0
ATOM      7  G   UNL     1      -8.483  32.378  21.790  1.00  0.00     0.000 G0
ENDBRANCH   4   6
ENDBRANCH   2   4
BRANCH   3   8
ATOM      8  C   UNL     1      -7.728  33.824  23.757  1.00  0.00    -0.003 C 
ATOM      9  C   UNL     1      -7.927  33.627  22.447  1.00  0.00    -0.020 C 
BRANCH   9  10
ATOM     10  C   UNL     1      -8.485  32.381  21.802  1.00  0.00    -0.010 CG0
ATOM     11  C   UNL     1     -10.018  32.327  21.995  1.00  0.00     0.016 C 
ATOM     12  C   UNL     1      -8.197  32.450  20.285  1.00  0.00     0.016 C 
ATOM     13  G   UNL     1      -7.769  31.135  22.371  1.00  0.00     0.000 G0
ENDBRANCH   9  10
ENDBRANCH   3   8
TORSDOF 0
ENDMDL
MODEL 8
REMARK VINA RESULT:    -3.826      1.596      3.294
REMARK INTER + INTRA:          -3.971
REMARK INTER:                  -4.708
REMARK INTRA:                   0.737
REMARK UNBOUND:                 0.749
REMARK SMILES CC1=CC=CC(C)(C)CC1=O
REMARK SMILES IDX 1 1 2 2 3 3 10 4 11 5 9 6 4 8 5 9 6 10 7 11 8 12
REMARK H PARENT
REMARK Flexibility Score: 80.00
ROOT
ATOM      1  C   UNL     1      -7.896  34.407  26.334  1.00  0.00     0.048 C 
ATOM      2  C   UNL     1      -8.414  33.334  25.406  1.00  0.00    -0.008 C 
ATOM      3  C   UNL     1      -8.933  32.221  25.966  1.00  0.00     0.007 C 
ENDROOT
BRANCH   2   4
ATOM      4  C   UNL     1      -8.240  33.558  23.950  1.00  0.00     0.159 C 
ATOM      5  O   UNL     1      -7.502  34.505  23.564  1.00  0.00    -0.295 OA
BRANCH   4   6
ATOM      6  C   UNL     1      -8.909  32.725  22.900  1.00  0.00     0.091 CG0
ATOM      7  G   UNL     1      -8.537  31.227  22.983  1.00  0.00     0.000 G0
ENDBRANCH   4   6
ENDBRANCH   2   4
BRANCH   3   8
ATOM      8  C   UNL     1      -9.488  31.003  25.327  1.00  0.00    -0.003 C 
ATOM      9  C   UNL     1      -9.323  30.558  24.075  1.00  0.00    -0.020 C 
BRANCH   9  10
ATOM     10  C   UNL     1      -8.529  31.231  22.980  1.00  0.00    -0.010 CG0
ATOM     11  C   UNL     1      -7.018  30.992  23.200  1.00  0.00     0.016 C 
ATOM     12  C   UNL     1      -8.923  30.589  21.631  1.00  0.00     0.016 C 
ATOM     13  G   UNL     1      -8.892  32.732  22.922  1.00  0.00     0.000 G0
ENDBRANCH   9  10
ENDBRANCH   3   8
TORSDOF 0
ENDMDL
MODEL 9
REMARK VINA RESULT:    -3.697      2.611      4.187
REMARK INTER + INTRA:          -3.813
REMARK INTER:                  -4.881
REMARK INTRA:                   1.068
REMARK UNBOUND:                 0.749
REMARK SMILES CC1=CC=CC(C)(C)CC1=O
REMARK SMILES IDX 1 1 2 2 3 3 10 4 11 5 9 6 4 8 5 9 6 10 7 11 8 12
REMARK H PARENT
REMARK Flexibility Score: 80.00
ROOT
ATOM      1  C   UNL     1      -8.152  32.799  27.245  1.00  0.00     0.048 C 
ATOM      2  C   UNL     1      -8.431  32.147  25.912  1.00  0.00    -0.008 C 
ATOM      3  C   UNL     1      -8.767  32.951  24.881  1.00  0.00     0.007 C 
ENDROOT
BRANCH   2   4
ATOM      4  C   UNL     1      -8.387  30.665  25.863  1.00  0.00     0.159 C 
ATOM      5  O   UNL     1      -7.816  30.041  26.799  1.00  0.00    -0.295 OA
BRANCH   4   6
ATOM      6  C   UNL     1      -8.975  29.857  24.746  1.00  0.00     0.091 CG0
ATOM      7  G   UNL     1      -8.350  30.177  23.369  1.00  0.00     0.000 G0
ENDBRANCH   4   6
ENDBRANCH   2   4
BRANCH   3   8
ATOM      8  C   UNL     1      -9.119  32.608  23.482  1.00  0.00    -0.003 C 
ATOM      9  C   UNL     1      -8.958  31.449  22.831  1.00  0.00    -0.020 C 
BRANCH   9  10
ATOM     10  C   UNL     1      -8.335  30.188  23.384  1.00  0.00    -0.010 CG0
ATOM     11  C   UNL     1      -8.478  29.037  22.362  1.00  0.00     0.016 C 
ATOM     12  C   UNL     1      -6.828  30.448  23.604  1.00  0.00     0.016 C 
ATOM     13  G   UNL     1      -8.970  29.852  24.752  1.00  0.00     0.000 G0
ENDBRANCH   9  10
ENDBRANCH   3   8
TORSDOF 0
ENDMDL
