MODEL 1
REMARK VINA RESULT:    -1.681      0.000      0.000
REMARK INTER + INTRA:          -1.681
REMARK INTER:                  -1.681
REMARK INTRA:                   0.000
REMARK UNBOUND:                 0.000
REMARK SMILES C=C1CCC[C@@]2(C)CC(=O)C(=C(C)C)C[C@@H]12
REMARK SMILES IDX 13 1 12 2 11 3 15 4 16 5 2 6 1 7 3 8 4 9 5 10 6 11 8 12 9 13
REMARK SMILES IDX 10 14 7 15 14 16
REMARK H PARENT
REMARK Flexibility Score: inf
ROOT
ATOM      1  C   UNL     1      92.676  32.814  11.341  1.00  0.00     0.039 C 
ATOM      2  C   UNL     1      92.066  31.683  12.135  1.00  0.00    -0.070 C 
ATOM      3  C   UNL     1      92.805  30.955  13.022  1.00  0.00    -0.006 C 
ATOM      4  C   UNL     1      92.217  29.873  13.907  1.00  0.00     0.047 C 
ATOM      5  C   UNL     1      92.453  30.148  15.428  1.00  0.00     0.025 C 
ATOM      6  C   UNL     1      92.217  28.892  16.293  1.00  0.00    -0.073 C 
ATOM      7  C   UNL     1      91.409  27.885  15.902  1.00  0.00     0.008 C 
ATOM      8  C   UNL     1      92.742  28.810  17.711  1.00  0.00     0.031 C 
ATOM      9  C   UNL     1      93.544  30.040  18.114  1.00  0.00     0.005 C 
ATOM     10  C   UNL     1      94.540  30.383  17.014  1.00  0.00     0.008 C 
ATOM     11  C   UNL     1      93.834  30.896  15.723  1.00  0.00    -0.018 C 
ATOM     12  C   UNL     1      94.842  30.716  14.549  1.00  0.00     0.088 C 
ATOM     13  C   UNL     1      94.255  31.166  13.246  1.00  0.00     0.159 C 
ATOM     14  O   UNL     1      95.011  31.632  12.352  1.00  0.00    -0.295 OA
ATOM     15  C   UNL     1      93.562  32.417  15.903  1.00  0.00     0.012 C 
ATOM     16  C   UNL     1      90.590  31.420  11.941  1.00  0.00     0.039 C 
ENDROOT
TORSDOF 0
ENDMDL
MODEL 2
REMARK VINA RESULT:    -1.615      3.607      5.699
REMARK INTER + INTRA:          -1.615
REMARK INTER:                  -1.615
REMARK INTRA:                   0.000
REMARK UNBOUND:                 0.000
REMARK SMILES C=C1CCC[C@@]2(C)CC(=O)C(=C(C)C)C[C@@H]12
REMARK SMILES IDX 13 1 12 2 11 3 15 4 16 5 2 6 1 7 3 8 4 9 5 10 6 11 8 12 9 13
REMARK SMILES IDX 10 14 7 15 14 16
REMARK H PARENT
REMARK Flexibility Score: inf
ROOT
ATOM      1  C   UNL     1      93.851  32.715  12.480  1.00  0.00     0.039 C 
ATOM      2  C   UNL     1      93.608  31.256  12.789  1.00  0.00    -0.070 C 
ATOM      3  C   UNL     1      92.771  30.496  12.025  1.00  0.00    -0.006 C 
ATOM      4  C   UNL     1      92.568  29.009  12.239  1.00  0.00     0.047 C 
ATOM      5  C   UNL     1      92.912  28.166  10.969  1.00  0.00     0.025 C 
ATOM      6  C   UNL     1      92.344  26.733  11.045  1.00  0.00    -0.073 C 
ATOM      7  C   UNL     1      92.085  26.119  12.218  1.00  0.00     0.008 C 
ATOM      8  C   UNL     1      92.219  25.875   9.803  1.00  0.00     0.031 C 
ATOM      9  C   UNL     1      92.645  26.606   8.537  1.00  0.00     0.005 C 
ATOM     10  C   UNL     1      92.004  27.987   8.505  1.00  0.00     0.008 C 
ATOM     11  C   UNL     1      92.584  28.928   9.603  1.00  0.00    -0.018 C 
ATOM     12  C   UNL     1      91.545  30.068   9.822  1.00  0.00     0.088 C 
ATOM     13  C   UNL     1      91.999  31.030  10.878  1.00  0.00     0.159 C 
ATOM     14  O   UNL     1      91.647  32.238  10.811  1.00  0.00    -0.295 OA
ATOM     15  C   UNL     1      93.891  29.560   9.045  1.00  0.00     0.012 C 
ATOM     16  C   UNL     1      94.368  30.661  13.952  1.00  0.00     0.039 C 
ENDROOT
TORSDOF 0
ENDMDL
MODEL 3
REMARK VINA RESULT:    -1.550      2.915      5.212
REMARK INTER + INTRA:          -1.550
REMARK INTER:                  -1.550
REMARK INTRA:                   0.000
REMARK UNBOUND:                 0.000
REMARK SMILES C=C1CCC[C@@]2(C)CC(=O)C(=C(C)C)C[C@@H]12
REMARK SMILES IDX 13 1 12 2 11 3 15 4 16 5 2 6 1 7 3 8 4 9 5 10 6 11 8 12 9 13
REMARK SMILES IDX 10 14 7 15 14 16
REMARK H PARENT
REMARK Flexibility Score: inf
ROOT
ATOM      1  C   UNL     1      91.680  32.156  15.269  1.00  0.00     0.039 C 
ATOM      2  C   UNL     1      91.830  30.701  14.887  1.00  0.00    -0.070 C 
ATOM      3  C   UNL     1      91.501  30.255  13.640  1.00  0.00    -0.006 C 
ATOM      4  C   UNL     1      91.721  28.827  13.181  1.00  0.00     0.047 C 
ATOM      5  C   UNL     1      92.631  28.736  11.914  1.00  0.00     0.025 C 
ATOM      6  C   UNL     1      92.538  27.358  11.223  1.00  0.00    -0.073 C 
ATOM      7  C   UNL     1      92.182  26.239  11.887  1.00  0.00     0.008 C 
ATOM      8  C   UNL     1      93.016  27.164   9.799  1.00  0.00     0.031 C 
ATOM      9  C   UNL     1      93.512  28.456   9.163  1.00  0.00     0.005 C 
ATOM     10  C   UNL     1      92.506  29.570   9.421  1.00  0.00     0.008 C 
ATOM     11  C   UNL     1      92.454  29.977  10.924  1.00  0.00    -0.018 C 
ATOM     12  C   UNL     1      91.094  30.700  11.155  1.00  0.00     0.088 C 
ATOM     13  C   UNL     1      90.932  31.124  12.583  1.00  0.00     0.159 C 
ATOM     14  O   UNL     1      90.253  32.151  12.853  1.00  0.00    -0.295 OA
ATOM     15  C   UNL     1      93.599  31.000  11.178  1.00  0.00     0.012 C 
ATOM     16  C   UNL     1      92.402  29.769  15.929  1.00  0.00     0.039 C 
ENDROOT
TORSDOF 0
ENDMDL
MODEL 4
REMARK VINA RESULT:    -1.548      3.675      5.651
REMARK INTER + INTRA:          -1.548
REMARK INTER:                  -1.548
REMARK INTRA:                   0.000
REMARK UNBOUND:                 0.000
REMARK SMILES C=C1CCC[C@@]2(C)CC(=O)C(=C(C)C)C[C@@H]12
REMARK SMILES IDX 13 1 12 2 11 3 15 4 16 5 2 6 1 7 3 8 4 9 5 10 6 11 8 12 9 13
REMARK SMILES IDX 10 14 7 15 14 16
REMARK H PARENT
REMARK Flexibility Score: inf
ROOT
ATOM      1  C   UNL     1      91.607  33.244  10.559  1.00  0.00     0.039 C 
ATOM      2  C   UNL     1      92.426  32.250   9.769  1.00  0.00    -0.070 C 
ATOM      3  C   UNL     1      92.909  31.109  10.342  1.00  0.00    -0.006 C 
ATOM      4  C   UNL     1      93.654  30.039   9.570  1.00  0.00     0.047 C 
ATOM      5  C   UNL     1      92.968  28.638   9.670  1.00  0.00     0.025 C 
ATOM      6  C   UNL     1      93.906  27.493   9.231  1.00  0.00    -0.073 C 
ATOM      7  C   UNL     1      94.935  27.687   8.381  1.00  0.00     0.008 C 
ATOM      8  C   UNL     1      93.607  26.055   9.596  1.00  0.00     0.031 C 
ATOM      9  C   UNL     1      92.361  25.913  10.460  1.00  0.00     0.005 C 
ATOM     10  C   UNL     1      92.407  26.931  11.592  1.00  0.00     0.008 C 
ATOM     11  C   UNL     1      92.247  28.392  11.074  1.00  0.00    -0.018 C 
ATOM     12  C   UNL     1      92.815  29.332  12.178  1.00  0.00     0.088 C 
ATOM     13  C   UNL     1      92.725  30.772  11.774  1.00  0.00     0.159 C 
ATOM     14  O   UNL     1      92.581  31.658  12.658  1.00  0.00    -0.295 OA
ATOM     15  C   UNL     1      90.725  28.679  10.924  1.00  0.00     0.012 C 
ATOM     16  C   UNL     1      92.648  32.547   8.304  1.00  0.00     0.039 C 
ENDROOT
TORSDOF 0
ENDMDL
MODEL 5
REMARK VINA RESULT:    -1.462      1.979      3.021
REMARK INTER + INTRA:          -1.462
REMARK INTER:                  -1.462
REMARK INTRA:                   0.000
REMARK UNBOUND:                 0.000
REMARK SMILES C=C1CCC[C@@]2(C)CC(=O)C(=C(C)C)C[C@@H]12
REMARK SMILES IDX 13 1 12 2 11 3 15 4 16 5 2 6 1 7 3 8 4 9 5 10 6 11 8 12 9 13
REMARK SMILES IDX 10 14 7 15 14 16
REMARK H PARENT
REMARK Flexibility Score: inf
ROOT
ATOM      1  C   UNL     1      88.655  30.254  11.653  1.00  0.00     0.039 C 
ATOM      2  C   UNL     1      89.168  29.909  13.032  1.00  0.00    -0.070 C 
ATOM      3  C   UNL     1      90.479  29.597  13.247  1.00  0.00    -0.006 C 
ATOM      4  C   UNL     1      91.058  29.335  14.623  1.00  0.00     0.047 C 
ATOM      5  C   UNL     1      92.239  30.298  14.971  1.00  0.00     0.025 C 
ATOM      6  C   UNL     1      93.073  29.795  16.169  1.00  0.00    -0.073 C 
ATOM      7  C   UNL     1      92.562  28.978  17.112  1.00  0.00     0.008 C 
ATOM      8  C   UNL     1      94.458  30.342  16.441  1.00  0.00     0.031 C 
ATOM      9  C   UNL     1      94.911  31.348  15.392  1.00  0.00     0.005 C 
ATOM     10  C   UNL     1      94.635  30.794  14.001  1.00  0.00     0.008 C 
ATOM     11  C   UNL     1      93.109  30.710  13.696  1.00  0.00    -0.018 C 
ATOM     12  C   UNL     1      92.932  29.690  12.532  1.00  0.00     0.088 C 
ATOM     13  C   UNL     1      91.489  29.519  12.165  1.00  0.00     0.159 C 
ATOM     14  O   UNL     1      91.180  29.233  10.978  1.00  0.00    -0.295 OA
ATOM     15  C   UNL     1      92.648  32.108  13.193  1.00  0.00     0.012 C 
ATOM     16  C   UNL     1      88.177  29.969  14.172  1.00  0.00     0.039 C 
ENDROOT
TORSDOF 0
ENDMDL
MODEL 6
REMARK VINA RESULT:    -1.440      3.812      4.964
REMARK INTER + INTRA:          -1.440
REMARK INTER:                  -1.440
REMARK INTRA:                   0.000
REMARK UNBOUND:                 0.000
REMARK SMILES C=C1CCC[C@@]2(C)CC(=O)C(=C(C)C)C[C@@H]12
REMARK SMILES IDX 13 1 12 2 11 3 15 4 16 5 2 6 1 7 3 8 4 9 5 10 6 11 8 12 9 13
REMARK SMILES IDX 10 14 7 15 14 16
REMARK H PARENT
REMARK Flexibility Score: inf
ROOT
ATOM      1  C   UNL     1      93.851  28.766   8.344  1.00  0.00     0.039 C 
ATOM      2  C   UNL     1      93.477  27.812   9.454  1.00  0.00    -0.070 C 
ATOM      3  C   UNL     1      92.944  28.258  10.628  1.00  0.00    -0.006 C 
ATOM      4  C   UNL     1      92.469  27.334  11.733  1.00  0.00     0.047 C 
ATOM      5  C   UNL     1      90.964  27.552  12.092  1.00  0.00     0.025 C 
ATOM      6  C   UNL     1      90.587  26.915  13.447  1.00  0.00    -0.073 C 
ATOM      7  C   UNL     1      91.268  25.875  13.971  1.00  0.00     0.008 C 
ATOM      8  C   UNL     1      89.318  27.313  14.171  1.00  0.00     0.031 C 
ATOM      9  C   UNL     1      88.548  28.410  13.451  1.00  0.00     0.005 C 
ATOM     10  C   UNL     1      89.505  29.523  13.046  1.00  0.00     0.008 C 
ATOM     11  C   UNL     1      90.494  29.070  11.930  1.00  0.00    -0.018 C 
ATOM     12  C   UNL     1      91.705  30.049  11.968  1.00  0.00     0.088 C 
ATOM     13  C   UNL     1      92.733  29.692  10.938  1.00  0.00     0.159 C 
ATOM     14  O   UNL     1      93.442  30.600  10.428  1.00  0.00    -0.295 OA
ATOM     15  C   UNL     1      89.774  29.238  10.561  1.00  0.00     0.012 C 
ATOM     16  C   UNL     1      93.677  26.337   9.192  1.00  0.00     0.039 C 
ENDROOT
TORSDOF 0
ENDMDL
MODEL 7
REMARK VINA RESULT:    -1.407     21.329     24.743
REMARK INTER + INTRA:          -1.407
REMARK INTER:                  -1.407
REMARK INTRA:                   0.000
REMARK UNBOUND:                 0.000
REMARK SMILES C=C1CCC[C@@]2(C)CC(=O)C(=C(C)C)C[C@@H]12
REMARK SMILES IDX 13 1 12 2 11 3 15 4 16 5 2 6 1 7 3 8 4 9 5 10 6 11 8 12 9 13
REMARK SMILES IDX 10 14 7 15 14 16
REMARK H PARENT
REMARK Flexibility Score: inf
ROOT
ATOM      1  C   UNL     1      77.407  43.087   7.507  1.00  0.00     0.039 C 
ATOM      2  C   UNL     1      77.007  42.508   6.170  1.00  0.00    -0.070 C 
ATOM      3  C   UNL     1      76.106  43.137   5.362  1.00  0.00    -0.006 C 
ATOM      4  C   UNL     1      75.743  42.644   3.975  1.00  0.00     0.047 C 
ATOM      5  C   UNL     1      76.016  43.713   2.867  1.00  0.00     0.025 C 
ATOM      6  C   UNL     1      75.299  43.378   1.541  1.00  0.00    -0.073 C 
ATOM      7  C   UNL     1      74.958  42.118   1.202  1.00  0.00     0.008 C 
ATOM      8  C   UNL     1      75.103  44.432   0.472  1.00  0.00     0.031 C 
ATOM      9  C   UNL     1      75.623  45.801   0.891  1.00  0.00     0.005 C 
ATOM     10  C   UNL     1      75.132  46.125   2.296  1.00  0.00     0.008 C 
ATOM     11  C   UNL     1      75.791  45.212   3.372  1.00  0.00    -0.018 C 
ATOM     12  C   UNL     1      74.876  45.257   4.632  1.00  0.00     0.088 C 
ATOM     13  C   UNL     1      75.412  44.393   5.733  1.00  0.00     0.159 C 
ATOM     14  O   UNL     1      75.191  44.708   6.933  1.00  0.00    -0.295 OA
ATOM     15  C   UNL     1      77.166  45.836   3.747  1.00  0.00     0.012 C 
ATOM     16  C   UNL     1      77.682  41.224   5.744  1.00  0.00     0.039 C 
ENDROOT
TORSDOF 0
ENDMDL
MODEL 8
REMARK VINA RESULT:    -1.386      2.363      4.528
REMARK INTER + INTRA:          -1.386
REMARK INTER:                  -1.386
REMARK INTRA:                   0.000
REMARK UNBOUND:                 0.000
REMARK SMILES C=C1CCC[C@@]2(C)CC(=O)C(=C(C)C)C[C@@H]12
REMARK SMILES IDX 13 1 12 2 11 3 15 4 16 5 2 6 1 7 3 8 4 9 5 10 6 11 8 12 9 13
REMARK SMILES IDX 10 14 7 15 14 16
REMARK H PARENT
REMARK Flexibility Score: inf
ROOT
ATOM      1  C   UNL     1      94.723  31.539  13.242  1.00  0.00     0.039 C 
ATOM      2  C   UNL     1      93.807  30.734  14.134  1.00  0.00    -0.070 C 
ATOM      3  C   UNL     1      92.593  30.291  13.695  1.00  0.00    -0.006 C 
ATOM      4  C   UNL     1      91.681  29.403  14.519  1.00  0.00     0.047 C 
ATOM      5  C   UNL     1      91.342  28.058  13.799  1.00  0.00     0.025 C 
ATOM      6  C   UNL     1      90.131  27.342  14.435  1.00  0.00    -0.073 C 
ATOM      7  C   UNL     1      89.770  27.536  15.720  1.00  0.00     0.008 C 
ATOM      8  C   UNL     1      89.394  26.246  13.695  1.00  0.00     0.031 C 
ATOM      9  C   UNL     1      89.943  26.010  12.294  1.00  0.00     0.005 C 
ATOM     10  C   UNL     1      90.116  27.345  11.583  1.00  0.00     0.008 C 
ATOM     11  C   UNL     1      91.258  28.200  12.210  1.00  0.00    -0.018 C 
ATOM     12  C   UNL     1      91.009  29.677  11.783  1.00  0.00     0.088 C 
ATOM     13  C   UNL     1      92.049  30.596  12.350  1.00  0.00     0.159 C 
ATOM     14  O   UNL     1      92.370  31.637  11.716  1.00  0.00    -0.295 OA
ATOM     15  C   UNL     1      92.602  27.731  11.583  1.00  0.00     0.012 C 
ATOM     16  C   UNL     1      94.311  30.398  15.518  1.00  0.00     0.039 C 
ENDROOT
TORSDOF 0
ENDMDL
