MODEL 1
REMARK VINA RESULT:    -8.306      0.000      0.000
REMARK INTER + INTRA:          -9.509
REMARK INTER:                  -9.763
REMARK INTRA:                   0.254
REMARK UNBOUND:                 0.254
REMARK SMILES O=c1c(O)c(-c2ccc(O)c(O)c2)oc2cc(O)ccc12
REMARK SMILES IDX 5 1 3 2 2 3 1 4 21 5 15 6 14 7 16 8 17 9 19 10 20 11 6 12
REMARK SMILES IDX 7 13 8 14 9 15 13 16 11 17 10 18 12 20 4 22 18 24
REMARK H PARENT 10 19 12 21 4 23 18 25
REMARK Flexibility Score: inf
ROOT
ATOM      1  C   UNL     1      -9.894 -25.062 -34.659  1.00  0.00     0.180 A 
ATOM      2  C   UNL     1     -10.712 -24.980 -35.804  1.00  0.00     0.208 A 
ATOM      3  C   UNL     1     -11.716 -25.944 -35.989  1.00  0.00     0.235 A 
ATOM      4  O   UNL     1     -12.455 -25.898 -37.010  1.00  0.00    -0.285 OA
ATOM      5  C   UNL     1     -11.892 -26.950 -35.026  1.00  0.00     0.069 A 
ATOM      6  C   UNL     1     -11.047 -26.950 -33.895  1.00  0.00     0.142 A 
ATOM      7  O   UNL     1     -10.103 -26.025 -33.761  1.00  0.00    -0.452 OA
ATOM      8  C   UNL     1     -11.197 -27.930 -32.908  1.00  0.00     0.094 A 
ATOM      9  C   UNL     1     -12.183 -28.914 -33.035  1.00  0.00     0.119 A 
ATOM     10  C   UNL     1     -13.023 -28.918 -34.157  1.00  0.00     0.047 A 
ATOM     11  C   UNL     1     -12.882 -27.943 -35.149  1.00  0.00     0.020 A 
ENDROOT
BRANCH   1  12
ATOM     12  C   UNL     1      -8.802 -24.096 -34.401  1.00  0.00     0.025 A 
ATOM     13  C   UNL     1      -8.122 -23.461 -35.455  1.00  0.00     0.016 A 
ATOM     14  C   UNL     1      -7.080 -22.570 -35.189  1.00  0.00     0.051 A 
ATOM     15  C   UNL     1      -6.692 -22.310 -33.868  1.00  0.00     0.157 A 
ATOM     16  C   UNL     1      -8.397 -23.846 -33.080  1.00  0.00     0.062 A 
ATOM     17  C   UNL     1      -7.353 -22.955 -32.809  1.00  0.00     0.158 A 
BRANCH  15  18
ATOM     18  O   UNL     1      -5.653 -21.418 -33.604  1.00  0.00    -0.504 OA
ATOM     19  H   UNL     1      -5.782 -20.416 -33.683  1.00  0.00     0.293 HD
ENDBRANCH  15  18
BRANCH  17  20
ATOM     20  O   UNL     1      -6.987 -22.722 -31.483  1.00  0.00    -0.504 OA
ATOM     21  H   UNL     1      -7.151 -23.403 -30.752  1.00  0.00     0.293 HD
ENDBRANCH  17  20
ENDBRANCH   1  12
BRANCH   2  22
ATOM     22  O   UNL     1     -10.545 -23.939 -36.720  1.00  0.00    -0.502 OA
ATOM     23  H   UNL     1     -11.322 -23.537 -37.230  1.00  0.00     0.293 HD
ENDBRANCH   2  22
BRANCH   9  24
ATOM     24  O   UNL     1     -12.320 -29.883 -32.043  1.00  0.00    -0.508 OA
ATOM     25  H   UNL     1     -11.733 -30.708 -32.026  1.00  0.00     0.293 HD
ENDBRANCH   9  24
TORSDOF 5
ENDMDL
MODEL 2
REMARK VINA RESULT:    -6.994      4.517     10.003
REMARK INTER + INTRA:          -7.966
REMARK INTER:                  -7.642
REMARK INTRA:                  -0.324
REMARK UNBOUND:                 0.254
REMARK SMILES O=c1c(O)c(-c2ccc(O)c(O)c2)oc2cc(O)ccc12
REMARK SMILES IDX 5 1 3 2 2 3 1 4 21 5 15 6 14 7 16 8 17 9 19 10 20 11 6 12
REMARK SMILES IDX 7 13 8 14 9 15 13 16 11 17 10 18 12 20 4 22 18 24
REMARK H PARENT 10 19 12 21 4 23 18 25
REMARK Flexibility Score: inf
ROOT
ATOM      1  C   UNL     1      -4.450 -20.900 -35.323  1.00  0.00     0.180 A 
ATOM      2  C   UNL     1      -3.114 -21.350 -35.363  1.00  0.00     0.208 A 
ATOM      3  C   UNL     1      -2.113 -20.461 -35.784  1.00  0.00     0.235 A 
ATOM      4  O   UNL     1      -0.912 -20.842 -35.838  1.00  0.00    -0.285 OA
ATOM      5  C   UNL     1      -2.460 -19.146 -36.134  1.00  0.00     0.069 A 
ATOM      6  C   UNL     1      -3.817 -18.766 -36.045  1.00  0.00     0.142 A 
ATOM      7  O   UNL     1      -4.735 -19.641 -35.650  1.00  0.00    -0.452 OA
ATOM      8  C   UNL     1      -4.202 -17.462 -36.376  1.00  0.00     0.094 A 
ATOM      9  C   UNL     1      -3.248 -16.530 -36.797  1.00  0.00     0.119 A 
ATOM     10  C   UNL     1      -1.901 -16.904 -36.888  1.00  0.00     0.047 A 
ATOM     11  C   UNL     1      -1.505 -18.204 -36.559  1.00  0.00     0.020 A 
ENDROOT
BRANCH   1  12
ATOM     12  C   UNL     1      -5.564 -21.782 -34.910  1.00  0.00     0.025 A 
ATOM     13  C   UNL     1      -6.262 -22.569 -35.844  1.00  0.00     0.016 A 
ATOM     14  C   UNL     1      -7.325 -23.376 -35.433  1.00  0.00     0.051 A 
ATOM     15  C   UNL     1      -7.717 -23.401 -34.089  1.00  0.00     0.157 A 
ATOM     16  C   UNL     1      -5.974 -21.796 -33.566  1.00  0.00     0.062 A 
ATOM     17  C   UNL     1      -7.038 -22.603 -33.151  1.00  0.00     0.158 A 
BRANCH  15  18
ATOM     18  O   UNL     1      -8.777 -24.210 -33.681  1.00  0.00    -0.504 OA
ATOM     19  H   UNL     1      -8.672 -25.213 -33.587  1.00  0.00     0.293 HD
ENDBRANCH  15  18
BRANCH  17  20
ATOM     20  O   UNL     1      -7.408 -22.600 -31.807  1.00  0.00    -0.504 OA
ATOM     21  H   UNL     1      -7.363 -21.763 -31.238  1.00  0.00     0.293 HD
ENDBRANCH  17  20
ENDBRANCH   1  12
BRANCH   2  22
ATOM     22  O   UNL     1      -2.792 -22.649 -34.962  1.00  0.00    -0.502 OA
ATOM     23  H   UNL     1      -3.484 -23.386 -34.911  1.00  0.00     0.293 HD
ENDBRANCH   2  22
BRANCH   9  24
ATOM     24  O   UNL     1      -3.649 -15.236 -37.122  1.00  0.00    -0.508 OA
ATOM     25  H   UNL     1      -4.116 -15.031 -37.997  1.00  0.00     0.293 HD
ENDBRANCH   9  24
TORSDOF 5
ENDMDL
MODEL 3
REMARK VINA RESULT:    -6.647      0.947      6.441
REMARK INTER + INTRA:          -7.558
REMARK INTER:                  -8.001
REMARK INTRA:                   0.443
REMARK UNBOUND:                 0.254
REMARK SMILES O=c1c(O)c(-c2ccc(O)c(O)c2)oc2cc(O)ccc12
REMARK SMILES IDX 5 1 3 2 2 3 1 4 21 5 15 6 14 7 16 8 17 9 19 10 20 11 6 12
REMARK SMILES IDX 7 13 8 14 9 15 13 16 11 17 10 18 12 20 4 22 18 24
REMARK H PARENT 10 19 12 21 4 23 18 25
REMARK Flexibility Score: inf
ROOT
ATOM      1  C   UNL     1     -10.465 -25.752 -34.710  1.00  0.00     0.180 A 
ATOM      2  C   UNL     1     -10.361 -25.069 -35.940  1.00  0.00     0.208 A 
ATOM      3  C   UNL     1      -9.483 -23.978 -36.035  1.00  0.00     0.235 A 
ATOM      4  O   UNL     1      -9.380 -23.344 -37.121  1.00  0.00    -0.285 OA
ATOM      5  C   UNL     1      -8.719 -23.608 -34.918  1.00  0.00     0.069 A 
ATOM      6  C   UNL     1      -8.863 -24.357 -33.730  1.00  0.00     0.142 A 
ATOM      7  O   UNL     1      -9.712 -25.377 -33.678  1.00  0.00    -0.452 OA
ATOM      8  C   UNL     1      -8.112 -24.025 -32.597  1.00  0.00     0.094 A 
ATOM      9  C   UNL     1      -7.217 -22.950 -32.634  1.00  0.00     0.119 A 
ATOM     10  C   UNL     1      -7.072 -22.203 -33.810  1.00  0.00     0.047 A 
ATOM     11  C   UNL     1      -7.817 -22.527 -34.948  1.00  0.00     0.020 A 
ENDROOT
BRANCH   1  12
ATOM     12  C   UNL     1     -11.382 -26.900 -34.524  1.00  0.00     0.025 A 
ATOM     13  C   UNL     1     -12.333 -27.244 -35.500  1.00  0.00     0.016 A 
ATOM     14  C   UNL     1     -13.202 -28.317 -35.292  1.00  0.00     0.051 A 
ATOM     15  C   UNL     1     -13.145 -29.053 -34.101  1.00  0.00     0.157 A 
ATOM     16  C   UNL     1     -11.342 -27.628 -33.323  1.00  0.00     0.062 A 
ATOM     17  C   UNL     1     -12.211 -28.704 -33.111  1.00  0.00     0.158 A 
BRANCH  15  18
ATOM     18  O   UNL     1     -14.013 -30.125 -33.896  1.00  0.00    -0.504 OA
ATOM     19  H   UNL     1     -14.830 -30.264 -34.479  1.00  0.00     0.293 HD
ENDBRANCH  15  18
BRANCH  17  20
ATOM     20  O   UNL     1     -12.133 -29.412 -31.912  1.00  0.00    -0.504 OA
ATOM     21  H   UNL     1     -12.954 -29.621 -31.355  1.00  0.00     0.293 HD
ENDBRANCH  17  20
ENDBRANCH   1  12
BRANCH   2  22
ATOM     22  O   UNL     1     -11.098 -25.491 -37.049  1.00  0.00    -0.502 OA
ATOM     23  H   UNL     1     -10.660 -25.897 -37.867  1.00  0.00     0.293 HD
ENDBRANCH   2  22
BRANCH   9  24
ATOM     24  O   UNL     1      -6.477 -22.634 -31.497  1.00  0.00    -0.508 OA
ATOM     25  H   UNL     1      -6.865 -22.737 -30.567  1.00  0.00     0.293 HD
ENDBRANCH   9  24
TORSDOF 5
ENDMDL
MODEL 4
REMARK VINA RESULT:    -6.371      3.143      6.065
REMARK INTER + INTRA:          -7.234
REMARK INTER:                  -7.358
REMARK INTRA:                   0.124
REMARK UNBOUND:                 0.254
REMARK SMILES O=c1c(O)c(-c2ccc(O)c(O)c2)oc2cc(O)ccc12
REMARK SMILES IDX 5 1 3 2 2 3 1 4 21 5 15 6 14 7 16 8 17 9 19 10 20 11 6 12
REMARK SMILES IDX 7 13 8 14 9 15 13 16 11 17 10 18 12 20 4 22 18 24
REMARK H PARENT 10 19 12 21 4 23 18 25
REMARK Flexibility Score: inf
ROOT
ATOM      1  C   UNL     1      -5.668 -21.875 -35.126  1.00  0.00     0.180 A 
ATOM      2  C   UNL     1      -6.007 -21.844 -33.757  1.00  0.00     0.208 A 
ATOM      3  C   UNL     1      -7.116 -22.585 -33.319  1.00  0.00     0.235 A 
ATOM      4  O   UNL     1      -7.446 -22.567 -32.102  1.00  0.00    -0.285 OA
ATOM      5  C   UNL     1      -7.844 -23.350 -34.244  1.00  0.00     0.069 A 
ATOM      6  C   UNL     1      -7.426 -23.346 -35.593  1.00  0.00     0.142 A 
ATOM      7  O   UNL     1      -6.377 -22.624 -35.969  1.00  0.00    -0.452 OA
ATOM      8  C   UNL     1      -8.120 -24.102 -36.544  1.00  0.00     0.094 A 
ATOM      9  C   UNL     1      -9.231 -24.864 -36.165  1.00  0.00     0.119 A 
ATOM     10  C   UNL     1      -9.650 -24.870 -34.828  1.00  0.00     0.047 A 
ATOM     11  C   UNL     1      -8.962 -24.118 -33.870  1.00  0.00     0.020 A 
ENDROOT
BRANCH   1  12
ATOM     12  C   UNL     1      -4.525 -21.106 -35.669  1.00  0.00     0.025 A 
ATOM     13  C   UNL     1      -3.607 -21.689 -36.561  1.00  0.00     0.016 A 
ATOM     14  C   UNL     1      -2.524 -20.951 -37.042  1.00  0.00     0.051 A 
ATOM     15  C   UNL     1      -2.332 -19.625 -36.632  1.00  0.00     0.157 A 
ATOM     16  C   UNL     1      -4.317 -19.783 -35.246  1.00  0.00     0.062 A 
ATOM     17  C   UNL     1      -3.233 -19.040 -35.726  1.00  0.00     0.158 A 
BRANCH  15  18
ATOM     18  O   UNL     1      -1.251 -18.890 -37.116  1.00  0.00    -0.504 OA
ATOM     19  H   UNL     1      -0.739 -19.181 -37.941  1.00  0.00     0.293 HD
ENDBRANCH  15  18
BRANCH  17  20
ATOM     20  O   UNL     1      -3.067 -17.725 -35.293  1.00  0.00    -0.504 OA
ATOM     21  H   UNL     1      -3.738 -16.998 -35.510  1.00  0.00     0.293 HD
ENDBRANCH  17  20
ENDBRANCH   1  12
BRANCH   2  22
ATOM     22  O   UNL     1      -5.234 -21.114 -32.852  1.00  0.00    -0.502 OA
ATOM     23  H   UNL     1      -4.222 -21.120 -32.876  1.00  0.00     0.293 HD
ENDBRANCH   2  22
BRANCH   9  24
ATOM     24  O   UNL     1      -9.910 -25.612 -37.124  1.00  0.00    -0.508 OA
ATOM     25  H   UNL     1      -9.517 -25.775 -38.044  1.00  0.00     0.293 HD
ENDBRANCH   9  24
TORSDOF 5
ENDMDL
MODEL 5
REMARK VINA RESULT:    -6.227      2.035      7.094
REMARK INTER + INTRA:          -7.065
REMARK INTER:                  -6.794
REMARK INTRA:                  -0.271
REMARK UNBOUND:                 0.254
REMARK SMILES O=c1c(O)c(-c2ccc(O)c(O)c2)oc2cc(O)ccc12
REMARK SMILES IDX 5 1 3 2 2 3 1 4 21 5 15 6 14 7 16 8 17 9 19 10 20 11 6 12
REMARK SMILES IDX 7 13 8 14 9 15 13 16 11 17 10 18 12 20 4 22 18 24
REMARK H PARENT 10 19 12 21 4 23 18 25
REMARK Flexibility Score: inf
ROOT
ATOM      1  C   UNL     1      -9.712 -24.734 -34.954  1.00  0.00     0.180 A 
ATOM      2  C   UNL     1      -9.791 -24.021 -33.740  1.00  0.00     0.208 A 
ATOM      3  C   UNL     1      -8.768 -23.114 -33.420  1.00  0.00     0.235 A 
ATOM      4  O   UNL     1      -8.810 -22.472 -32.336  1.00  0.00    -0.285 OA
ATOM      5  C   UNL     1      -7.707 -22.926 -34.320  1.00  0.00     0.069 A 
ATOM      6  C   UNL     1      -7.713 -23.661 -35.525  1.00  0.00     0.142 A 
ATOM      7  O   UNL     1      -8.695 -24.515 -35.787  1.00  0.00    -0.452 OA
ATOM      8  C   UNL     1      -6.678 -23.494 -36.452  1.00  0.00     0.094 A 
ATOM      9  C   UNL     1      -5.633 -22.601 -36.191  1.00  0.00     0.119 A 
ATOM     10  C   UNL     1      -5.623 -21.871 -34.995  1.00  0.00     0.047 A 
ATOM     11  C   UNL     1      -6.653 -22.029 -34.062  1.00  0.00     0.020 A 
ENDROOT
BRANCH   1  12
ATOM     12  C   UNL     1     -10.740 -25.721 -35.354  1.00  0.00     0.025 A 
ATOM     13  C   UNL     1     -10.501 -27.104 -35.270  1.00  0.00     0.016 A 
ATOM     14  C   UNL     1     -11.478 -28.016 -35.674  1.00  0.00     0.051 A 
ATOM     15  C   UNL     1     -12.702 -27.562 -36.182  1.00  0.00     0.157 A 
ATOM     16  C   UNL     1     -11.962 -25.271 -35.881  1.00  0.00     0.062 A 
ATOM     17  C   UNL     1     -12.943 -26.182 -36.288  1.00  0.00     0.158 A 
BRANCH  15  18
ATOM     18  O   UNL     1     -13.677 -28.475 -36.583  1.00  0.00    -0.504 OA
ATOM     19  H   UNL     1     -14.513 -28.177 -37.072  1.00  0.00     0.293 HD
ENDBRANCH  15  18
BRANCH  17  20
ATOM     20  O   UNL     1     -14.149 -25.698 -36.795  1.00  0.00    -0.504 OA
ATOM     21  H   UNL     1     -15.002 -26.245 -36.769  1.00  0.00     0.293 HD
ENDBRANCH  17  20
ENDBRANCH   1  12
BRANCH   2  22
ATOM     22  O   UNL     1     -10.884 -24.193 -32.887  1.00  0.00    -0.502 OA
ATOM     23  H   UNL     1     -10.774 -24.362 -31.895  1.00  0.00     0.293 HD
ENDBRANCH   2  22
BRANCH   9  24
ATOM     24  O   UNL     1      -4.611 -22.447 -37.125  1.00  0.00    -0.508 OA
ATOM     25  H   UNL     1      -4.609 -21.678 -37.785  1.00  0.00     0.293 HD
ENDBRANCH   9  24
TORSDOF 5
ENDMDL
MODEL 6
REMARK VINA RESULT:    -5.777      4.462      9.554
REMARK INTER + INTRA:          -6.536
REMARK INTER:                  -6.288
REMARK INTRA:                  -0.248
REMARK UNBOUND:                 0.254
REMARK SMILES O=c1c(O)c(-c2ccc(O)c(O)c2)oc2cc(O)ccc12
REMARK SMILES IDX 5 1 3 2 2 3 1 4 21 5 15 6 14 7 16 8 17 9 19 10 20 11 6 12
REMARK SMILES IDX 7 13 8 14 9 15 13 16 11 17 10 18 12 20 4 22 18 24
REMARK H PARENT 10 19 12 21 4 23 18 25
REMARK Flexibility Score: inf
ROOT
ATOM      1  C   UNL     1      -4.403 -21.189 -35.225  1.00  0.00     0.180 A 
ATOM      2  C   UNL     1      -4.299 -19.783 -35.223  1.00  0.00     0.208 A 
ATOM      3  C   UNL     1      -3.081 -19.194 -35.595  1.00  0.00     0.235 A 
ATOM      4  O   UNL     1      -2.959 -17.938 -35.592  1.00  0.00    -0.285 OA
ATOM      5  C   UNL     1      -2.007 -20.013 -35.977  1.00  0.00     0.069 A 
ATOM      6  C   UNL     1      -2.198 -21.412 -35.975  1.00  0.00     0.142 A 
ATOM      7  O   UNL     1      -3.364 -21.930 -35.608  1.00  0.00    -0.452 OA
ATOM      8  C   UNL     1      -1.155 -22.262 -36.359  1.00  0.00     0.094 A 
ATOM      9  C   UNL     1       0.082 -21.733 -36.745  1.00  0.00     0.119 A 
ATOM     10  C   UNL     1       0.276 -20.345 -36.746  1.00  0.00     0.047 A 
ATOM     11  C   UNL     1      -0.760 -19.486 -36.366  1.00  0.00     0.020 A 
ENDROOT
BRANCH   1  12
ATOM     12  C   UNL     1      -5.647 -21.886 -34.828  1.00  0.00     0.025 A 
ATOM     13  C   UNL     1      -6.508 -22.453 -35.785  1.00  0.00     0.016 A 
ATOM     14  C   UNL     1      -7.687 -23.086 -35.387  1.00  0.00     0.051 A 
ATOM     15  C   UNL     1      -8.033 -23.150 -34.031  1.00  0.00     0.157 A 
ATOM     16  C   UNL     1      -6.008 -21.937 -33.471  1.00  0.00     0.062 A 
ATOM     17  C   UNL     1      -7.189 -22.570 -33.069  1.00  0.00     0.158 A 
BRANCH  15  18
ATOM     18  O   UNL     1      -9.210 -23.785 -33.636  1.00  0.00    -0.504 OA
ATOM     19  H   UNL     1      -9.195 -24.651 -33.110  1.00  0.00     0.293 HD
ENDBRANCH  15  18
BRANCH  17  20
ATOM     20  O   UNL     1      -7.508 -22.612 -31.712  1.00  0.00    -0.504 OA
ATOM     21  H   UNL     1      -8.163 -23.285 -31.333  1.00  0.00     0.293 HD
ENDBRANCH  17  20
ENDBRANCH   1  12
BRANCH   2  22
ATOM     22  O   UNL     1      -5.400 -18.992 -34.885  1.00  0.00    -0.502 OA
ATOM     23  H   UNL     1      -5.305 -18.121 -34.378  1.00  0.00     0.293 HD
ENDBRANCH   2  22
BRANCH   9  24
ATOM     24  O   UNL     1       1.109 -22.593 -37.124  1.00  0.00    -0.508 OA
ATOM     25  H   UNL     1       2.065 -22.441 -36.823  1.00  0.00     0.293 HD
ENDBRANCH   9  24
TORSDOF 5
ENDMDL
MODEL 7
REMARK VINA RESULT:    -5.396      2.136      6.919
REMARK INTER + INTRA:          -6.088
REMARK INTER:                  -5.822
REMARK INTRA:                  -0.266
REMARK UNBOUND:                 0.254
REMARK SMILES O=c1c(O)c(-c2ccc(O)c(O)c2)oc2cc(O)ccc12
REMARK SMILES IDX 5 1 3 2 2 3 1 4 21 5 15 6 14 7 16 8 17 9 19 10 20 11 6 12
REMARK SMILES IDX 7 13 8 14 9 15 13 16 11 17 10 18 12 20 4 22 18 24
REMARK H PARENT 10 19 12 21 4 23 18 25
REMARK Flexibility Score: inf
ROOT
ATOM      1  C   UNL     1     -10.315 -26.523 -35.450  1.00  0.00     0.180 A 
ATOM      2  C   UNL     1      -9.197 -26.717 -36.288  1.00  0.00     0.208 A 
ATOM      3  C   UNL     1      -8.148 -25.785 -36.242  1.00  0.00     0.235 A 
ATOM      4  O   UNL     1      -7.142 -25.930 -36.989  1.00  0.00    -0.285 OA
ATOM      5  C   UNL     1      -8.227 -24.700 -35.355  1.00  0.00     0.069 A 
ATOM      6  C   UNL     1      -9.369 -24.590 -34.532  1.00  0.00     0.142 A 
ATOM      7  O   UNL     1     -10.344 -25.488 -34.612  1.00  0.00    -0.452 OA
ATOM      8  C   UNL     1      -9.481 -23.528 -33.628  1.00  0.00     0.094 A 
ATOM      9  C   UNL     1      -8.465 -22.570 -33.535  1.00  0.00     0.119 A 
ATOM     10  C   UNL     1      -7.331 -22.675 -34.351  1.00  0.00     0.047 A 
ATOM     11  C   UNL     1      -7.209 -23.733 -35.257  1.00  0.00     0.020 A 
ENDROOT
BRANCH   1  12
ATOM     12  C   UNL     1     -11.469 -27.451 -35.453  1.00  0.00     0.025 A 
ATOM     13  C   UNL     1     -11.401 -28.708 -34.828  1.00  0.00     0.016 A 
ATOM     14  C   UNL     1     -12.495 -29.575 -34.863  1.00  0.00     0.051 A 
ATOM     15  C   UNL     1     -13.668 -29.206 -35.534  1.00  0.00     0.157 A 
ATOM     16  C   UNL     1     -12.641 -27.093 -36.141  1.00  0.00     0.062 A 
ATOM     17  C   UNL     1     -13.739 -27.959 -36.179  1.00  0.00     0.158 A 
BRANCH  15  18
ATOM     18  O   UNL     1     -14.761 -30.073 -35.566  1.00  0.00    -0.504 OA
ATOM     19  H   UNL     1     -15.451 -30.082 -34.825  1.00  0.00     0.293 HD
ENDBRANCH  15  18
BRANCH  17  20
ATOM     20  O   UNL     1     -14.890 -27.565 -36.860  1.00  0.00    -0.504 OA
ATOM     21  H   UNL     1     -15.058 -26.601 -37.121  1.00  0.00     0.293 HD
ENDBRANCH  17  20
ENDBRANCH   1  12
BRANCH   2  22
ATOM     22  O   UNL     1      -9.124 -27.833 -37.125  1.00  0.00    -0.502 OA
ATOM     23  H   UNL     1      -9.922 -28.431 -37.299  1.00  0.00     0.293 HD
ENDBRANCH   2  22
BRANCH   9  24
ATOM     24  O   UNL     1      -8.593 -21.520 -32.629  1.00  0.00    -0.508 OA
ATOM     25  H   UNL     1      -8.668 -20.559 -32.941  1.00  0.00     0.293 HD
ENDBRANCH   9  24
TORSDOF 5
ENDMDL
