MODEL 1
REMARK VINA RESULT:    -6.061      0.000      0.000
REMARK INTER + INTRA:         -10.301
REMARK INTER:                  -8.719
REMARK INTRA:                  -1.582
REMARK UNBOUND:                -1.582
REMARK SMILES O=c1c(O[C@H]2O[C@H](CO)[C@H](O)[C@@H](O)[C@@H]2O)c(-c2ccc(O)cc2)oc2cc(O)cc(O)c12
REMARK SMILES IDX 4 1 3 2 16 3 24 4 2 5 25 6 1 7 32 8 26 9 30 10 27 11 29 12
REMARK SMILES IDX 17 13 18 14 19 15 20 16 23 17 22 18 21 19 31 21 28 23 5 25
REMARK SMILES IDX 14 26 6 27 12 28 7 29 10 30 15 31 13 33 8 35 9 36 11 38
REMARK H PARENT 21 20 31 22 28 24 15 32 13 34 9 37 11 39
REMARK Flexibility Score: inf
ROOT
ATOM      1  O   UNL     1      12.020   0.976   1.903  1.00  0.00    -0.454 OA
ENDROOT
BRANCH   1   2
ATOM      2  C   UNL     1      13.014   0.838   2.896  1.00  0.00     0.214 A 
ATOM      3  C   UNL     1      14.299   1.351   2.622  1.00  0.00     0.180 A 
ATOM      4  O   UNL     1      15.288   1.187   3.494  1.00  0.00    -0.452 OA
ATOM      5  C   UNL     1      12.808   0.186   4.134  1.00  0.00     0.239 A 
ATOM      6  C   UNL     1      15.138   0.575   4.660  1.00  0.00     0.146 A 
ATOM      7  O   UNL     1      11.675  -0.276   4.432  1.00  0.00    -0.285 OA
ATOM      8  C   UNL     1      13.882   0.049   5.040  1.00  0.00     0.111 A 
ATOM      9  C   UNL     1      16.241   0.457   5.511  1.00  0.00     0.094 A 
ATOM     10  C   UNL     1      13.759  -0.592   6.298  1.00  0.00     0.134 A 
ATOM     11  C   UNL     1      16.113  -0.177   6.750  1.00  0.00     0.123 A 
ATOM     12  C   UNL     1      14.877  -0.696   7.139  1.00  0.00     0.093 A 
BRANCH   3  13
ATOM     13  C   UNL     1      14.598   2.065   1.364  1.00  0.00     0.021 A 
ATOM     14  C   UNL     1      14.752   1.370   0.153  1.00  0.00     0.016 A 
ATOM     15  C   UNL     1      15.018   2.063  -1.030  1.00  0.00     0.047 A 
ATOM     16  C   UNL     1      15.114   3.461  -1.021  1.00  0.00     0.115 A 
ATOM     17  C   UNL     1      14.673   3.468   1.363  1.00  0.00     0.016 A 
ATOM     18  C   UNL     1      14.937   4.160   0.176  1.00  0.00     0.047 A 
BRANCH  16  19
ATOM     19  O   UNL     1      15.380   4.163  -2.195  1.00  0.00    -0.508 OA
ATOM     20  H   UNL     1      16.176   3.934  -2.780  1.00  0.00     0.293 HD
ENDBRANCH  16  19
ENDBRANCH   3  13
BRANCH  10  21
ATOM     21  O   UNL     1      12.539  -1.123   6.718  1.00  0.00    -0.507 OA
ATOM     22  H   UNL     1      11.844  -0.557   7.191  1.00  0.00     0.293 HD
ENDBRANCH  10  21
BRANCH  11  23
ATOM     23  O   UNL     1      17.207  -0.296   7.603  1.00  0.00    -0.508 OA
ATOM     24  H   UNL     1      17.747  -1.151   7.657  1.00  0.00     0.293 HD
ENDBRANCH  11  23
ENDBRANCH   1   2
BRANCH   1  25
ATOM     25  C   UNL     1      10.970   1.950   1.858  1.00  0.00     0.339 C 
ATOM     26  C   UNL     1       9.594   1.252   1.742  1.00  0.00     0.214 C 
ATOM     27  O   UNL     1      11.170   2.884   0.805  1.00  0.00    -0.332 OA
ATOM     28  C   UNL     1       9.354   0.670   0.333  1.00  0.00     0.180 C 
ATOM     29  C   UNL     1      11.163   2.247  -0.462  1.00  0.00     0.179 C 
ATOM     30  C   UNL     1       9.763   1.666  -0.772  1.00  0.00     0.177 C 
BRANCH  26  31
ATOM     31  O   UNL     1       8.548   2.120   2.111  1.00  0.00    -0.384 OA
ATOM     32  H   UNL     1       8.629   2.951   1.575  1.00  0.00     0.211 HD
ENDBRANCH  26  31
BRANCH  28  33
ATOM     33  O   UNL     1      10.085  -0.521   0.197  1.00  0.00    -0.387 OA
ATOM     34  H   UNL     1      10.832  -0.334  -0.431  1.00  0.00     0.211 HD
ENDBRANCH  28  33
BRANCH  29  35
ATOM     35  C   UNL     1      11.610   3.269  -1.520  1.00  0.00     0.191 C 
BRANCH  35  36
ATOM     36  O   UNL     1      10.846   4.443  -1.441  1.00  0.00    -0.394 OA
ATOM     37  H   UNL     1      10.529   4.638  -2.361  1.00  0.00     0.210 HD
ENDBRANCH  35  36
ENDBRANCH  29  35
BRANCH  30  38
ATOM     38  O   UNL     1       8.806   2.693  -0.853  1.00  0.00    -0.387 OA
ATOM     39  H   UNL     1       8.275   2.668  -0.015  1.00  0.00     0.211 HD
ENDBRANCH  30  38
ENDBRANCH   1  25
TORSDOF 11
ENDMDL
MODEL 2
REMARK VINA RESULT:    -5.124      1.808      4.760
REMARK INTER + INTRA:          -8.952
REMARK INTER:                  -7.482
REMARK INTRA:                  -1.470
REMARK UNBOUND:                -1.582
REMARK SMILES O=c1c(O[C@H]2O[C@H](CO)[C@H](O)[C@@H](O)[C@@H]2O)c(-c2ccc(O)cc2)oc2cc(O)cc(O)c12
REMARK SMILES IDX 4 1 3 2 16 3 24 4 2 5 25 6 1 7 32 8 26 9 30 10 27 11 29 12
REMARK SMILES IDX 17 13 18 14 19 15 20 16 23 17 22 18 21 19 31 21 28 23 5 25
REMARK SMILES IDX 14 26 6 27 12 28 7 29 10 30 15 31 13 33 8 35 9 36 11 38
REMARK H PARENT 21 20 31 22 28 24 15 32 13 34 9 37 11 39
REMARK Flexibility Score: inf
ROOT
ATOM      1  O   UNL     1      13.313   2.025   1.058  1.00  0.00    -0.454 OA
ENDROOT
BRANCH   1   2
ATOM      2  C   UNL     1      13.206   1.369   2.303  1.00  0.00     0.214 A 
ATOM      3  C   UNL     1      12.131   0.474   2.489  1.00  0.00     0.180 A 
ATOM      4  O   UNL     1      11.945  -0.118   3.664  1.00  0.00    -0.452 OA
ATOM      5  C   UNL     1      14.091   1.580   3.386  1.00  0.00     0.239 A 
ATOM      6  C   UNL     1      12.746   0.061   4.705  1.00  0.00     0.146 A 
ATOM      7  O   UNL     1      15.074   2.357   3.265  1.00  0.00    -0.285 OA
ATOM      8  C   UNL     1      13.867   0.917   4.612  1.00  0.00     0.111 A 
ATOM      9  C   UNL     1      12.467  -0.612   5.899  1.00  0.00     0.094 A 
ATOM     10  C   UNL     1      14.704   1.077   5.744  1.00  0.00     0.134 A 
ATOM     11  C   UNL     1      13.296  -0.449   7.012  1.00  0.00     0.123 A 
ATOM     12  C   UNL     1      14.409   0.390   6.932  1.00  0.00     0.093 A 
BRANCH   3  13
ATOM     13  C   UNL     1      11.172   0.177   1.406  1.00  0.00     0.021 A 
ATOM     14  C   UNL     1      10.000   0.935   1.245  1.00  0.00     0.016 A 
ATOM     15  C   UNL     1       9.113   0.651   0.205  1.00  0.00     0.047 A 
ATOM     16  C   UNL     1       9.394  -0.382  -0.698  1.00  0.00     0.115 A 
ATOM     17  C   UNL     1      11.460  -0.843   0.484  1.00  0.00     0.016 A 
ATOM     18  C   UNL     1      10.570  -1.125  -0.558  1.00  0.00     0.047 A 
BRANCH  16  19
ATOM     19  O   UNL     1       8.515  -0.676  -1.739  1.00  0.00    -0.508 OA
ATOM     20  H   UNL     1       8.204  -1.624  -1.918  1.00  0.00     0.293 HD
ENDBRANCH  16  19
ENDBRANCH   3  13
BRANCH  10  21
ATOM     21  O   UNL     1      15.824   1.909   5.700  1.00  0.00    -0.507 OA
ATOM     22  H   UNL     1      16.053   2.537   6.462  1.00  0.00     0.293 HD
ENDBRANCH  10  21
BRANCH  11  23
ATOM     23  O   UNL     1      13.025  -1.118   8.203  1.00  0.00    -0.508 OA
ATOM     24  H   UNL     1      13.700  -1.153   8.957  1.00  0.00     0.293 HD
ENDBRANCH  11  23
ENDBRANCH   1   2
BRANCH   1  25
ATOM     25  C   UNL     1      14.149   1.657  -0.046  1.00  0.00     0.339 C 
ATOM     26  C   UNL     1      15.551   2.296   0.105  1.00  0.00     0.214 C 
ATOM     27  O   UNL     1      13.552   2.000  -1.289  1.00  0.00    -0.332 OA
ATOM     28  C   UNL     1      15.533   3.811  -0.187  1.00  0.00     0.180 C 
ATOM     29  C   UNL     1      13.355   3.399  -1.402  1.00  0.00     0.179 C 
ATOM     30  C   UNL     1      14.713   4.139  -1.451  1.00  0.00     0.177 C 
BRANCH  26  31
ATOM     31  O   UNL     1      16.500   1.641  -0.703  1.00  0.00    -0.384 OA
ATOM     32  H   UNL     1      16.026   0.973  -1.262  1.00  0.00     0.211 HD
ENDBRANCH  26  31
BRANCH  28  33
ATOM     33  O   UNL     1      14.993   4.485   0.921  1.00  0.00    -0.387 OA
ATOM     34  H   UNL     1      14.535   3.804   1.480  1.00  0.00     0.211 HD
ENDBRANCH  28  33
BRANCH  29  35
ATOM     35  C   UNL     1      12.506   3.670  -2.654  1.00  0.00     0.191 C 
BRANCH  35  36
ATOM     36  O   UNL     1      12.904   4.858  -3.286  1.00  0.00    -0.394 OA
ATOM     37  H   UNL     1      13.692   4.633  -3.845  1.00  0.00     0.210 HD
ENDBRANCH  35  36
ENDBRANCH  29  35
BRANCH  30  38
ATOM     38  O   UNL     1      15.443   3.761  -2.592  1.00  0.00    -0.387 OA
ATOM     39  H   UNL     1      15.541   2.774  -2.566  1.00  0.00     0.211 HD
ENDBRANCH  30  38
ENDBRANCH   1  25
TORSDOF 11
ENDMDL
MODEL 3
REMARK VINA RESULT:    -5.015      1.926      4.680
REMARK INTER + INTRA:          -8.797
REMARK INTER:                  -7.695
REMARK INTRA:                  -1.102
REMARK UNBOUND:                -1.582
REMARK SMILES O=c1c(O[C@H]2O[C@H](CO)[C@H](O)[C@@H](O)[C@@H]2O)c(-c2ccc(O)cc2)oc2cc(O)cc(O)c12
REMARK SMILES IDX 4 1 3 2 16 3 24 4 2 5 25 6 1 7 32 8 26 9 30 10 27 11 29 12
REMARK SMILES IDX 17 13 18 14 19 15 20 16 23 17 22 18 21 19 31 21 28 23 5 25
REMARK SMILES IDX 14 26 6 27 12 28 7 29 10 30 15 31 13 33 8 35 9 36 11 38
REMARK H PARENT 21 20 31 22 28 24 15 32 13 34 9 37 11 39
REMARK Flexibility Score: inf
ROOT
ATOM      1  O   UNL     1      13.368   2.418   0.922  1.00  0.00    -0.454 OA
ENDROOT
BRANCH   1   2
ATOM      2  C   UNL     1      13.327   1.718   2.147  1.00  0.00     0.214 A 
ATOM      3  C   UNL     1      12.191   0.926   2.419  1.00  0.00     0.180 A 
ATOM      4  O   UNL     1      12.070   0.302   3.585  1.00  0.00    -0.452 OA
ATOM      5  C   UNL     1      14.339   1.790   3.132  1.00  0.00     0.239 A 
ATOM      6  C   UNL     1      12.992   0.351   4.537  1.00  0.00     0.146 A 
ATOM      7  O   UNL     1      15.379   2.470   2.931  1.00  0.00    -0.285 OA
ATOM      8  C   UNL     1      14.179   1.096   4.351  1.00  0.00     0.111 A 
ATOM      9  C   UNL     1      12.773  -0.346   5.729  1.00  0.00     0.094 A 
ATOM     10  C   UNL     1      15.144   1.118   5.389  1.00  0.00     0.134 A 
ATOM     11  C   UNL     1      13.729  -0.319   6.749  1.00  0.00     0.123 A 
ATOM     12  C   UNL     1      14.908   0.409   6.576  1.00  0.00     0.093 A 
BRANCH   3  13
ATOM     13  C   UNL     1      11.096   0.777   1.439  1.00  0.00     0.021 A 
ATOM     14  C   UNL     1      10.113   1.770   1.291  1.00  0.00     0.016 A 
ATOM     15  C   UNL     1       9.094   1.620   0.347  1.00  0.00     0.047 A 
ATOM     16  C   UNL     1       9.056   0.485  -0.474  1.00  0.00     0.115 A 
ATOM     17  C   UNL     1      11.065  -0.347   0.597  1.00  0.00     0.016 A 
ATOM     18  C   UNL     1      10.046  -0.494  -0.348  1.00  0.00     0.047 A 
BRANCH  16  19
ATOM     19  O   UNL     1       8.044   0.324  -1.418  1.00  0.00    -0.508 OA
ATOM     20  H   UNL     1       7.723  -0.596  -1.697  1.00  0.00     0.293 HD
ENDBRANCH  16  19
ENDBRANCH   3  13
BRANCH  10  21
ATOM     21  O   UNL     1      16.333   1.836   5.250  1.00  0.00    -0.507 OA
ATOM     22  H   UNL     1      17.115   1.476   4.714  1.00  0.00     0.293 HD
ENDBRANCH  10  21
BRANCH  11  23
ATOM     23  O   UNL     1      13.518  -1.012   7.938  1.00  0.00    -0.508 OA
ATOM     24  H   UNL     1      13.541  -2.024   7.973  1.00  0.00     0.293 HD
ENDBRANCH  11  23
ENDBRANCH   1   2
BRANCH   1  25
ATOM     25  C   UNL     1      14.443   2.444  -0.025  1.00  0.00     0.339 C 
ATOM     26  C   UNL     1      14.060   3.309  -1.250  1.00  0.00     0.214 C 
ATOM     27  O   UNL     1      14.828   1.133  -0.414  1.00  0.00    -0.332 OA
ATOM     28  C   UNL     1      13.039   2.600  -2.165  1.00  0.00     0.180 C 
ATOM     29  C   UNL     1      13.765   0.448  -1.054  1.00  0.00     0.179 C 
ATOM     30  C   UNL     1      13.415   1.123  -2.401  1.00  0.00     0.177 C 
BRANCH  26  31
ATOM     31  O   UNL     1      15.200   3.697  -1.979  1.00  0.00    -0.384 OA
ATOM     32  H   UNL     1      14.973   4.507  -2.505  1.00  0.00     0.211 HD
ENDBRANCH  26  31
BRANCH  28  33
ATOM     33  O   UNL     1      11.764   2.680  -1.579  1.00  0.00    -0.387 OA
ATOM     34  H   UNL     1      11.652   3.612  -1.254  1.00  0.00     0.211 HD
ENDBRANCH  28  33
BRANCH  29  35
ATOM     35  C   UNL     1      14.175  -1.022  -1.236  1.00  0.00     0.191 C 
BRANCH  35  36
ATOM     36  O   UNL     1      15.390  -1.125  -1.929  1.00  0.00    -0.394 OA
ATOM     37  H   UNL     1      15.203  -1.639  -2.756  1.00  0.00     0.210 HD
ENDBRANCH  35  36
ENDBRANCH  29  35
BRANCH  30  38
ATOM     38  O   UNL     1      14.505   1.055  -3.288  1.00  0.00    -0.387 OA
ATOM     39  H   UNL     1      14.392   1.786  -3.950  1.00  0.00     0.211 HD
ENDBRANCH  30  38
ENDBRANCH   1  25
TORSDOF 11
ENDMDL
MODEL 4
REMARK VINA RESULT:    -4.908      2.604      6.991
REMARK INTER + INTRA:          -8.642
REMARK INTER:                  -7.566
REMARK INTRA:                  -1.076
REMARK UNBOUND:                -1.582
REMARK SMILES O=c1c(O[C@H]2O[C@H](CO)[C@H](O)[C@@H](O)[C@@H]2O)c(-c2ccc(O)cc2)oc2cc(O)cc(O)c12
REMARK SMILES IDX 4 1 3 2 16 3 24 4 2 5 25 6 1 7 32 8 26 9 30 10 27 11 29 12
REMARK SMILES IDX 17 13 18 14 19 15 20 16 23 17 22 18 21 19 31 21 28 23 5 25
REMARK SMILES IDX 14 26 6 27 12 28 7 29 10 30 15 31 13 33 8 35 9 36 11 38
REMARK H PARENT 21 20 31 22 28 24 15 32 13 34 9 37 11 39
REMARK Flexibility Score: inf
ROOT
ATOM      1  O   UNL     1      12.786   2.962   1.531  1.00  0.00    -0.454 OA
ENDROOT
BRANCH   1   2
ATOM      2  C   UNL     1      11.915   3.603   0.624  1.00  0.00     0.214 A 
ATOM      3  C   UNL     1      12.128   3.396  -0.756  1.00  0.00     0.180 A 
ATOM      4  O   UNL     1      11.381   4.029  -1.653  1.00  0.00    -0.452 OA
ATOM      5  C   UNL     1      10.865   4.466   1.013  1.00  0.00     0.239 A 
ATOM      6  C   UNL     1      10.393   4.852  -1.329  1.00  0.00     0.146 A 
ATOM      7  O   UNL     1      10.624   4.671   2.232  1.00  0.00    -0.285 OA
ATOM      8  C   UNL     1      10.083   5.105   0.026  1.00  0.00     0.111 A 
ATOM      9  C   UNL     1       9.661   5.467  -2.350  1.00  0.00     0.094 A 
ATOM     10  C   UNL     1       9.015   5.985   0.333  1.00  0.00     0.134 A 
ATOM     11  C   UNL     1       8.610   6.335  -2.040  1.00  0.00     0.123 A 
ATOM     12  C   UNL     1       8.290   6.589  -0.706  1.00  0.00     0.093 A 
BRANCH   3  13
ATOM     13  C   UNL     1      13.188   2.494  -1.251  1.00  0.00     0.021 A 
ATOM     14  C   UNL     1      12.873   1.335  -1.980  1.00  0.00     0.016 A 
ATOM     15  C   UNL     1      13.889   0.502  -2.456  1.00  0.00     0.047 A 
ATOM     16  C   UNL     1      15.232   0.828  -2.226  1.00  0.00     0.115 A 
ATOM     17  C   UNL     1      14.536   2.827  -1.044  1.00  0.00     0.016 A 
ATOM     18  C   UNL     1      15.552   1.993  -1.523  1.00  0.00     0.047 A 
BRANCH  16  19
ATOM     19  O   UNL     1      16.253   0.004  -2.694  1.00  0.00    -0.508 OA
ATOM     20  H   UNL     1      16.053  -0.866  -3.174  1.00  0.00     0.293 HD
ENDBRANCH  16  19
ENDBRANCH   3  13
BRANCH  10  21
ATOM     21  O   UNL     1       8.668   6.263   1.656  1.00  0.00    -0.507 OA
ATOM     22  H   UNL     1       9.370   6.431   2.367  1.00  0.00     0.293 HD
ENDBRANCH  10  21
BRANCH  11  23
ATOM     23  O   UNL     1       7.876   6.949  -3.052  1.00  0.00    -0.508 OA
ATOM     24  H   UNL     1       6.886   6.768  -3.174  1.00  0.00     0.293 HD
ENDBRANCH  11  23
ENDBRANCH   1   2
BRANCH   1  25
ATOM     25  C   UNL     1      12.423   2.115   2.629  1.00  0.00     0.339 C 
ATOM     26  C   UNL     1      13.596   2.006   3.633  1.00  0.00     0.214 C 
ATOM     27  O   UNL     1      12.000   0.835   2.182  1.00  0.00    -0.332 OA
ATOM     28  C   UNL     1      14.739   1.117   3.098  1.00  0.00     0.180 C 
ATOM     29  C   UNL     1      13.037   0.155   1.494  1.00  0.00     0.179 C 
ATOM     30  C   UNL     1      14.200  -0.179   2.457  1.00  0.00     0.177 C 
BRANCH  26  31
ATOM     31  O   UNL     1      13.152   1.548   4.889  1.00  0.00    -0.384 OA
ATOM     32  H   UNL     1      13.821   1.813   5.571  1.00  0.00     0.211 HD
ENDBRANCH  26  31
BRANCH  28  33
ATOM     33  O   UNL     1      15.480   1.844   2.152  1.00  0.00    -0.387 OA
ATOM     34  H   UNL     1      15.796   2.671   2.604  1.00  0.00     0.211 HD
ENDBRANCH  28  33
BRANCH  29  35
ATOM     35  C   UNL     1      12.444  -1.107   0.848  1.00  0.00     0.191 C 
BRANCH  35  36
ATOM     36  O   UNL     1      11.156  -0.861   0.349  1.00  0.00    -0.394 OA
ATOM     37  H   UNL     1      11.269  -0.318  -0.474  1.00  0.00     0.210 HD
ENDBRANCH  35  36
ENDBRANCH  29  35
BRANCH  30  38
ATOM     38  O   UNL     1      13.771  -1.056   3.470  1.00  0.00    -0.387 OA
ATOM     39  H   UNL     1      14.199  -0.762   4.315  1.00  0.00     0.211 HD
ENDBRANCH  30  38
ENDBRANCH   1  25
TORSDOF 11
ENDMDL
MODEL 5
REMARK VINA RESULT:    -4.799      2.389      7.049
REMARK INTER + INTRA:          -8.486
REMARK INTER:                  -8.671
REMARK INTRA:                   0.185
REMARK UNBOUND:                -1.582
REMARK SMILES O=c1c(O[C@H]2O[C@H](CO)[C@H](O)[C@@H](O)[C@@H]2O)c(-c2ccc(O)cc2)oc2cc(O)cc(O)c12
REMARK SMILES IDX 4 1 3 2 16 3 24 4 2 5 25 6 1 7 32 8 26 9 30 10 27 11 29 12
REMARK SMILES IDX 17 13 18 14 19 15 20 16 23 17 22 18 21 19 31 21 28 23 5 25
REMARK SMILES IDX 14 26 6 27 12 28 7 29 10 30 15 31 13 33 8 35 9 36 11 38
REMARK H PARENT 21 20 31 22 28 24 15 32 13 34 9 37 11 39
REMARK Flexibility Score: inf
ROOT
ATOM      1  O   UNL     1      12.243   2.400   1.477  1.00  0.00    -0.454 OA
ENDROOT
BRANCH   1   2
ATOM      2  C   UNL     1      11.525   3.191   0.555  1.00  0.00     0.214 A 
ATOM      3  C   UNL     1      12.046   3.326  -0.749  1.00  0.00     0.180 A 
ATOM      4  O   UNL     1      11.445   4.112  -1.635  1.00  0.00    -0.452 OA
ATOM      5  C   UNL     1      10.331   3.882   0.870  1.00  0.00     0.239 A 
ATOM      6  C   UNL     1      10.332   4.784  -1.376  1.00  0.00     0.146 A 
ATOM      7  O   UNL     1       9.817   3.782   2.015  1.00  0.00    -0.285 OA
ATOM      8  C   UNL     1       9.715   4.694  -0.107  1.00  0.00     0.111 A 
ATOM      9  C   UNL     1       9.773   5.583  -2.379  1.00  0.00     0.094 A 
ATOM     10  C   UNL     1       8.521   5.421   0.129  1.00  0.00     0.134 A 
ATOM     11  C   UNL     1       8.597   6.298  -2.139  1.00  0.00     0.123 A 
ATOM     12  C   UNL     1       7.975   6.214  -0.892  1.00  0.00     0.093 A 
BRANCH   3  13
ATOM     13  C   UNL     1      13.274   2.622  -1.170  1.00  0.00     0.021 A 
ATOM     14  C   UNL     1      13.213   1.363  -1.790  1.00  0.00     0.016 A 
ATOM     15  C   UNL     1      14.384   0.719  -2.198  1.00  0.00     0.047 A 
ATOM     16  C   UNL     1      15.628   1.334  -2.009  1.00  0.00     0.115 A 
ATOM     17  C   UNL     1      14.523   3.243  -1.004  1.00  0.00     0.016 A 
ATOM     18  C   UNL     1      15.693   2.598  -1.415  1.00  0.00     0.047 A 
BRANCH  16  19
ATOM     19  O   UNL     1      16.803   0.701  -2.410  1.00  0.00    -0.508 OA
ATOM     20  H   UNL     1      16.829  -0.294  -2.598  1.00  0.00     0.293 HD
ENDBRANCH  16  19
ENDBRANCH   3  13
BRANCH  10  21
ATOM     21  O   UNL     1       7.875   5.361   1.364  1.00  0.00    -0.507 OA
ATOM     22  H   UNL     1       7.998   6.082   2.066  1.00  0.00     0.293 HD
ENDBRANCH  10  21
BRANCH  11  23
ATOM     23  O   UNL     1       8.035   7.094  -3.134  1.00  0.00    -0.508 OA
ATOM     24  H   UNL     1       8.356   7.049  -4.094  1.00  0.00     0.293 HD
ENDBRANCH  11  23
ENDBRANCH   1   2
BRANCH   1  25
ATOM     25  C   UNL     1      13.088   1.280   1.185  1.00  0.00     0.339 C 
ATOM     26  C   UNL     1      12.332  -0.045   1.444  1.00  0.00     0.214 C 
ATOM     27  O   UNL     1      14.303   1.338   1.919  1.00  0.00    -0.332 OA
ATOM     28  C   UNL     1      12.170  -0.337   2.951  1.00  0.00     0.180 C 
ATOM     29  C   UNL     1      14.068   1.292   3.317  1.00  0.00     0.179 C 
ATOM     30  C   UNL     1      13.479  -0.079   3.725  1.00  0.00     0.177 C 
BRANCH  26  31
ATOM     31  O   UNL     1      12.955  -1.125   0.789  1.00  0.00    -0.384 OA
ATOM     32  H   UNL     1      13.916  -1.126   1.033  1.00  0.00     0.211 HD
ENDBRANCH  26  31
BRANCH  28  33
ATOM     33  O   UNL     1      11.142   0.470   3.467  1.00  0.00    -0.387 OA
ATOM     34  H   UNL     1      11.348   1.405   3.203  1.00  0.00     0.211 HD
ENDBRANCH  28  33
BRANCH  29  35
ATOM     35  C   UNL     1      15.391   1.588   4.041  1.00  0.00     0.191 C 
BRANCH  35  36
ATOM     36  O   UNL     1      15.516   0.810   5.202  1.00  0.00    -0.394 OA
ATOM     37  H   UNL     1      16.063   0.019   4.956  1.00  0.00     0.210 HD
ENDBRANCH  35  36
ENDBRANCH  29  35
BRANCH  30  38
ATOM     38  O   UNL     1      14.393  -1.113   3.455  1.00  0.00    -0.387 OA
ATOM     39  H   UNL     1      14.468  -1.190   2.469  1.00  0.00     0.211 HD
ENDBRANCH  30  38
ENDBRANCH   1  25
TORSDOF 11
ENDMDL
MODEL 6
REMARK VINA RESULT:    -4.754      1.822      7.618
REMARK INTER + INTRA:          -8.420
REMARK INTER:                  -7.960
REMARK INTRA:                  -0.460
REMARK UNBOUND:                -1.582
REMARK SMILES O=c1c(O[C@H]2O[C@H](CO)[C@H](O)[C@@H](O)[C@@H]2O)c(-c2ccc(O)cc2)oc2cc(O)cc(O)c12
REMARK SMILES IDX 4 1 3 2 16 3 24 4 2 5 25 6 1 7 32 8 26 9 30 10 27 11 29 12
REMARK SMILES IDX 17 13 18 14 19 15 20 16 23 17 22 18 21 19 31 21 28 23 5 25
REMARK SMILES IDX 14 26 6 27 12 28 7 29 10 30 15 31 13 33 8 35 9 36 11 38
REMARK H PARENT 21 20 31 22 28 24 15 32 13 34 9 37 11 39
REMARK Flexibility Score: inf
ROOT
ATOM      1  O   UNL     1      13.675   1.004   3.102  1.00  0.00    -0.454 OA
ENDROOT
BRANCH   1   2
ATOM      2  C   UNL     1      13.431   1.645   1.868  1.00  0.00     0.214 A 
ATOM      3  C   UNL     1      12.132   1.562   1.325  1.00  0.00     0.180 A 
ATOM      4  O   UNL     1      11.865   2.089   0.135  1.00  0.00    -0.452 OA
ATOM      5  C   UNL     1      14.418   2.336   1.128  1.00  0.00     0.239 A 
ATOM      6  C   UNL     1      12.765   2.735  -0.594  1.00  0.00     0.146 A 
ATOM      7  O   UNL     1      15.589   2.452   1.576  1.00  0.00    -0.285 OA
ATOM      8  C   UNL     1      14.088   2.897  -0.125  1.00  0.00     0.111 A 
ATOM      9  C   UNL     1      12.384   3.258  -1.833  1.00  0.00     0.094 A 
ATOM     10  C   UNL     1      15.019   3.601  -0.929  1.00  0.00     0.134 A 
ATOM     11  C   UNL     1      13.307   3.951  -2.621  1.00  0.00     0.123 A 
ATOM     12  C   UNL     1      14.616   4.122  -2.168  1.00  0.00     0.093 A 
BRANCH   3  13
ATOM     13  C   UNL     1      11.034   0.879   2.039  1.00  0.00     0.021 A 
ATOM     14  C   UNL     1      11.283  -0.232   2.862  1.00  0.00     0.016 A 
ATOM     15  C   UNL     1      10.236  -0.856   3.544  1.00  0.00     0.047 A 
ATOM     16  C   UNL     1       8.929  -0.365   3.427  1.00  0.00     0.115 A 
ATOM     17  C   UNL     1       9.725   1.380   1.944  1.00  0.00     0.016 A 
ATOM     18  C   UNL     1       8.678   0.755   2.629  1.00  0.00     0.047 A 
BRANCH  16  19
ATOM     19  O   UNL     1       7.875  -0.980   4.101  1.00  0.00    -0.508 OA
ATOM     20  H   UNL     1       7.917  -1.956   4.370  1.00  0.00     0.293 HD
ENDBRANCH  16  19
ENDBRANCH   3  13
BRANCH  10  21
ATOM     21  O   UNL     1      16.336   3.789  -0.508  1.00  0.00    -0.507 OA
ATOM     22  H   UNL     1      16.573   3.899   0.472  1.00  0.00     0.293 HD
ENDBRANCH  10  21
BRANCH  11  23
ATOM     23  O   UNL     1      12.934   4.476  -3.856  1.00  0.00    -0.508 OA
ATOM     24  H   UNL     1      12.726   5.461  -3.973  1.00  0.00     0.293 HD
ENDBRANCH  11  23
ENDBRANCH   1   2
BRANCH   1  25
ATOM     25  C   UNL     1      14.180   1.601   4.303  1.00  0.00     0.339 C 
ATOM     26  C   UNL     1      15.655   1.190   4.527  1.00  0.00     0.214 C 
ATOM     27  O   UNL     1      13.373   1.275   5.426  1.00  0.00    -0.332 OA
ATOM     28  C   UNL     1      15.787  -0.276   4.992  1.00  0.00     0.180 C 
ATOM     29  C   UNL     1      13.355  -0.122   5.665  1.00  0.00     0.179 C 
ATOM     30  C   UNL     1      14.757  -0.621   6.087  1.00  0.00     0.177 C 
BRANCH  26  31
ATOM     31  O   UNL     1      16.296   2.061   5.430  1.00  0.00    -0.384 OA
ATOM     32  H   UNL     1      15.770   2.081   6.271  1.00  0.00     0.211 HD
ENDBRANCH  26  31
BRANCH  28  33
ATOM     33  O   UNL     1      15.611  -1.125   3.887  1.00  0.00    -0.387 OA
ATOM     34  H   UNL     1      15.732  -0.570   3.072  1.00  0.00     0.211 HD
ENDBRANCH  28  33
BRANCH  29  35
ATOM     35  C   UNL     1      12.292  -0.417   6.736  1.00  0.00     0.191 C 
BRANCH  35  36
ATOM     36  O   UNL     1      12.507   0.358   7.886  1.00  0.00    -0.394 OA
ATOM     37  H   UNL     1      11.622   0.712   8.160  1.00  0.00     0.210 HD
ENDBRANCH  35  36
ENDBRANCH  29  35
BRANCH  30  38
ATOM     38  O   UNL     1      15.150  -0.028   7.301  1.00  0.00    -0.387 OA
ATOM     39  H   UNL     1      14.342   0.037   7.872  1.00  0.00     0.211 HD
ENDBRANCH  30  38
ENDBRANCH   1  25
TORSDOF 11
ENDMDL
MODEL 7
REMARK VINA RESULT:    -3.757      2.001      7.579
REMARK INTER + INTRA:          -6.986
REMARK INTER:                  -6.488
REMARK INTRA:                  -0.499
REMARK UNBOUND:                -1.582
REMARK SMILES O=c1c(O[C@H]2O[C@H](CO)[C@H](O)[C@@H](O)[C@@H]2O)c(-c2ccc(O)cc2)oc2cc(O)cc(O)c12
REMARK SMILES IDX 4 1 3 2 16 3 24 4 2 5 25 6 1 7 32 8 26 9 30 10 27 11 29 12
REMARK SMILES IDX 17 13 18 14 19 15 20 16 23 17 22 18 21 19 31 21 28 23 5 25
REMARK SMILES IDX 14 26 6 27 12 28 7 29 10 30 15 31 13 33 8 35 9 36 11 38
REMARK H PARENT 21 20 31 22 28 24 15 32 13 34 9 37 11 39
REMARK Flexibility Score: inf
ROOT
ATOM      1  O   UNL     1      13.585   1.785   3.607  1.00  0.00    -0.454 OA
ENDROOT
BRANCH   1   2
ATOM      2  C   UNL     1      13.385   2.155   2.260  1.00  0.00     0.214 A 
ATOM      3  C   UNL     1      12.200   1.728   1.625  1.00  0.00     0.180 A 
ATOM      4  O   UNL     1      11.994   1.991   0.340  1.00  0.00    -0.452 OA
ATOM      5  C   UNL     1      14.317   2.899   1.499  1.00  0.00     0.239 A 
ATOM      6  C   UNL     1      12.846   2.677  -0.410  1.00  0.00     0.146 A 
ATOM      7  O   UNL     1      15.383   3.316   2.024  1.00  0.00    -0.285 OA
ATOM      8  C   UNL     1      14.051   3.172   0.140  1.00  0.00     0.111 A 
ATOM      9  C   UNL     1      12.535   2.906  -1.754  1.00  0.00     0.094 A 
ATOM     10  C   UNL     1      14.933   3.907  -0.691  1.00  0.00     0.134 A 
ATOM     11  C   UNL     1      13.410   3.630  -2.568  1.00  0.00     0.123 A 
ATOM     12  C   UNL     1      14.601   4.129  -2.036  1.00  0.00     0.093 A 
BRANCH   3  13
ATOM     13  C   UNL     1      11.162   0.966   2.349  1.00  0.00     0.021 A 
ATOM     14  C   UNL     1      11.476  -0.223   3.028  1.00  0.00     0.016 A 
ATOM     15  C   UNL     1      10.486  -0.922   3.722  1.00  0.00     0.047 A 
ATOM     16  C   UNL     1       9.174  -0.431   3.762  1.00  0.00     0.115 A 
ATOM     17  C   UNL     1       9.851   1.465   2.413  1.00  0.00     0.016 A 
ATOM     18  C   UNL     1       8.862   0.765   3.110  1.00  0.00     0.047 A 
BRANCH  16  19
ATOM     19  O   UNL     1       8.177  -1.121   4.450  1.00  0.00    -0.508 OA
ATOM     20  H   UNL     1       7.216  -0.801   4.450  1.00  0.00     0.293 HD
ENDBRANCH  16  19
ENDBRANCH   3  13
BRANCH  10  21
ATOM     21  O   UNL     1      16.132   4.418  -0.193  1.00  0.00    -0.507 OA
ATOM     22  H   UNL     1      16.296   5.416  -0.115  1.00  0.00     0.293 HD
ENDBRANCH  10  21
BRANCH  11  23
ATOM     23  O   UNL     1      13.105   3.863  -3.907  1.00  0.00    -0.508 OA
ATOM     24  H   UNL     1      13.562   4.597  -4.435  1.00  0.00     0.293 HD
ENDBRANCH  11  23
ENDBRANCH   1   2
BRANCH   1  25
ATOM     25  C   UNL     1      14.429   0.737   4.102  1.00  0.00     0.339 C 
ATOM     26  C   UNL     1      13.839   0.142   5.403  1.00  0.00     0.214 C 
ATOM     27  O   UNL     1      15.762   1.189   4.294  1.00  0.00    -0.332 OA
ATOM     28  C   UNL     1      14.014   1.091   6.608  1.00  0.00     0.180 C 
ATOM     29  C   UNL     1      15.825   2.226   5.259  1.00  0.00     0.179 C 
ATOM     30  C   UNL     1      15.433   1.694   6.657  1.00  0.00     0.177 C 
BRANCH  26  31
ATOM     31  O   UNL     1      14.388  -1.125   5.680  1.00  0.00    -0.384 OA
ATOM     32  H   UNL     1      13.841  -1.553   6.388  1.00  0.00     0.211 HD
ENDBRANCH  26  31
BRANCH  28  33
ATOM     33  O   UNL     1      13.060   2.119   6.524  1.00  0.00    -0.387 OA
ATOM     34  H   UNL     1      12.386   1.949   7.233  1.00  0.00     0.211 HD
ENDBRANCH  28  33
BRANCH  29  35
ATOM     35  C   UNL     1      17.245   2.815   5.245  1.00  0.00     0.191 C 
BRANCH  35  36
ATOM     36  O   UNL     1      17.247   4.139   5.709  1.00  0.00    -0.394 OA
ATOM     37  H   UNL     1      17.555   4.110   6.651  1.00  0.00     0.210 HD
ENDBRANCH  35  36
ENDBRANCH  29  35
BRANCH  30  38
ATOM     38  O   UNL     1      16.342   0.712   7.089  1.00  0.00    -0.387 OA
ATOM     39  H   UNL     1      16.903   0.466   6.308  1.00  0.00     0.211 HD
ENDBRANCH  30  38
ENDBRANCH   1  25
TORSDOF 11
ENDMDL
MODEL 8
REMARK VINA RESULT:    -3.354     16.092     18.679
REMARK INTER + INTRA:          -6.407
REMARK INTER:                  -5.698
REMARK INTRA:                  -0.710
REMARK UNBOUND:                -1.582
REMARK SMILES O=c1c(O[C@H]2O[C@H](CO)[C@H](O)[C@@H](O)[C@@H]2O)c(-c2ccc(O)cc2)oc2cc(O)cc(O)c12
REMARK SMILES IDX 4 1 3 2 16 3 24 4 2 5 25 6 1 7 32 8 26 9 30 10 27 11 29 12
REMARK SMILES IDX 17 13 18 14 19 15 20 16 23 17 22 18 21 19 31 21 28 23 5 25
REMARK SMILES IDX 14 26 6 27 12 28 7 29 10 30 15 31 13 33 8 35 9 36 11 38
REMARK H PARENT 21 20 31 22 28 24 15 32 13 34 9 37 11 39
REMARK Flexibility Score: inf
ROOT
ATOM      1  O   UNL     1      25.272  13.609   7.648  1.00  0.00    -0.454 OA
ENDROOT
BRANCH   1   2
ATOM      2  C   UNL     1      25.807  12.446   8.241  1.00  0.00     0.214 A 
ATOM      3  C   UNL     1      26.748  12.605   9.280  1.00  0.00     0.180 A 
ATOM      4  O   UNL     1      27.334  11.545   9.826  1.00  0.00    -0.452 OA
ATOM      5  C   UNL     1      25.483  11.131   7.833  1.00  0.00     0.239 A 
ATOM      6  C   UNL     1      27.064  10.298   9.466  1.00  0.00     0.146 A 
ATOM      7  O   UNL     1      24.638  10.934   6.921  1.00  0.00    -0.285 OA
ATOM      8  C   UNL     1      26.116  10.031   8.452  1.00  0.00     0.111 A 
ATOM      9  C   UNL     1      27.732   9.249  10.105  1.00  0.00     0.094 A 
ATOM     10  C   UNL     1      25.849   8.684   8.100  1.00  0.00     0.134 A 
ATOM     11  C   UNL     1      27.465   7.923   9.752  1.00  0.00     0.123 A 
ATOM     12  C   UNL     1      26.527   7.645   8.756  1.00  0.00     0.093 A 
BRANCH   3  13
ATOM     13  C   UNL     1      27.129  13.941   9.784  1.00  0.00     0.021 A 
ATOM     14  C   UNL     1      27.782  14.870   8.957  1.00  0.00     0.016 A 
ATOM     15  C   UNL     1      28.119  16.135   9.445  1.00  0.00     0.047 A 
ATOM     16  C   UNL     1      27.792  16.493  10.760  1.00  0.00     0.115 A 
ATOM     17  C   UNL     1      26.782  14.314  11.093  1.00  0.00     0.016 A 
ATOM     18  C   UNL     1      27.120  15.581  11.579  1.00  0.00     0.047 A 
BRANCH  16  19
ATOM     19  O   UNL     1      28.125  17.751  11.258  1.00  0.00    -0.508 OA
ATOM     20  H   UNL     1      28.907  18.277  10.886  1.00  0.00     0.293 HD
ENDBRANCH  16  19
ENDBRANCH   3  13
BRANCH  10  21
ATOM     21  O   UNL     1      24.920   8.370   7.108  1.00  0.00    -0.507 OA
ATOM     22  H   UNL     1      24.127   8.970   6.910  1.00  0.00     0.293 HD
ENDBRANCH  10  21
BRANCH  11  23
ATOM     23  O   UNL     1      28.125   6.873  10.386  1.00  0.00    -0.508 OA
ATOM     24  H   UNL     1      29.079   6.627  10.150  1.00  0.00     0.293 HD
ENDBRANCH  11  23
ENDBRANCH   1   2
BRANCH   1  25
ATOM     25  C   UNL     1      25.142  13.887   6.248  1.00  0.00     0.339 C 
ATOM     26  C   UNL     1      25.577  15.342   5.948  1.00  0.00     0.214 C 
ATOM     27  O   UNL     1      23.824  13.632   5.786  1.00  0.00    -0.332 OA
ATOM     28  C   UNL     1      24.531  16.372   6.428  1.00  0.00     0.180 C 
ATOM     29  C   UNL     1      22.875  14.462   6.435  1.00  0.00     0.179 C 
ATOM     30  C   UNL     1      23.097  15.945   6.054  1.00  0.00     0.177 C 
BRANCH  26  31
ATOM     31  O   UNL     1      25.861  15.518   4.580  1.00  0.00    -0.384 OA
ATOM     32  H   UNL     1      25.738  16.477   4.357  1.00  0.00     0.211 HD
ENDBRANCH  26  31
BRANCH  28  33
ATOM     33  O   UNL     1      24.638  16.518   7.821  1.00  0.00    -0.387 OA
ATOM     34  H   UNL     1      25.574  16.789   8.013  1.00  0.00     0.211 HD
ENDBRANCH  28  33
BRANCH  29  35
ATOM     35  C   UNL     1      21.467  13.976   6.058  1.00  0.00     0.191 C 
BRANCH  35  36
ATOM     36  O   UNL     1      20.683  13.762   7.203  1.00  0.00    -0.394 OA
ATOM     37  H   UNL     1      21.251  13.993   7.983  1.00  0.00     0.210 HD
ENDBRANCH  35  36
ENDBRANCH  29  35
BRANCH  30  38
ATOM     38  O   UNL     1      22.897  16.139   4.675  1.00  0.00    -0.387 OA
ATOM     39  H   UNL     1      21.945  16.388   4.548  1.00  0.00     0.211 HD
ENDBRANCH  30  38
ENDBRANCH   1  25
TORSDOF 11
ENDMDL
