MODEL 1
REMARK VINA RESULT:    -3.863      0.000      0.000
REMARK INTER + INTRA:          -5.576
REMARK INTER:                  -5.218
REMARK INTRA:                  -0.358
REMARK UNBOUND:                -0.358
REMARK SMILES CCCCCCCC(=O)[O-]
REMARK SMILES IDX 5 1 6 2 7 3 8 4 9 5 10 6 4 7 3 8 2 9 1 10
REMARK H PARENT
REMARK Flexibility Score: inf
ROOT
ATOM      1  C   UNL     1      -9.490   2.334  15.609  1.00  0.00     0.000 C 
ENDROOT
BRANCH   1   2
ATOM      2  C   UNL     1      -9.793   0.851  15.351  1.00  0.00     0.006 C 
BRANCH   2   3
ATOM      3  C   UNL     1     -10.534   0.631  14.027  1.00  0.00     0.053 C 
BRANCH   3   4
ATOM      4  C   UNL     1     -11.993   0.372  14.245  1.00  0.00     0.041 C 
ATOM      5  O   UNL     1     -12.572   0.821  15.269  1.00  0.00    -0.550 OA
ATOM      6  O   UNL     1     -12.722  -0.338  13.299  1.00  0.00    -0.550 OA
ENDBRANCH   3   4
ENDBRANCH   2   3
ENDBRANCH   1   2
BRANCH   1   7
ATOM      7  C   UNL     1      -9.588   2.664  17.104  1.00  0.00     0.000 C 
BRANCH   7   8
ATOM      8  C   UNL     1     -10.029   1.437  17.910  1.00  0.00    -0.000 C 
BRANCH   8   9
ATOM      9  C   UNL     1      -9.072   1.173  19.077  1.00  0.00    -0.003 C 
ATOM     10  C   UNL     1      -8.864  -0.323  19.293  1.00  0.00     0.004 C 
ENDBRANCH   8   9
ENDBRANCH   7   8
ENDBRANCH   1   7
TORSDOF 6
ENDMDL
MODEL 2
REMARK VINA RESULT:    -3.707      1.533      2.559
REMARK INTER + INTRA:          -5.365
REMARK INTER:                  -4.969
REMARK INTRA:                  -0.396
REMARK UNBOUND:                -0.358
REMARK SMILES CCCCCCCC(=O)[O-]
REMARK SMILES IDX 5 1 6 2 7 3 8 4 9 5 10 6 4 7 3 8 2 9 1 10
REMARK H PARENT
REMARK Flexibility Score: inf
ROOT
ATOM      1  C   UNL     1      -9.540   2.319  15.548  1.00  0.00     0.000 C 
ENDROOT
BRANCH   1   2
ATOM      2  C   UNL     1      -9.833   0.827  15.329  1.00  0.00     0.006 C 
BRANCH   2   3
ATOM      3  C   UNL     1     -10.541   0.563  13.995  1.00  0.00     0.053 C 
BRANCH   3   4
ATOM      4  C   UNL     1     -12.001   0.288  14.187  1.00  0.00     0.041 C 
ATOM      5  O   UNL     1     -12.603   0.730  15.201  1.00  0.00    -0.550 OA
ATOM      6  O   UNL     1     -12.705  -0.431  13.229  1.00  0.00    -0.550 OA
ENDBRANCH   3   4
ENDBRANCH   2   3
ENDBRANCH   1   2
BRANCH   1   7
ATOM      7  C   UNL     1      -9.509   2.660  17.043  1.00  0.00     0.000 C 
BRANCH   7   8
ATOM      8  C   UNL     1     -10.249   3.973  17.323  1.00  0.00    -0.000 C 
BRANCH   8   9
ATOM      9  C   UNL     1     -11.420   4.161  16.353  1.00  0.00    -0.003 C 
ATOM     10  C   UNL     1     -12.738   3.728  16.988  1.00  0.00     0.004 C 
ENDBRANCH   8   9
ENDBRANCH   7   8
ENDBRANCH   1   7
TORSDOF 6
ENDMDL
MODEL 3
REMARK VINA RESULT:    -3.678      1.624      2.445
REMARK INTER + INTRA:          -5.326
REMARK INTER:                  -5.065
REMARK INTRA:                  -0.262
REMARK UNBOUND:                -0.358
REMARK SMILES CCCCCCCC(=O)[O-]
REMARK SMILES IDX 5 1 6 2 7 3 8 4 9 5 10 6 4 7 3 8 2 9 1 10
REMARK H PARENT
REMARK Flexibility Score: inf
ROOT
ATOM      1  C   UNL     1     -10.988   0.941  18.138  1.00  0.00     0.000 C 
ENDROOT
BRANCH   1   2
ATOM      2  C   UNL     1     -11.106   1.613  16.762  1.00  0.00     0.006 C 
BRANCH   2   3
ATOM      3  C   UNL     1      -9.874   1.363  15.885  1.00  0.00     0.053 C 
BRANCH   3   4
ATOM      4  C   UNL     1     -10.242   0.720  14.583  1.00  0.00     0.041 C 
ATOM      5  O   UNL     1      -9.354   0.457  13.730  1.00  0.00    -0.550 OA
ATOM      6  O   UNL     1     -11.565   0.381  14.324  1.00  0.00    -0.550 OA
ENDBRANCH   3   4
ENDBRANCH   2   3
ENDBRANCH   1   2
BRANCH   1   7
ATOM      7  C   UNL     1      -9.590   1.146  18.732  1.00  0.00     0.000 C 
BRANCH   7   8
ATOM      8  C   UNL     1      -8.923  -0.198  19.046  1.00  0.00    -0.000 C 
BRANCH   8   9
ATOM      9  C   UNL     1      -9.762  -1.010  20.038  1.00  0.00    -0.003 C 
ATOM     10  C   UNL     1      -9.182  -0.929  21.447  1.00  0.00     0.004 C 
ENDBRANCH   8   9
ENDBRANCH   7   8
ENDBRANCH   1   7
TORSDOF 6
ENDMDL
MODEL 4
REMARK VINA RESULT:    -3.597      3.116      5.176
REMARK INTER + INTRA:          -5.218
REMARK INTER:                  -4.879
REMARK INTRA:                  -0.338
REMARK UNBOUND:                -0.358
REMARK SMILES CCCCCCCC(=O)[O-]
REMARK SMILES IDX 5 1 6 2 7 3 8 4 9 5 10 6 4 7 3 8 2 9 1 10
REMARK H PARENT
REMARK Flexibility Score: inf
ROOT
ATOM      1  C   UNL     1      -9.533   1.777  17.883  1.00  0.00     0.000 C 
ENDROOT
BRANCH   1   2
ATOM      2  C   UNL     1      -9.176   1.299  19.298  1.00  0.00     0.006 C 
BRANCH   2   3
ATOM      3  C   UNL     1      -8.804  -0.188  19.334  1.00  0.00     0.053 C 
BRANCH   3   4
ATOM      4  C   UNL     1      -9.552  -0.921  20.405  1.00  0.00     0.041 C 
ATOM      5  O   UNL     1     -10.716  -1.349  20.188  1.00  0.00    -0.550 OA
ATOM      6  O   UNL     1      -8.949  -1.160  21.634  1.00  0.00    -0.550 OA
ENDBRANCH   3   4
ENDBRANCH   2   3
ENDBRANCH   1   2
BRANCH   1   7
ATOM      7  C   UNL     1     -10.962   1.365  17.507  1.00  0.00     0.000 C 
BRANCH   7   8
ATOM      8  C   UNL     1     -11.130   1.291  15.985  1.00  0.00    -0.000 C 
BRANCH   8   9
ATOM      9  C   UNL     1      -9.788   1.489  15.273  1.00  0.00    -0.003 C 
ATOM     10  C   UNL     1      -9.643   0.534  14.092  1.00  0.00     0.004 C 
ENDBRANCH   8   9
ENDBRANCH   7   8
ENDBRANCH   1   7
TORSDOF 6
ENDMDL
MODEL 5
REMARK VINA RESULT:    -3.531     11.608     13.069
REMARK INTER + INTRA:          -5.127
REMARK INTER:                  -4.743
REMARK INTRA:                  -0.385
REMARK UNBOUND:                -0.358
REMARK SMILES CCCCCCCC(=O)[O-]
REMARK SMILES IDX 5 1 6 2 7 3 8 4 9 5 10 6 4 7 3 8 2 9 1 10
REMARK H PARENT
REMARK Flexibility Score: inf
ROOT
ATOM      1  C   UNL     1      -2.063  -9.160  16.718  1.00  0.00     0.000 C 
ENDROOT
BRANCH   1   2
ATOM      2  C   UNL     1      -2.687  -7.796  17.043  1.00  0.00     0.006 C 
BRANCH   2   3
ATOM      3  C   UNL     1      -3.592  -7.849  18.281  1.00  0.00     0.053 C 
BRANCH   3   4
ATOM      4  C   UNL     1      -3.070  -6.984  19.386  1.00  0.00     0.041 C 
ATOM      5  O   UNL     1      -2.074  -6.239  19.194  1.00  0.00    -0.550 OA
ATOM      6  O   UNL     1      -3.706  -6.976  20.621  1.00  0.00    -0.550 OA
ENDBRANCH   3   4
ENDBRANCH   2   3
ENDBRANCH   1   2
BRANCH   1   7
ATOM      7  C   UNL     1      -3.130 -10.262  16.694  1.00  0.00     0.000 C 
BRANCH   7   8
ATOM      8  C   UNL     1      -3.062 -11.066  15.391  1.00  0.00    -0.000 C 
BRANCH   8   9
ATOM      9  C   UNL     1      -4.448 -11.190  14.748  1.00  0.00    -0.003 C 
ATOM     10  C   UNL     1      -5.456 -10.269  15.430  1.00  0.00     0.004 C 
ENDBRANCH   8   9
ENDBRANCH   7   8
ENDBRANCH   1   7
TORSDOF 6
ENDMDL
MODEL 6
REMARK VINA RESULT:    -3.525      2.519      4.597
REMARK INTER + INTRA:          -5.119
REMARK INTER:                  -4.804
REMARK INTRA:                  -0.316
REMARK UNBOUND:                -0.358
REMARK SMILES CCCCCCCC(=O)[O-]
REMARK SMILES IDX 5 1 6 2 7 3 8 4 9 5 10 6 4 7 3 8 2 9 1 10
REMARK H PARENT
REMARK Flexibility Score: inf
ROOT
ATOM      1  C   UNL     1      -9.510   1.541  15.077  1.00  0.00     0.000 C 
ENDROOT
BRANCH   1   2
ATOM      2  C   UNL     1     -10.473   2.602  15.628  1.00  0.00     0.006 C 
BRANCH   2   3
ATOM      3  C   UNL     1     -10.126   3.013  17.064  1.00  0.00     0.053 C 
BRANCH   3   4
ATOM      4  C   UNL     1     -11.000   2.322  18.065  1.00  0.00     0.041 C 
ATOM      5  O   UNL     1     -11.818   2.983  18.758  1.00  0.00    -0.550 OA
ATOM      6  O   UNL     1     -10.933   0.942  18.210  1.00  0.00    -0.550 OA
ENDBRANCH   3   4
ENDBRANCH   2   3
ENDBRANCH   1   2
BRANCH   1   7
ATOM      7  C   UNL     1     -10.251   0.533  14.189  1.00  0.00     0.000 C 
BRANCH   7   8
ATOM      8  C   UNL     1     -11.731   0.442  14.578  1.00  0.00    -0.000 C 
BRANCH   8   9
ATOM      9  C   UNL     1     -12.584  -0.021  13.391  1.00  0.00    -0.003 C 
ATOM     10  C   UNL     1     -12.770  -1.536  13.403  1.00  0.00     0.004 C 
ENDBRANCH   8   9
ENDBRANCH   7   8
ENDBRANCH   1   7
TORSDOF 6
ENDMDL
MODEL 7
REMARK VINA RESULT:    -3.518      3.033      4.602
REMARK INTER + INTRA:          -5.111
REMARK INTER:                  -4.614
REMARK INTRA:                  -0.497
REMARK UNBOUND:                -0.358
REMARK SMILES CCCCCCCC(=O)[O-]
REMARK SMILES IDX 5 1 6 2 7 3 8 4 9 5 10 6 4 7 3 8 2 9 1 10
REMARK H PARENT
REMARK Flexibility Score: inf
ROOT
ATOM      1  C   UNL     1     -11.719   2.332  16.934  1.00  0.00     0.000 C 
ENDROOT
BRANCH   1   2
ATOM      2  C   UNL     1     -11.344   2.264  18.421  1.00  0.00     0.006 C 
BRANCH   2   3
ATOM      3  C   UNL     1     -10.968   0.844  18.863  1.00  0.00     0.053 C 
BRANCH   3   4
ATOM      4  C   UNL     1      -9.490   0.696  19.054  1.00  0.00     0.041 C 
ATOM      5  O   UNL     1      -8.983  -0.442  19.235  1.00  0.00    -0.550 OA
ATOM      6  O   UNL     1      -8.667   1.814  18.999  1.00  0.00    -0.550 OA
ENDBRANCH   3   4
ENDBRANCH   2   3
ENDBRANCH   1   2
BRANCH   1   7
ATOM      7  C   UNL     1     -10.717   3.190  16.152  1.00  0.00     0.000 C 
BRANCH   7   8
ATOM      8  C   UNL     1      -9.554   2.339  15.628  1.00  0.00    -0.000 C 
BRANCH   8   9
ATOM      9  C   UNL     1     -10.022   0.920  15.287  1.00  0.00    -0.003 C 
ATOM     10  C   UNL     1      -9.560   0.507  13.892  1.00  0.00     0.004 C 
ENDBRANCH   8   9
ENDBRANCH   7   8
ENDBRANCH   1   7
TORSDOF 6
ENDMDL
MODEL 8
REMARK VINA RESULT:    -3.497      1.857      3.224
REMARK INTER + INTRA:          -5.082
REMARK INTER:                  -4.650
REMARK INTRA:                  -0.432
REMARK UNBOUND:                -0.358
REMARK SMILES CCCCCCCC(=O)[O-]
REMARK SMILES IDX 5 1 6 2 7 3 8 4 9 5 10 6 4 7 3 8 2 9 1 10
REMARK H PARENT
REMARK Flexibility Score: inf
ROOT
ATOM      1  C   UNL     1      -9.168   1.126  18.975  1.00  0.00     0.000 C 
ENDROOT
BRANCH   1   2
ATOM      2  C   UNL     1      -9.764   1.226  17.564  1.00  0.00     0.006 C 
BRANCH   2   3
ATOM      3  C   UNL     1     -11.289   1.385  17.587  1.00  0.00     0.053 C 
BRANCH   3   4
ATOM      4  C   UNL     1     -11.816   1.864  16.269  1.00  0.00     0.041 C 
ATOM      5  O   UNL     1     -12.472   1.087  15.526  1.00  0.00    -0.550 OA
ATOM      6  O   UNL     1     -11.611   3.181  15.876  1.00  0.00    -0.550 OA
ENDBRANCH   3   4
ENDBRANCH   2   3
ENDBRANCH   1   2
BRANCH   1   7
ATOM      7  C   UNL     1      -8.791  -0.322  19.312  1.00  0.00     0.000 C 
BRANCH   7   8
ATOM      8  C   UNL     1      -9.313  -0.718  20.699  1.00  0.00    -0.000 C 
BRANCH   8   9
ATOM      9  C   UNL     1     -10.801  -0.383  20.842  1.00  0.00    -0.003 C 
ATOM     10  C   UNL     1     -11.667  -1.372  20.066  1.00  0.00     0.004 C 
ENDBRANCH   8   9
ENDBRANCH   7   8
ENDBRANCH   1   7
TORSDOF 6
ENDMDL
MODEL 9
REMARK VINA RESULT:    -3.349      2.889      4.725
REMARK INTER + INTRA:          -4.883
REMARK INTER:                  -4.316
REMARK INTRA:                  -0.567
REMARK UNBOUND:                -0.358
REMARK SMILES CCCCCCCC(=O)[O-]
REMARK SMILES IDX 5 1 6 2 7 3 8 4 9 5 10 6 4 7 3 8 2 9 1 10
REMARK H PARENT
REMARK Flexibility Score: inf
ROOT
ATOM      1  C   UNL     1      -9.693  -1.092  20.425  1.00  0.00     0.000 C 
ENDROOT
BRANCH   1   2
ATOM      2  C   UNL     1      -8.758  -0.498  19.362  1.00  0.00     0.006 C 
BRANCH   2   3
ATOM      3  C   UNL     1      -9.101   0.960  19.034  1.00  0.00     0.053 C 
BRANCH   3   4
ATOM      4  C   UNL     1     -10.166   1.056  17.986  1.00  0.00     0.041 C 
ATOM      5  O   UNL     1     -11.371   1.211  18.316  1.00  0.00    -0.550 OA
ATOM      6  O   UNL     1      -9.823   1.007  16.640  1.00  0.00    -0.550 OA
ENDBRANCH   3   4
ENDBRANCH   2   3
ENDBRANCH   1   2
BRANCH   1   7
ATOM      7  C   UNL     1      -9.126  -0.886  21.835  1.00  0.00     0.000 C 
BRANCH   7   8
ATOM      8  C   UNL     1      -9.972   0.117  22.627  1.00  0.00    -0.000 C 
BRANCH   8   9
ATOM      9  C   UNL     1     -11.343   0.319  21.972  1.00  0.00    -0.003 C 
ATOM     10  C   UNL     1     -11.658   1.801  21.796  1.00  0.00     0.004 C 
ENDBRANCH   8   9
ENDBRANCH   7   8
ENDBRANCH   1   7
TORSDOF 6
ENDMDL
