MODEL 1
REMARK VINA RESULT:    -4.438      0.000      0.000
REMARK INTER + INTRA:          -5.686
REMARK INTER:                  -5.476
REMARK INTRA:                  -0.211
REMARK UNBOUND:                -0.211
REMARK SMILES CCCCC=CC(C)=O
REMARK SMILES IDX 4 1 3 2 2 3 1 4 5 5 6 6 7 7 9 8 8 9
REMARK H PARENT
REMARK Flexibility Score: inf
ROOT
ATOM      1  C   UNL     1      19.816  23.111  26.164  1.00  0.00     0.027 C 
ENDROOT
BRANCH   1   2
ATOM      2  C   UNL     1      19.716  24.359  25.274  1.00  0.00     0.004 C 
BRANCH   2   3
ATOM      3  C   UNL     1      20.701  25.457  25.703  1.00  0.00    -0.003 C 
ATOM      4  C   UNL     1      20.419  26.766  24.972  1.00  0.00     0.004 C 
ENDBRANCH   2   3
ENDBRANCH   1   2
BRANCH   1   5
ATOM      5  C   UNL     1      20.649  23.350  27.393  1.00  0.00    -0.023 C 
ATOM      6  C   UNL     1      21.633  22.515  27.745  1.00  0.00     0.042 C 
BRANCH   6   7
ATOM      7  C   UNL     1      22.473  22.708  28.943  1.00  0.00     0.152 C 
ATOM      8  O   UNL     1      23.438  21.922  29.138  1.00  0.00    -0.295 OA
ATOM      9  C   UNL     1      22.220  23.805  29.933  1.00  0.00     0.093 C 
ENDBRANCH   6   7
ENDBRANCH   1   5
TORSDOF 4
ENDMDL
MODEL 2
REMARK VINA RESULT:    -4.345      2.175      4.907
REMARK INTER + INTRA:          -5.571
REMARK INTER:                  -5.380
REMARK INTRA:                  -0.191
REMARK UNBOUND:                -0.211
REMARK SMILES CCCCC=CC(C)=O
REMARK SMILES IDX 4 1 3 2 2 3 1 4 5 5 6 6 7 7 9 8 8 9
REMARK H PARENT
REMARK Flexibility Score: inf
ROOT
ATOM      1  C   UNL     1      21.837  24.016  29.408  1.00  0.00     0.027 C 
ENDROOT
BRANCH   1   2
ATOM      2  C   UNL     1      22.626  22.699  29.458  1.00  0.00     0.004 C 
BRANCH   2   3
ATOM      3  C   UNL     1      23.629  22.669  30.620  1.00  0.00    -0.003 C 
ATOM      4  C   UNL     1      24.134  24.070  30.948  1.00  0.00     0.004 C 
ENDBRANCH   2   3
ENDBRANCH   1   2
BRANCH   1   5
ATOM      5  C   UNL     1      20.983  24.124  28.176  1.00  0.00    -0.023 C 
ATOM      6  C   UNL     1      20.509  23.037  27.556  1.00  0.00     0.042 C 
BRANCH   6   7
ATOM      7  C   UNL     1      19.669  23.096  26.343  1.00  0.00     0.152 C 
ATOM      8  O   UNL     1      18.816  22.189  26.155  1.00  0.00    -0.295 OA
ATOM      9  C   UNL     1      19.795  24.194  25.330  1.00  0.00     0.093 C 
ENDBRANCH   6   7
ENDBRANCH   1   5
TORSDOF 4
ENDMDL
MODEL 3
REMARK VINA RESULT:    -4.247     10.607     12.044
REMARK INTER + INTRA:          -5.451
REMARK INTER:                  -5.314
REMARK INTRA:                  -0.136
REMARK UNBOUND:                -0.211
REMARK SMILES CCCCC=CC(C)=O
REMARK SMILES IDX 4 1 3 2 2 3 1 4 5 5 6 6 7 7 9 8 8 9
REMARK H PARENT
REMARK Flexibility Score: inf
ROOT
ATOM      1  C   UNL     1      21.230  28.255  36.490  1.00  0.00     0.027 C 
ENDROOT
BRANCH   1   2
ATOM      2  C   UNL     1      21.740  27.701  37.829  1.00  0.00     0.004 C 
BRANCH   2   3
ATOM      3  C   UNL     1      22.138  28.819  38.804  1.00  0.00    -0.003 C 
ATOM      4  C   UNL     1      22.966  28.271  39.962  1.00  0.00     0.004 C 
ENDBRANCH   2   3
ENDBRANCH   1   2
BRANCH   1   5
ATOM      5  C   UNL     1      19.729  28.261  36.409  1.00  0.00    -0.023 C 
ATOM      6  C   UNL     1      19.059  29.304  35.906  1.00  0.00     0.042 C 
BRANCH   6   7
ATOM      7  C   UNL     1      17.587  29.355  35.810  1.00  0.00     0.152 C 
ATOM      8  O   UNL     1      17.050  29.223  34.678  1.00  0.00    -0.295 OA
ATOM      9  C   UNL     1      16.710  29.557  37.009  1.00  0.00     0.093 C 
ENDBRANCH   6   7
ENDBRANCH   1   5
TORSDOF 4
ENDMDL
MODEL 4
REMARK VINA RESULT:    -4.143      1.610      2.569
REMARK INTER + INTRA:          -5.322
REMARK INTER:                  -5.168
REMARK INTRA:                  -0.154
REMARK UNBOUND:                -0.211
REMARK SMILES CCCCC=CC(C)=O
REMARK SMILES IDX 4 1 3 2 2 3 1 4 5 5 6 6 7 7 9 8 8 9
REMARK H PARENT
REMARK Flexibility Score: inf
ROOT
ATOM      1  C   UNL     1      20.947  23.889  27.828  1.00  0.00     0.027 C 
ENDROOT
BRANCH   1   2
ATOM      2  C   UNL     1      20.274  22.644  27.230  1.00  0.00     0.004 C 
BRANCH   2   3
ATOM      3  C   UNL     1      19.491  22.968  25.949  1.00  0.00    -0.003 C 
ATOM      4  C   UNL     1      19.896  24.327  25.386  1.00  0.00     0.004 C 
ENDBRANCH   2   3
ENDBRANCH   1   2
BRANCH   1   5
ATOM      5  C   UNL     1      22.189  23.549  28.604  1.00  0.00    -0.023 C 
ATOM      6  C   UNL     1      22.303  23.841  29.905  1.00  0.00     0.042 C 
BRANCH   6   7
ATOM      7  C   UNL     1      23.504  23.530  30.705  1.00  0.00     0.152 C 
ATOM      8  O   UNL     1      24.216  24.482  31.121  1.00  0.00    -0.295 OA
ATOM      9  C   UNL     1      23.904  22.125  31.040  1.00  0.00     0.093 C 
ENDBRANCH   6   7
ENDBRANCH   1   5
TORSDOF 4
ENDMDL
MODEL 5
REMARK VINA RESULT:    -4.059      2.223      4.695
REMARK INTER + INTRA:          -5.218
REMARK INTER:                  -4.940
REMARK INTRA:                  -0.278
REMARK UNBOUND:                -0.211
REMARK SMILES CCCCC=CC(C)=O
REMARK SMILES IDX 4 1 3 2 2 3 1 4 5 5 6 6 7 7 9 8 8 9
REMARK H PARENT
REMARK Flexibility Score: inf
ROOT
ATOM      1  C   UNL     1      21.143  22.641  28.500  1.00  0.00     0.027 C 
ENDROOT
BRANCH   1   2
ATOM      2  C   UNL     1      22.575  22.095  28.397  1.00  0.00     0.004 C 
BRANCH   2   3
ATOM      3  C   UNL     1      23.527  22.775  29.392  1.00  0.00    -0.003 C 
ATOM      4  C   UNL     1      22.755  23.619  30.402  1.00  0.00     0.004 C 
ENDBRANCH   2   3
ENDBRANCH   1   2
BRANCH   1   5
ATOM      5  C   UNL     1      20.737  23.415  27.277  1.00  0.00    -0.023 C 
ATOM      6  C   UNL     1      21.247  24.624  27.013  1.00  0.00     0.042 C 
BRANCH   6   7
ATOM      7  C   UNL     1      20.876  25.421  25.827  1.00  0.00     0.152 C 
ATOM      8  O   UNL     1      21.566  26.435  25.540  1.00  0.00    -0.295 OA
ATOM      9  C   UNL     1      19.710  25.067  24.953  1.00  0.00     0.093 C 
ENDBRANCH   6   7
ENDBRANCH   1   5
TORSDOF 4
ENDMDL
MODEL 6
REMARK VINA RESULT:    -3.970     11.539     14.589
REMARK INTER + INTRA:          -5.109
REMARK INTER:                  -4.961
REMARK INTRA:                  -0.148
REMARK UNBOUND:                -0.211
REMARK SMILES CCCCC=CC(C)=O
REMARK SMILES IDX 4 1 3 2 2 3 1 4 5 5 6 6 7 7 9 8 8 9
REMARK H PARENT
REMARK Flexibility Score: inf
ROOT
ATOM      1  C   UNL     1      25.105  28.443  40.539  1.00  0.00     0.027 C 
ENDROOT
BRANCH   1   2
ATOM      2  C   UNL     1      24.594  27.449  41.593  1.00  0.00     0.004 C 
BRANCH   2   3
ATOM      3  C   UNL     1      25.720  26.563  42.147  1.00  0.00    -0.003 C 
ATOM      4  C   UNL     1      25.175  25.226  42.641  1.00  0.00     0.004 C 
ENDBRANCH   2   3
ENDBRANCH   1   2
BRANCH   1   5
ATOM      5  C   UNL     1      24.007  28.935  39.639  1.00  0.00    -0.023 C 
ATOM      6  C   UNL     1      22.921  28.194  39.389  1.00  0.00     0.042 C 
BRANCH   6   7
ATOM      7  C   UNL     1      21.821  28.635  38.509  1.00  0.00     0.152 C 
ATOM      8  O   UNL     1      21.231  29.716  38.775  1.00  0.00    -0.295 OA
ATOM      9  C   UNL     1      21.382  27.846  37.313  1.00  0.00     0.093 C 
ENDBRANCH   6   7
ENDBRANCH   1   5
TORSDOF 4
ENDMDL
MODEL 7
REMARK VINA RESULT:    -3.885     10.677     12.229
REMARK INTER + INTRA:          -5.004
REMARK INTER:                  -4.798
REMARK INTRA:                  -0.206
REMARK UNBOUND:                -0.211
REMARK SMILES CCCCC=CC(C)=O
REMARK SMILES IDX 4 1 3 2 2 3 1 4 5 5 6 6 7 7 9 8 8 9
REMARK H PARENT
REMARK Flexibility Score: inf
ROOT
ATOM      1  C   UNL     1      20.139  27.444  36.543  1.00  0.00     0.027 C 
ENDROOT
BRANCH   1   2
ATOM      2  C   UNL     1      21.418  27.084  37.315  1.00  0.00     0.004 C 
BRANCH   2   3
ATOM      3  C   UNL     1      22.165  28.330  37.812  1.00  0.00    -0.003 C 
ATOM      4  C   UNL     1      22.309  28.317  39.330  1.00  0.00     0.004 C 
ENDBRANCH   2   3
ENDBRANCH   1   2
BRANCH   1   5
ATOM      5  C   UNL     1      19.967  28.929  36.383  1.00  0.00    -0.023 C 
ATOM      6  C   UNL     1      18.880  29.560  36.841  1.00  0.00     0.042 C 
BRANCH   6   7
ATOM      7  C   UNL     1      18.668  31.015  36.704  1.00  0.00     0.152 C 
ATOM      8  O   UNL     1      18.934  31.563  35.601  1.00  0.00    -0.295 OA
ATOM      9  C   UNL     1      18.145  31.860  37.826  1.00  0.00     0.093 C 
ENDBRANCH   6   7
ENDBRANCH   1   5
TORSDOF 4
ENDMDL
MODEL 8
REMARK VINA RESULT:    -3.867     10.799     12.064
REMARK INTER + INTRA:          -4.982
REMARK INTER:                  -4.727
REMARK INTRA:                  -0.255
REMARK UNBOUND:                -0.211
REMARK SMILES CCCCC=CC(C)=O
REMARK SMILES IDX 4 1 3 2 2 3 1 4 5 5 6 6 7 7 9 8 8 9
REMARK H PARENT
REMARK Flexibility Score: inf
ROOT
ATOM      1  C   UNL     1      21.125  27.896  36.440  1.00  0.00     0.027 C 
ENDROOT
BRANCH   1   2
ATOM      2  C   UNL     1      19.615  28.178  36.421  1.00  0.00     0.004 C 
BRANCH   2   3
ATOM      3  C   UNL     1      19.308  29.676  36.280  1.00  0.00    -0.003 C 
ATOM      4  C   UNL     1      19.108  30.328  37.644  1.00  0.00     0.004 C 
ENDBRANCH   2   3
ENDBRANCH   1   2
BRANCH   1   5
ATOM      5  C   UNL     1      21.631  27.586  37.822  1.00  0.00    -0.023 C 
ATOM      6  C   UNL     1      22.334  28.480  38.526  1.00  0.00     0.042 C 
BRANCH   6   7
ATOM      7  C   UNL     1      22.853  28.218  39.883  1.00  0.00     0.152 C 
ATOM      8  O   UNL     1      22.042  27.873  40.784  1.00  0.00    -0.295 OA
ATOM      9  C   UNL     1      24.306  28.346  40.226  1.00  0.00     0.093 C 
ENDBRANCH   6   7
ENDBRANCH   1   5
TORSDOF 4
ENDMDL
MODEL 9
REMARK VINA RESULT:    -3.738     10.705     12.807
REMARK INTER + INTRA:          -4.823
REMARK INTER:                  -4.680
REMARK INTRA:                  -0.143
REMARK UNBOUND:                -0.211
REMARK SMILES CCCCC=CC(C)=O
REMARK SMILES IDX 4 1 3 2 2 3 1 4 5 5 6 6 7 7 9 8 8 9
REMARK H PARENT
REMARK Flexibility Score: inf
ROOT
ATOM      1  C   UNL     1      22.072  29.025  38.837  1.00  0.00     0.027 C 
ENDROOT
BRANCH   1   2
ATOM      2  C   UNL     1      22.052  28.694  37.337  1.00  0.00     0.004 C 
BRANCH   2   3
ATOM      3  C   UNL     1      21.098  27.534  37.013  1.00  0.00    -0.003 C 
ATOM      4  C   UNL     1      19.814  28.042  36.366  1.00  0.00     0.004 C 
ENDBRANCH   2   3
ENDBRANCH   1   2
BRANCH   1   5
ATOM      5  C   UNL     1      23.132  28.257  39.578  1.00  0.00    -0.023 C 
ATOM      6  C   UNL     1      24.416  28.634  39.550  1.00  0.00     0.042 C 
BRANCH   6   7
ATOM      7  C   UNL     1      25.490  27.910  40.259  1.00  0.00     0.152 C 
ATOM      8  O   UNL     1      26.365  27.311  39.579  1.00  0.00    -0.295 OA
ATOM      9  C   UNL     1      25.576  27.863  41.754  1.00  0.00     0.093 C 
ENDBRANCH   6   7
ENDBRANCH   1   5
TORSDOF 4
ENDMDL
