MODEL 1
REMARK VINA RESULT:    -4.198      0.000      0.000
REMARK INTER + INTRA:          -9.618
REMARK INTER:                  -7.634
REMARK INTRA:                  -1.984
REMARK UNBOUND:                -1.984
REMARK SMILES CCCCCCCCCCCCCCCC(=O)[O-]
REMARK SMILES IDX 9 1 10 2 11 3 12 4 13 5 14 6 15 7 16 8 17 9 18 10 8 11 7 12
REMARK SMILES IDX 6 13 5 14 4 15 3 16 2 17 1 18
REMARK H PARENT
REMARK Flexibility Score: inf
ROOT
ATOM      1  C   UNL     1      -2.679  57.274  48.911  1.00  0.00     0.000 C 
ENDROOT
BRANCH   1   2
ATOM      2  C   UNL     1      -2.212  58.742  48.901  1.00  0.00     0.000 C 
BRANCH   2   3
ATOM      3  C   UNL     1      -3.341  59.788  48.962  1.00  0.00     0.000 C 
BRANCH   3   4
ATOM      4  C   UNL     1      -4.071  59.960  47.622  1.00  0.00     0.000 C 
BRANCH   4   5
ATOM      5  C   UNL     1      -3.722  61.306  46.975  1.00  0.00     0.000 C 
BRANCH   5   6
ATOM      6  C   UNL     1      -2.491  61.177  46.066  1.00  0.00     0.006 C 
BRANCH   6   7
ATOM      7  C   UNL     1      -2.749  61.733  44.659  1.00  0.00     0.053 C 
BRANCH   7   8
ATOM      8  C   UNL     1      -1.738  62.771  44.277  1.00  0.00     0.041 C 
ATOM      9  O   UNL     1      -1.313  62.835  43.094  1.00  0.00    -0.550 OA
ATOM     10  O   UNL     1      -1.292  63.689  45.220  1.00  0.00    -0.550 OA
ENDBRANCH   7   8
ENDBRANCH   6   7
ENDBRANCH   5   6
ENDBRANCH   4   5
ENDBRANCH   3   4
ENDBRANCH   2   3
ENDBRANCH   1   2
BRANCH   1  11
ATOM     11  C   UNL     1      -2.324  56.524  47.617  1.00  0.00     0.000 C 
BRANCH  11  12
ATOM     12  C   UNL     1      -3.424  56.639  46.549  1.00  0.00    -0.000 C 
BRANCH  12  13
ATOM     13  C   UNL     1      -2.991  57.484  45.341  1.00  0.00    -0.000 C 
BRANCH  13  14
ATOM     14  C   UNL     1      -1.498  57.826  45.418  1.00  0.00    -0.000 C 
BRANCH  14  15
ATOM     15  C   UNL     1      -0.868  57.854  44.017  1.00  0.00    -0.000 C 
BRANCH  15  16
ATOM     16  C   UNL     1       0.614  58.265  44.043  1.00  0.00    -0.000 C 
BRANCH  16  17
ATOM     17  C   UNL     1       0.816  59.763  43.771  1.00  0.00    -0.003 C 
ATOM     18  C   UNL     1       1.078  60.526  45.067  1.00  0.00     0.004 C 
ENDBRANCH  16  17
ENDBRANCH  15  16
ENDBRANCH  14  15
ENDBRANCH  13  14
ENDBRANCH  12  13
ENDBRANCH  11  12
ENDBRANCH   1  11
TORSDOF 14
ENDMDL
MODEL 2
REMARK VINA RESULT:    -4.187      1.097      2.071
REMARK INTER + INTRA:          -9.597
REMARK INTER:                  -7.635
REMARK INTRA:                  -1.962
REMARK UNBOUND:                -1.984
REMARK SMILES CCCCCCCCCCCCCCCC(=O)[O-]
REMARK SMILES IDX 9 1 10 2 11 3 12 4 13 5 14 6 15 7 16 8 17 9 18 10 8 11 7 12
REMARK SMILES IDX 6 13 5 14 4 15 3 16 2 17 1 18
REMARK H PARENT
REMARK Flexibility Score: inf
ROOT
ATOM      1  C   UNL     1      -2.269  59.047  48.873  1.00  0.00     0.000 C 
ENDROOT
BRANCH   1   2
ATOM      2  C   UNL     1      -3.389  60.090  48.701  1.00  0.00     0.000 C 
BRANCH   2   3
ATOM      3  C   UNL     1      -3.572  60.623  47.268  1.00  0.00     0.000 C 
BRANCH   3   4
ATOM      4  C   UNL     1      -3.719  62.150  47.210  1.00  0.00     0.000 C 
BRANCH   4   5
ATOM      5  C   UNL     1      -4.059  62.616  45.789  1.00  0.00     0.000 C 
BRANCH   5   6
ATOM      6  C   UNL     1      -3.247  61.837  44.745  1.00  0.00     0.006 C 
BRANCH   6   7
ATOM      7  C   UNL     1      -2.295  62.744  43.954  1.00  0.00     0.053 C 
BRANCH   7   8
ATOM      8  C   UNL     1      -0.864  62.337  44.131  1.00  0.00     0.041 C 
ATOM      9  O   UNL     1      -0.145  62.099  43.125  1.00  0.00    -0.550 OA
ATOM     10  O   UNL     1      -0.315  62.254  45.404  1.00  0.00    -0.550 OA
ENDBRANCH   7   8
ENDBRANCH   6   7
ENDBRANCH   5   6
ENDBRANCH   4   5
ENDBRANCH   3   4
ENDBRANCH   2   3
ENDBRANCH   1   2
BRANCH   1  11
ATOM     11  C   UNL     1      -2.798  57.606  48.955  1.00  0.00     0.000 C 
BRANCH  11  12
ATOM     12  C   UNL     1      -1.897  56.604  48.214  1.00  0.00    -0.000 C 
BRANCH  12  13
ATOM     13  C   UNL     1      -2.511  56.122  46.891  1.00  0.00    -0.000 C 
BRANCH  13  14
ATOM     14  C   UNL     1      -3.761  56.938  46.536  1.00  0.00    -0.000 C 
BRANCH  14  15
ATOM     15  C   UNL     1      -3.558  57.713  45.226  1.00  0.00    -0.000 C 
BRANCH  15  16
ATOM     16  C   UNL     1      -2.111  57.639  44.711  1.00  0.00    -0.000 C 
BRANCH  16  17
ATOM     17  C   UNL     1      -1.264  58.842  45.153  1.00  0.00    -0.003 C 
ATOM     18  C   UNL     1       0.175  58.710  44.664  1.00  0.00     0.004 C 
ENDBRANCH  16  17
ENDBRANCH  15  16
ENDBRANCH  14  15
ENDBRANCH  13  14
ENDBRANCH  12  13
ENDBRANCH  11  12
ENDBRANCH   1  11
TORSDOF 14
ENDMDL
MODEL 3
REMARK VINA RESULT:    -4.095      2.679      5.953
REMARK INTER + INTRA:          -9.431
REMARK INTER:                  -7.591
REMARK INTRA:                  -1.840
REMARK UNBOUND:                -1.984
REMARK SMILES CCCCCCCCCCCCCCCC(=O)[O-]
REMARK SMILES IDX 9 1 10 2 11 3 12 4 13 5 14 6 15 7 16 8 17 9 18 10 8 11 7 12
REMARK SMILES IDX 6 13 5 14 4 15 3 16 2 17 1 18
REMARK H PARENT
REMARK Flexibility Score: inf
ROOT
ATOM      1  C   UNL     1       1.513  58.860  43.027  1.00  0.00     0.000 C 
ENDROOT
BRANCH   1   2
ATOM      2  C   UNL     1       0.826  57.749  43.843  1.00  0.00     0.000 C 
BRANCH   2   3
ATOM      3  C   UNL     1      -0.713  57.781  43.825  1.00  0.00     0.000 C 
BRANCH   3   4
ATOM      4  C   UNL     1      -1.327  57.849  45.231  1.00  0.00     0.000 C 
BRANCH   4   5
ATOM      5  C   UNL     1      -2.859  57.822  45.163  1.00  0.00     0.000 C 
BRANCH   5   6
ATOM      6  C   UNL     1      -3.451  57.108  46.388  1.00  0.00     0.006 C 
BRANCH   6   7
ATOM      7  C   UNL     1      -2.364  56.571  47.329  1.00  0.00     0.053 C 
BRANCH   7   8
ATOM      8  C   UNL     1      -2.523  57.099  48.722  1.00  0.00     0.041 C 
ATOM      9  O   UNL     1      -2.532  56.308  49.701  1.00  0.00    -0.550 OA
ATOM     10  O   UNL     1      -2.628  58.467  48.941  1.00  0.00    -0.550 OA
ENDBRANCH   7   8
ENDBRANCH   6   7
ENDBRANCH   5   6
ENDBRANCH   4   5
ENDBRANCH   3   4
ENDBRANCH   2   3
ENDBRANCH   1   2
BRANCH   1  11
ATOM     11  C   UNL     1       1.012  60.267  43.389  1.00  0.00     0.000 C 
BRANCH  11  12
ATOM     12  C   UNL     1       1.388  60.677  44.822  1.00  0.00    -0.000 C 
BRANCH  12  13
ATOM     13  C   UNL     1       0.244  61.400  45.551  1.00  0.00    -0.000 C 
BRANCH  13  14
ATOM     14  C   UNL     1      -0.778  61.955  44.551  1.00  0.00    -0.000 C 
BRANCH  14  15
ATOM     15  C   UNL     1      -2.177  61.381  44.819  1.00  0.00    -0.000 C 
BRANCH  15  16
ATOM     16  C   UNL     1      -3.251  62.474  44.949  1.00  0.00    -0.000 C 
BRANCH  16  17
ATOM     17  C   UNL     1      -3.861  62.538  46.357  1.00  0.00    -0.003 C 
ATOM     18  C   UNL     1      -3.702  61.206  47.086  1.00  0.00     0.004 C 
ENDBRANCH  16  17
ENDBRANCH  15  16
ENDBRANCH  14  15
ENDBRANCH  13  14
ENDBRANCH  12  13
ENDBRANCH  11  12
ENDBRANCH   1  11
TORSDOF 14
ENDMDL
MODEL 4
REMARK VINA RESULT:    -4.054      0.962      4.215
REMARK INTER + INTRA:          -9.356
REMARK INTER:                  -7.602
REMARK INTRA:                  -1.753
REMARK UNBOUND:                -1.984
REMARK SMILES CCCCCCCCCCCCCCCC(=O)[O-]
REMARK SMILES IDX 9 1 10 2 11 3 12 4 13 5 14 6 15 7 16 8 17 9 18 10 8 11 7 12
REMARK SMILES IDX 6 13 5 14 4 15 3 16 2 17 1 18
REMARK H PARENT
REMARK Flexibility Score: inf
ROOT
ATOM      1  C   UNL     1      -1.779  58.690  44.943  1.00  0.00     0.000 C 
ENDROOT
BRANCH   1   2
ATOM      2  C   UNL     1      -0.376  58.058  45.012  1.00  0.00     0.000 C 
BRANCH   2   3
ATOM      3  C   UNL     1       0.605  58.524  43.921  1.00  0.00     0.000 C 
BRANCH   3   4
ATOM      4  C   UNL     1       0.655  60.052  43.772  1.00  0.00     0.000 C 
BRANCH   4   5
ATOM      5  C   UNL     1       1.171  60.713  45.055  1.00  0.00     0.000 C 
BRANCH   5   6
ATOM      6  C   UNL     1       0.454  62.046  45.315  1.00  0.00     0.006 C 
BRANCH   6   7
ATOM      7  C   UNL     1      -0.566  62.379  44.218  1.00  0.00     0.053 C 
BRANCH   7   8
ATOM      8  C   UNL     1      -1.929  62.633  44.785  1.00  0.00     0.041 C 
ATOM      9  O   UNL     1      -2.920  61.976  44.369  1.00  0.00    -0.550 OA
ATOM     10  O   UNL     1      -2.101  63.570  45.796  1.00  0.00    -0.550 OA
ENDBRANCH   7   8
ENDBRANCH   6   7
ENDBRANCH   5   6
ENDBRANCH   4   5
ENDBRANCH   3   4
ENDBRANCH   2   3
ENDBRANCH   1   2
BRANCH   1  11
ATOM     11  C   UNL     1      -2.893  57.654  44.717  1.00  0.00     0.000 C 
BRANCH  11  12
ATOM     12  C   UNL     1      -3.987  57.719  45.795  1.00  0.00    -0.000 C 
BRANCH  12  13
ATOM     13  C   UNL     1      -3.887  56.569  46.809  1.00  0.00    -0.000 C 
BRANCH  13  14
ATOM     14  C   UNL     1      -2.535  56.592  47.533  1.00  0.00    -0.000 C 
BRANCH  14  15
ATOM     15  C   UNL     1      -2.648  57.311  48.886  1.00  0.00    -0.000 C 
BRANCH  15  16
ATOM     16  C   UNL     1      -2.253  58.794  48.803  1.00  0.00    -0.000 C 
BRANCH  16  17
ATOM     17  C   UNL     1      -3.468  59.733  48.854  1.00  0.00    -0.003 C 
ATOM     18  C   UNL     1      -3.487  60.672  47.651  1.00  0.00     0.004 C 
ENDBRANCH  16  17
ENDBRANCH  15  16
ENDBRANCH  14  15
ENDBRANCH  13  14
ENDBRANCH  12  13
ENDBRANCH  11  12
ENDBRANCH   1  11
TORSDOF 14
ENDMDL
MODEL 5
REMARK VINA RESULT:    -4.036     14.276     15.908
REMARK INTER + INTRA:          -9.324
REMARK INTER:                  -7.844
REMARK INTRA:                  -1.480
REMARK UNBOUND:                -1.984
REMARK SMILES CCCCCCCCCCCCCCCC(=O)[O-]
REMARK SMILES IDX 9 1 10 2 11 3 12 4 13 5 14 6 15 7 16 8 17 9 18 10 8 11 7 12
REMARK SMILES IDX 6 13 5 14 4 15 3 16 2 17 1 18
REMARK H PARENT
REMARK Flexibility Score: inf
ROOT
ATOM      1  C   UNL     1       8.589  61.977  58.592  1.00  0.00     0.000 C 
ENDROOT
BRANCH   1   2
ATOM      2  C   UNL     1       9.829  62.575  59.282  1.00  0.00     0.000 C 
BRANCH   2   3
ATOM      3  C   UNL     1       9.858  64.113  59.359  1.00  0.00     0.000 C 
BRANCH   3   4
ATOM      4  C   UNL     1       9.496  64.786  58.026  1.00  0.00     0.000 C 
BRANCH   4   5
ATOM      5  C   UNL     1      10.603  64.576  56.986  1.00  0.00     0.000 C 
BRANCH   5   6
ATOM      6  C   UNL     1      10.522  65.632  55.874  1.00  0.00     0.006 C 
BRANCH   6   7
ATOM      7  C   UNL     1      11.734  65.580  54.935  1.00  0.00     0.053 C 
BRANCH   7   8
ATOM      8  C   UNL     1      11.427  64.839  53.670  1.00  0.00     0.041 C 
ATOM      9  O   UNL     1      11.213  63.599  53.699  1.00  0.00    -0.550 OA
ATOM     10  O   UNL     1      11.343  65.524  52.464  1.00  0.00    -0.550 OA
ENDBRANCH   7   8
ENDBRANCH   6   7
ENDBRANCH   5   6
ENDBRANCH   4   5
ENDBRANCH   3   4
ENDBRANCH   2   3
ENDBRANCH   1   2
BRANCH   1  11
ATOM     11  C   UNL     1       7.374  61.874  59.528  1.00  0.00     0.000 C 
BRANCH  11  12
ATOM     12  C   UNL     1       6.041  61.837  58.763  1.00  0.00    -0.000 C 
BRANCH  12  13
ATOM     13  C   UNL     1       5.494  60.411  58.593  1.00  0.00    -0.000 C 
BRANCH  13  14
ATOM     14  C   UNL     1       5.687  59.917  57.154  1.00  0.00    -0.000 C 
BRANCH  14  15
ATOM     15  C   UNL     1       6.896  58.976  57.052  1.00  0.00    -0.000 C 
BRANCH  15  16
ATOM     16  C   UNL     1       7.830  59.335  55.885  1.00  0.00    -0.000 C 
BRANCH  16  17
ATOM     17  C   UNL     1       7.616  60.769  55.377  1.00  0.00    -0.003 C 
ATOM     18  C   UNL     1       8.923  61.373  54.870  1.00  0.00     0.004 C 
ENDBRANCH  16  17
ENDBRANCH  15  16
ENDBRANCH  14  15
ENDBRANCH  13  14
ENDBRANCH  12  13
ENDBRANCH  11  12
ENDBRANCH   1  11
TORSDOF 14
ENDMDL
MODEL 6
REMARK VINA RESULT:    -4.015      2.864      5.183
REMARK INTER + INTRA:          -9.285
REMARK INTER:                  -7.042
REMARK INTRA:                  -2.243
REMARK UNBOUND:                -1.984
REMARK SMILES CCCCCCCCCCCCCCCC(=O)[O-]
REMARK SMILES IDX 9 1 10 2 11 3 12 4 13 5 14 6 15 7 16 8 17 9 18 10 8 11 7 12
REMARK SMILES IDX 6 13 5 14 4 15 3 16 2 17 1 18
REMARK H PARENT
REMARK Flexibility Score: inf
ROOT
ATOM      1  C   UNL     1      -0.698  58.058  45.215  1.00  0.00     0.000 C 
ENDROOT
BRANCH   1   2
ATOM      2  C   UNL     1      -2.171  58.124  44.770  1.00  0.00     0.000 C 
BRANCH   2   3
ATOM      3  C   UNL     1      -2.928  59.393  45.203  1.00  0.00     0.000 C 
BRANCH   3   4
ATOM      4  C   UNL     1      -2.395  59.992  46.512  1.00  0.00     0.000 C 
BRANCH   4   5
ATOM      5  C   UNL     1      -3.547  60.421  47.429  1.00  0.00     0.000 C 
BRANCH   5   6
ATOM      6  C   UNL     1      -3.475  59.694  48.780  1.00  0.00     0.006 C 
BRANCH   6   7
ATOM      7  C   UNL     1      -2.293  58.717  48.851  1.00  0.00     0.053 C 
BRANCH   7   8
ATOM      8  C   UNL     1      -2.744  57.291  48.773  1.00  0.00     0.041 C 
ATOM      9  O   UNL     1      -2.445  56.481  49.689  1.00  0.00    -0.550 OA
ATOM     10  O   UNL     1      -3.522  56.864  47.704  1.00  0.00    -0.550 OA
ENDBRANCH   7   8
ENDBRANCH   6   7
ENDBRANCH   5   6
ENDBRANCH   4   5
ENDBRANCH   3   4
ENDBRANCH   2   3
ENDBRANCH   1   2
BRANCH   1  11
ATOM     11  C   UNL     1       0.287  58.104  44.035  1.00  0.00     0.000 C 
BRANCH  11  12
ATOM     12  C   UNL     1       0.687  59.539  43.655  1.00  0.00    -0.000 C 
BRANCH  12  13
ATOM     13  C   UNL     1       1.182  60.355  44.859  1.00  0.00    -0.000 C 
BRANCH  13  14
ATOM     14  C   UNL     1       0.365  61.643  45.022  1.00  0.00    -0.000 C 
BRANCH  14  15
ATOM     15  C   UNL     1      -0.406  61.972  43.735  1.00  0.00    -0.000 C 
BRANCH  15  16
ATOM     16  C   UNL     1      -1.175  63.300  43.829  1.00  0.00    -0.000 C 
BRANCH  16  17
ATOM     17  C   UNL     1      -2.101  63.361  45.053  1.00  0.00    -0.003 C 
ATOM     18  C   UNL     1      -3.545  63.055  44.665  1.00  0.00     0.004 C 
ENDBRANCH  16  17
ENDBRANCH  15  16
ENDBRANCH  14  15
ENDBRANCH  13  14
ENDBRANCH  12  13
ENDBRANCH  11  12
ENDBRANCH   1  11
TORSDOF 14
ENDMDL
MODEL 7
REMARK VINA RESULT:    -3.960      1.180      4.731
REMARK INTER + INTRA:          -9.186
REMARK INTER:                  -7.302
REMARK INTRA:                  -1.884
REMARK UNBOUND:                -1.984
REMARK SMILES CCCCCCCCCCCCCCCC(=O)[O-]
REMARK SMILES IDX 9 1 10 2 11 3 12 4 13 5 14 6 15 7 16 8 17 9 18 10 8 11 7 12
REMARK SMILES IDX 6 13 5 14 4 15 3 16 2 17 1 18
REMARK H PARENT
REMARK Flexibility Score: inf
ROOT
ATOM      1  C   UNL     1      -0.495  57.904  44.973  1.00  0.00     0.000 C 
ENDROOT
BRANCH   1   2
ATOM      2  C   UNL     1      -0.070  57.834  43.494  1.00  0.00     0.000 C 
BRANCH   2   3
ATOM      3  C   UNL     1       1.430  58.062  43.234  1.00  0.00     0.000 C 
BRANCH   3   4
ATOM      4  C   UNL     1       1.899  59.473  43.620  1.00  0.00     0.000 C 
BRANCH   4   5
ATOM      5  C   UNL     1       1.011  60.542  42.972  1.00  0.00     0.000 C 
BRANCH   5   6
ATOM      6  C   UNL     1       0.553  61.578  44.009  1.00  0.00     0.006 C 
BRANCH   6   7
ATOM      7  C   UNL     1      -0.532  62.512  43.457  1.00  0.00     0.053 C 
BRANCH   7   8
ATOM      8  C   UNL     1      -1.663  62.685  44.423  1.00  0.00     0.041 C 
ATOM      9  O   UNL     1      -2.773  62.131  44.205  1.00  0.00    -0.550 OA
ATOM     10  O   UNL     1      -1.483  63.430  45.582  1.00  0.00    -0.550 OA
ENDBRANCH   7   8
ENDBRANCH   6   7
ENDBRANCH   5   6
ENDBRANCH   4   5
ENDBRANCH   3   4
ENDBRANCH   2   3
ENDBRANCH   1   2
BRANCH   1  11
ATOM     11  C   UNL     1      -1.641  58.899  45.221  1.00  0.00     0.000 C 
BRANCH  11  12
ATOM     12  C   UNL     1      -3.027  58.244  45.099  1.00  0.00    -0.000 C 
BRANCH  12  13
ATOM     13  C   UNL     1      -4.080  58.916  45.993  1.00  0.00    -0.000 C 
BRANCH  13  14
ATOM     14  C   UNL     1      -3.433  59.956  46.917  1.00  0.00    -0.000 C 
BRANCH  14  15
ATOM     15  C   UNL     1      -3.550  59.532  48.388  1.00  0.00    -0.000 C 
BRANCH  15  16
ATOM     16  C   UNL     1      -2.340  58.713  48.867  1.00  0.00    -0.000 C 
BRANCH  16  17
ATOM     17  C   UNL     1      -2.667  57.221  49.036  1.00  0.00    -0.003 C 
ATOM     18  C   UNL     1      -1.906  56.373  48.021  1.00  0.00     0.004 C 
ENDBRANCH  16  17
ENDBRANCH  15  16
ENDBRANCH  14  15
ENDBRANCH  13  14
ENDBRANCH  12  13
ENDBRANCH  11  12
ENDBRANCH   1  11
TORSDOF 14
ENDMDL
MODEL 8
REMARK VINA RESULT:    -3.900      2.950      4.935
REMARK INTER + INTRA:          -9.075
REMARK INTER:                  -7.242
REMARK INTRA:                  -1.833
REMARK UNBOUND:                -1.984
REMARK SMILES CCCCCCCCCCCCCCCC(=O)[O-]
REMARK SMILES IDX 9 1 10 2 11 3 12 4 13 5 14 6 15 7 16 8 17 9 18 10 8 11 7 12
REMARK SMILES IDX 6 13 5 14 4 15 3 16 2 17 1 18
REMARK H PARENT
REMARK Flexibility Score: inf
ROOT
ATOM      1  C   UNL     1      -1.252  58.066  45.088  1.00  0.00     0.000 C 
ENDROOT
BRANCH   1   2
ATOM      2  C   UNL     1      -2.768  58.198  44.857  1.00  0.00     0.000 C 
BRANCH   2   3
ATOM      3  C   UNL     1      -3.350  59.600  45.116  1.00  0.00     0.000 C 
BRANCH   3   4
ATOM      4  C   UNL     1      -4.125  59.693  46.439  1.00  0.00     0.000 C 
BRANCH   4   5
ATOM      5  C   UNL     1      -3.269  60.340  47.533  1.00  0.00     0.000 C 
BRANCH   5   6
ATOM      6  C   UNL     1      -3.297  59.504  48.821  1.00  0.00     0.006 C 
BRANCH   6   7
ATOM      7  C   UNL     1      -2.144  58.493  48.882  1.00  0.00     0.053 C 
BRANCH   7   8
ATOM      8  C   UNL     1      -2.640  57.080  48.854  1.00  0.00     0.041 C 
ATOM      9  O   UNL     1      -3.027  56.566  47.771  1.00  0.00    -0.550 OA
ATOM     10  O   UNL     1      -2.643  56.319  50.016  1.00  0.00    -0.550 OA
ENDBRANCH   7   8
ENDBRANCH   6   7
ENDBRANCH   5   6
ENDBRANCH   4   5
ENDBRANCH   3   4
ENDBRANCH   2   3
ENDBRANCH   1   2
BRANCH   1  11
ATOM     11  C   UNL     1      -0.473  57.753  43.800  1.00  0.00     0.000 C 
BRANCH  11  12
ATOM     12  C   UNL     1       0.995  58.203  43.874  1.00  0.00    -0.000 C 
BRANCH  12  13
ATOM     13  C   UNL     1       1.229  59.572  43.216  1.00  0.00    -0.000 C 
BRANCH  13  14
ATOM     14  C   UNL     1       2.272  60.383  43.994  1.00  0.00    -0.000 C 
BRANCH  14  15
ATOM     15  C   UNL     1       1.625  61.596  44.679  1.00  0.00    -0.000 C 
BRANCH  15  16
ATOM     16  C   UNL     1       0.379  61.220  45.498  1.00  0.00    -0.000 C 
BRANCH  16  17
ATOM     17  C   UNL     1      -0.845  62.075  45.137  1.00  0.00    -0.003 C 
ATOM     18  C   UNL     1      -0.694  62.692  43.750  1.00  0.00     0.004 C 
ENDBRANCH  16  17
ENDBRANCH  15  16
ENDBRANCH  14  15
ENDBRANCH  13  14
ENDBRANCH  12  13
ENDBRANCH  11  12
ENDBRANCH   1  11
TORSDOF 14
ENDMDL
MODEL 9
REMARK VINA RESULT:    -3.880      2.395      4.662
REMARK INTER + INTRA:          -9.039
REMARK INTER:                  -7.212
REMARK INTRA:                  -1.827
REMARK UNBOUND:                -1.984
REMARK SMILES CCCCCCCCCCCCCCCC(=O)[O-]
REMARK SMILES IDX 9 1 10 2 11 3 12 4 13 5 14 6 15 7 16 8 17 9 18 10 8 11 7 12
REMARK SMILES IDX 6 13 5 14 4 15 3 16 2 17 1 18
REMARK H PARENT
REMARK Flexibility Score: inf
ROOT
ATOM      1  C   UNL     1      -3.386  59.946  45.166  1.00  0.00     0.000 C 
ENDROOT
BRANCH   1   2
ATOM      2  C   UNL     1      -2.178  60.877  45.381  1.00  0.00     0.000 C 
BRANCH   2   3
ATOM      3  C   UNL     1      -0.823  60.164  45.539  1.00  0.00     0.000 C 
BRANCH   3   4
ATOM      4  C   UNL     1       0.372  61.063  45.192  1.00  0.00     0.000 C 
BRANCH   4   5
ATOM      5  C   UNL     1      -0.092  62.481  44.836  1.00  0.00     0.000 C 
BRANCH   5   6
ATOM      6  C   UNL     1       0.865  63.534  45.413  1.00  0.00     0.006 C 
BRANCH   6   7
ATOM      7  C   UNL     1       2.199  62.922  45.862  1.00  0.00     0.053 C 
BRANCH   7   8
ATOM      8  C   UNL     1       3.371  63.662  45.293  1.00  0.00     0.041 C 
ATOM      9  O   UNL     1       4.460  63.703  45.923  1.00  0.00    -0.550 OA
ATOM     10  O   UNL     1       3.271  64.276  44.051  1.00  0.00    -0.550 OA
ENDBRANCH   7   8
ENDBRANCH   6   7
ENDBRANCH   5   6
ENDBRANCH   4   5
ENDBRANCH   3   4
ENDBRANCH   2   3
ENDBRANCH   1   2
BRANCH   1  11
ATOM     11  C   UNL     1      -2.995  58.460  45.105  1.00  0.00     0.000 C 
BRANCH  11  12
ATOM     12  C   UNL     1      -4.125  57.532  45.581  1.00  0.00    -0.000 C 
BRANCH  12  13
ATOM     13  C   UNL     1      -3.624  56.423  46.519  1.00  0.00    -0.000 C 
BRANCH  13  14
ATOM     14  C   UNL     1      -2.142  56.619  46.858  1.00  0.00    -0.000 C 
BRANCH  14  15
ATOM     15  C   UNL     1      -1.877  56.343  48.346  1.00  0.00    -0.000 C 
BRANCH  15  16
ATOM     16  C   UNL     1      -2.545  57.377  49.268  1.00  0.00    -0.000 C 
BRANCH  16  17
ATOM     17  C   UNL     1      -2.194  58.823  48.886  1.00  0.00    -0.003 C 
ATOM     18  C   UNL     1      -3.444  59.699  48.846  1.00  0.00     0.004 C 
ENDBRANCH  16  17
ENDBRANCH  15  16
ENDBRANCH  14  15
ENDBRANCH  13  14
ENDBRANCH  12  13
ENDBRANCH  11  12
ENDBRANCH   1  11
TORSDOF 14
ENDMDL
