MODEL 1
REMARK VINA RESULT:    -4.490      0.000      0.000
REMARK INTER + INTRA:          -5.891
REMARK INTER:                  -5.409
REMARK INTRA:                  -0.482
REMARK UNBOUND:                -0.482
REMARK SMILES O=c1c(O)c(-c2ccc(O)cc2O)oc2cc(O)cc(O)c12
REMARK SMILES IDX 5 1 3 2 2 3 1 4 22 5 20 6 19 7 17 8 16 9 15 10 14 11 6 12
REMARK SMILES IDX 8 13 7 14 9 15 11 16 12 17 10 18 13 20 4 22 21 24 18 26
REMARK H PARENT 10 19 13 21 4 23 21 25 18 27
REMARK Flexibility Score: inf
ROOT
ATOM      1  C   UNL     1      37.816 -43.686 203.303  1.00  0.00     0.184 A 
ATOM      2  C   UNL     1      37.998 -42.806 204.387  1.00  0.00     0.208 A 
ATOM      3  C   UNL     1      38.579 -43.296 205.568  1.00  0.00     0.238 A 
ATOM      4  O   UNL     1      38.739 -42.518 206.548  1.00  0.00    -0.285 OA
ATOM      5  C   UNL     1      38.980 -44.646 205.639  1.00  0.00     0.111 A 
ATOM      6  C   UNL     1      39.575 -45.216 206.790  1.00  0.00     0.134 A 
ATOM      7  C   UNL     1      39.953 -46.566 206.780  1.00  0.00     0.093 A 
ATOM      8  C   UNL     1      39.749 -47.356 205.642  1.00  0.00     0.123 A 
ATOM      9  C   UNL     1      39.162 -46.798 204.506  1.00  0.00     0.094 A 
ATOM     10  C   UNL     1      38.776 -45.454 204.496  1.00  0.00     0.146 A 
ATOM     11  O   UNL     1      38.216 -44.950 203.403  1.00  0.00    -0.451 OA
ENDROOT
BRANCH   1  12
ATOM     12  C   UNL     1      37.194 -43.242 202.033  1.00  0.00     0.063 A 
ATOM     13  C   UNL     1      35.210 -42.686 200.739  1.00  0.00     0.047 A 
ATOM     14  C   UNL     1      35.800 -43.077 201.942  1.00  0.00     0.020 A 
ATOM     15  C   UNL     1      36.001 -42.465 199.606  1.00  0.00     0.119 A 
ATOM     16  C   UNL     1      37.386 -42.639 199.683  1.00  0.00     0.093 A 
ATOM     17  C   UNL     1      37.987 -43.030 200.888  1.00  0.00     0.130 A 
BRANCH  15  18
ATOM     18  O   UNL     1      35.422 -42.074 198.400  1.00  0.00    -0.508 OA
ATOM     19  H   UNL     1      35.695 -42.497 197.521  1.00  0.00     0.293 HD
ENDBRANCH  15  18
BRANCH  17  20
ATOM     20  O   UNL     1      39.371 -43.194 200.952  1.00  0.00    -0.507 OA
ATOM     21  H   UNL     1      39.804 -44.107 200.865  1.00  0.00     0.293 HD
ENDBRANCH  17  20
ENDBRANCH   1  12
BRANCH   2  22
ATOM     22  O   UNL     1      37.628 -41.463 204.274  1.00  0.00    -0.502 OA
ATOM     23  H   UNL     1      38.308 -40.721 204.172  1.00  0.00     0.293 HD
ENDBRANCH   2  22
BRANCH   6  24
ATOM     24  O   UNL     1      39.792 -44.455 207.939  1.00  0.00    -0.507 OA
ATOM     25  H   UNL     1      40.240 -44.844 208.760  1.00  0.00     0.293 HD
ENDBRANCH   6  24
BRANCH   8  26
ATOM     26  O   UNL     1      40.125 -48.697 205.632  1.00  0.00    -0.508 OA
ATOM     27  H   UNL     1      40.832 -49.055 206.264  1.00  0.00     0.293 HD
ENDBRANCH   8  26
TORSDOF 6
ENDMDL
MODEL 2
REMARK VINA RESULT:    -4.463     14.155     16.057
REMARK INTER + INTRA:          -5.859
REMARK INTER:                  -5.434
REMARK INTRA:                  -0.424
REMARK UNBOUND:                -0.482
REMARK SMILES O=c1c(O)c(-c2ccc(O)cc2O)oc2cc(O)cc(O)c12
REMARK SMILES IDX 5 1 3 2 2 3 1 4 22 5 20 6 19 7 17 8 16 9 15 10 14 11 6 12
REMARK SMILES IDX 8 13 7 14 9 15 11 16 12 17 10 18 13 20 4 22 21 24 18 26
REMARK H PARENT 10 19 13 21 4 23 21 25 18 27
REMARK Flexibility Score: inf
ROOT
ATOM      1  C   UNL     1      22.995 -44.470 204.098  1.00  0.00     0.184 A 
ATOM      2  C   UNL     1      21.865 -45.039 204.714  1.00  0.00     0.208 A 
ATOM      3  C   UNL     1      21.359 -46.251 204.218  1.00  0.00     0.238 A 
ATOM      4  O   UNL     1      20.342 -46.766 204.758  1.00  0.00    -0.285 OA
ATOM      5  C   UNL     1      21.999 -46.879 203.130  1.00  0.00     0.111 A 
ATOM      6  C   UNL     1      21.555 -48.103 202.572  1.00  0.00     0.134 A 
ATOM      7  C   UNL     1      22.250 -48.667 201.493  1.00  0.00     0.093 A 
ATOM      8  C   UNL     1      23.380 -48.033 200.962  1.00  0.00     0.123 A 
ATOM      9  C   UNL     1      23.820 -46.827 201.508  1.00  0.00     0.094 A 
ATOM     10  C   UNL     1      23.140 -46.246 202.582  1.00  0.00     0.146 A 
ATOM     11  O   UNL     1      23.579 -45.096 203.080  1.00  0.00    -0.451 OA
ENDROOT
BRANCH   1  12
ATOM     12  C   UNL     1      23.571 -43.185 204.557  1.00  0.00     0.063 A 
ATOM     13  C   UNL     1      24.946 -41.930 206.126  1.00  0.00     0.047 A 
ATOM     14  C   UNL     1      24.424 -43.145 205.675  1.00  0.00     0.020 A 
ATOM     15  C   UNL     1      24.615 -40.738 205.474  1.00  0.00     0.119 A 
ATOM     16  C   UNL     1      23.757 -40.765 204.371  1.00  0.00     0.093 A 
ATOM     17  C   UNL     1      23.230 -41.980 203.910  1.00  0.00     0.130 A 
BRANCH  15  18
ATOM     18  O   UNL     1      25.130 -39.520 205.915  1.00  0.00    -0.508 OA
ATOM     19  H   UNL     1      25.587 -39.434 206.816  1.00  0.00     0.293 HD
ENDBRANCH  15  18
BRANCH  17  20
ATOM     20  O   UNL     1      22.381 -41.994 202.803  1.00  0.00    -0.507 OA
ATOM     21  H   UNL     1      22.313 -41.201 202.175  1.00  0.00     0.293 HD
ENDBRANCH  17  20
ENDBRANCH   1  12
BRANCH   2  22
ATOM     22  O   UNL     1      21.276 -44.415 205.818  1.00  0.00    -0.502 OA
ATOM     23  H   UNL     1      20.293 -44.174 205.843  1.00  0.00     0.293 HD
ENDBRANCH   2  22
BRANCH   6  24
ATOM     24  O   UNL     1      20.434 -48.759 203.080  1.00  0.00    -0.507 OA
ATOM     25  H   UNL     1      19.976 -49.505 202.571  1.00  0.00     0.293 HD
ENDBRANCH   6  24
BRANCH   8  26
ATOM     26  O   UNL     1      24.071 -48.594 199.890  1.00  0.00    -0.508 OA
ATOM     27  H   UNL     1      23.691 -48.583 198.950  1.00  0.00     0.293 HD
ENDBRANCH   8  26
TORSDOF 6
ENDMDL
MODEL 3
REMARK VINA RESULT:    -4.432      1.453      3.220
REMARK INTER + INTRA:          -5.821
REMARK INTER:                  -5.369
REMARK INTRA:                  -0.452
REMARK UNBOUND:                -0.482
REMARK SMILES O=c1c(O)c(-c2ccc(O)cc2O)oc2cc(O)cc(O)c12
REMARK SMILES IDX 5 1 3 2 2 3 1 4 22 5 20 6 19 7 17 8 16 9 15 10 14 11 6 12
REMARK SMILES IDX 8 13 7 14 9 15 11 16 12 17 10 18 13 20 4 22 21 24 18 26
REMARK H PARENT 10 19 13 21 4 23 21 25 18 27
REMARK Flexibility Score: inf
ROOT
ATOM      1  C   UNL     1      38.122 -44.626 202.907  1.00  0.00     0.184 A 
ATOM      2  C   UNL     1      38.303 -45.987 202.597  1.00  0.00     0.208 A 
ATOM      3  C   UNL     1      38.852 -46.837 203.570  1.00  0.00     0.238 A 
ATOM      4  O   UNL     1      39.026 -48.056 203.300  1.00  0.00    -0.285 OA
ATOM      5  C   UNL     1      39.195 -46.318 204.835  1.00  0.00     0.111 A 
ATOM      6  C   UNL     1      39.750 -47.107 205.871  1.00  0.00     0.134 A 
ATOM      7  C   UNL     1      40.057 -46.517 207.106  1.00  0.00     0.093 A 
ATOM      8  C   UNL     1      39.819 -45.155 207.324  1.00  0.00     0.123 A 
ATOM      9  C   UNL     1      39.273 -44.373 206.306  1.00  0.00     0.094 A 
ATOM     10  C   UNL     1      38.962 -44.941 205.067  1.00  0.00     0.146 A 
ATOM     11  O   UNL     1      38.446 -44.173 204.115  1.00  0.00    -0.451 OA
ENDROOT
BRANCH   1  12
ATOM     12  C   UNL     1      37.564 -43.668 201.923  1.00  0.00     0.063 A 
ATOM     13  C   UNL     1      37.788 -42.388 199.865  1.00  0.00     0.047 A 
ATOM     14  C   UNL     1      38.301 -43.311 200.779  1.00  0.00     0.020 A 
ATOM     15  C   UNL     1      36.539 -41.800 200.085  1.00  0.00     0.119 A 
ATOM     16  C   UNL     1      35.804 -42.138 201.226  1.00  0.00     0.093 A 
ATOM     17  C   UNL     1      36.311 -43.066 202.148  1.00  0.00     0.130 A 
BRANCH  15  18
ATOM     18  O   UNL     1      36.017 -40.878 199.179  1.00  0.00    -0.508 OA
ATOM     19  H   UNL     1      35.254 -40.262 199.432  1.00  0.00     0.293 HD
ENDBRANCH  15  18
BRANCH  17  20
ATOM     20  O   UNL     1      35.563 -43.399 203.278  1.00  0.00    -0.507 OA
ATOM     21  H   UNL     1      35.451 -44.361 203.577  1.00  0.00     0.293 HD
ENDBRANCH  17  20
ENDBRANCH   1  12
BRANCH   2  22
ATOM     22  O   UNL     1      37.917 -46.482 201.348  1.00  0.00    -0.502 OA
ATOM     23  H   UNL     1      37.355 -47.318 201.247  1.00  0.00     0.293 HD
ENDBRANCH   2  22
BRANCH   6  24
ATOM     24  O   UNL     1      39.997 -48.467 205.684  1.00  0.00    -0.507 OA
ATOM     25  H   UNL     1      40.848 -48.905 206.015  1.00  0.00     0.293 HD
ENDBRANCH   6  24
BRANCH   8  26
ATOM     26  O   UNL     1      40.125 -44.568 208.550  1.00  0.00    -0.508 OA
ATOM     27  H   UNL     1      40.569 -45.095 209.294  1.00  0.00     0.293 HD
ENDBRANCH   8  26
TORSDOF 6
ENDMDL
MODEL 4
REMARK VINA RESULT:    -4.340      3.096      4.601
REMARK INTER + INTRA:          -5.710
REMARK INTER:                  -5.227
REMARK INTRA:                  -0.482
REMARK UNBOUND:                -0.482
REMARK SMILES O=c1c(O)c(-c2ccc(O)cc2O)oc2cc(O)cc(O)c12
REMARK SMILES IDX 5 1 3 2 2 3 1 4 22 5 20 6 19 7 17 8 16 9 15 10 14 11 6 12
REMARK SMILES IDX 8 13 7 14 9 15 11 16 12 17 10 18 13 20 4 22 21 24 18 26
REMARK H PARENT 10 19 13 21 4 23 21 25 18 27
REMARK Flexibility Score: inf
ROOT
ATOM      1  C   UNL     1      37.999 -44.179 205.696  1.00  0.00     0.184 A 
ATOM      2  C   UNL     1      38.884 -44.847 206.564  1.00  0.00     0.208 A 
ATOM      3  C   UNL     1      39.318 -46.139 206.228  1.00  0.00     0.238 A 
ATOM      4  O   UNL     1      40.104 -46.750 207.002  1.00  0.00    -0.285 OA
ATOM      5  C   UNL     1      38.874 -46.733 205.028  1.00  0.00     0.111 A 
ATOM      6  C   UNL     1      39.265 -48.029 204.615  1.00  0.00     0.134 A 
ATOM      7  C   UNL     1      38.786 -48.547 203.403  1.00  0.00     0.093 A 
ATOM      8  C   UNL     1      37.924 -47.794 202.597  1.00  0.00     0.123 A 
ATOM      9  C   UNL     1      37.534 -46.517 203.001  1.00  0.00     0.094 A 
ATOM     10  C   UNL     1      37.999 -45.983 204.206  1.00  0.00     0.146 A 
ATOM     11  O   UNL     1      37.610 -44.766 204.568  1.00  0.00    -0.451 OA
ENDROOT
BRANCH   1  12
ATOM     12  C   UNL     1      37.487 -42.821 205.997  1.00  0.00     0.063 A 
ATOM     13  C   UNL     1      35.964 -41.363 207.212  1.00  0.00     0.047 A 
ATOM     14  C   UNL     1      36.467 -42.639 206.948  1.00  0.00     0.020 A 
ATOM     15  C   UNL     1      36.465 -40.253 206.523  1.00  0.00     0.119 A 
ATOM     16  C   UNL     1      37.469 -40.426 205.565  1.00  0.00     0.093 A 
ATOM     17  C   UNL     1      37.981 -41.703 205.296  1.00  0.00     0.130 A 
BRANCH  15  18
ATOM     18  O   UNL     1      35.971 -38.975 206.778  1.00  0.00    -0.508 OA
ATOM     19  H   UNL     1      36.587 -38.208 207.021  1.00  0.00     0.293 HD
ENDBRANCH  15  18
BRANCH  17  20
ATOM     20  O   UNL     1      38.988 -41.860 204.343  1.00  0.00    -0.507 OA
ATOM     21  H   UNL     1      39.335 -42.776 204.082  1.00  0.00     0.293 HD
ENDBRANCH  17  20
ENDBRANCH   1  12
BRANCH   2  22
ATOM     22  O   UNL     1      39.339 -44.218 207.726  1.00  0.00    -0.502 OA
ATOM     23  H   UNL     1      39.955 -44.677 208.385  1.00  0.00     0.293 HD
ENDBRANCH   2  22
BRANCH   6  24
ATOM     24  O   UNL     1      40.125 -48.803 205.396  1.00  0.00    -0.507 OA
ATOM     25  H   UNL     1      40.359 -49.756 205.146  1.00  0.00     0.293 HD
ENDBRANCH   6  24
BRANCH   8  26
ATOM     26  O   UNL     1      37.447 -48.308 201.394  1.00  0.00    -0.508 OA
ATOM     27  H   UNL     1      37.122 -49.266 201.317  1.00  0.00     0.293 HD
ENDBRANCH   8  26
TORSDOF 6
ENDMDL
MODEL 5
REMARK VINA RESULT:    -4.333      2.708      5.508
REMARK INTER + INTRA:          -5.702
REMARK INTER:                  -5.298
REMARK INTRA:                  -0.403
REMARK UNBOUND:                -0.482
REMARK SMILES O=c1c(O)c(-c2ccc(O)cc2O)oc2cc(O)cc(O)c12
REMARK SMILES IDX 5 1 3 2 2 3 1 4 22 5 20 6 19 7 17 8 16 9 15 10 14 11 6 12
REMARK SMILES IDX 8 13 7 14 9 15 11 16 12 17 10 18 13 20 4 22 21 24 18 26
REMARK H PARENT 10 19 13 21 4 23 21 25 18 27
REMARK Flexibility Score: inf
ROOT
ATOM      1  C   UNL     1      37.957 -46.997 204.390  1.00  0.00     0.184 A 
ATOM      2  C   UNL     1      38.878 -47.103 205.449  1.00  0.00     0.208 A 
ATOM      3  C   UNL     1      39.294 -45.934 206.106  1.00  0.00     0.238 A 
ATOM      4  O   UNL     1      40.125 -46.016 207.051  1.00  0.00    -0.285 OA
ATOM      5  C   UNL     1      38.773 -44.686 205.705  1.00  0.00     0.111 A 
ATOM      6  C   UNL     1      39.137 -43.462 206.316  1.00  0.00     0.134 A 
ATOM      7  C   UNL     1      38.568 -42.263 205.864  1.00  0.00     0.093 A 
ATOM      8  C   UNL     1      37.642 -42.264 204.815  1.00  0.00     0.123 A 
ATOM      9  C   UNL     1      37.280 -43.468 204.209  1.00  0.00     0.094 A 
ATOM     10  C   UNL     1      37.837 -44.674 204.643  1.00  0.00     0.146 A 
ATOM     11  O   UNL     1      37.478 -45.804 204.046  1.00  0.00    -0.451 OA
ENDROOT
BRANCH   1  12
ATOM     12  C   UNL     1      37.488 -48.186 203.641  1.00  0.00     0.063 A 
ATOM     13  C   UNL     1      35.905 -50.013 203.361  1.00  0.00     0.047 A 
ATOM     14  C   UNL     1      36.332 -48.876 204.050  1.00  0.00     0.020 A 
ATOM     15  C   UNL     1      36.630 -50.484 202.262  1.00  0.00     0.119 A 
ATOM     16  C   UNL     1      37.789 -49.814 201.857  1.00  0.00     0.093 A 
ATOM     17  C   UNL     1      38.224 -48.670 202.541  1.00  0.00     0.130 A 
BRANCH  15  18
ATOM     18  O   UNL     1      36.213 -51.618 201.568  1.00  0.00    -0.508 OA
ATOM     19  H   UNL     1      35.874 -52.441 202.053  1.00  0.00     0.293 HD
ENDBRANCH  15  18
BRANCH  17  20
ATOM     20  O   UNL     1      39.377 -48.007 202.121  1.00  0.00    -0.507 OA
ATOM     21  H   UNL     1      39.349 -47.294 201.401  1.00  0.00     0.293 HD
ENDBRANCH  17  20
ENDBRANCH   1  12
BRANCH   2  22
ATOM     22  O   UNL     1      39.347 -48.356 205.852  1.00  0.00    -0.502 OA
ATOM     23  H   UNL     1      40.054 -48.862 205.334  1.00  0.00     0.293 HD
ENDBRANCH   2  22
BRANCH   6  24
ATOM     24  O   UNL     1      40.057 -43.429 207.365  1.00  0.00    -0.507 OA
ATOM     25  H   UNL     1      41.031 -43.197 207.213  1.00  0.00     0.293 HD
ENDBRANCH   6  24
BRANCH   8  26
ATOM     26  O   UNL     1      37.076 -41.073 204.365  1.00  0.00    -0.508 OA
ATOM     27  H   UNL     1      37.058 -40.242 204.947  1.00  0.00     0.293 HD
ENDBRANCH   8  26
TORSDOF 6
ENDMDL
MODEL 6
REMARK VINA RESULT:    -4.281      3.011      5.560
REMARK INTER + INTRA:          -5.639
REMARK INTER:                  -5.158
REMARK INTRA:                  -0.481
REMARK UNBOUND:                -0.482
REMARK SMILES O=c1c(O)c(-c2ccc(O)cc2O)oc2cc(O)cc(O)c12
REMARK SMILES IDX 5 1 3 2 2 3 1 4 22 5 20 6 19 7 17 8 16 9 15 10 14 11 6 12
REMARK SMILES IDX 8 13 7 14 9 15 11 16 12 17 10 18 13 20 4 22 21 24 18 26
REMARK H PARENT 10 19 13 21 4 23 21 25 18 27
REMARK Flexibility Score: inf
ROOT
ATOM      1  C   UNL     1      38.029 -46.683 203.236  1.00  0.00     0.184 A 
ATOM      2  C   UNL     1      38.861 -45.764 202.569  1.00  0.00     0.208 A 
ATOM      3  C   UNL     1      38.988 -44.464 203.086  1.00  0.00     0.238 A 
ATOM      4  O   UNL     1      39.724 -43.631 202.491  1.00  0.00    -0.285 OA
ATOM      5  C   UNL     1      38.296 -44.112 204.263  1.00  0.00     0.111 A 
ATOM      6  C   UNL     1      38.372 -42.826 204.849  1.00  0.00     0.134 A 
ATOM      7  C   UNL     1      37.659 -42.556 206.026  1.00  0.00     0.093 A 
ATOM      8  C   UNL     1      36.873 -43.546 206.627  1.00  0.00     0.123 A 
ATOM      9  C   UNL     1      36.795 -44.814 206.052  1.00  0.00     0.094 A 
ATOM     10  C   UNL     1      37.496 -45.104 204.878  1.00  0.00     0.146 A 
ATOM     11  O   UNL     1      37.401 -46.319 204.350  1.00  0.00    -0.451 OA
ENDROOT
BRANCH   1  12
ATOM     12  C   UNL     1      37.835 -48.065 202.738  1.00  0.00     0.063 A 
ATOM     13  C   UNL     1      36.791 -49.619 201.184  1.00  0.00     0.047 A 
ATOM     14  C   UNL     1      36.996 -48.314 201.637  1.00  0.00     0.020 A 
ATOM     15  C   UNL     1      37.411 -50.694 201.829  1.00  0.00     0.119 A 
ATOM     16  C   UNL     1      38.236 -50.458 202.934  1.00  0.00     0.093 A 
ATOM     17  C   UNL     1      38.449 -49.150 203.394  1.00  0.00     0.130 A 
BRANCH  15  18
ATOM     18  O   UNL     1      37.213 -52.000 201.385  1.00  0.00    -0.508 OA
ATOM     19  H   UNL     1      36.288 -52.350 201.166  1.00  0.00     0.293 HD
ENDBRANCH  15  18
BRANCH  17  20
ATOM     20  O   UNL     1      39.280 -48.929 204.493  1.00  0.00    -0.507 OA
ATOM     21  H   UNL     1      40.088 -49.513 204.675  1.00  0.00     0.293 HD
ENDBRANCH  17  20
ENDBRANCH   1  12
BRANCH   2  22
ATOM     22  O   UNL     1      39.567 -46.153 201.427  1.00  0.00    -0.502 OA
ATOM     23  H   UNL     1      40.566 -46.315 201.436  1.00  0.00     0.293 HD
ENDBRANCH   2  22
BRANCH   6  24
ATOM     24  O   UNL     1      39.148 -41.819 204.275  1.00  0.00    -0.507 OA
ATOM     25  H   UNL     1      39.700 -41.184 204.838  1.00  0.00     0.293 HD
ENDBRANCH   6  24
BRANCH   8  26
ATOM     26  O   UNL     1      36.164 -43.278 207.796  1.00  0.00    -0.508 OA
ATOM     27  H   UNL     1      36.627 -42.932 208.630  1.00  0.00     0.293 HD
ENDBRANCH   8  26
TORSDOF 6
ENDMDL
MODEL 7
REMARK VINA RESULT:    -4.267     13.959     15.703
REMARK INTER + INTRA:          -5.622
REMARK INTER:                  -5.451
REMARK INTRA:                  -0.171
REMARK UNBOUND:                -0.482
REMARK SMILES O=c1c(O)c(-c2ccc(O)cc2O)oc2cc(O)cc(O)c12
REMARK SMILES IDX 5 1 3 2 2 3 1 4 22 5 20 6 19 7 17 8 16 9 15 10 14 11 6 12
REMARK SMILES IDX 8 13 7 14 9 15 11 16 12 17 10 18 13 20 4 22 21 24 18 26
REMARK H PARENT 10 19 13 21 4 23 21 25 18 27
REMARK Flexibility Score: inf
ROOT
ATOM      1  C   UNL     1      23.339 -44.798 201.272  1.00  0.00     0.184 A 
ATOM      2  C   UNL     1      23.334 -43.789 202.254  1.00  0.00     0.208 A 
ATOM      3  C   UNL     1      22.623 -44.005 203.445  1.00  0.00     0.238 A 
ATOM      4  O   UNL     1      22.605 -43.105 204.328  1.00  0.00    -0.285 OA
ATOM      5  C   UNL     1      21.944 -45.225 203.640  1.00  0.00     0.111 A 
ATOM      6  C   UNL     1      21.207 -45.523 204.812  1.00  0.00     0.134 A 
ATOM      7  C   UNL     1      20.566 -46.764 204.933  1.00  0.00     0.093 A 
ATOM      8  C   UNL     1      20.647 -47.712 203.906  1.00  0.00     0.123 A 
ATOM      9  C   UNL     1      21.371 -47.423 202.749  1.00  0.00     0.094 A 
ATOM     10  C   UNL     1      22.017 -46.191 202.608  1.00  0.00     0.146 A 
ATOM     11  O   UNL     1      22.696 -45.941 201.495  1.00  0.00    -0.451 OA
ENDROOT
BRANCH   1  12
ATOM     12  C   UNL     1      24.053 -44.631 199.985  1.00  0.00     0.063 A 
ATOM     13  C   UNL     1      25.814 -45.307 198.447  1.00  0.00     0.047 A 
ATOM     14  C   UNL     1      25.123 -45.481 199.648  1.00  0.00     0.020 A 
ATOM     15  C   UNL     1      25.456 -44.277 197.571  1.00  0.00     0.119 A 
ATOM     16  C   UNL     1      24.403 -43.419 197.903  1.00  0.00     0.093 A 
ATOM     17  C   UNL     1      23.702 -43.587 199.106  1.00  0.00     0.130 A 
BRANCH  15  18
ATOM     18  O   UNL     1      26.140 -44.095 196.371  1.00  0.00    -0.508 OA
ATOM     19  H   UNL     1      27.151 -44.038 196.341  1.00  0.00     0.293 HD
ENDBRANCH  15  18
BRANCH  17  20
ATOM     20  O   UNL     1      22.649 -42.728 199.421  1.00  0.00    -0.507 OA
ATOM     21  H   UNL     1      21.803 -42.696 198.863  1.00  0.00     0.293 HD
ENDBRANCH  17  20
ENDBRANCH   1  12
BRANCH   2  22
ATOM     22  O   UNL     1      24.049 -42.606 202.051  1.00  0.00    -0.502 OA
ATOM     23  H   UNL     1      24.817 -42.542 201.395  1.00  0.00     0.293 HD
ENDBRANCH   2  22
BRANCH   6  24
ATOM     24  O   UNL     1      21.109 -44.599 205.852  1.00  0.00    -0.507 OA
ATOM     25  H   UNL     1      20.592 -43.734 205.750  1.00  0.00     0.293 HD
ENDBRANCH   6  24
BRANCH   8  26
ATOM     26  O   UNL     1      20.009 -48.945 204.026  1.00  0.00    -0.508 OA
ATOM     27  H   UNL     1      19.008 -49.012 204.170  1.00  0.00     0.293 HD
ENDBRANCH   8  26
TORSDOF 6
ENDMDL
MODEL 8
REMARK VINA RESULT:    -4.173     13.862     15.236
REMARK INTER + INTRA:          -5.509
REMARK INTER:                  -5.027
REMARK INTRA:                  -0.482
REMARK UNBOUND:                -0.482
REMARK SMILES O=c1c(O)c(-c2ccc(O)cc2O)oc2cc(O)cc(O)c12
REMARK SMILES IDX 5 1 3 2 2 3 1 4 22 5 20 6 19 7 17 8 16 9 15 10 14 11 6 12
REMARK SMILES IDX 8 13 7 14 9 15 11 16 12 17 10 18 13 20 4 22 21 24 18 26
REMARK H PARENT 10 19 13 21 4 23 21 25 18 27
REMARK Flexibility Score: inf
ROOT
ATOM      1  C   UNL     1      23.568 -45.406 201.424  1.00  0.00     0.184 A 
ATOM      2  C   UNL     1      22.632 -46.454 201.345  1.00  0.00     0.208 A 
ATOM      3  C   UNL     1      22.196 -47.065 202.532  1.00  0.00     0.238 A 
ATOM      4  O   UNL     1      21.364 -48.011 202.472  1.00  0.00    -0.285 OA
ATOM      5  C   UNL     1      22.691 -46.611 203.772  1.00  0.00     0.111 A 
ATOM      6  C   UNL     1      22.301 -47.171 205.012  1.00  0.00     0.134 A 
ATOM      7  C   UNL     1      22.833 -46.658 206.204  1.00  0.00     0.093 A 
ATOM      8  C   UNL     1      23.745 -45.597 206.179  1.00  0.00     0.123 A 
ATOM      9  C   UNL     1      24.133 -45.043 204.959  1.00  0.00     0.094 A 
ATOM     10  C   UNL     1      23.616 -45.541 203.759  1.00  0.00     0.146 A 
ATOM     11  O   UNL     1      24.005 -44.997 202.612  1.00  0.00    -0.451 OA
ENDROOT
BRANCH   1  12
ATOM     12  C   UNL     1      24.085 -44.727 200.213  1.00  0.00     0.063 A 
ATOM     13  C   UNL     1      25.567 -44.696 198.283  1.00  0.00     0.047 A 
ATOM     14  C   UNL     1      25.060 -45.346 199.410  1.00  0.00     0.020 A 
ATOM     15  C   UNL     1      25.117 -43.414 197.948  1.00  0.00     0.119 A 
ATOM     16  C   UNL     1      24.158 -42.785 198.747  1.00  0.00     0.093 A 
ATOM     17  C   UNL     1      23.642 -43.432 199.879  1.00  0.00     0.130 A 
BRANCH  15  18
ATOM     18  O   UNL     1      25.616 -42.756 196.825  1.00  0.00    -0.508 OA
ATOM     19  H   UNL     1      25.006 -42.449 196.077  1.00  0.00     0.293 HD
ENDBRANCH  15  18
BRANCH  17  20
ATOM     20  O   UNL     1      22.680 -42.795 200.664  1.00  0.00    -0.507 OA
ATOM     21  H   UNL     1      21.802 -43.244 200.900  1.00  0.00     0.293 HD
ENDBRANCH  17  20
ENDBRANCH   1  12
BRANCH   2  22
ATOM     22  O   UNL     1      22.128 -46.856 200.105  1.00  0.00    -0.502 OA
ATOM     23  H   UNL     1      21.638 -47.732 199.978  1.00  0.00     0.293 HD
ENDBRANCH   2  22
BRANCH   6  24
ATOM     24  O   UNL     1      21.393 -48.229 205.069  1.00  0.00    -0.507 OA
ATOM     25  H   UNL     1      20.461 -48.153 204.679  1.00  0.00     0.293 HD
ENDBRANCH   6  24
BRANCH   8  26
ATOM     26  O   UNL     1      24.274 -45.087 207.363  1.00  0.00    -0.508 OA
ATOM     27  H   UNL     1      24.920 -45.625 207.930  1.00  0.00     0.293 HD
ENDBRANCH   8  26
TORSDOF 6
ENDMDL
MODEL 9
REMARK VINA RESULT:    -4.064      2.376      4.200
REMARK INTER + INTRA:          -5.378
REMARK INTER:                  -4.950
REMARK INTRA:                  -0.428
REMARK UNBOUND:                -0.482
REMARK SMILES O=c1c(O)c(-c2ccc(O)cc2O)oc2cc(O)cc(O)c12
REMARK SMILES IDX 5 1 3 2 2 3 1 4 22 5 20 6 19 7 17 8 16 9 15 10 14 11 6 12
REMARK SMILES IDX 8 13 7 14 9 15 11 16 12 17 10 18 13 20 4 22 21 24 18 26
REMARK H PARENT 10 19 13 21 4 23 21 25 18 27
REMARK Flexibility Score: inf
ROOT
ATOM      1  C   UNL     1      37.340 -43.024 204.169  1.00  0.00     0.184 A 
ATOM      2  C   UNL     1      37.604 -43.218 202.801  1.00  0.00     0.208 A 
ATOM      3  C   UNL     1      38.305 -44.367 202.401  1.00  0.00     0.238 A 
ATOM      4  O   UNL     1      38.555 -44.547 201.178  1.00  0.00    -0.285 OA
ATOM      5  C   UNL     1      38.714 -45.306 203.371  1.00  0.00     0.111 A 
ATOM      6  C   UNL     1      39.421 -46.490 203.052  1.00  0.00     0.134 A 
ATOM      7  C   UNL     1      39.786 -47.378 204.073  1.00  0.00     0.093 A 
ATOM      8  C   UNL     1      39.457 -47.106 205.407  1.00  0.00     0.123 A 
ATOM      9  C   UNL     1      38.761 -45.940 205.726  1.00  0.00     0.094 A 
ATOM     10  C   UNL     1      38.389 -45.040 204.722  1.00  0.00     0.146 A 
ATOM     11  O   UNL     1      37.731 -43.936 205.055  1.00  0.00    -0.451 OA
ENDROOT
BRANCH   1  12
ATOM     12  C   UNL     1      36.621 -41.826 204.664  1.00  0.00     0.063 A 
ATOM     13  C   UNL     1      34.542 -40.613 205.025  1.00  0.00     0.047 A 
ATOM     14  C   UNL     1      35.219 -41.753 204.585  1.00  0.00     0.020 A 
ATOM     15  C   UNL     1      35.256 -39.526 205.540  1.00  0.00     0.119 A 
ATOM     16  C   UNL     1      36.652 -39.583 205.609  1.00  0.00     0.093 A 
ATOM     17  C   UNL     1      37.339 -40.725 205.172  1.00  0.00     0.130 A 
BRANCH  15  18
ATOM     18  O   UNL     1      34.592 -38.384 205.982  1.00  0.00    -0.508 OA
ATOM     19  H   UNL     1      34.753 -38.003 206.907  1.00  0.00     0.293 HD
ENDBRANCH  15  18
BRANCH  17  20
ATOM     20  O   UNL     1      38.731 -40.771 205.254  1.00  0.00    -0.507 OA
ATOM     21  H   UNL     1      39.213 -40.733 206.145  1.00  0.00     0.293 HD
ENDBRANCH  17  20
ENDBRANCH   1  12
BRANCH   2  22
ATOM     22  O   UNL     1      37.152 -42.291 201.858  1.00  0.00    -0.502 OA
ATOM     23  H   UNL     1      37.262 -42.433 200.862  1.00  0.00     0.293 HD
ENDBRANCH   2  22
BRANCH   6  24
ATOM     24  O   UNL     1      39.761 -46.790 201.732  1.00  0.00    -0.507 OA
ATOM     25  H   UNL     1      39.440 -46.223 200.957  1.00  0.00     0.293 HD
ENDBRANCH   6  24
BRANCH   8  26
ATOM     26  O   UNL     1      39.819 -47.988 206.422  1.00  0.00    -0.508 OA
ATOM     27  H   UNL     1      39.699 -47.749 207.400  1.00  0.00     0.293 HD
ENDBRANCH   8  26
TORSDOF 6
ENDMDL
