MODEL 1
REMARK VINA RESULT:    -4.289      0.000      0.000
REMARK INTER + INTRA:          -5.770
REMARK INTER:                  -5.794
REMARK INTRA:                   0.024
REMARK UNBOUND:                 0.024
REMARK SMILES O=c1c(-c2ccc(O)cc2)coc2c([C@@H]3O[C@@H](CO)[C@@H](O)[C@H](O)[C@@H]3O)c(O)ccc12
REMARK SMILES IDX 3 1 11 2 12 3 13 4 30 5 2 6 1 7 29 8 28 9 26 10 14 11 4 12
REMARK SMILES IDX 5 13 6 14 7 15 10 16 9 17 8 18 15 20 24 21 16 22 22 23 17 24
REMARK SMILES IDX 20 25 25 26 23 28 18 30 19 31 21 33 27 35
REMARK H PARENT 8 19 25 27 23 29 19 32 21 34 27 36
REMARK Flexibility Score: inf
ROOT
ATOM      1  C   UNL     1      -1.803   5.052  -1.965  1.00  0.00     0.065 A 
ATOM      2  C   UNL     1      -2.040   5.042  -3.346  1.00  0.00     0.208 A 
ATOM      3  O   UNL     1      -3.101   4.424  -3.850  1.00  0.00    -0.463 OA
ATOM      4  C   UNL     1      -3.998   3.784  -3.102  1.00  0.00     0.147 A 
ATOM      5  C   UNL     1      -3.844   3.759  -1.695  1.00  0.00     0.066 A 
ATOM      6  C   UNL     1      -2.729   4.405  -1.128  1.00  0.00     0.200 A 
ATOM      7  O   UNL     1      -2.571   4.421   0.125  1.00  0.00    -0.288 OA
ATOM      8  C   UNL     1      -4.801   3.108  -0.903  1.00  0.00     0.020 A 
ATOM      9  C   UNL     1      -5.903   2.497  -1.497  1.00  0.00     0.047 A 
ATOM     10  C   UNL     1      -6.065   2.510  -2.886  1.00  0.00     0.125 A 
ATOM     11  C   UNL     1      -5.101   3.134  -3.710  1.00  0.00     0.069 A 
ENDROOT
BRANCH   1  12
ATOM     12  C   UNL     1      -0.601   5.736  -1.427  1.00  0.00    -0.011 A 
ATOM     13  C   UNL     1      -0.634   7.107  -1.117  1.00  0.00     0.013 A 
ATOM     14  C   UNL     1       0.498   7.745  -0.601  1.00  0.00     0.047 A 
ATOM     15  C   UNL     1       1.677   7.019  -0.386  1.00  0.00     0.115 A 
ATOM     16  C   UNL     1       0.583   5.013  -1.199  1.00  0.00     0.013 A 
ATOM     17  C   UNL     1       1.715   5.653  -0.685  1.00  0.00     0.047 A 
BRANCH  15  18
ATOM     18  O   UNL     1       2.813   7.644   0.123  1.00  0.00    -0.508 OA
ATOM     19  H   UNL     1       2.768   8.242   0.939  1.00  0.00     0.293 HD
ENDBRANCH  15  18
ENDBRANCH   1  12
BRANCH  11  20
ATOM     20  C   UNL     1      -5.307   3.168  -5.221  1.00  0.00     0.188 C 
ATOM     21  C   UNL     1      -3.950   3.346  -5.942  1.00  0.00     0.179 C 
ATOM     22  O   UNL     1      -5.989   1.995  -5.647  1.00  0.00    -0.362 OA
ATOM     23  C   UNL     1      -4.183   3.418  -7.456  1.00  0.00     0.177 C 
ATOM     24  C   UNL     1      -6.263   1.971  -7.043  1.00  0.00     0.176 C 
ATOM     25  C   UNL     1      -4.995   2.190  -7.911  1.00  0.00     0.177 C 
BRANCH  21  26
ATOM     26  O   UNL     1      -3.084   2.277  -5.645  1.00  0.00    -0.387 OA
ATOM     27  H   UNL     1      -3.537   1.717  -4.962  1.00  0.00     0.211 HD
ENDBRANCH  21  26
BRANCH  23  28
ATOM     28  O   UNL     1      -2.954   3.444  -8.136  1.00  0.00    -0.387 OA
ATOM     29  H   UNL     1      -3.045   2.838  -8.918  1.00  0.00     0.211 HD
ENDBRANCH  23  28
BRANCH  24  30
ATOM     30  C   UNL     1      -7.506   2.812  -7.422  1.00  0.00     0.191 C 
BRANCH  30  31
ATOM     31  O   UNL     1      -8.255   2.228  -8.454  1.00  0.00    -0.394 OA
ATOM     32  H   UNL     1      -7.678   2.192  -9.261  1.00  0.00     0.210 HD
ENDBRANCH  30  31
ENDBRANCH  24  30
BRANCH  25  33
ATOM     33  O   UNL     1      -5.305   2.236  -9.282  1.00  0.00    -0.388 OA
ATOM     34  H   UNL     1      -5.682   3.130  -9.488  1.00  0.00     0.211 HD
ENDBRANCH  25  33
ENDBRANCH  11  20
BRANCH  10  35
ATOM     35  O   UNL     1      -7.187   1.902  -3.449  1.00  0.00    -0.507 OA
ATOM     36  H   UNL     1      -7.957   1.574  -2.880  1.00  0.00     0.293 HD
ENDBRANCH  10  35
TORSDOF 9
ENDMDL
MODEL 2
REMARK VINA RESULT:    -3.963      2.193      4.165
REMARK INTER + INTRA:          -5.329
REMARK INTER:                  -5.079
REMARK INTRA:                  -0.250
REMARK UNBOUND:                 0.024
REMARK SMILES O=c1c(-c2ccc(O)cc2)coc2c([C@@H]3O[C@@H](CO)[C@@H](O)[C@H](O)[C@@H]3O)c(O)ccc12
REMARK SMILES IDX 3 1 11 2 12 3 13 4 30 5 2 6 1 7 29 8 28 9 26 10 14 11 4 12
REMARK SMILES IDX 5 13 6 14 7 15 10 16 9 17 8 18 15 20 24 21 16 22 22 23 17 24
REMARK SMILES IDX 20 25 25 26 23 28 18 30 19 31 21 33 27 35
REMARK H PARENT 8 19 25 27 23 29 19 32 21 34 27 36
REMARK Flexibility Score: inf
ROOT
ATOM      1  C   UNL     1      -2.197   5.316  -3.908  1.00  0.00     0.065 A 
ATOM      2  C   UNL     1      -3.591   5.365  -3.780  1.00  0.00     0.208 A 
ATOM      3  O   UNL     1      -4.380   4.860  -4.721  1.00  0.00    -0.463 OA
ATOM      4  C   UNL     1      -3.918   4.284  -5.830  1.00  0.00     0.147 A 
ATOM      5  C   UNL     1      -2.521   4.177  -6.031  1.00  0.00     0.066 A 
ATOM      6  C   UNL     1      -1.657   4.703  -5.053  1.00  0.00     0.200 A 
ATOM      7  O   UNL     1      -0.405   4.606  -5.190  1.00  0.00    -0.288 OA
ATOM      8  C   UNL     1      -2.032   3.547  -7.185  1.00  0.00     0.020 A 
ATOM      9  C   UNL     1      -2.917   3.020  -8.124  1.00  0.00     0.047 A 
ATOM     10  C   UNL     1      -4.300   3.123  -7.939  1.00  0.00     0.125 A 
ATOM     11  C   UNL     1      -4.820   3.778  -6.799  1.00  0.00     0.069 A 
ENDROOT
BRANCH   1  12
ATOM     12  C   UNL     1      -1.337   5.902  -2.850  1.00  0.00    -0.011 A 
ATOM     13  C   UNL     1      -0.500   5.083  -2.071  1.00  0.00     0.013 A 
ATOM     14  C   UNL     1       0.315   5.640  -1.082  1.00  0.00     0.047 A 
ATOM     15  C   UNL     1       0.307   7.024  -0.861  1.00  0.00     0.115 A 
ATOM     16  C   UNL     1      -1.332   7.290  -2.628  1.00  0.00     0.013 A 
ATOM     17  C   UNL     1      -0.516   7.845  -1.637  1.00  0.00     0.047 A 
BRANCH  15  18
ATOM     18  O   UNL     1       1.112   7.591   0.125  1.00  0.00    -0.508 OA
ATOM     19  H   UNL     1       1.312   8.584   0.140  1.00  0.00     0.293 HD
ENDBRANCH  15  18
ENDBRANCH   1  12
BRANCH  11  20
ATOM     20  C   UNL     1      -6.329   3.854  -6.595  1.00  0.00     0.188 C 
ATOM     21  C   UNL     1      -6.796   2.731  -5.639  1.00  0.00     0.179 C 
ATOM     22  O   UNL     1      -6.693   5.145  -6.121  1.00  0.00    -0.362 OA
ATOM     23  C   UNL     1      -8.321   2.800  -5.478  1.00  0.00     0.177 C 
ATOM     24  C   UNL     1      -8.096   5.314  -5.949  1.00  0.00     0.176 C 
ATOM     25  C   UNL     1      -8.729   4.221  -5.047  1.00  0.00     0.177 C 
BRANCH  21  26
ATOM     26  O   UNL     1      -6.181   2.859  -4.381  1.00  0.00    -0.387 OA
ATOM     27  H   UNL     1      -5.387   2.264  -4.383  1.00  0.00     0.211 HD
ENDBRANCH  21  26
BRANCH  23  28
ATOM     28  O   UNL     1      -8.750   1.875  -4.512  1.00  0.00    -0.387 OA
ATOM     29  H   UNL     1      -9.201   1.138  -5.000  1.00  0.00     0.211 HD
ENDBRANCH  23  28
BRANCH  24  30
ATOM     30  C   UNL     1      -8.828   5.612  -7.280  1.00  0.00     0.191 C 
BRANCH  30  31
ATOM     31  O   UNL     1      -8.074   6.430  -8.136  1.00  0.00    -0.394 OA
ATOM     32  H   UNL     1      -7.151   6.066  -8.162  1.00  0.00     0.210 HD
ENDBRANCH  30  31
ENDBRANCH  24  30
BRANCH  25  33
ATOM     33  O   UNL     1     -10.124   4.368  -4.955  1.00  0.00    -0.388 OA
ATOM     34  H   UNL     1     -10.507   3.519  -4.613  1.00  0.00     0.211 HD
ENDBRANCH  25  33
ENDBRANCH  11  20
BRANCH  10  35
ATOM     35  O   UNL     1      -5.159   2.572  -8.889  1.00  0.00    -0.507 OA
ATOM     36  H   UNL     1      -5.209   2.931  -9.835  1.00  0.00     0.293 HD
ENDBRANCH  10  35
TORSDOF 9
ENDMDL
MODEL 3
REMARK VINA RESULT:    -3.935      2.740      5.721
REMARK INTER + INTRA:          -5.292
REMARK INTER:                  -4.801
REMARK INTRA:                  -0.491
REMARK UNBOUND:                 0.024
REMARK SMILES O=c1c(-c2ccc(O)cc2)coc2c([C@@H]3O[C@@H](CO)[C@@H](O)[C@H](O)[C@@H]3O)c(O)ccc12
REMARK SMILES IDX 3 1 11 2 12 3 13 4 30 5 2 6 1 7 29 8 28 9 26 10 14 11 4 12
REMARK SMILES IDX 5 13 6 14 7 15 10 16 9 17 8 18 15 20 24 21 16 22 22 23 17 24
REMARK SMILES IDX 20 25 25 26 23 28 18 30 19 31 21 33 27 35
REMARK H PARENT 8 19 25 27 23 29 19 32 21 34 27 36
REMARK Flexibility Score: inf
ROOT
ATOM      1  C   UNL     1       2.782   5.037  -0.970  1.00  0.00     0.065 A 
ATOM      2  C   UNL     1       1.804   4.237  -1.575  1.00  0.00     0.208 A 
ATOM      3  O   UNL     1       0.531   4.616  -1.596  1.00  0.00    -0.463 OA
ATOM      4  C   UNL     1       0.099   5.754  -1.057  1.00  0.00     0.147 A 
ATOM      5  C   UNL     1       1.024   6.630  -0.440  1.00  0.00     0.066 A 
ATOM      6  C   UNL     1       2.381   6.258  -0.400  1.00  0.00     0.200 A 
ATOM      7  O   UNL     1       3.237   7.025   0.125  1.00  0.00    -0.288 OA
ATOM      8  C   UNL     1       0.576   7.842   0.105  1.00  0.00     0.020 A 
ATOM      9  C   UNL     1      -0.772   8.188   0.031  1.00  0.00     0.047 A 
ATOM     10  C   UNL     1      -1.697   7.329  -0.573  1.00  0.00     0.125 A 
ATOM     11  C   UNL     1      -1.277   6.089  -1.106  1.00  0.00     0.069 A 
ENDROOT
BRANCH   1  12
ATOM     12  C   UNL     1       4.195   4.584  -0.945  1.00  0.00    -0.011 A 
ATOM     13  C   UNL     1       5.105   5.022  -1.923  1.00  0.00     0.013 A 
ATOM     14  C   UNL     1       6.438   4.599  -1.890  1.00  0.00     0.047 A 
ATOM     15  C   UNL     1       6.878   3.737  -0.877  1.00  0.00     0.115 A 
ATOM     16  C   UNL     1       4.647   3.726   0.074  1.00  0.00     0.013 A 
ATOM     17  C   UNL     1       5.980   3.304   0.104  1.00  0.00     0.047 A 
BRANCH  15  18
ATOM     18  O   UNL     1       8.202   3.306  -0.835  1.00  0.00    -0.508 OA
ATOM     19  H   UNL     1       8.467   2.376  -1.137  1.00  0.00     0.293 HD
ENDBRANCH  15  18
ENDBRANCH   1  12
BRANCH  11  20
ATOM     20  C   UNL     1      -2.292   5.178  -1.789  1.00  0.00     0.188 C 
ATOM     21  C   UNL     1      -2.357   5.492  -3.302  1.00  0.00     0.179 C 
ATOM     22  O   UNL     1      -1.969   3.816  -1.540  1.00  0.00    -0.362 OA
ATOM     23  C   UNL     1      -3.410   4.595  -3.964  1.00  0.00     0.177 C 
ATOM     24  C   UNL     1      -2.899   2.898  -2.106  1.00  0.00     0.176 C 
ATOM     25  C   UNL     1      -3.116   3.121  -3.627  1.00  0.00     0.177 C 
BRANCH  21  26
ATOM     26  O   UNL     1      -1.106   5.283  -3.910  1.00  0.00    -0.387 OA
ATOM     27  H   UNL     1      -0.675   6.171  -4.005  1.00  0.00     0.211 HD
ENDBRANCH  21  26
BRANCH  23  28
ATOM     28  O   UNL     1      -3.391   4.769  -5.358  1.00  0.00    -0.387 OA
ATOM     29  H   UNL     1      -4.183   5.322  -5.589  1.00  0.00     0.211 HD
ENDBRANCH  23  28
BRANCH  24  30
ATOM     30  C   UNL     1      -4.177   2.738  -1.248  1.00  0.00     0.191 C 
BRANCH  30  31
ATOM     31  O   UNL     1      -5.333   3.161  -1.922  1.00  0.00    -0.394 OA
ATOM     32  H   UNL     1      -5.061   3.447  -2.833  1.00  0.00     0.210 HD
ENDBRANCH  30  31
ENDBRANCH  24  30
BRANCH  25  33
ATOM     33  O   UNL     1      -4.092   2.251  -4.145  1.00  0.00    -0.388 OA
ATOM     34  H   UNL     1      -3.950   2.168  -5.123  1.00  0.00     0.211 HD
ENDBRANCH  25  33
ENDBRANCH  11  20
BRANCH  10  35
ATOM     35  O   UNL     1      -3.037   7.711  -0.646  1.00  0.00    -0.507 OA
ATOM     36  H   UNL     1      -3.722   7.382   0.022  1.00  0.00     0.293 HD
ENDBRANCH  10  35
TORSDOF 9
ENDMDL
MODEL 4
REMARK VINA RESULT:    -3.790      0.919      2.297
REMARK INTER + INTRA:          -5.095
REMARK INTER:                  -5.737
REMARK INTRA:                   0.642
REMARK UNBOUND:                 0.024
REMARK SMILES O=c1c(-c2ccc(O)cc2)coc2c([C@@H]3O[C@@H](CO)[C@@H](O)[C@H](O)[C@@H]3O)c(O)ccc12
REMARK SMILES IDX 3 1 11 2 12 3 13 4 30 5 2 6 1 7 29 8 28 9 26 10 14 11 4 12
REMARK SMILES IDX 5 13 6 14 7 15 10 16 9 17 8 18 15 20 24 21 16 22 22 23 17 24
REMARK SMILES IDX 20 25 25 26 23 28 18 30 19 31 21 33 27 35
REMARK H PARENT 8 19 25 27 23 29 19 32 21 34 27 36
REMARK Flexibility Score: inf
ROOT
ATOM      1  C   UNL     1      -1.731   4.965  -2.091  1.00  0.00     0.065 A 
ATOM      2  C   UNL     1      -1.748   4.665  -3.459  1.00  0.00     0.208 A 
ATOM      3  O   UNL     1      -2.771   4.015  -4.001  1.00  0.00    -0.463 OA
ATOM      4  C   UNL     1      -3.831   3.609  -3.304  1.00  0.00     0.147 A 
ATOM      5  C   UNL     1      -3.903   3.887  -1.918  1.00  0.00     0.066 A 
ATOM      6  C   UNL     1      -2.835   4.574  -1.312  1.00  0.00     0.200 A 
ATOM      7  O   UNL     1      -2.875   4.857  -0.082  1.00  0.00    -0.288 OA
ATOM      8  C   UNL     1      -5.030   3.484  -1.187  1.00  0.00     0.020 A 
ATOM      9  C   UNL     1      -6.079   2.823  -1.824  1.00  0.00     0.047 A 
ATOM     10  C   UNL     1      -6.018   2.539  -3.192  1.00  0.00     0.125 A 
ATOM     11  C   UNL     1      -4.882   2.908  -3.947  1.00  0.00     0.069 A 
ENDROOT
BRANCH   1  12
ATOM     12  C   UNL     1      -0.569   5.679  -1.505  1.00  0.00    -0.011 A 
ATOM     13  C   UNL     1       0.506   4.964  -0.950  1.00  0.00     0.013 A 
ATOM     14  C   UNL     1       1.602   5.641  -0.407  1.00  0.00     0.047 A 
ATOM     15  C   UNL     1       1.639   7.041  -0.416  1.00  0.00     0.115 A 
ATOM     16  C   UNL     1      -0.520   7.084  -1.519  1.00  0.00     0.013 A 
ATOM     17  C   UNL     1       0.577   7.759  -0.974  1.00  0.00     0.047 A 
BRANCH  15  18
ATOM     18  O   UNL     1       2.724   7.727   0.125  1.00  0.00    -0.508 OA
ATOM     19  H   UNL     1       3.466   8.093  -0.460  1.00  0.00     0.293 HD
ENDBRANCH  15  18
ENDBRANCH   1  12
BRANCH  11  20
ATOM     20  C   UNL     1      -4.844   2.620  -5.445  1.00  0.00     0.188 C 
ATOM     21  C   UNL     1      -6.235   2.868  -6.072  1.00  0.00     0.179 C 
ATOM     22  O   UNL     1      -3.831   3.402  -6.066  1.00  0.00    -0.362 OA
ATOM     23  C   UNL     1      -6.187   2.535  -7.568  1.00  0.00     0.177 C 
ATOM     24  C   UNL     1      -3.698   3.155  -7.462  1.00  0.00     0.176 C 
ATOM     25  C   UNL     1      -5.036   3.314  -8.232  1.00  0.00     0.177 C 
BRANCH  21  26
ATOM     26  O   UNL     1      -6.630   4.207  -5.897  1.00  0.00    -0.387 OA
ATOM     27  H   UNL     1      -7.037   4.505  -6.751  1.00  0.00     0.211 HD
ENDBRANCH  21  26
BRANCH  23  28
ATOM     28  O   UNL     1      -7.402   2.880  -8.183  1.00  0.00    -0.387 OA
ATOM     29  H   UNL     1      -7.288   3.795  -8.550  1.00  0.00     0.211 HD
ENDBRANCH  23  28
BRANCH  24  30
ATOM     30  C   UNL     1      -2.879   1.878  -7.767  1.00  0.00     0.191 C 
BRANCH  30  31
ATOM     31  O   UNL     1      -1.540   1.989  -7.362  1.00  0.00    -0.394 OA
ATOM     32  H   UNL     1      -1.296   2.951  -7.395  1.00  0.00     0.210 HD
ENDBRANCH  30  31
ENDBRANCH  24  30
BRANCH  25  33
ATOM     33  O   UNL     1      -4.892   2.994  -9.594  1.00  0.00    -0.388 OA
ATOM     34  H   UNL     1      -5.598   3.468 -10.104  1.00  0.00     0.211 HD
ENDBRANCH  25  33
ENDBRANCH  11  20
BRANCH  10  35
ATOM     35  O   UNL     1      -7.091   1.889  -3.803  1.00  0.00    -0.507 OA
ATOM     36  H   UNL     1      -7.705   2.368  -4.449  1.00  0.00     0.293 HD
ENDBRANCH  10  35
TORSDOF 9
ENDMDL
MODEL 5
REMARK VINA RESULT:    -3.379      2.875      6.000
REMARK INTER + INTRA:          -4.540
REMARK INTER:                  -3.763
REMARK INTRA:                  -0.777
REMARK UNBOUND:                 0.024
REMARK SMILES O=c1c(-c2ccc(O)cc2)coc2c([C@@H]3O[C@@H](CO)[C@@H](O)[C@H](O)[C@@H]3O)c(O)ccc12
REMARK SMILES IDX 3 1 11 2 12 3 13 4 30 5 2 6 1 7 29 8 28 9 26 10 14 11 4 12
REMARK SMILES IDX 5 13 6 14 7 15 10 16 9 17 8 18 15 20 24 21 16 22 22 23 17 24
REMARK SMILES IDX 20 25 25 26 23 28 18 30 19 31 21 33 27 35
REMARK H PARENT 8 19 25 27 23 29 19 32 21 34 27 36
REMARK Flexibility Score: inf
ROOT
ATOM      1  C   UNL     1       3.059   4.536  -0.965  1.00  0.00     0.065 A 
ATOM      2  C   UNL     1       2.145   3.569  -1.402  1.00  0.00     0.208 A 
ATOM      3  O   UNL     1       0.848   3.843  -1.482  1.00  0.00    -0.463 OA
ATOM      4  C   UNL     1       0.331   5.027  -1.160  1.00  0.00     0.147 A 
ATOM      5  C   UNL     1       1.186   6.067  -0.725  1.00  0.00     0.066 A 
ATOM      6  C   UNL     1       2.567   5.810  -0.628  1.00  0.00     0.200 A 
ATOM      7  O   UNL     1       3.362   6.721  -0.263  1.00  0.00    -0.288 OA
ATOM      8  C   UNL     1       0.647   7.324  -0.411  1.00  0.00     0.020 A 
ATOM      9  C   UNL     1      -0.722   7.550  -0.536  1.00  0.00     0.047 A 
ATOM     10  C   UNL     1      -1.578   6.529  -0.961  1.00  0.00     0.125 A 
ATOM     11  C   UNL     1      -1.066   5.246  -1.258  1.00  0.00     0.069 A 
ENDROOT
BRANCH   1  12
ATOM     12  C   UNL     1       4.501   4.200  -0.869  1.00  0.00    -0.011 A 
ATOM     13  C   UNL     1       4.953   3.232   0.045  1.00  0.00     0.013 A 
ATOM     14  C   UNL     1       6.312   2.913   0.125  1.00  0.00     0.047 A 
ATOM     15  C   UNL     1       7.236   3.556  -0.710  1.00  0.00     0.115 A 
ATOM     16  C   UNL     1       5.434   4.834  -1.710  1.00  0.00     0.013 A 
ATOM     17  C   UNL     1       6.793   4.514  -1.627  1.00  0.00     0.047 A 
BRANCH  15  18
ATOM     18  O   UNL     1       8.593   3.249  -0.637  1.00  0.00    -0.508 OA
ATOM     19  H   UNL     1       9.149   3.494   0.174  1.00  0.00     0.293 HD
ENDBRANCH  15  18
ENDBRANCH   1  12
BRANCH  11  20
ATOM     20  C   UNL     1      -2.007   4.152  -1.751  1.00  0.00     0.188 C 
ATOM     21  C   UNL     1      -2.753   3.511  -0.557  1.00  0.00     0.179 C 
ATOM     22  O   UNL     1      -2.904   4.681  -2.720  1.00  0.00    -0.362 OA
ATOM     23  C   UNL     1      -3.664   2.387  -1.069  1.00  0.00     0.177 C 
ATOM     24  C   UNL     1      -3.789   3.709  -3.267  1.00  0.00     0.176 C 
ATOM     25  C   UNL     1      -4.581   2.934  -2.179  1.00  0.00     0.177 C 
BRANCH  21  26
ATOM     26  O   UNL     1      -3.522   4.471   0.125  1.00  0.00    -0.387 OA
ATOM     27  H   UNL     1      -3.298   5.355  -0.267  1.00  0.00     0.211 HD
ENDBRANCH  21  26
BRANCH  23  28
ATOM     28  O   UNL     1      -4.449   1.882  -0.019  1.00  0.00    -0.387 OA
ATOM     29  H   UNL     1      -3.986   2.120   0.826  1.00  0.00     0.211 HD
ENDBRANCH  23  28
BRANCH  24  30
ATOM     30  C   UNL     1      -3.125   2.852  -4.371  1.00  0.00     0.191 C 
BRANCH  30  31
ATOM     31  O   UNL     1      -3.959   2.671  -5.484  1.00  0.00    -0.394 OA
ATOM     32  H   UNL     1      -3.933   1.708  -5.725  1.00  0.00     0.210 HD
ENDBRANCH  30  31
ENDBRANCH  24  30
BRANCH  25  33
ATOM     33  O   UNL     1      -5.391   1.931  -2.742  1.00  0.00    -0.388 OA
ATOM     34  H   UNL     1      -4.966   1.620  -3.582  1.00  0.00     0.211 HD
ENDBRANCH  25  33
ENDBRANCH  11  20
BRANCH  10  35
ATOM     35  O   UNL     1      -2.942   6.792  -1.092  1.00  0.00    -0.507 OA
ATOM     36  H   UNL     1      -3.335   7.696  -0.864  1.00  0.00     0.293 HD
ENDBRANCH  10  35
TORSDOF 9
ENDMDL
MODEL 6
REMARK VINA RESULT:    -3.092      1.638      8.124
REMARK INTER + INTRA:          -4.152
REMARK INTER:                  -4.171
REMARK INTRA:                   0.019
REMARK UNBOUND:                 0.024
REMARK SMILES O=c1c(-c2ccc(O)cc2)coc2c([C@@H]3O[C@@H](CO)[C@@H](O)[C@H](O)[C@@H]3O)c(O)ccc12
REMARK SMILES IDX 3 1 11 2 12 3 13 4 30 5 2 6 1 7 29 8 28 9 26 10 14 11 4 12
REMARK SMILES IDX 5 13 6 14 7 15 10 16 9 17 8 18 15 20 24 21 16 22 22 23 17 24
REMARK SMILES IDX 20 25 25 26 23 28 18 30 19 31 21 33 27 35
REMARK H PARENT 8 19 25 27 23 29 19 32 21 34 27 36
REMARK Flexibility Score: inf
ROOT
ATOM      1  C   UNL     1      -3.760   3.497  -6.208  1.00  0.00     0.065 A 
ATOM      2  C   UNL     1      -2.613   4.212  -5.842  1.00  0.00     0.208 A 
ATOM      3  O   UNL     1      -2.380   4.522  -4.572  1.00  0.00    -0.463 OA
ATOM      4  C   UNL     1      -3.198   4.186  -3.576  1.00  0.00     0.147 A 
ATOM      5  C   UNL     1      -4.372   3.447  -3.856  1.00  0.00     0.066 A 
ATOM      6  C   UNL     1      -4.649   3.102  -5.192  1.00  0.00     0.200 A 
ATOM      7  O   UNL     1      -5.677   2.425  -5.476  1.00  0.00    -0.288 OA
ATOM      8  C   UNL     1      -5.221   3.068  -2.806  1.00  0.00     0.020 A 
ATOM      9  C   UNL     1      -4.906   3.409  -1.492  1.00  0.00     0.047 A 
ATOM     10  C   UNL     1      -3.751   4.143  -1.202  1.00  0.00     0.125 A 
ATOM     11  C   UNL     1      -2.892   4.561  -2.244  1.00  0.00     0.069 A 
ENDROOT
BRANCH   1  12
ATOM     12  C   UNL     1      -4.007   3.176  -7.636  1.00  0.00    -0.011 A 
ATOM     13  C   UNL     1      -3.299   3.841  -8.653  1.00  0.00     0.013 A 
ATOM     14  C   UNL     1      -3.529   3.528  -9.996  1.00  0.00     0.047 A 
ATOM     15  C   UNL     1      -4.467   2.546 -10.340  1.00  0.00     0.115 A 
ATOM     16  C   UNL     1      -4.940   2.185  -7.989  1.00  0.00     0.013 A 
ATOM     17  C   UNL     1      -5.169   1.875  -9.333  1.00  0.00     0.047 A 
BRANCH  15  18
ATOM     18  O   UNL     1      -4.707   2.229 -11.675  1.00  0.00    -0.508 OA
ATOM     19  H   UNL     1      -4.019   1.740 -12.236  1.00  0.00     0.293 HD
ENDBRANCH  15  18
ENDBRANCH   1  12
BRANCH  11  20
ATOM     20  C   UNL     1      -1.619   5.333  -1.910  1.00  0.00     0.188 C 
ATOM     21  C   UNL     1      -1.864   6.854  -2.054  1.00  0.00     0.179 C 
ATOM     22  O   UNL     1      -1.166   4.986  -0.607  1.00  0.00    -0.362 OA
ATOM     23  C   UNL     1      -0.563   7.610  -1.753  1.00  0.00     0.177 C 
ATOM     24  C   UNL     1       0.048   5.631  -0.236  1.00  0.00     0.176 C 
ATOM     25  C   UNL     1      -0.021   7.175  -0.379  1.00  0.00     0.177 C 
BRANCH  21  26
ATOM     26  O   UNL     1      -2.875   7.282  -1.176  1.00  0.00    -0.387 OA
ATOM     27  H   UNL     1      -2.463   7.372  -0.278  1.00  0.00     0.211 HD
ENDBRANCH  21  26
BRANCH  23  28
ATOM     28  O   UNL     1      -0.796   8.995  -1.748  1.00  0.00    -0.387 OA
ATOM     29  H   UNL     1      -0.209   9.382  -1.047  1.00  0.00     0.211 HD
ENDBRANCH  23  28
BRANCH  24  30
ATOM     30  C   UNL     1       1.296   4.942  -0.838  1.00  0.00     0.191 C 
BRANCH  30  31
ATOM     31  O   UNL     1       2.088   5.826  -1.588  1.00  0.00    -0.394 OA
ATOM     32  H   UNL     1       2.463   5.317  -2.353  1.00  0.00     0.210 HD
ENDBRANCH  30  31
ENDBRANCH  24  30
BRANCH  25  33
ATOM     33  O   UNL     1       1.212   7.779  -0.078  1.00  0.00    -0.388 OA
ATOM     34  H   UNL     1       1.562   7.377   0.759  1.00  0.00     0.211 HD
ENDBRANCH  25  33
ENDBRANCH  11  20
BRANCH  10  35
ATOM     35  O   UNL     1      -3.455   4.455   0.124  1.00  0.00    -0.507 OA
ATOM     36  H   UNL     1      -2.700   5.084   0.368  1.00  0.00     0.293 HD
ENDBRANCH  10  35
TORSDOF 9
ENDMDL
MODEL 7
REMARK VINA RESULT:    -2.920      1.933      8.165
REMARK INTER + INTRA:          -3.921
REMARK INTER:                  -3.798
REMARK INTRA:                  -0.123
REMARK UNBOUND:                 0.024
REMARK SMILES O=c1c(-c2ccc(O)cc2)coc2c([C@@H]3O[C@@H](CO)[C@@H](O)[C@H](O)[C@@H]3O)c(O)ccc12
REMARK SMILES IDX 3 1 11 2 12 3 13 4 30 5 2 6 1 7 29 8 28 9 26 10 14 11 4 12
REMARK SMILES IDX 5 13 6 14 7 15 10 16 9 17 8 18 15 20 24 21 16 22 22 23 17 24
REMARK SMILES IDX 20 25 25 26 23 28 18 30 19 31 21 33 27 35
REMARK H PARENT 8 19 25 27 23 29 19 32 21 34 27 36
REMARK Flexibility Score: inf
ROOT
ATOM      1  C   UNL     1      -5.848   3.751  -4.722  1.00  0.00     0.065 A 
ATOM      2  C   UNL     1      -4.763   4.635  -4.764  1.00  0.00     0.208 A 
ATOM      3  O   UNL     1      -3.817   4.598  -3.834  1.00  0.00    -0.463 OA
ATOM      4  C   UNL     1      -3.826   3.739  -2.816  1.00  0.00     0.147 A 
ATOM      5  C   UNL     1      -4.878   2.798  -2.707  1.00  0.00     0.066 A 
ATOM      6  C   UNL     1      -5.898   2.811  -3.677  1.00  0.00     0.200 A 
ATOM      7  O   UNL     1      -6.841   1.972  -3.622  1.00  0.00    -0.288 OA
ATOM      8  C   UNL     1      -4.876   1.875  -1.651  1.00  0.00     0.020 A 
ATOM      9  C   UNL     1      -3.840   1.877  -0.720  1.00  0.00     0.047 A 
ATOM     10  C   UNL     1      -2.797   2.805  -0.814  1.00  0.00     0.125 A 
ATOM     11  C   UNL     1      -2.788   3.764  -1.852  1.00  0.00     0.069 A 
ENDROOT
BRANCH   1  12
ATOM     12  C   UNL     1      -6.902   3.823  -5.765  1.00  0.00    -0.011 A 
ATOM     13  C   UNL     1      -7.794   4.909  -5.809  1.00  0.00     0.013 A 
ATOM     14  C   UNL     1      -8.779   4.976  -6.799  1.00  0.00     0.047 A 
ATOM     15  C   UNL     1      -8.883   3.960  -7.758  1.00  0.00     0.115 A 
ATOM     16  C   UNL     1      -7.007   2.813  -6.737  1.00  0.00     0.013 A 
ATOM     17  C   UNL     1      -7.994   2.882  -7.725  1.00  0.00     0.047 A 
BRANCH  15  18
ATOM     18  O   UNL     1      -9.863   4.015  -8.747  1.00  0.00    -0.508 OA
ATOM     19  H   UNL     1      -9.849   4.725  -9.469  1.00  0.00     0.293 HD
ENDBRANCH  15  18
ENDBRANCH   1  12
BRANCH  11  20
ATOM     20  C   UNL     1      -1.628   4.748  -1.961  1.00  0.00     0.188 C 
ATOM     21  C   UNL     1      -2.164   6.193  -2.092  1.00  0.00     0.179 C 
ATOM     22  O   UNL     1      -0.757   4.601  -0.846  1.00  0.00    -0.362 OA
ATOM     23  C   UNL     1      -0.984   7.163  -2.241  1.00  0.00     0.177 C 
ATOM     24  C   UNL     1       0.381   5.454  -0.896  1.00  0.00     0.176 C 
ATOM     25  C   UNL     1       0.006   6.949  -1.081  1.00  0.00     0.177 C 
BRANCH  21  26
ATOM     26  O   UNL     1      -2.929   6.546  -0.966  1.00  0.00    -0.387 OA
ATOM     27  H   UNL     1      -3.239   7.478  -1.105  1.00  0.00     0.211 HD
ENDBRANCH  21  26
BRANCH  23  28
ATOM     28  O   UNL     1      -1.442   8.491  -2.227  1.00  0.00    -0.387 OA
ATOM     29  H   UNL     1      -0.811   9.006  -1.660  1.00  0.00     0.211 HD
ENDBRANCH  23  28
BRANCH  24  30
ATOM     30  C   UNL     1       1.496   4.908  -1.820  1.00  0.00     0.191 C 
BRANCH  30  31
ATOM     31  O   UNL     1       2.708   5.598  -1.664  1.00  0.00    -0.394 OA
ATOM     32  H   UNL     1       2.959   5.968  -2.551  1.00  0.00     0.210 HD
ENDBRANCH  30  31
ENDBRANCH  24  30
BRANCH  25  33
ATOM     33  O   UNL     1       1.149   7.760  -1.201  1.00  0.00    -0.388 OA
ATOM     34  H   UNL     1       1.839   7.256  -1.706  1.00  0.00     0.211 HD
ENDBRANCH  25  33
ENDBRANCH  11  20
BRANCH  10  35
ATOM     35  O   UNL     1      -1.766   2.771   0.125  1.00  0.00    -0.507 OA
ATOM     36  H   UNL     1      -1.220   3.594   0.346  1.00  0.00     0.293 HD
ENDBRANCH  10  35
TORSDOF 9
ENDMDL
MODEL 8
REMARK VINA RESULT:    -2.895      1.535      2.060
REMARK INTER + INTRA:          -3.886
REMARK INTER:                  -4.109
REMARK INTRA:                   0.223
REMARK UNBOUND:                 0.024
REMARK SMILES O=c1c(-c2ccc(O)cc2)coc2c([C@@H]3O[C@@H](CO)[C@@H](O)[C@H](O)[C@@H]3O)c(O)ccc12
REMARK SMILES IDX 3 1 11 2 12 3 13 4 30 5 2 6 1 7 29 8 28 9 26 10 14 11 4 12
REMARK SMILES IDX 5 13 6 14 7 15 10 16 9 17 8 18 15 20 24 21 16 22 22 23 17 24
REMARK SMILES IDX 20 25 25 26 23 28 18 30 19 31 21 33 27 35
REMARK H PARENT 8 19 25 27 23 29 19 32 21 34 27 36
REMARK Flexibility Score: inf
ROOT
ATOM      1  C   UNL     1      -2.574   4.084  -1.888  1.00  0.00     0.065 A 
ATOM      2  C   UNL     1      -3.117   4.456  -3.125  1.00  0.00     0.208 A 
ATOM      3  O   UNL     1      -4.346   4.089  -3.468  1.00  0.00    -0.463 OA
ATOM      4  C   UNL     1      -5.136   3.359  -2.683  1.00  0.00     0.147 A 
ATOM      5  C   UNL     1      -4.673   2.955  -1.408  1.00  0.00     0.066 A 
ATOM      6  C   UNL     1      -3.374   3.327  -1.014  1.00  0.00     0.200 A 
ATOM      7  O   UNL     1      -2.935   3.001   0.125  1.00  0.00    -0.288 OA
ATOM      8  C   UNL     1      -5.513   2.209  -0.569  1.00  0.00     0.020 A 
ATOM      9  C   UNL     1      -6.801   1.875  -0.983  1.00  0.00     0.047 A 
ATOM     10  C   UNL     1      -7.269   2.265  -2.243  1.00  0.00     0.125 A 
ATOM     11  C   UNL     1      -6.434   2.994  -3.120  1.00  0.00     0.069 A 
ENDROOT
BRANCH   1  12
ATOM     12  C   UNL     1      -1.192   4.493  -1.534  1.00  0.00    -0.011 A 
ATOM     13  C   UNL     1      -0.841   5.853  -1.468  1.00  0.00     0.013 A 
ATOM     14  C   UNL     1       0.461   6.232  -1.126  1.00  0.00     0.047 A 
ATOM     15  C   UNL     1       1.426   5.257  -0.842  1.00  0.00     0.115 A 
ATOM     16  C   UNL     1      -0.220   3.521  -1.239  1.00  0.00     0.013 A 
ATOM     17  C   UNL     1       1.082   3.903  -0.897  1.00  0.00     0.047 A 
BRANCH  15  18
ATOM     18  O   UNL     1       2.727   5.623  -0.503  1.00  0.00    -0.508 OA
ATOM     19  H   UNL     1       3.409   4.937  -0.202  1.00  0.00     0.293 HD
ENDBRANCH  15  18
ENDBRANCH   1  12
BRANCH  11  20
ATOM     20  C   UNL     1      -6.969   3.439  -4.477  1.00  0.00     0.188 C 
ATOM     21  C   UNL     1      -5.889   3.246  -5.567  1.00  0.00     0.179 C 
ATOM     22  O   UNL     1      -8.168   2.738  -4.782  1.00  0.00    -0.362 OA
ATOM     23  C   UNL     1      -6.432   3.736  -6.915  1.00  0.00     0.177 C 
ATOM     24  C   UNL     1      -8.759   3.132  -6.016  1.00  0.00     0.176 C 
ATOM     25  C   UNL     1      -7.775   3.043  -7.212  1.00  0.00     0.177 C 
BRANCH  21  26
ATOM     26  O   UNL     1      -5.519   1.892  -5.668  1.00  0.00    -0.387 OA
ATOM     27  H   UNL     1      -4.613   1.807  -5.273  1.00  0.00     0.211 HD
ENDBRANCH  21  26
BRANCH  23  28
ATOM     28  O   UNL     1      -5.518   3.447  -7.942  1.00  0.00    -0.387 OA
ATOM     29  H   UNL     1      -5.465   2.458  -8.008  1.00  0.00     0.211 HD
ENDBRANCH  23  28
BRANCH  24  30
ATOM     30  C   UNL     1      -9.574   4.442  -5.895  1.00  0.00     0.191 C 
BRANCH  30  31
ATOM     31  O   UNL     1      -8.893   5.548  -6.424  1.00  0.00    -0.394 OA
ATOM     32  H   UNL     1      -7.986   5.563  -6.022  1.00  0.00     0.210 HD
ENDBRANCH  30  31
ENDBRANCH  24  30
BRANCH  25  33
ATOM     33  O   UNL     1      -8.361   3.507  -8.403  1.00  0.00    -0.388 OA
ATOM     34  H   UNL     1      -7.651   3.908  -8.967  1.00  0.00     0.211 HD
ENDBRANCH  25  33
ENDBRANCH  11  20
BRANCH  10  35
ATOM     35  O   UNL     1      -8.568   1.929  -2.622  1.00  0.00    -0.507 OA
ATOM     36  H   UNL     1      -8.979   2.275  -3.480  1.00  0.00     0.293 HD
ENDBRANCH  10  35
TORSDOF 9
ENDMDL
MODEL 9
REMARK VINA RESULT:    -2.561      2.473      8.572
REMARK INTER + INTRA:          -3.436
REMARK INTER:                  -3.247
REMARK INTRA:                  -0.189
REMARK UNBOUND:                 0.024
REMARK SMILES O=c1c(-c2ccc(O)cc2)coc2c([C@@H]3O[C@@H](CO)[C@@H](O)[C@H](O)[C@@H]3O)c(O)ccc12
REMARK SMILES IDX 3 1 11 2 12 3 13 4 30 5 2 6 1 7 29 8 28 9 26 10 14 11 4 12
REMARK SMILES IDX 5 13 6 14 7 15 10 16 9 17 8 18 15 20 24 21 16 22 22 23 17 24
REMARK SMILES IDX 20 25 25 26 23 28 18 30 19 31 21 33 27 35
REMARK H PARENT 8 19 25 27 23 29 19 32 21 34 27 36
REMARK Flexibility Score: inf
ROOT
ATOM      1  C   UNL     1      -2.644   3.976  -5.332  1.00  0.00     0.065 A 
ATOM      2  C   UNL     1      -1.322   3.650  -5.003  1.00  0.00     0.208 A 
ATOM      3  O   UNL     1      -0.749   4.147  -3.914  1.00  0.00    -0.463 OA
ATOM      4  C   UNL     1      -1.370   4.972  -3.073  1.00  0.00     0.147 A 
ATOM      5  C   UNL     1      -2.714   5.340  -3.321  1.00  0.00     0.066 A 
ATOM      6  C   UNL     1      -3.352   4.831  -4.468  1.00  0.00     0.200 A 
ATOM      7  O   UNL     1      -4.557   5.121  -4.710  1.00  0.00    -0.288 OA
ATOM      8  C   UNL     1      -3.379   6.187  -2.423  1.00  0.00     0.020 A 
ATOM      9  C   UNL     1      -2.724   6.657  -1.287  1.00  0.00     0.047 A 
ATOM     10  C   UNL     1      -1.394   6.305  -1.033  1.00  0.00     0.125 A 
ATOM     11  C   UNL     1      -0.691   5.475  -1.935  1.00  0.00     0.069 A 
ENDROOT
BRANCH   1  12
ATOM     12  C   UNL     1      -3.258   3.420  -6.564  1.00  0.00    -0.011 A 
ATOM     13  C   UNL     1      -4.242   2.419  -6.486  1.00  0.00     0.013 A 
ATOM     14  C   UNL     1      -4.824   1.905  -7.649  1.00  0.00     0.047 A 
ATOM     15  C   UNL     1      -4.431   2.388  -8.905  1.00  0.00     0.115 A 
ATOM     16  C   UNL     1      -2.877   3.906  -7.827  1.00  0.00     0.013 A 
ATOM     17  C   UNL     1      -3.459   3.390  -8.989  1.00  0.00     0.047 A 
BRANCH  15  18
ATOM     18  O   UNL     1      -5.001   1.882 -10.070  1.00  0.00    -0.508 OA
ATOM     19  H   UNL     1      -5.464   0.981 -10.086  1.00  0.00     0.293 HD
ENDBRANCH  15  18
ENDBRANCH   1  12
BRANCH  11  20
ATOM     20  C   UNL     1       0.748   5.073  -1.628  1.00  0.00     0.188 C 
ATOM     21  C   UNL     1       1.691   6.285  -1.810  1.00  0.00     0.179 C 
ATOM     22  O   UNL     1       0.831   4.522  -0.320  1.00  0.00    -0.362 OA
ATOM     23  C   UNL     1       3.137   5.852  -1.536  1.00  0.00     0.177 C 
ATOM     24  C   UNL     1       2.138   4.077   0.028  1.00  0.00     0.176 C 
ATOM     25  C   UNL     1       3.218   5.177  -0.154  1.00  0.00     0.177 C 
BRANCH  21  26
ATOM     26  O   UNL     1       1.335   7.329  -0.937  1.00  0.00    -0.387 OA
ATOM     27  H   UNL     1       2.142   7.892  -0.812  1.00  0.00     0.211 HD
ENDBRANCH  21  26
BRANCH  23  28
ATOM     28  O   UNL     1       3.992   6.966  -1.564  1.00  0.00    -0.387 OA
ATOM     29  H   UNL     1       4.093   7.274  -0.626  1.00  0.00     0.211 HD
ENDBRANCH  23  28
BRANCH  24  30
ATOM     30  C   UNL     1       2.471   2.686  -0.563  1.00  0.00     0.191 C 
BRANCH  30  31
ATOM     31  O   UNL     1       3.336   2.764  -1.666  1.00  0.00    -0.394 OA
ATOM     32  H   UNL     1       3.822   1.901  -1.727  1.00  0.00     0.210 HD
ENDBRANCH  30  31
ENDBRANCH  24  30
BRANCH  25  33
ATOM     33  O   UNL     1       4.508   4.689   0.125  1.00  0.00    -0.388 OA
ATOM     34  H   UNL     1       5.169   5.370  -0.164  1.00  0.00     0.211 HD
ENDBRANCH  25  33
ENDBRANCH  11  20
BRANCH  10  35
ATOM     35  O   UNL     1      -0.771   6.779   0.122  1.00  0.00    -0.507 OA
ATOM     36  H   UNL     1      -0.764   6.245   0.981  1.00  0.00     0.293 HD
ENDBRANCH  10  35
TORSDOF 9
ENDMDL
