MODEL 1
REMARK VINA RESULT:    -5.342      0.000      0.000
REMARK INTER + INTRA:         -11.251
REMARK INTER:                  -9.090
REMARK INTRA:                  -2.161
REMARK UNBOUND:                -2.161
REMARK SMILES CCCCCCCCCCCCCC(=O)[O-]
REMARK SMILES IDX 8 1 9 2 10 3 11 4 12 5 13 6 14 7 15 8 16 9 7 10 6 11 5 12
REMARK SMILES IDX 4 13 3 14 2 15 1 16
REMARK H PARENT
REMARK Flexibility Score: inf
ROOT
ATOM      1  C   UNL     1       7.918  22.446  42.186  1.00  0.00     0.000 C 
ENDROOT
BRANCH   1   2
ATOM      2  C   UNL     1       6.482  21.921  42.027  1.00  0.00     0.000 C 
BRANCH   2   3
ATOM      3  C   UNL     1       6.329  20.467  42.506  1.00  0.00     0.000 C 
BRANCH   3   4
ATOM      4  C   UNL     1       5.771  20.372  43.935  1.00  0.00     0.000 C 
BRANCH   4   5
ATOM      5  C   UNL     1       4.443  21.124  44.107  1.00  0.00     0.006 C 
BRANCH   5   6
ATOM      6  C   UNL     1       4.534  22.146  45.244  1.00  0.00     0.053 C 
BRANCH   6   7
ATOM      7  C   UNL     1       4.062  23.488  44.783  1.00  0.00     0.041 C 
ATOM      8  O   UNL     1       3.319  23.585  43.772  1.00  0.00    -0.550 OA
ATOM      9  O   UNL     1       4.484  24.637  45.441  1.00  0.00    -0.550 OA
ENDBRANCH   6   7
ENDBRANCH   5   6
ENDBRANCH   4   5
ENDBRANCH   3   4
ENDBRANCH   2   3
ENDBRANCH   1   2
BRANCH   1  10
ATOM     10  C   UNL     1       7.969  23.948  42.509  1.00  0.00     0.000 C 
BRANCH  10  11
ATOM     11  C   UNL     1       7.681  24.200  43.994  1.00  0.00    -0.000 C 
BRANCH  11  12
ATOM     12  C   UNL     1       8.721  23.501  44.882  1.00  0.00    -0.000 C 
BRANCH  12  13
ATOM     13  C   UNL     1       8.083  22.591  45.947  1.00  0.00    -0.000 C 
BRANCH  13  14
ATOM     14  C   UNL     1       8.569  21.129  45.933  1.00  0.00    -0.000 C 
BRANCH  14  15
ATOM     15  C   UNL     1       9.811  20.864  45.063  1.00  0.00    -0.003 C 
ATOM     16  C   UNL     1       9.596  19.748  44.043  1.00  0.00     0.004 C 
ENDBRANCH  14  15
ENDBRANCH  13  14
ENDBRANCH  12  13
ENDBRANCH  11  12
ENDBRANCH  10  11
ENDBRANCH   1  10
TORSDOF 12
ENDMDL
MODEL 2
REMARK VINA RESULT:    -5.342      2.952      5.237
REMARK INTER + INTRA:         -11.250
REMARK INTER:                  -9.001
REMARK INTRA:                  -2.249
REMARK UNBOUND:                -2.161
REMARK SMILES CCCCCCCCCCCCCC(=O)[O-]
REMARK SMILES IDX 8 1 9 2 10 3 11 4 12 5 13 6 14 7 15 8 16 9 7 10 6 11 5 12
REMARK SMILES IDX 4 13 3 14 2 15 1 16
REMARK H PARENT
REMARK Flexibility Score: inf
ROOT
ATOM      1  C   UNL     1       7.377  24.038  42.599  1.00  0.00     0.000 C 
ENDROOT
BRANCH   1   2
ATOM      2  C   UNL     1       7.585  24.271  44.104  1.00  0.00     0.000 C 
BRANCH   2   3
ATOM      3  C   UNL     1       8.677  23.365  44.696  1.00  0.00     0.000 C 
BRANCH   3   4
ATOM      4  C   UNL     1       8.209  22.625  45.960  1.00  0.00     0.000 C 
BRANCH   4   5
ATOM      5  C   UNL     1       8.569  21.131  45.942  1.00  0.00     0.006 C 
BRANCH   5   6
ATOM      6  C   UNL     1       9.807  20.877  45.076  1.00  0.00     0.053 C 
BRANCH   6   7
ATOM      7  C   UNL     1      10.098  19.412  44.993  1.00  0.00     0.041 C 
ATOM      8  O   UNL     1      10.936  18.887  45.771  1.00  0.00    -0.550 OA
ATOM      9  O   UNL     1       9.479  18.635  44.021  1.00  0.00    -0.550 OA
ENDBRANCH   6   7
ENDBRANCH   5   6
ENDBRANCH   4   5
ENDBRANCH   3   4
ENDBRANCH   2   3
ENDBRANCH   1   2
BRANCH   1  10
ATOM     10  C   UNL     1       7.758  22.616  42.159  1.00  0.00     0.000 C 
BRANCH  10  11
ATOM     11  C   UNL     1       6.511  21.736  42.003  1.00  0.00    -0.000 C 
BRANCH  11  12
ATOM     12  C   UNL     1       6.688  20.397  42.732  1.00  0.00    -0.000 C 
BRANCH  12  13
ATOM     13  C   UNL     1       5.784  20.266  43.970  1.00  0.00    -0.000 C 
BRANCH  13  14
ATOM     14  C   UNL     1       4.594  21.245  44.018  1.00  0.00    -0.000 C 
BRANCH  14  15
ATOM     15  C   UNL     1       4.619  22.241  45.191  1.00  0.00    -0.003 C 
ATOM     16  C   UNL     1       4.046  23.608  44.824  1.00  0.00     0.004 C 
ENDBRANCH  14  15
ENDBRANCH  13  14
ENDBRANCH  12  13
ENDBRANCH  11  12
ENDBRANCH  10  11
ENDBRANCH   1  10
TORSDOF 12
ENDMDL
MODEL 3
REMARK VINA RESULT:    -5.317      1.427      3.719
REMARK INTER + INTRA:         -11.208
REMARK INTER:                  -8.981
REMARK INTRA:                  -2.227
REMARK UNBOUND:                -2.161
REMARK SMILES CCCCCCCCCCCCCC(=O)[O-]
REMARK SMILES IDX 8 1 9 2 10 3 11 4 12 5 13 6 14 7 15 8 16 9 7 10 6 11 5 12
REMARK SMILES IDX 4 13 3 14 2 15 1 16
REMARK H PARENT
REMARK Flexibility Score: inf
ROOT
ATOM      1  C   UNL     1       5.955  21.565  46.316  1.00  0.00     0.000 C 
ENDROOT
BRANCH   1   2
ATOM      2  C   UNL     1       6.602  22.947  46.499  1.00  0.00     0.000 C 
BRANCH   2   3
ATOM      3  C   UNL     1       8.105  22.944  46.174  1.00  0.00     0.000 C 
BRANCH   3   4
ATOM      4  C   UNL     1       8.393  23.322  44.711  1.00  0.00     0.000 C 
BRANCH   4   5
ATOM      5  C   UNL     1       7.508  24.473  44.209  1.00  0.00     0.006 C 
BRANCH   5   6
ATOM      6  C   UNL     1       6.783  24.084  42.918  1.00  0.00     0.053 C 
BRANCH   6   7
ATOM      7  C   UNL     1       5.384  24.613  42.921  1.00  0.00     0.041 C 
ATOM      8  O   UNL     1       4.468  23.984  42.330  1.00  0.00    -0.550 OA
ATOM      9  O   UNL     1       5.102  25.828  43.534  1.00  0.00    -0.550 OA
ENDBRANCH   6   7
ENDBRANCH   5   6
ENDBRANCH   4   5
ENDBRANCH   3   4
ENDBRANCH   2   3
ENDBRANCH   1   2
BRANCH   1  10
ATOM     10  C   UNL     1       4.727  21.601  45.393  1.00  0.00     0.000 C 
BRANCH  10  11
ATOM     11  C   UNL     1       5.007  20.863  44.077  1.00  0.00    -0.000 C 
BRANCH  11  12
ATOM     12  C   UNL     1       6.275  20.005  44.187  1.00  0.00    -0.000 C 
BRANCH  12  13
ATOM     13  C   UNL     1       7.278  20.273  43.051  1.00  0.00    -0.000 C 
BRANCH  13  14
ATOM     14  C   UNL     1       8.750  19.969  43.394  1.00  0.00    -0.000 C 
BRANCH  14  15
ATOM     15  C   UNL     1       8.978  19.334  44.778  1.00  0.00    -0.003 C 
ATOM     16  C   UNL     1      10.140  19.968  45.539  1.00  0.00     0.004 C 
ENDBRANCH  14  15
ENDBRANCH  13  14
ENDBRANCH  12  13
ENDBRANCH  11  12
ENDBRANCH  10  11
ENDBRANCH   1  10
TORSDOF 12
ENDMDL
MODEL 4
REMARK VINA RESULT:    -5.290      2.859      4.711
REMARK INTER + INTRA:         -11.162
REMARK INTER:                  -8.883
REMARK INTRA:                  -2.279
REMARK UNBOUND:                -2.161
REMARK SMILES CCCCCCCCCCCCCC(=O)[O-]
REMARK SMILES IDX 8 1 9 2 10 3 11 4 12 5 13 6 14 7 15 8 16 9 7 10 6 11 5 12
REMARK SMILES IDX 4 13 3 14 2 15 1 16
REMARK H PARENT
REMARK Flexibility Score: inf
ROOT
ATOM      1  C   UNL     1       4.757  21.450  45.798  1.00  0.00     0.000 C 
ENDROOT
BRANCH   1   2
ATOM      2  C   UNL     1       4.925  21.139  44.302  1.00  0.00     0.000 C 
BRANCH   2   3
ATOM      3  C   UNL     1       6.001  20.071  44.039  1.00  0.00     0.000 C 
BRANCH   3   4
ATOM      4  C   UNL     1       7.033  20.519  42.991  1.00  0.00     0.000 C 
BRANCH   4   5
ATOM      5  C   UNL     1       8.460  20.062  43.329  1.00  0.00     0.006 C 
BRANCH   5   6
ATOM      6  C   UNL     1       8.465  19.141  44.554  1.00  0.00     0.053 C 
BRANCH   6   7
ATOM      7  C   UNL     1       9.285  19.735  45.654  1.00  0.00     0.041 C 
ATOM      8  O   UNL     1       8.970  19.539  46.857  1.00  0.00    -0.550 OA
ATOM      9  O   UNL     1      10.370  20.549  45.351  1.00  0.00    -0.550 OA
ENDBRANCH   6   7
ENDBRANCH   5   6
ENDBRANCH   4   5
ENDBRANCH   3   4
ENDBRANCH   2   3
ENDBRANCH   1   2
BRANCH   1  10
ATOM     10  C   UNL     1       6.101  21.615  46.526  1.00  0.00     0.000 C 
BRANCH  10  11
ATOM     11  C   UNL     1       6.545  23.083  46.531  1.00  0.00    -0.000 C 
BRANCH  11  12
ATOM     12  C   UNL     1       8.054  23.202  46.268  1.00  0.00    -0.000 C 
BRANCH  12  13
ATOM     13  C   UNL     1       8.387  23.403  44.779  1.00  0.00    -0.000 C 
BRANCH  13  14
ATOM     14  C   UNL     1       7.685  24.600  44.108  1.00  0.00    -0.000 C 
BRANCH  14  15
ATOM     15  C   UNL     1       6.747  24.233  42.943  1.00  0.00    -0.003 C 
ATOM     16  C   UNL     1       5.308  24.692  43.170  1.00  0.00     0.004 C 
ENDBRANCH  14  15
ENDBRANCH  13  14
ENDBRANCH  12  13
ENDBRANCH  11  12
ENDBRANCH  10  11
ENDBRANCH   1  10
TORSDOF 12
ENDMDL
MODEL 5
REMARK VINA RESULT:    -5.255      2.760      4.231
REMARK INTER + INTRA:         -11.103
REMARK INTER:                  -8.852
REMARK INTRA:                  -2.251
REMARK UNBOUND:                -2.161
REMARK SMILES CCCCCCCCCCCCCC(=O)[O-]
REMARK SMILES IDX 8 1 9 2 10 3 11 4 12 5 13 6 14 7 15 8 16 9 7 10 6 11 5 12
REMARK SMILES IDX 4 13 3 14 2 15 1 16
REMARK H PARENT
REMARK Flexibility Score: inf
ROOT
ATOM      1  C   UNL     1       7.599  24.203  42.678  1.00  0.00     0.000 C 
ENDROOT
BRANCH   1   2
ATOM      2  C   UNL     1       7.690  22.739  42.217  1.00  0.00     0.000 C 
BRANCH   2   3
ATOM      3  C   UNL     1       6.318  22.153  41.843  1.00  0.00     0.000 C 
BRANCH   3   4
ATOM      4  C   UNL     1       6.079  20.767  42.466  1.00  0.00     0.000 C 
BRANCH   4   5
ATOM      5  C   UNL     1       7.376  20.101  42.949  1.00  0.00     0.006 C 
BRANCH   5   6
ATOM      6  C   UNL     1       7.225  19.582  44.383  1.00  0.00     0.053 C 
BRANCH   6   7
ATOM      7  C   UNL     1       8.564  19.276  44.975  1.00  0.00     0.041 C 
ATOM      8  O   UNL     1       9.390  18.570  44.340  1.00  0.00    -0.550 OA
ATOM      9  O   UNL     1       8.880  19.729  46.249  1.00  0.00    -0.550 OA
ENDBRANCH   6   7
ENDBRANCH   5   6
ENDBRANCH   4   5
ENDBRANCH   3   4
ENDBRANCH   2   3
ENDBRANCH   1   2
BRANCH   1  10
ATOM     10  C   UNL     1       8.253  24.436  44.049  1.00  0.00     0.000 C 
BRANCH  10  11
ATOM     11  C   UNL     1       8.386  23.119  44.825  1.00  0.00    -0.000 C 
BRANCH  11  12
ATOM     12  C   UNL     1       8.037  23.317  46.307  1.00  0.00    -0.000 C 
BRANCH  12  13
ATOM     13  C   UNL     1       6.534  23.554  46.541  1.00  0.00    -0.000 C 
BRANCH  13  14
ATOM     14  C   UNL     1       5.600  22.503  45.909  1.00  0.00    -0.000 C 
BRANCH  14  15
ATOM     15  C   UNL     1       4.572  23.064  44.910  1.00  0.00    -0.003 C 
ATOM     16  C   UNL     1       4.432  24.583  44.990  1.00  0.00     0.004 C 
ENDBRANCH  14  15
ENDBRANCH  13  14
ENDBRANCH  12  13
ENDBRANCH  11  12
ENDBRANCH  10  11
ENDBRANCH   1  10
TORSDOF 12
ENDMDL
MODEL 6
REMARK VINA RESULT:    -5.245      2.746      5.120
REMARK INTER + INTRA:         -11.086
REMARK INTER:                  -8.874
REMARK INTRA:                  -2.211
REMARK UNBOUND:                -2.161
REMARK SMILES CCCCCCCCCCCCCC(=O)[O-]
REMARK SMILES IDX 8 1 9 2 10 3 11 4 12 5 13 6 14 7 15 8 16 9 7 10 6 11 5 12
REMARK SMILES IDX 4 13 3 14 2 15 1 16
REMARK H PARENT
REMARK Flexibility Score: inf
ROOT
ATOM      1  C   UNL     1       4.482  21.374  44.052  1.00  0.00     0.000 C 
ENDROOT
BRANCH   1   2
ATOM      2  C   UNL     1       4.677  21.772  45.523  1.00  0.00     0.000 C 
BRANCH   2   3
ATOM      3  C   UNL     1       5.988  21.225  46.114  1.00  0.00     0.000 C 
BRANCH   3   4
ATOM      4  C   UNL     1       7.054  22.318  46.299  1.00  0.00     0.000 C 
BRANCH   4   5
ATOM      5  C   UNL     1       8.354  22.016  45.538  1.00  0.00     0.006 C 
BRANCH   5   6
ATOM      6  C   UNL     1       8.824  20.583  45.806  1.00  0.00     0.053 C 
BRANCH   6   7
ATOM      7  C   UNL     1       8.970  19.830  44.522  1.00  0.00     0.041 C 
ATOM      8  O   UNL     1       8.490  18.671  44.409  1.00  0.00    -0.550 OA
ATOM      9  O   UNL     1       9.679  20.387  43.465  1.00  0.00    -0.550 OA
ENDBRANCH   6   7
ENDBRANCH   5   6
ENDBRANCH   4   5
ENDBRANCH   3   4
ENDBRANCH   2   3
ENDBRANCH   1   2
BRANCH   1  10
ATOM     10  C   UNL     1       5.273  20.114  43.667  1.00  0.00     0.000 C 
BRANCH  10  11
ATOM     11  C   UNL     1       6.117  20.358  42.410  1.00  0.00    -0.000 C 
BRANCH  11  12
ATOM     12  C   UNL     1       5.945  21.797  41.903  1.00  0.00    -0.000 C 
BRANCH  12  13
ATOM     13  C   UNL     1       7.201  22.661  42.116  1.00  0.00    -0.000 C 
BRANCH  13  14
ATOM     14  C   UNL     1       6.963  23.987  42.864  1.00  0.00    -0.000 C 
BRANCH  14  15
ATOM     15  C   UNL     1       5.516  24.509  42.820  1.00  0.00    -0.003 C 
ATOM     16  C   UNL     1       5.127  25.292  44.072  1.00  0.00     0.004 C 
ENDBRANCH  14  15
ENDBRANCH  13  14
ENDBRANCH  12  13
ENDBRANCH  11  12
ENDBRANCH  10  11
ENDBRANCH   1  10
TORSDOF 12
ENDMDL
MODEL 7
REMARK VINA RESULT:    -5.213      1.323      2.544
REMARK INTER + INTRA:         -11.030
REMARK INTER:                  -8.799
REMARK INTRA:                  -2.231
REMARK UNBOUND:                -2.161
REMARK SMILES CCCCCCCCCCCCCC(=O)[O-]
REMARK SMILES IDX 8 1 9 2 10 3 11 4 12 5 13 6 14 7 15 8 16 9 7 10 6 11 5 12
REMARK SMILES IDX 4 13 3 14 2 15 1 16
REMARK H PARENT
REMARK Flexibility Score: inf
ROOT
ATOM      1  C   UNL     1       6.319  20.424  42.722  1.00  0.00     0.000 C 
ENDROOT
BRANCH   1   2
ATOM      2  C   UNL     1       5.411  20.436  43.962  1.00  0.00     0.000 C 
BRANCH   2   3
ATOM      3  C   UNL     1       4.444  21.632  43.974  1.00  0.00     0.000 C 
BRANCH   3   4
ATOM      4  C   UNL     1       4.571  22.481  45.249  1.00  0.00     0.000 C 
BRANCH   4   5
ATOM      5  C   UNL     1       4.027  23.907  45.071  1.00  0.00     0.006 C 
BRANCH   5   6
ATOM      6  C   UNL     1       3.647  24.170  43.610  1.00  0.00     0.053 C 
BRANCH   6   7
ATOM      7  C   UNL     1       3.862  25.608  43.262  1.00  0.00     0.041 C 
ATOM      8  O   UNL     1       2.899  26.315  42.865  1.00  0.00    -0.550 OA
ATOM      9  O   UNL     1       5.137  26.156  43.327  1.00  0.00    -0.550 OA
ENDBRANCH   6   7
ENDBRANCH   5   6
ENDBRANCH   4   5
ENDBRANCH   3   4
ENDBRANCH   2   3
ENDBRANCH   1   2
BRANCH   1  10
ATOM     10  C   UNL     1       6.346  21.777  41.992  1.00  0.00     0.000 C 
BRANCH  10  11
ATOM     11  C   UNL     1       7.720  22.445  42.126  1.00  0.00    -0.000 C 
BRANCH  11  12
ATOM     12  C   UNL     1       7.600  23.821  42.798  1.00  0.00    -0.000 C 
BRANCH  12  13
ATOM     13  C   UNL     1       7.891  23.776  44.309  1.00  0.00    -0.000 C 
BRANCH  13  14
ATOM     14  C   UNL     1       8.804  22.620  44.765  1.00  0.00    -0.000 C 
BRANCH  14  15
ATOM     15  C   UNL     1       8.219  21.730  45.876  1.00  0.00    -0.003 C 
ATOM     16  C   UNL     1       8.798  20.316  45.872  1.00  0.00     0.004 C 
ENDBRANCH  14  15
ENDBRANCH  13  14
ENDBRANCH  12  13
ENDBRANCH  11  12
ENDBRANCH  10  11
ENDBRANCH   1  10
TORSDOF 12
ENDMDL
MODEL 8
REMARK VINA RESULT:    -5.146      2.533      5.013
REMARK INTER + INTRA:         -10.917
REMARK INTER:                  -8.769
REMARK INTRA:                  -2.148
REMARK UNBOUND:                -2.161
REMARK SMILES CCCCCCCCCCCCCC(=O)[O-]
REMARK SMILES IDX 8 1 9 2 10 3 11 4 12 5 13 6 14 7 15 8 16 9 7 10 6 11 5 12
REMARK SMILES IDX 4 13 3 14 2 15 1 16
REMARK H PARENT
REMARK Flexibility Score: inf
ROOT
ATOM      1  C   UNL     1       6.530  20.930  42.516  1.00  0.00     0.000 C 
ENDROOT
BRANCH   1   2
ATOM      2  C   UNL     1       6.905  22.242  41.808  1.00  0.00     0.000 C 
BRANCH   2   3
ATOM      3  C   UNL     1       8.096  22.952  42.473  1.00  0.00     0.000 C 
BRANCH   3   4
ATOM      4  C   UNL     1       7.726  23.590  43.822  1.00  0.00     0.000 C 
BRANCH   4   5
ATOM      5  C   UNL     1       8.809  23.387  44.893  1.00  0.00     0.006 C 
BRANCH   5   6
ATOM      6  C   UNL     1       8.361  22.359  45.936  1.00  0.00     0.053 C 
BRANCH   6   7
ATOM      7  C   UNL     1       9.038  21.046  45.704  1.00  0.00     0.041 C 
ATOM      8  O   UNL     1      10.100  20.991  45.030  1.00  0.00    -0.550 OA
ATOM      9  O   UNL     1       8.469  19.875  46.188  1.00  0.00    -0.550 OA
ENDBRANCH   6   7
ENDBRANCH   5   6
ENDBRANCH   4   5
ENDBRANCH   3   4
ENDBRANCH   2   3
ENDBRANCH   1   2
BRANCH   1  10
ATOM     10  C   UNL     1       5.155  20.994  43.199  1.00  0.00     0.000 C 
BRANCH  10  11
ATOM     11  C   UNL     1       5.286  20.810  44.716  1.00  0.00    -0.000 C 
BRANCH  11  12
ATOM     12  C   UNL     1       4.691  22.009  45.468  1.00  0.00    -0.000 C 
BRANCH  12  13
ATOM     13  C   UNL     1       3.993  23.015  44.535  1.00  0.00    -0.000 C 
BRANCH  13  14
ATOM     14  C   UNL     1       4.234  24.499  44.874  1.00  0.00    -0.000 C 
BRANCH  14  15
ATOM     15  C   UNL     1       4.733  25.361  43.701  1.00  0.00    -0.003 C 
ATOM     16  C   UNL     1       4.269  24.842  42.342  1.00  0.00     0.004 C 
ENDBRANCH  14  15
ENDBRANCH  13  14
ENDBRANCH  12  13
ENDBRANCH  11  12
ENDBRANCH  10  11
ENDBRANCH   1  10
TORSDOF 12
ENDMDL
MODEL 9
REMARK VINA RESULT:    -5.136      1.270      2.803
REMARK INTER + INTRA:         -10.901
REMARK INTER:                  -8.751
REMARK INTRA:                  -2.150
REMARK UNBOUND:                -2.161
REMARK SMILES CCCCCCCCCCCCCC(=O)[O-]
REMARK SMILES IDX 8 1 9 2 10 3 11 4 12 5 13 6 14 7 15 8 16 9 7 10 6 11 5 12
REMARK SMILES IDX 4 13 3 14 2 15 1 16
REMARK H PARENT
REMARK Flexibility Score: inf
ROOT
ATOM      1  C   UNL     1       5.573  20.095  43.674  1.00  0.00     0.000 C 
ENDROOT
BRANCH   1   2
ATOM      2  C   UNL     1       6.132  20.692  42.373  1.00  0.00     0.000 C 
BRANCH   2   3
ATOM      3  C   UNL     1       5.600  22.109  42.097  1.00  0.00     0.000 C 
BRANCH   3   4
ATOM      4  C   UNL     1       6.626  23.201  42.443  1.00  0.00     0.000 C 
BRANCH   4   5
ATOM      5  C   UNL     1       5.982  24.438  43.089  1.00  0.00     0.006 C 
BRANCH   5   6
ATOM      6  C   UNL     1       4.464  24.435  42.884  1.00  0.00     0.053 C 
BRANCH   6   7
ATOM      7  C   UNL     1       3.762  24.787  44.157  1.00  0.00     0.041 C 
ATOM      8  O   UNL     1       2.532  25.058  44.149  1.00  0.00    -0.550 OA
ATOM      9  O   UNL     1       4.476  24.866  45.346  1.00  0.00    -0.550 OA
ENDBRANCH   6   7
ENDBRANCH   5   6
ENDBRANCH   4   5
ENDBRANCH   3   4
ENDBRANCH   2   3
ENDBRANCH   1   2
BRANCH   1  10
ATOM     10  C   UNL     1       4.473  20.964  44.303  1.00  0.00     0.000 C 
BRANCH  10  11
ATOM     11  C   UNL     1       4.801  21.292  45.765  1.00  0.00    -0.000 C 
BRANCH  11  12
ATOM     12  C   UNL     1       6.308  21.160  46.033  1.00  0.00    -0.000 C 
BRANCH  12  13
ATOM     13  C   UNL     1       6.970  22.500  46.401  1.00  0.00    -0.000 C 
BRANCH  13  14
ATOM     14  C   UNL     1       8.316  22.777  45.703  1.00  0.00    -0.000 C 
BRANCH  14  15
ATOM     15  C   UNL     1       8.818  21.646  44.787  1.00  0.00    -0.003 C 
ATOM     16  C   UNL     1       9.951  20.834  45.410  1.00  0.00     0.004 C 
ENDBRANCH  14  15
ENDBRANCH  13  14
ENDBRANCH  12  13
ENDBRANCH  11  12
ENDBRANCH  10  11
ENDBRANCH   1  10
TORSDOF 12
ENDMDL
