MODEL 1
REMARK VINA RESULT:    -4.125      0.000      0.000
REMARK INTER + INTRA:          -8.627
REMARK INTER:                  -7.259
REMARK INTRA:                  -1.368
REMARK UNBOUND:                -1.368
REMARK SMILES CCCCCCCCCCCCCCC(=O)[O-]
REMARK SMILES IDX 9 1 10 2 11 3 12 4 13 5 14 6 15 7 16 8 17 9 8 10 7 11 6 12
REMARK SMILES IDX 5 13 4 14 3 15 2 16 1 17
REMARK H PARENT
REMARK Flexibility Score: inf
ROOT
ATOM      1  C   UNL     1      24.321   4.461  18.171  1.00  0.00     0.000 C 
ENDROOT
BRANCH   1   2
ATOM      2  C   UNL     1      23.125   4.780  17.261  1.00  0.00     0.000 C 
BRANCH   2   3
ATOM      3  C   UNL     1      23.170   6.242  16.791  1.00  0.00     0.000 C 
BRANCH   3   4
ATOM      4  C   UNL     1      23.879   6.409  15.438  1.00  0.00     0.000 C 
BRANCH   4   5
ATOM      5  C   UNL     1      25.227   7.137  15.562  1.00  0.00     0.006 C 
BRANCH   5   6
ATOM      6  C   UNL     1      26.392   6.184  15.285  1.00  0.00     0.053 C 
BRANCH   6   7
ATOM      7  C   UNL     1      26.704   6.147  13.822  1.00  0.00     0.041 C 
ATOM      8  O   UNL     1      27.085   5.076  13.282  1.00  0.00    -0.550 OA
ATOM      9  O   UNL     1      26.528   7.285  13.045  1.00  0.00    -0.550 OA
ENDBRANCH   6   7
ENDBRANCH   5   6
ENDBRANCH   4   5
ENDBRANCH   3   4
ENDBRANCH   2   3
ENDBRANCH   1   2
BRANCH   1  10
ATOM     10  C   UNL     1      25.282   3.433  17.550  1.00  0.00     0.000 C 
BRANCH  10  11
ATOM     11  C   UNL     1      26.504   3.154  18.443  1.00  0.00    -0.000 C 
BRANCH  11  12
ATOM     12  C   UNL     1      26.537   1.714  18.985  1.00  0.00    -0.000 C 
BRANCH  12  13
ATOM     13  C   UNL     1      25.161   1.060  19.206  1.00  0.00    -0.000 C 
BRANCH  13  14
ATOM     14  C   UNL     1      24.600   1.302  20.618  1.00  0.00    -0.000 C 
BRANCH  14  15
ATOM     15  C   UNL     1      23.165   1.860  20.606  1.00  0.00    -0.000 C 
BRANCH  15  16
ATOM     16  C   UNL     1      22.889   2.971  21.636  1.00  0.00    -0.003 C 
ATOM     17  C   UNL     1      23.347   2.608  23.047  1.00  0.00     0.004 C 
ENDBRANCH  15  16
ENDBRANCH  14  15
ENDBRANCH  13  14
ENDBRANCH  12  13
ENDBRANCH  11  12
ENDBRANCH  10  11
ENDBRANCH   1  10
TORSDOF 13
ENDMDL
MODEL 2
REMARK VINA RESULT:    -4.118      7.339      9.942
REMARK INTER + INTRA:          -8.616
REMARK INTER:                  -6.789
REMARK INTRA:                  -1.827
REMARK UNBOUND:                -1.368
REMARK SMILES CCCCCCCCCCCCCCC(=O)[O-]
REMARK SMILES IDX 9 1 10 2 11 3 12 4 13 5 14 6 15 7 16 8 17 9 8 10 7 11 6 12
REMARK SMILES IDX 5 13 4 14 3 15 2 16 1 17
REMARK H PARENT
REMARK Flexibility Score: inf
ROOT
ATOM      1  C   UNL     1      23.657   4.259   9.867  1.00  0.00     0.000 C 
ENDROOT
BRANCH   1   2
ATOM      2  C   UNL     1      23.844   5.450   8.915  1.00  0.00     0.000 C 
BRANCH   2   3
ATOM      3  C   UNL     1      24.123   6.740   9.701  1.00  0.00     0.000 C 
BRANCH   3   4
ATOM      4  C   UNL     1      22.838   7.435  10.177  1.00  0.00     0.000 C 
BRANCH   4   5
ATOM      5  C   UNL     1      22.641   7.341  11.697  1.00  0.00     0.006 C 
BRANCH   5   6
ATOM      6  C   UNL     1      21.155   7.391  12.061  1.00  0.00     0.053 C 
BRANCH   6   7
ATOM      7  C   UNL     1      20.874   6.515  13.242  1.00  0.00     0.041 C 
ATOM      8  O   UNL     1      20.808   7.012  14.397  1.00  0.00    -0.550 OA
ATOM      9  O   UNL     1      20.635   5.159  13.061  1.00  0.00    -0.550 OA
ENDBRANCH   6   7
ENDBRANCH   5   6
ENDBRANCH   4   5
ENDBRANCH   3   4
ENDBRANCH   2   3
ENDBRANCH   1   2
BRANCH   1  10
ATOM     10  C   UNL     1      22.208   3.746   9.901  1.00  0.00     0.000 C 
BRANCH  10  11
ATOM     11  C   UNL     1      21.347   4.338   8.772  1.00  0.00    -0.000 C 
BRANCH  11  12
ATOM     12  C   UNL     1      20.067   5.023   9.287  1.00  0.00    -0.000 C 
BRANCH  12  13
ATOM     13  C   UNL     1      18.908   5.103   8.276  1.00  0.00    -0.000 C 
BRANCH  13  14
ATOM     14  C   UNL     1      18.227   6.482   8.249  1.00  0.00    -0.000 C 
BRANCH  14  15
ATOM     15  C   UNL     1      18.842   7.475   9.252  1.00  0.00    -0.000 C 
BRANCH  15  16
ATOM     16  C   UNL     1      17.888   7.955  10.362  1.00  0.00    -0.003 C 
ATOM     17  C   UNL     1      17.389   6.822  11.256  1.00  0.00     0.004 C 
ENDBRANCH  15  16
ENDBRANCH  14  15
ENDBRANCH  13  14
ENDBRANCH  12  13
ENDBRANCH  11  12
ENDBRANCH  10  11
ENDBRANCH   1  10
TORSDOF 13
ENDMDL
MODEL 3
REMARK VINA RESULT:    -4.090      1.580      2.943
REMARK INTER + INTRA:          -8.567
REMARK INTER:                  -7.166
REMARK INTRA:                  -1.401
REMARK UNBOUND:                -1.368
REMARK SMILES CCCCCCCCCCCCCCC(=O)[O-]
REMARK SMILES IDX 9 1 10 2 11 3 12 4 13 5 14 6 15 7 16 8 17 9 8 10 7 11 6 12
REMARK SMILES IDX 5 13 4 14 3 15 2 16 1 17
REMARK H PARENT
REMARK Flexibility Score: inf
ROOT
ATOM      1  C   UNL     1      23.188   5.099  17.669  1.00  0.00     0.000 C 
ENDROOT
BRANCH   1   2
ATOM      2  C   UNL     1      22.645   6.294  16.870  1.00  0.00     0.000 C 
BRANCH   2   3
ATOM      3  C   UNL     1      23.793   7.107  16.254  1.00  0.00     0.000 C 
BRANCH   3   4
ATOM      4  C   UNL     1      24.898   6.219  15.661  1.00  0.00     0.000 C 
BRANCH   4   5
ATOM      5  C   UNL     1      25.435   6.753  14.324  1.00  0.00     0.006 C 
BRANCH   5   6
ATOM      6  C   UNL     1      24.522   6.344  13.165  1.00  0.00     0.053 C 
BRANCH   6   7
ATOM      7  C   UNL     1      25.305   6.229  11.895  1.00  0.00     0.041 C 
ATOM      8  O   UNL     1      26.514   6.576  11.864  1.00  0.00    -0.550 OA
ATOM      9  O   UNL     1      24.712   5.693  10.759  1.00  0.00    -0.550 OA
ENDBRANCH   6   7
ENDBRANCH   5   6
ENDBRANCH   4   5
ENDBRANCH   3   4
ENDBRANCH   2   3
ENDBRANCH   1   2
BRANCH   1  10
ATOM     10  C   UNL     1      23.296   5.390  19.175  1.00  0.00     0.000 C 
BRANCH  10  11
ATOM     11  C   UNL     1      22.855   4.197  20.040  1.00  0.00    -0.000 C 
BRANCH  11  12
ATOM     12  C   UNL     1      22.316   3.018  19.208  1.00  0.00    -0.000 C 
BRANCH  12  13
ATOM     13  C   UNL     1      22.932   1.645  19.533  1.00  0.00    -0.000 C 
BRANCH  13  14
ATOM     14  C   UNL     1      24.209   1.744  20.384  1.00  0.00    -0.000 C 
BRANCH  14  15
ATOM     15  C   UNL     1      25.470   1.281  19.632  1.00  0.00    -0.000 C 
BRANCH  15  16
ATOM     16  C   UNL     1      25.799   2.079  18.357  1.00  0.00    -0.003 C 
ATOM     17  C   UNL     1      26.450   3.430  18.647  1.00  0.00     0.004 C 
ENDBRANCH  15  16
ENDBRANCH  14  15
ENDBRANCH  13  14
ENDBRANCH  12  13
ENDBRANCH  11  12
ENDBRANCH  10  11
ENDBRANCH   1  10
TORSDOF 13
ENDMDL
MODEL 4
REMARK VINA RESULT:    -4.042      2.111      5.742
REMARK INTER + INTRA:          -8.482
REMARK INTER:                  -6.651
REMARK INTRA:                  -1.831
REMARK UNBOUND:                -1.368
REMARK SMILES CCCCCCCCCCCCCCC(=O)[O-]
REMARK SMILES IDX 9 1 10 2 11 3 12 4 13 5 14 6 15 7 16 8 17 9 8 10 7 11 6 12
REMARK SMILES IDX 5 13 4 14 3 15 2 16 1 17
REMARK H PARENT
REMARK Flexibility Score: inf
ROOT
ATOM      1  C   UNL     1      24.223   4.101  18.980  1.00  0.00     0.000 C 
ENDROOT
BRANCH   1   2
ATOM      2  C   UNL     1      25.006   3.039  18.193  1.00  0.00     0.000 C 
BRANCH   2   3
ATOM      3  C   UNL     1      26.196   3.671  17.456  1.00  0.00     0.000 C 
BRANCH   3   4
ATOM      4  C   UNL     1      25.875   4.009  15.992  1.00  0.00     0.000 C 
BRANCH   4   5
ATOM      5  C   UNL     1      26.390   5.396  15.578  1.00  0.00     0.006 C 
BRANCH   5   6
ATOM      6  C   UNL     1      26.860   5.394  14.121  1.00  0.00     0.053 C 
BRANCH   6   7
ATOM      7  C   UNL     1      26.773   6.770  13.539  1.00  0.00     0.041 C 
ATOM      8  O   UNL     1      25.843   7.545  13.883  1.00  0.00    -0.550 OA
ATOM      9  O   UNL     1      27.747   7.213  12.653  1.00  0.00    -0.550 OA
ENDBRANCH   6   7
ENDBRANCH   5   6
ENDBRANCH   4   5
ENDBRANCH   3   4
ENDBRANCH   2   3
ENDBRANCH   1   2
BRANCH   1  10
ATOM     10  C   UNL     1      23.032   4.668  18.189  1.00  0.00     0.000 C 
BRANCH  10  11
ATOM     11  C   UNL     1      23.033   6.206  18.144  1.00  0.00    -0.000 C 
BRANCH  11  12
ATOM     12  C   UNL     1      23.049   6.766  16.710  1.00  0.00    -0.000 C 
BRANCH  12  13
ATOM     13  C   UNL     1      22.426   5.853  15.638  1.00  0.00    -0.000 C 
BRANCH  13  14
ATOM     14  C   UNL     1      22.629   6.379  14.207  1.00  0.00    -0.000 C 
BRANCH  14  15
ATOM     15  C   UNL     1      23.150   5.301  13.239  1.00  0.00    -0.000 C 
BRANCH  15  16
ATOM     16  C   UNL     1      23.337   5.768  11.784  1.00  0.00    -0.003 C 
ATOM     17  C   UNL     1      23.126   7.270  11.603  1.00  0.00     0.004 C 
ENDBRANCH  15  16
ENDBRANCH  14  15
ENDBRANCH  13  14
ENDBRANCH  12  13
ENDBRANCH  11  12
ENDBRANCH  10  11
ENDBRANCH   1  10
TORSDOF 13
ENDMDL
MODEL 5
REMARK VINA RESULT:    -4.042      2.818      4.574
REMARK INTER + INTRA:          -8.481
REMARK INTER:                  -6.907
REMARK INTRA:                  -1.574
REMARK UNBOUND:                -1.368
REMARK SMILES CCCCCCCCCCCCCCC(=O)[O-]
REMARK SMILES IDX 9 1 10 2 11 3 12 4 13 5 14 6 15 7 16 8 17 9 8 10 7 11 6 12
REMARK SMILES IDX 5 13 4 14 3 15 2 16 1 17
REMARK H PARENT
REMARK Flexibility Score: inf
ROOT
ATOM      1  C   UNL     1      27.620   5.055  15.184  1.00  0.00     0.000 C 
ENDROOT
BRANCH   1   2
ATOM      2  C   UNL     1      26.101   5.283  15.153  1.00  0.00     0.000 C 
BRANCH   2   3
ATOM      3  C   UNL     1      25.775   6.754  14.853  1.00  0.00     0.000 C 
BRANCH   3   4
ATOM      4  C   UNL     1      24.714   7.332  15.803  1.00  0.00     0.000 C 
BRANCH   4   5
ATOM      5  C   UNL     1      23.778   6.255  16.373  1.00  0.00     0.006 C 
BRANCH   5   6
ATOM      6  C   UNL     1      22.314   6.689  16.263  1.00  0.00     0.053 C 
BRANCH   6   7
ATOM      7  C   UNL     1      21.791   6.429  14.885  1.00  0.00     0.041 C 
ATOM      8  O   UNL     1      22.259   5.483  14.199  1.00  0.00    -0.550 OA
ATOM      9  O   UNL     1      20.754   7.201  14.378  1.00  0.00    -0.550 OA
ENDBRANCH   6   7
ENDBRANCH   5   6
ENDBRANCH   4   5
ENDBRANCH   3   4
ENDBRANCH   2   3
ENDBRANCH   1   2
BRANCH   1  10
ATOM     10  C   UNL     1      28.413   6.358  15.376  1.00  0.00     0.000 C 
BRANCH  10  11
ATOM     11  C   UNL     1      29.585   6.196  16.360  1.00  0.00    -0.000 C 
BRANCH  11  12
ATOM     12  C   UNL     1      29.643   4.797  17.001  1.00  0.00    -0.000 C 
BRANCH  12  13
ATOM     13  C   UNL     1      29.297   4.743  18.500  1.00  0.00    -0.000 C 
BRANCH  13  14
ATOM     14  C   UNL     1      29.063   3.312  19.013  1.00  0.00    -0.000 C 
BRANCH  14  15
ATOM     15  C   UNL     1      27.711   2.728  18.566  1.00  0.00    -0.000 C 
BRANCH  15  16
ATOM     16  C   UNL     1      26.520   3.701  18.648  1.00  0.00    -0.003 C 
ATOM     17  C   UNL     1      25.221   3.107  18.107  1.00  0.00     0.004 C 
ENDBRANCH  15  16
ENDBRANCH  14  15
ENDBRANCH  13  14
ENDBRANCH  12  13
ENDBRANCH  11  12
ENDBRANCH  10  11
ENDBRANCH   1  10
TORSDOF 13
ENDMDL
MODEL 6
REMARK VINA RESULT:    -4.029      8.406     10.990
REMARK INTER + INTRA:          -8.459
REMARK INTER:                  -7.053
REMARK INTRA:                  -1.406
REMARK UNBOUND:                -1.368
REMARK SMILES CCCCCCCCCCCCCCC(=O)[O-]
REMARK SMILES IDX 9 1 10 2 11 3 12 4 13 5 14 6 15 7 16 8 17 9 8 10 7 11 6 12
REMARK SMILES IDX 5 13 4 14 3 15 2 16 1 17
REMARK H PARENT
REMARK Flexibility Score: inf
ROOT
ATOM      1  C   UNL     1      21.045   3.596   9.242  1.00  0.00     0.000 C 
ENDROOT
BRANCH   1   2
ATOM      2  C   UNL     1      22.071   4.112   8.222  1.00  0.00     0.000 C 
BRANCH   2   3
ATOM      3  C   UNL     1      23.415   4.411   8.902  1.00  0.00     0.000 C 
BRANCH   3   4
ATOM      4  C   UNL     1      24.162   5.587   8.252  1.00  0.00     0.000 C 
BRANCH   4   5
ATOM      5  C   UNL     1      24.288   6.799   9.187  1.00  0.00     0.006 C 
BRANCH   5   6
ATOM      6  C   UNL     1      23.734   6.478  10.578  1.00  0.00     0.053 C 
BRANCH   6   7
ATOM      7  C   UNL     1      22.579   7.372  10.902  1.00  0.00     0.041 C 
ATOM      8  O   UNL     1      22.030   8.051   9.996  1.00  0.00    -0.550 OA
ATOM      9  O   UNL     1      22.078   7.418  12.197  1.00  0.00    -0.550 OA
ENDBRANCH   6   7
ENDBRANCH   5   6
ENDBRANCH   4   5
ENDBRANCH   3   4
ENDBRANCH   2   3
ENDBRANCH   1   2
BRANCH   1  10
ATOM     10  C   UNL     1      20.061   4.685   9.700  1.00  0.00     0.000 C 
BRANCH  10  11
ATOM     11  C   UNL     1      19.484   5.492   8.524  1.00  0.00    -0.000 C 
BRANCH  11  12
ATOM     12  C   UNL     1      18.346   4.758   7.792  1.00  0.00    -0.000 C 
BRANCH  12  13
ATOM     13  C   UNL     1      17.130   5.626   7.423  1.00  0.00    -0.000 C 
BRANCH  13  14
ATOM     14  C   UNL     1      17.448   7.131   7.404  1.00  0.00    -0.000 C 
BRANCH  14  15
ATOM     15  C   UNL     1      16.453   7.966   8.230  1.00  0.00    -0.000 C 
BRANCH  15  16
ATOM     16  C   UNL     1      16.730   8.000   9.744  1.00  0.00    -0.003 C 
ATOM     17  C   UNL     1      18.179   8.346  10.081  1.00  0.00     0.004 C 
ENDBRANCH  15  16
ENDBRANCH  14  15
ENDBRANCH  13  14
ENDBRANCH  12  13
ENDBRANCH  11  12
ENDBRANCH  10  11
ENDBRANCH   1  10
TORSDOF 13
ENDMDL
MODEL 7
REMARK VINA RESULT:    -4.028      3.469      5.423
REMARK INTER + INTRA:          -8.457
REMARK INTER:                  -6.037
REMARK INTRA:                  -2.420
REMARK UNBOUND:                -1.368
REMARK SMILES CCCCCCCCCCCCCCC(=O)[O-]
REMARK SMILES IDX 9 1 10 2 11 3 12 4 13 5 14 6 15 7 16 8 17 9 8 10 7 11 6 12
REMARK SMILES IDX 5 13 4 14 3 15 2 16 1 17
REMARK H PARENT
REMARK Flexibility Score: inf
ROOT
ATOM      1  C   UNL     1      28.241   2.834  18.639  1.00  0.00     0.000 C 
ENDROOT
BRANCH   1   2
ATOM      2  C   UNL     1      27.391   3.860  17.874  1.00  0.00     0.000 C 
BRANCH   2   3
ATOM      3  C   UNL     1      26.484   3.163  16.849  1.00  0.00     0.000 C 
BRANCH   3   4
ATOM      4  C   UNL     1      26.143   4.062  15.650  1.00  0.00     0.000 C 
BRANCH   4   5
ATOM      5  C   UNL     1      27.010   5.329  15.593  1.00  0.00     0.006 C 
BRANCH   5   6
ATOM      6  C   UNL     1      27.645   5.496  14.210  1.00  0.00     0.053 C 
BRANCH   6   7
ATOM      7  C   UNL     1      26.997   6.624  13.468  1.00  0.00     0.041 C 
ATOM      8  O   UNL     1      27.422   6.960  12.332  1.00  0.00    -0.550 OA
ATOM      9  O   UNL     1      25.895   7.270  14.010  1.00  0.00    -0.550 OA
ENDBRANCH   6   7
ENDBRANCH   5   6
ENDBRANCH   4   5
ENDBRANCH   3   4
ENDBRANCH   2   3
ENDBRANCH   1   2
BRANCH   1  10
ATOM     10  C   UNL     1      28.797   1.726  17.730  1.00  0.00     0.000 C 
BRANCH  10  11
ATOM     11  C   UNL     1      30.197   2.057  17.184  1.00  0.00    -0.000 C 
BRANCH  11  12
ATOM     12  C   UNL     1      30.186   2.438  15.692  1.00  0.00    -0.000 C 
BRANCH  12  13
ATOM     13  C   UNL     1      30.655   3.870  15.373  1.00  0.00    -0.000 C 
BRANCH  13  14
ATOM     14  C   UNL     1      31.221   4.605  16.600  1.00  0.00    -0.000 C 
BRANCH  14  15
ATOM     15  C   UNL     1      30.374   5.823  17.014  1.00  0.00    -0.000 C 
BRANCH  15  16
ATOM     16  C   UNL     1      30.330   6.102  18.527  1.00  0.00    -0.003 C 
ATOM     17  C   UNL     1      31.090   5.064  19.351  1.00  0.00     0.004 C 
ENDBRANCH  15  16
ENDBRANCH  14  15
ENDBRANCH  13  14
ENDBRANCH  12  13
ENDBRANCH  11  12
ENDBRANCH  10  11
ENDBRANCH   1  10
TORSDOF 13
ENDMDL
MODEL 8
REMARK VINA RESULT:    -4.012     11.553     13.804
REMARK INTER + INTRA:          -8.429
REMARK INTER:                  -5.985
REMARK INTRA:                  -2.444
REMARK UNBOUND:                -1.368
REMARK SMILES CCCCCCCCCCCCCCC(=O)[O-]
REMARK SMILES IDX 9 1 10 2 11 3 12 4 13 5 14 6 15 7 16 8 17 9 8 10 7 11 6 12
REMARK SMILES IDX 5 13 4 14 3 15 2 16 1 17
REMARK H PARENT
REMARK Flexibility Score: inf
ROOT
ATOM      1  C   UNL     1      31.351  -3.543   7.977  1.00  0.00     0.000 C 
ENDROOT
BRANCH   1   2
ATOM      2  C   UNL     1      30.062  -4.370   8.095  1.00  0.00     0.000 C 
BRANCH   2   3
ATOM      3  C   UNL     1      29.386  -4.529   6.725  1.00  0.00     0.000 C 
BRANCH   3   4
ATOM      4  C   UNL     1      28.540  -3.307   6.335  1.00  0.00     0.000 C 
BRANCH   4   5
ATOM      5  C   UNL     1      29.108  -2.555   5.122  1.00  0.00     0.006 C 
BRANCH   5   6
ATOM      6  C   UNL     1      29.978  -3.477   4.264  1.00  0.00     0.053 C 
BRANCH   6   7
ATOM      7  C   UNL     1      31.289  -2.824   3.954  1.00  0.00     0.041 C 
ATOM      8  O   UNL     1      32.354  -3.275   4.449  1.00  0.00    -0.550 OA
ATOM      9  O   UNL     1      31.338  -1.747   3.079  1.00  0.00    -0.550 OA
ENDBRANCH   6   7
ENDBRANCH   5   6
ENDBRANCH   4   5
ENDBRANCH   3   4
ENDBRANCH   2   3
ENDBRANCH   1   2
BRANCH   1  10
ATOM     10  C   UNL     1      31.716  -2.821   9.285  1.00  0.00     0.000 C 
BRANCH  10  11
ATOM     11  C   UNL     1      31.538  -1.295   9.186  1.00  0.00    -0.000 C 
BRANCH  11  12
ATOM     12  C   UNL     1      31.182  -0.823   7.765  1.00  0.00    -0.000 C 
BRANCH  12  13
ATOM     13  C   UNL     1      29.858  -0.047   7.639  1.00  0.00    -0.000 C 
BRANCH  13  14
ATOM     14  C   UNL     1      29.063   0.003   8.955  1.00  0.00    -0.000 C 
BRANCH  14  15
ATOM     15  C   UNL     1      27.832  -0.923   8.948  1.00  0.00    -0.000 C 
BRANCH  15  16
ATOM     16  C   UNL     1      27.911  -2.119   9.914  1.00  0.00    -0.003 C 
ATOM     17  C   UNL     1      26.829  -3.167   9.661  1.00  0.00     0.004 C 
ENDBRANCH  15  16
ENDBRANCH  14  15
ENDBRANCH  13  14
ENDBRANCH  12  13
ENDBRANCH  11  12
ENDBRANCH  10  11
ENDBRANCH   1  10
TORSDOF 13
ENDMDL
MODEL 9
REMARK VINA RESULT:    -3.947     10.956     13.675
REMARK INTER + INTRA:          -8.314
REMARK INTER:                  -5.885
REMARK INTRA:                  -2.429
REMARK UNBOUND:                -1.368
REMARK SMILES CCCCCCCCCCCCCCC(=O)[O-]
REMARK SMILES IDX 9 1 10 2 11 3 12 4 13 5 14 6 15 7 16 8 17 9 8 10 7 11 6 12
REMARK SMILES IDX 5 13 4 14 3 15 2 16 1 17
REMARK H PARENT
REMARK Flexibility Score: inf
ROOT
ATOM      1  C   UNL     1      29.168  -0.543   5.849  1.00  0.00     0.000 C 
ENDROOT
BRANCH   1   2
ATOM      2  C   UNL     1      30.250   0.038   6.773  1.00  0.00     0.000 C 
BRANCH   2   3
ATOM      3  C   UNL     1      29.798  -0.008   8.240  1.00  0.00     0.000 C 
BRANCH   3   4
ATOM      4  C   UNL     1      28.315  -0.380   8.394  1.00  0.00     0.000 C 
BRANCH   4   5
ATOM      5  C   UNL     1      28.058  -1.306   9.593  1.00  0.00     0.006 C 
BRANCH   5   6
ATOM      6  C   UNL     1      27.071  -2.417   9.224  1.00  0.00     0.053 C 
BRANCH   6   7
ATOM      7  C   UNL     1      25.860  -2.356  10.103  1.00  0.00     0.041 C 
ATOM      8  O   UNL     1      24.724  -2.626   9.635  1.00  0.00    -0.550 OA
ATOM      9  O   UNL     1      25.995  -2.050  11.451  1.00  0.00    -0.550 OA
ENDBRANCH   6   7
ENDBRANCH   5   6
ENDBRANCH   4   5
ENDBRANCH   3   4
ENDBRANCH   2   3
ENDBRANCH   1   2
BRANCH   1  10
ATOM     10  C   UNL     1      29.754  -1.382   4.702  1.00  0.00     0.000 C 
BRANCH  10  11
ATOM     11  C   UNL     1      29.306  -2.853   4.759  1.00  0.00    -0.000 C 
BRANCH  11  12
ATOM     12  C   UNL     1      28.761  -3.263   6.140  1.00  0.00    -0.000 C 
BRANCH  12  13
ATOM     13  C   UNL     1      29.393  -4.527   6.751  1.00  0.00    -0.000 C 
BRANCH  13  14
ATOM     14  C   UNL     1      29.974  -4.290   8.155  1.00  0.00    -0.000 C 
BRANCH  14  15
ATOM     15  C   UNL     1      31.195  -3.352   8.150  1.00  0.00    -0.000 C 
BRANCH  15  16
ATOM     16  C   UNL     1      32.350  -3.790   7.231  1.00  0.00    -0.003 C 
ATOM     17  C   UNL     1      32.780  -2.703   6.248  1.00  0.00     0.004 C 
ENDBRANCH  15  16
ENDBRANCH  14  15
ENDBRANCH  13  14
ENDBRANCH  12  13
ENDBRANCH  11  12
ENDBRANCH  10  11
ENDBRANCH   1  10
TORSDOF 13
ENDMDL
