MODEL 1
REMARK VINA RESULT:    -3.588      0.000      0.000
REMARK INTER + INTRA:          -3.594
REMARK INTER:                  -4.427
REMARK INTRA:                   0.833
REMARK UNBOUND:                 0.833
REMARK SMILES CC1=CC=CC(C)(C)CC1=O
REMARK SMILES IDX 1 1 2 2 3 3 10 4 11 5 9 6 4 8 5 9 6 10 7 11 8 12
REMARK H PARENT
REMARK Flexibility Score: 80.00
ROOT
ATOM      1  C   UNL     1      45.992  59.329  27.243  1.00  0.00     0.048 C 
ATOM      2  C   UNL     1      44.762  58.510  27.559  1.00  0.00    -0.008 C 
ATOM      3  C   UNL     1      43.571  59.147  27.597  1.00  0.00     0.007 C 
ENDROOT
BRANCH   2   4
ATOM      4  C   UNL     1      44.964  57.047  27.748  1.00  0.00     0.159 C 
ATOM      5  O   UNL     1      46.144  56.601  27.781  1.00  0.00    -0.295 OA
BRANCH   4   6
ATOM      6  C   UNL     1      43.847  56.053  27.865  1.00  0.00     0.091 CG0
ATOM      7  G   UNL     1      42.833  56.378  28.984  1.00  0.00     0.000 G0
ENDBRANCH   4   6
ENDBRANCH   2   4
BRANCH   3   8
ATOM      8  C   UNL     1      42.222  58.614  27.886  1.00  0.00    -0.003 C 
ATOM      9  C   UNL     1      41.889  57.470  28.496  1.00  0.00    -0.020 C 
BRANCH   9  10
ATOM     10  C   UNL     1      42.847  56.405  28.976  1.00  0.00    -0.010 CG0
ATOM     11  C   UNL     1      43.527  56.849  30.291  1.00  0.00     0.016 C 
ATOM     12  C   UNL     1      42.036  55.122  29.270  1.00  0.00     0.016 C 
ATOM     13  G   UNL     1      43.863  56.085  27.856  1.00  0.00     0.000 G0
ENDBRANCH   9  10
ENDBRANCH   3   8
TORSDOF 0
ENDMDL
MODEL 2
REMARK VINA RESULT:    -3.530     18.935     21.170
REMARK INTER + INTRA:          -3.523
REMARK INTER:                  -4.387
REMARK INTRA:                   0.863
REMARK UNBOUND:                 0.833
REMARK SMILES CC1=CC=CC(C)(C)CC1=O
REMARK SMILES IDX 1 1 2 2 3 3 10 4 11 5 9 6 4 8 5 9 6 10 7 11 8 12
REMARK H PARENT
REMARK Flexibility Score: 80.00
ROOT
ATOM      1  C   UNL     1      57.370  68.777  30.023  1.00  0.00     0.048 C 
ATOM      2  C   UNL     1      58.698  69.105  30.664  1.00  0.00    -0.008 C 
ATOM      3  C   UNL     1      59.575  68.095  30.851  1.00  0.00     0.007 C 
ENDROOT
BRANCH   2   4
ATOM      4  C   UNL     1      58.948  70.536  30.989  1.00  0.00     0.159 C 
ATOM      5  O   UNL     1      58.013  71.366  30.816  1.00  0.00    -0.295 OA
BRANCH   4   6
ATOM      6  C   UNL     1      60.262  71.070  31.475  1.00  0.00     0.091 CG0
ATOM      7  G   UNL     1      60.830  70.318  32.700  1.00  0.00     0.000 G0
ENDBRANCH   4   6
ENDBRANCH   2   4
BRANCH   3   8
ATOM      8  C   UNL     1      60.927  68.115  31.454  1.00  0.00    -0.003 C 
ATOM      9  C   UNL     1      61.465  69.033  32.265  1.00  0.00    -0.020 C 
BRANCH   9  10
ATOM     10  C   UNL     1      60.818  70.326  32.700  1.00  0.00    -0.010 CG0
ATOM     11  C   UNL     1      59.732  70.050  33.765  1.00  0.00     0.016 C 
ATOM     12  C   UNL     1      61.904  71.217  33.348  1.00  0.00     0.016 C 
ATOM     13  G   UNL     1      60.266  71.068  31.462  1.00  0.00     0.000 G0
ENDBRANCH   9  10
ENDBRANCH   3   8
TORSDOF 0
ENDMDL
MODEL 3
REMARK VINA RESULT:    -3.389     22.594     23.825
REMARK INTER + INTRA:          -3.349
REMARK INTER:                  -4.179
REMARK INTRA:                   0.830
REMARK UNBOUND:                 0.833
REMARK SMILES CC1=CC=CC(C)(C)CC1=O
REMARK SMILES IDX 1 1 2 2 3 3 10 4 11 5 9 6 4 8 5 9 6 10 7 11 8 12
REMARK H PARENT
REMARK Flexibility Score: 80.00
ROOT
ATOM      1  C   UNL     1      60.606  63.050  45.631  1.00  0.00     0.048 C 
ATOM      2  C   UNL     1      60.534  64.254  44.721  1.00  0.00    -0.008 C 
ATOM      3  C   UNL     1      60.662  65.477  45.282  1.00  0.00     0.007 C 
ENDROOT
BRANCH   2   4
ATOM      4  C   UNL     1      60.382  63.984  43.266  1.00  0.00     0.159 C 
ATOM      5  O   UNL     1      60.252  62.788  42.885  1.00  0.00    -0.295 OA
BRANCH   4   6
ATOM      6  C   UNL     1      60.413  65.045  42.207  1.00  0.00     0.091 CG0
ATOM      7  G   UNL     1      59.462  66.232  42.480  1.00  0.00     0.000 G0
ENDBRANCH   4   6
ENDBRANCH   2   4
BRANCH   3   8
ATOM      8  C   UNL     1      60.623  66.815  44.651  1.00  0.00    -0.003 C 
ATOM      9  C   UNL     1      60.096  67.168  43.473  1.00  0.00    -0.020 C 
BRANCH   9  10
ATOM     10  C   UNL     1      59.467  66.236  42.464  1.00  0.00    -0.010 CG0
ATOM     11  C   UNL     1      58.053  65.819  42.929  1.00  0.00     0.016 C 
ATOM     12  C   UNL     1      59.322  66.998  41.126  1.00  0.00     0.016 C 
ATOM     13  G   UNL     1      60.400  65.027  42.229  1.00  0.00     0.000 G0
ENDBRANCH   9  10
ENDBRANCH   3   8
TORSDOF 0
ENDMDL
MODEL 4
REMARK VINA RESULT:    -3.342     15.018     16.030
REMARK INTER + INTRA:          -3.290
REMARK INTER:                  -4.134
REMARK INTRA:                   0.843
REMARK UNBOUND:                 0.833
REMARK SMILES CC1=CC=CC(C)(C)CC1=O
REMARK SMILES IDX 1 1 2 2 3 3 10 4 11 5 9 6 4 8 5 9 6 10 7 11 8 12
REMARK H PARENT
REMARK Flexibility Score: 80.00
ROOT
ATOM      1  C   UNL     1      44.144  63.614  45.297  1.00  0.00     0.048 C 
ATOM      2  C   UNL     1      43.876  62.429  44.399  1.00  0.00    -0.008 C 
ATOM      3  C   UNL     1      42.711  62.407  43.714  1.00  0.00     0.007 C 
ENDROOT
BRANCH   2   4
ATOM      4  C   UNL     1      44.952  61.406  44.303  1.00  0.00     0.159 C 
ATOM      5  O   UNL     1      45.981  61.544  45.019  1.00  0.00    -0.295 OA
BRANCH   4   6
ATOM      6  C   UNL     1      44.912  60.229  43.373  1.00  0.00     0.091 CG0
ATOM      7  G   UNL     1      43.604  59.410  43.454  1.00  0.00     0.000 G0
ENDBRANCH   4   6
ENDBRANCH   2   4
BRANCH   3   8
ATOM      8  C   UNL     1      42.181  61.388  42.782  1.00  0.00    -0.003 C 
ATOM      9  C   UNL     1      42.525  60.099  42.671  1.00  0.00    -0.020 C 
BRANCH   9  10
ATOM     10  C   UNL     1      43.612  59.397  43.448  1.00  0.00    -0.010 CG0
ATOM     11  C   UNL     1      43.145  59.121  44.895  1.00  0.00     0.016 C 
ATOM     12  C   UNL     1      43.890  58.036  42.770  1.00  0.00     0.016 C 
ATOM     13  G   UNL     1      44.909  60.236  43.389  1.00  0.00     0.000 G0
ENDBRANCH   9  10
ENDBRANCH   3   8
TORSDOF 0
ENDMDL
MODEL 5
REMARK VINA RESULT:    -3.290     22.575     23.719
REMARK INTER + INTRA:          -3.226
REMARK INTER:                  -4.071
REMARK INTRA:                   0.845
REMARK UNBOUND:                 0.833
REMARK SMILES CC1=CC=CC(C)(C)CC1=O
REMARK SMILES IDX 1 1 2 2 3 3 10 4 11 5 9 6 4 8 5 9 6 10 7 11 8 12
REMARK H PARENT
REMARK Flexibility Score: 80.00
ROOT
ATOM      1  C   UNL     1      58.755  57.302  44.281  1.00  0.00     0.048 C 
ATOM      2  C   UNL     1      58.883  58.545  45.132  1.00  0.00    -0.008 C 
ATOM      3  C   UNL     1      57.892  58.813  46.010  1.00  0.00     0.007 C 
ENDROOT
BRANCH   2   4
ATOM      4  C   UNL     1      60.127  59.344  44.964  1.00  0.00     0.159 C 
ATOM      5  O   UNL     1      60.951  58.997  44.074  1.00  0.00    -0.295 OA
BRANCH   4   6
ATOM      6  C   UNL     1      60.490  60.523  45.817  1.00  0.00     0.091 CG0
ATOM      7  G   UNL     1      59.380  61.595  45.911  1.00  0.00     0.000 G0
ENDBRANCH   4   6
ENDBRANCH   2   4
BRANCH   3   8
ATOM      8  C   UNL     1      57.744  59.945  46.952  1.00  0.00    -0.003 C 
ATOM      9  C   UNL     1      58.341  61.142  46.918  1.00  0.00    -0.020 C 
BRANCH   9  10
ATOM     10  C   UNL     1      59.382  61.591  45.921  1.00  0.00    -0.010 CG0
ATOM     11  C   UNL     1      58.720  61.916  44.563  1.00  0.00     0.016 C 
ATOM     12  C   UNL     1      60.036  62.887  46.454  1.00  0.00     0.016 C 
ATOM     13  G   UNL     1      60.482  60.511  45.806  1.00  0.00     0.000 G0
ENDBRANCH   9  10
ENDBRANCH   3   8
TORSDOF 0
ENDMDL
MODEL 6
REMARK VINA RESULT:    -3.248     17.627     18.532
REMARK INTER + INTRA:          -3.175
REMARK INTER:                  -4.035
REMARK INTRA:                   0.860
REMARK UNBOUND:                 0.833
REMARK SMILES CC1=CC=CC(C)(C)CC1=O
REMARK SMILES IDX 1 1 2 2 3 3 10 4 11 5 9 6 4 8 5 9 6 10 7 11 8 12
REMARK H PARENT
REMARK Flexibility Score: 80.00
ROOT
ATOM      1  C   UNL     1      59.979  67.272  31.177  1.00  0.00     0.048 C 
ATOM      2  C   UNL     1      58.700  68.055  31.368  1.00  0.00    -0.008 C 
ATOM      3  C   UNL     1      58.401  69.006  30.456  1.00  0.00     0.007 C 
ENDROOT
BRANCH   2   4
ATOM      4  C   UNL     1      57.847  67.671  32.525  1.00  0.00     0.159 C 
ATOM      5  O   UNL     1      58.265  66.776  33.311  1.00  0.00    -0.295 OA
BRANCH   4   6
ATOM      6  C   UNL     1      56.493  68.253  32.801  1.00  0.00     0.091 CG0
ATOM      7  G   UNL     1      56.462  69.798  32.794  1.00  0.00     0.000 G0
ENDBRANCH   4   6
ENDBRANCH   2   4
BRANCH   3   8
ATOM      8  C   UNL     1      57.241  69.922  30.391  1.00  0.00    -0.003 C 
ATOM      9  C   UNL     1      56.420  70.300  31.378  1.00  0.00    -0.020 C 
BRANCH   9  10
ATOM     10  C   UNL     1      56.454  69.806  32.804  1.00  0.00    -0.010 CG0
ATOM     11  C   UNL     1      57.642  70.441  33.563  1.00  0.00     0.016 C 
ATOM     12  C   UNL     1      55.149  70.253  33.503  1.00  0.00     0.016 C 
ATOM     13  G   UNL     1      56.497  68.261  32.812  1.00  0.00     0.000 G0
ENDBRANCH   9  10
ENDBRANCH   3   8
TORSDOF 0
ENDMDL
MODEL 7
REMARK VINA RESULT:    -3.228     21.659     22.769
REMARK INTER + INTRA:          -3.150
REMARK INTER:                  -4.009
REMARK INTRA:                   0.859
REMARK UNBOUND:                 0.833
REMARK SMILES CC1=CC=CC(C)(C)CC1=O
REMARK SMILES IDX 1 1 2 2 3 3 10 4 11 5 9 6 4 8 5 9 6 10 7 11 8 12
REMARK H PARENT
REMARK Flexibility Score: 80.00
ROOT
ATOM      1  C   UNL     1      58.001  56.156  44.371  1.00  0.00     0.048 C 
ATOM      2  C   UNL     1      58.377  57.613  44.504  1.00  0.00    -0.008 C 
ATOM      3  C   UNL     1      59.623  57.980  44.134  1.00  0.00     0.007 C 
ENDROOT
BRANCH   2   4
ATOM      4  C   UNL     1      57.313  58.537  44.984  1.00  0.00     0.159 C 
ATOM      5  O   UNL     1      56.205  58.048  45.339  1.00  0.00    -0.295 OA
BRANCH   4   6
ATOM      6  C   UNL     1      57.457  60.029  45.037  1.00  0.00     0.091 CG0
ATOM      7  G   UNL     1      58.711  60.511  45.800  1.00  0.00     0.000 G0
ENDBRANCH   4   6
ENDBRANCH   2   4
BRANCH   3   8
ATOM      8  C   UNL     1      60.265  59.313  44.162  1.00  0.00    -0.003 C 
ATOM      9  C   UNL     1      59.922  60.389  44.878  1.00  0.00    -0.020 C 
BRANCH   9  10
ATOM     10  C   UNL     1      58.726  60.507  45.792  1.00  0.00    -0.010 CG0
ATOM     11  C   UNL     1      58.976  59.732  47.106  1.00  0.00     0.016 C 
ATOM     12  C   UNL     1      58.534  61.999  46.150  1.00  0.00     0.016 C 
ATOM     13  G   UNL     1      57.460  60.026  45.047  1.00  0.00     0.000 G0
ENDBRANCH   9  10
ENDBRANCH   3   8
TORSDOF 0
ENDMDL
MODEL 8
REMARK VINA RESULT:    -3.214      2.925      3.934
REMARK INTER + INTRA:          -3.133
REMARK INTER:                  -3.969
REMARK INTRA:                   0.836
REMARK UNBOUND:                 0.833
REMARK SMILES CC1=CC=CC(C)(C)CC1=O
REMARK SMILES IDX 1 1 2 2 3 3 10 4 11 5 9 6 4 8 5 9 6 10 7 11 8 12
REMARK H PARENT
REMARK Flexibility Score: 80.00
ROOT
ATOM      1  C   UNL     1      43.004  57.480  27.524  1.00  0.00     0.048 C 
ATOM      2  C   UNL     1      43.297  58.441  28.653  1.00  0.00    -0.008 C 
ATOM      3  C   UNL     1      43.451  59.748  28.346  1.00  0.00     0.007 C 
ENDROOT
BRANCH   2   4
ATOM      4  C   UNL     1      43.335  57.867  30.026  1.00  0.00     0.159 C 
ATOM      5  O   UNL     1      43.235  56.617  30.160  1.00  0.00    -0.295 OA
BRANCH   4   6
ATOM      6  C   UNL     1      43.448  58.687  31.276  1.00  0.00     0.091 CG0
ATOM      7  G   UNL     1      44.635  59.677  31.273  1.00  0.00     0.000 G0
ENDBRANCH   4   6
ENDBRANCH   2   4
BRANCH   3   8
ATOM      8  C   UNL     1      43.750  60.898  29.228  1.00  0.00    -0.003 C 
ATOM      9  C   UNL     1      44.275  60.891  30.459  1.00  0.00    -0.020 C 
BRANCH   9  10
ATOM     10  C   UNL     1      44.626  59.668  31.271  1.00  0.00    -0.010 CG0
ATOM     11  C   UNL     1      45.938  59.037  30.752  1.00  0.00     0.016 C 
ATOM     12  C   UNL     1      44.857  60.109  32.735  1.00  0.00     0.016 C 
ATOM     13  G   UNL     1      43.438  58.679  31.251  1.00  0.00     0.000 G0
ENDBRANCH   9  10
ENDBRANCH   3   8
TORSDOF 0
ENDMDL
MODEL 9
REMARK VINA RESULT:    -3.090     18.312     19.863
REMARK INTER + INTRA:          -2.980
REMARK INTER:                  -3.841
REMARK INTRA:                   0.861
REMARK UNBOUND:                 0.833
REMARK SMILES CC1=CC=CC(C)(C)CC1=O
REMARK SMILES IDX 1 1 2 2 3 3 10 4 11 5 9 6 4 8 5 9 6 10 7 11 8 12
REMARK H PARENT
REMARK Flexibility Score: 80.00
ROOT
ATOM      1  C   UNL     1      59.050  65.335  33.323  1.00  0.00     0.048 C 
ATOM      2  C   UNL     1      59.275  66.673  32.657  1.00  0.00    -0.008 C 
ATOM      3  C   UNL     1      60.477  66.897  32.081  1.00  0.00     0.007 C 
ENDROOT
BRANCH   2   4
ATOM      4  C   UNL     1      58.125  67.616  32.647  1.00  0.00     0.159 C 
ATOM      5  O   UNL     1      57.073  67.291  33.263  1.00  0.00    -0.295 OA
BRANCH   4   6
ATOM      6  C   UNL     1      58.117  68.925  31.914  1.00  0.00     0.091 CG0
ATOM      7  G   UNL     1      59.333  69.826  32.228  1.00  0.00     0.000 G0
ENDBRANCH   4   6
ENDBRANCH   2   4
BRANCH   3   8
ATOM      8  C   UNL     1      60.979  68.097  31.375  1.00  0.00    -0.003 C 
ATOM      9  C   UNL     1      60.528  69.355  31.445  1.00  0.00    -0.020 C 
BRANCH   9  10
ATOM     10  C   UNL     1      59.328  69.829  32.229  1.00  0.00    -0.010 CG0
ATOM     11  C   UNL     1      59.659  69.879  33.738  1.00  0.00     0.016 C 
ATOM     12  C   UNL     1      58.986  71.266  31.769  1.00  0.00     0.016 C 
ATOM     13  G   UNL     1      58.116  68.924  31.912  1.00  0.00     0.000 G0
ENDBRANCH   9  10
ENDBRANCH   3   8
TORSDOF 0
ENDMDL
