MODEL 1
REMARK VINA RESULT:    -6.167      0.000      0.000
REMARK INTER + INTRA:          -8.842
REMARK INTER:                  -7.609
REMARK INTRA:                  -1.233
REMARK UNBOUND:                -1.233
REMARK SMILES CC(C)=CCC[C@@H](C)c1ccc(C)cc1
REMARK SMILES IDX 6 1 7 2 8 3 9 4 13 5 12 6 11 7 14 8 10 9 15 10 5 11 4 12
REMARK SMILES IDX 2 13 1 14 3 15
REMARK H PARENT
REMARK Flexibility Score: inf
ROOT
ATOM      1  C   UNL     1      -6.037   7.204 -23.331  1.00  0.00     0.012 C 
ENDROOT
BRANCH   1   2
ATOM      2  C   UNL     1      -4.735   6.636 -23.949  1.00  0.00     0.016 C 
ATOM      3  C   UNL     1      -3.802   7.745 -24.463  1.00  0.00     0.013 C 
BRANCH   2   4
ATOM      4  C   UNL     1      -4.010   5.765 -22.940  1.00  0.00    -0.045 A 
ATOM      5  C   UNL     1      -1.897   3.294 -20.095  1.00  0.00     0.044 C 
ATOM      6  C   UNL     1      -2.649   4.160 -21.061  1.00  0.00    -0.051 A 
ATOM      7  C   UNL     1      -2.242   5.483 -21.290  1.00  0.00     0.004 A 
ATOM      8  C   UNL     1      -3.722   3.635 -21.794  1.00  0.00     0.004 A 
ATOM      9  C   UNL     1      -2.919   6.280 -22.217  1.00  0.00     0.004 A 
ATOM     10  C   UNL     1      -4.402   4.431 -22.721  1.00  0.00     0.004 A 
ENDBRANCH   2   4
ENDBRANCH   1   2
BRANCH   1  11
ATOM     11  C   UNL     1      -5.834   8.513 -22.549  1.00  0.00     0.028 C 
BRANCH  11  12
ATOM     12  C   UNL     1      -5.652   8.276 -21.068  1.00  0.00    -0.028 C 
ATOM     13  C   UNL     1      -4.626   8.792 -20.360  1.00  0.00    -0.080 C 
ATOM     14  C   UNL     1      -3.574   9.661 -21.009  1.00  0.00     0.039 C 
ATOM     15  C   UNL     1      -4.536   8.487 -18.887  1.00  0.00     0.039 C 
ENDBRANCH  11  12
ENDBRANCH   1  11
TORSDOF 4
ENDMDL
MODEL 2
REMARK VINA RESULT:    -6.121      1.437      5.333
REMARK INTER + INTRA:          -8.785
REMARK INTER:                  -7.877
REMARK INTRA:                  -0.908
REMARK UNBOUND:                -1.233
REMARK SMILES CC(C)=CCC[C@@H](C)c1ccc(C)cc1
REMARK SMILES IDX 6 1 7 2 8 3 9 4 13 5 12 6 11 7 14 8 10 9 15 10 5 11 4 12
REMARK SMILES IDX 2 13 1 14 3 15
REMARK H PARENT
REMARK Flexibility Score: inf
ROOT
ATOM      1  C   UNL     1      -1.898   5.767 -20.717  1.00  0.00     0.012 C 
ENDROOT
BRANCH   1   2
ATOM      2  C   UNL     1      -3.236   6.477 -20.391  1.00  0.00     0.016 C 
ATOM      3  C   UNL     1      -3.068   7.584 -19.337  1.00  0.00     0.013 C 
BRANCH   2   4
ATOM      4  C   UNL     1      -3.852   7.046 -21.656  1.00  0.00    -0.045 A 
ATOM      5  C   UNL     1      -5.554   8.678 -25.275  1.00  0.00     0.044 C 
ATOM      6  C   UNL     1      -4.985   8.090 -24.019  1.00  0.00    -0.051 A 
ATOM      7  C   UNL     1      -3.960   7.135 -24.087  1.00  0.00     0.004 A 
ATOM      8  C   UNL     1      -5.422   8.541 -22.765  1.00  0.00     0.004 A 
ATOM      9  C   UNL     1      -3.403   6.613 -22.917  1.00  0.00     0.004 A 
ATOM     10  C   UNL     1      -4.867   8.020 -21.593  1.00  0.00     0.004 A 
ENDBRANCH   2   4
ENDBRANCH   1   2
BRANCH   1  11
ATOM     11  C   UNL     1      -1.904   4.260 -20.409  1.00  0.00     0.028 C 
BRANCH  11  12
ATOM     12  C   UNL     1      -2.966   3.518 -21.187  1.00  0.00    -0.028 C 
ATOM     13  C   UNL     1      -4.005   2.888 -20.599  1.00  0.00    -0.080 C 
ATOM     14  C   UNL     1      -4.181   2.884 -19.099  1.00  0.00     0.039 C 
ATOM     15  C   UNL     1      -5.004   2.172 -21.471  1.00  0.00     0.039 C 
ENDBRANCH  11  12
ENDBRANCH   1  11
TORSDOF 4
ENDMDL
MODEL 3
REMARK VINA RESULT:    -6.084      1.656      3.402
REMARK INTER + INTRA:          -8.739
REMARK INTER:                  -7.923
REMARK INTRA:                  -0.816
REMARK UNBOUND:                -1.233
REMARK SMILES CC(C)=CCC[C@@H](C)c1ccc(C)cc1
REMARK SMILES IDX 6 1 7 2 8 3 9 4 13 5 12 6 11 7 14 8 10 9 15 10 5 11 4 12
REMARK SMILES IDX 2 13 1 14 3 15
REMARK H PARENT
REMARK Flexibility Score: inf
ROOT
ATOM      1  C   UNL     1      -3.789   7.307 -20.898  1.00  0.00     0.012 C 
ENDROOT
BRANCH   1   2
ATOM      2  C   UNL     1      -2.915   6.173 -21.489  1.00  0.00     0.016 C 
ATOM      3  C   UNL     1      -1.437   6.305 -21.084  1.00  0.00     0.013 C 
BRANCH   2   4
ATOM      4  C   UNL     1      -3.456   4.818 -21.069  1.00  0.00    -0.045 A 
ATOM      5  C   UNL     1      -4.946   0.951 -19.849  1.00  0.00     0.044 C 
ATOM      6  C   UNL     1      -4.456   2.305 -20.269  1.00  0.00    -0.051 A 
ATOM      7  C   UNL     1      -3.918   3.188 -19.321  1.00  0.00     0.004 A 
ATOM      8  C   UNL     1      -4.468   2.673 -21.622  1.00  0.00     0.004 A 
ATOM      9  C   UNL     1      -3.428   4.435 -19.716  1.00  0.00     0.004 A 
ATOM     10  C   UNL     1      -3.978   3.921 -22.019  1.00  0.00     0.004 A 
ENDBRANCH   2   4
ENDBRANCH   1   2
BRANCH   1  11
ATOM     11  C   UNL     1      -3.951   8.518 -21.833  1.00  0.00     0.028 C 
BRANCH  11  12
ATOM     12  C   UNL     1      -4.165   8.109 -23.272  1.00  0.00    -0.028 C 
ATOM     13  C   UNL     1      -5.386   7.888 -23.802  1.00  0.00    -0.080 C 
ATOM     14  C   UNL     1      -6.644   8.042 -22.980  1.00  0.00     0.039 C 
ATOM     15  C   UNL     1      -5.484   7.477 -25.248  1.00  0.00     0.039 C 
ENDBRANCH  11  12
ENDBRANCH   1  11
TORSDOF 4
ENDMDL
MODEL 4
REMARK VINA RESULT:    -6.082      1.534      2.608
REMARK INTER + INTRA:          -8.737
REMARK INTER:                  -7.711
REMARK INTRA:                  -1.026
REMARK UNBOUND:                -1.233
REMARK SMILES CC(C)=CCC[C@@H](C)c1ccc(C)cc1
REMARK SMILES IDX 6 1 7 2 8 3 9 4 13 5 12 6 11 7 14 8 10 9 15 10 5 11 4 12
REMARK SMILES IDX 2 13 1 14 3 15
REMARK H PARENT
REMARK Flexibility Score: inf
ROOT
ATOM      1  C   UNL     1      -3.851   7.057 -22.692  1.00  0.00     0.012 C 
ENDROOT
BRANCH   1   2
ATOM      2  C   UNL     1      -2.703   6.196 -22.109  1.00  0.00     0.016 C 
ATOM      3  C   UNL     1      -1.850   6.972 -21.093  1.00  0.00     0.013 C 
BRANCH   2   4
ATOM      4  C   UNL     1      -3.261   4.936 -21.473  1.00  0.00    -0.045 A 
ATOM      5  C   UNL     1      -4.899   1.360 -19.685  1.00  0.00     0.044 C 
ATOM      6  C   UNL     1      -4.304   2.588 -20.308  1.00  0.00    -0.051 A 
ATOM      7  C   UNL     1      -4.396   2.793 -21.693  1.00  0.00     0.004 A 
ATOM      8  C   UNL     1      -3.713   3.573 -19.505  1.00  0.00     0.004 A 
ATOM      9  C   UNL     1      -3.874   3.953 -22.271  1.00  0.00     0.004 A 
ATOM     10  C   UNL     1      -3.190   4.734 -20.081  1.00  0.00     0.004 A 
ENDBRANCH   2   4
ENDBRANCH   1   2
BRANCH   1  11
ATOM     11  C   UNL     1      -4.051   8.398 -21.966  1.00  0.00     0.028 C 
BRANCH  11  12
ATOM     12  C   UNL     1      -5.443   8.541 -21.396  1.00  0.00    -0.028 C 
ATOM     13  C   UNL     1      -5.705   8.507 -20.072  1.00  0.00    -0.080 C 
ATOM     14  C   UNL     1      -4.605   8.325 -19.053  1.00  0.00     0.039 C 
ATOM     15  C   UNL     1      -7.133   8.653 -19.612  1.00  0.00     0.039 C 
ENDBRANCH  11  12
ENDBRANCH   1  11
TORSDOF 4
ENDMDL
MODEL 5
REMARK VINA RESULT:    -6.049      1.791      5.179
REMARK INTER + INTRA:          -8.696
REMARK INTER:                  -7.822
REMARK INTRA:                  -0.874
REMARK UNBOUND:                -1.233
REMARK SMILES CC(C)=CCC[C@@H](C)c1ccc(C)cc1
REMARK SMILES IDX 6 1 7 2 8 3 9 4 13 5 12 6 11 7 14 8 10 9 15 10 5 11 4 12
REMARK SMILES IDX 2 13 1 14 3 15
REMARK H PARENT
REMARK Flexibility Score: inf
ROOT
ATOM      1  C   UNL     1      -3.730   6.182 -19.354  1.00  0.00     0.012 C 
ENDROOT
BRANCH   1   2
ATOM      2  C   UNL     1      -3.051   7.324 -20.151  1.00  0.00     0.016 C 
ATOM      3  C   UNL     1      -1.537   7.104 -20.309  1.00  0.00     0.013 C 
BRANCH   2   4
ATOM      4  C   UNL     1      -3.704   7.476 -21.512  1.00  0.00    -0.045 A 
ATOM      5  C   UNL     1      -5.513   7.920 -25.410  1.00  0.00     0.044 C 
ATOM      6  C   UNL     1      -4.906   7.746 -24.050  1.00  0.00    -0.051 A 
ATOM      7  C   UNL     1      -3.875   6.815 -23.849  1.00  0.00     0.004 A 
ATOM      8  C   UNL     1      -5.315   8.559 -22.984  1.00  0.00     0.004 A 
ATOM      9  C   UNL     1      -3.284   6.677 -22.591  1.00  0.00     0.004 A 
ATOM     10  C   UNL     1      -4.725   8.423 -21.724  1.00  0.00     0.004 A 
ENDBRANCH   2   4
ENDBRANCH   1   2
BRANCH   1  11
ATOM     11  C   UNL     1      -2.849   4.932 -19.186  1.00  0.00     0.028 C 
BRANCH  11  12
ATOM     12  C   UNL     1      -3.664   3.676 -18.991  1.00  0.00    -0.028 C 
ATOM     13  C   UNL     1      -4.021   2.863 -20.008  1.00  0.00    -0.080 C 
ATOM     14  C   UNL     1      -3.619   3.158 -21.434  1.00  0.00     0.039 C 
ATOM     15  C   UNL     1      -4.842   1.637 -19.702  1.00  0.00     0.039 C 
ENDBRANCH  11  12
ENDBRANCH   1  11
TORSDOF 4
ENDMDL
MODEL 6
REMARK VINA RESULT:    -5.984     14.489     16.398
REMARK INTER + INTRA:          -8.616
REMARK INTER:                  -8.025
REMARK INTRA:                  -0.592
REMARK UNBOUND:                -1.233
REMARK SMILES CC(C)=CCC[C@@H](C)c1ccc(C)cc1
REMARK SMILES IDX 6 1 7 2 8 3 9 4 13 5 12 6 11 7 14 8 10 9 15 10 5 11 4 12
REMARK SMILES IDX 2 13 1 14 3 15
REMARK H PARENT
REMARK Flexibility Score: inf
ROOT
ATOM      1  C   UNL     1     -16.629  -3.981 -22.986  1.00  0.00     0.012 C 
ENDROOT
BRANCH   1   2
ATOM      2  C   UNL     1     -16.467  -5.041 -24.104  1.00  0.00     0.016 C 
ATOM      3  C   UNL     1     -17.557  -6.124 -24.044  1.00  0.00     0.013 C 
BRANCH   2   4
ATOM      4  C   UNL     1     -16.466  -4.372 -25.467  1.00  0.00    -0.045 A 
ATOM      5  C   UNL     1     -16.416  -2.496 -29.358  1.00  0.00     0.044 C 
ATOM      6  C   UNL     1     -16.463  -3.148 -28.008  1.00  0.00    -0.051 A 
ATOM      7  C   UNL     1     -16.365  -4.543 -27.894  1.00  0.00     0.004 A 
ATOM      8  C   UNL     1     -16.536  -2.366 -26.847  1.00  0.00     0.004 A 
ATOM      9  C   UNL     1     -16.373  -5.150 -26.635  1.00  0.00     0.004 A 
ATOM     10  C   UNL     1     -16.544  -2.972 -25.587  1.00  0.00     0.004 A 
ENDBRANCH   2   4
ENDBRANCH   1   2
BRANCH   1  11
ATOM     11  C   UNL     1     -15.703  -4.206 -21.779  1.00  0.00     0.028 C 
BRANCH  11  12
ATOM     12  C   UNL     1     -14.438  -3.384 -21.864  1.00  0.00    -0.028 C 
ATOM     13  C   UNL     1     -14.027  -2.558 -20.879  1.00  0.00    -0.080 C 
ATOM     14  C   UNL     1     -14.816  -2.399 -19.601  1.00  0.00     0.039 C 
ATOM     15  C   UNL     1     -12.752  -1.779 -21.071  1.00  0.00     0.039 C 
ENDBRANCH  11  12
ENDBRANCH   1  11
TORSDOF 4
ENDMDL
MODEL 7
REMARK VINA RESULT:    -5.821      1.705      4.587
REMARK INTER + INTRA:          -8.415
REMARK INTER:                  -7.771
REMARK INTRA:                  -0.644
REMARK UNBOUND:                -1.233
REMARK SMILES CC(C)=CCC[C@@H](C)c1ccc(C)cc1
REMARK SMILES IDX 6 1 7 2 8 3 9 4 13 5 12 6 11 7 14 8 10 9 15 10 5 11 4 12
REMARK SMILES IDX 2 13 1 14 3 15
REMARK H PARENT
REMARK Flexibility Score: inf
ROOT
ATOM      1  C   UNL     1      -4.594   4.999 -22.616  1.00  0.00     0.012 C 
ENDROOT
BRANCH   1   2
ATOM      2  C   UNL     1      -3.826   6.172 -23.273  1.00  0.00     0.016 C 
ATOM      3  C   UNL     1      -4.738   7.054 -24.142  1.00  0.00     0.013 C 
BRANCH   2   4
ATOM      4  C   UNL     1      -3.140   7.013 -22.211  1.00  0.00    -0.045 A 
ATOM      5  C   UNL     1      -1.178   9.444 -19.228  1.00  0.00     0.044 C 
ATOM      6  C   UNL     1      -1.878   8.590 -20.242  1.00  0.00    -0.051 A 
ATOM      7  C   UNL     1      -2.921   9.122 -21.016  1.00  0.00     0.004 A 
ATOM      8  C   UNL     1      -1.451   7.275 -20.476  1.00  0.00     0.004 A 
ATOM      9  C   UNL     1      -3.550   8.339 -21.987  1.00  0.00     0.004 A 
ATOM     10  C   UNL     1      -2.080   6.490 -21.447  1.00  0.00     0.004 A 
ENDBRANCH   2   4
ENDBRANCH   1   2
BRANCH   1  11
ATOM     11  C   UNL     1      -3.771   3.704 -22.502  1.00  0.00     0.028 C 
BRANCH  11  12
ATOM     12  C   UNL     1      -4.474   2.646 -21.684  1.00  0.00    -0.028 C 
ATOM     13  C   UNL     1      -4.297   2.504 -20.354  1.00  0.00    -0.080 C 
ATOM     14  C   UNL     1      -3.371   3.411 -19.578  1.00  0.00     0.039 C 
ATOM     15  C   UNL     1      -5.044   1.409 -19.636  1.00  0.00     0.039 C 
ENDBRANCH  11  12
ENDBRANCH   1  11
TORSDOF 4
ENDMDL
MODEL 8
REMARK VINA RESULT:    -5.762      1.330      4.730
REMARK INTER + INTRA:          -8.342
REMARK INTER:                  -7.013
REMARK INTRA:                  -1.329
REMARK UNBOUND:                -1.233
REMARK SMILES CC(C)=CCC[C@@H](C)c1ccc(C)cc1
REMARK SMILES IDX 6 1 7 2 8 3 9 4 13 5 12 6 11 7 14 8 10 9 15 10 5 11 4 12
REMARK SMILES IDX 2 13 1 14 3 15
REMARK H PARENT
REMARK Flexibility Score: inf
ROOT
ATOM      1  C   UNL     1      -4.456   7.701 -19.077  1.00  0.00     0.012 C 
ENDROOT
BRANCH   1   2
ATOM      2  C   UNL     1      -4.142   8.826 -20.094  1.00  0.00     0.016 C 
ATOM      3  C   UNL     1      -2.648   9.192 -20.117  1.00  0.00     0.013 C 
BRANCH   2   4
ATOM      4  C   UNL     1      -4.605   8.425 -21.483  1.00  0.00    -0.045 A 
ATOM      5  C   UNL     1      -5.895   7.324 -25.456  1.00  0.00     0.044 C 
ATOM      6  C   UNL     1      -5.448   7.677 -24.069  1.00  0.00    -0.051 A 
ATOM      7  C   UNL     1      -4.081   7.795 -23.776  1.00  0.00     0.004 A 
ATOM      8  C   UNL     1      -6.392   7.960 -23.072  1.00  0.00     0.004 A 
ATOM      9  C   UNL     1      -3.663   8.160 -22.493  1.00  0.00     0.004 A 
ATOM     10  C   UNL     1      -5.976   8.324 -21.788  1.00  0.00     0.004 A 
ENDBRANCH   2   4
ENDBRANCH   1   2
BRANCH   1  11
ATOM     11  C   UNL     1      -3.300   6.706 -18.875  1.00  0.00     0.028 C 
BRANCH  11  12
ATOM     12  C   UNL     1      -3.513   5.416 -19.632  1.00  0.00    -0.028 C 
ATOM     13  C   UNL     1      -2.669   4.975 -20.589  1.00  0.00    -0.080 C 
ATOM     14  C   UNL     1      -1.431   5.752 -20.971  1.00  0.00     0.039 C 
ATOM     15  C   UNL     1      -2.981   3.676 -21.287  1.00  0.00     0.039 C 
ENDBRANCH  11  12
ENDBRANCH   1  11
TORSDOF 4
ENDMDL
MODEL 9
REMARK VINA RESULT:    -5.711      1.676      3.655
REMARK INTER + INTRA:          -8.279
REMARK INTER:                  -7.237
REMARK INTRA:                  -1.042
REMARK UNBOUND:                -1.233
REMARK SMILES CC(C)=CCC[C@@H](C)c1ccc(C)cc1
REMARK SMILES IDX 6 1 7 2 8 3 9 4 13 5 12 6 11 7 14 8 10 9 15 10 5 11 4 12
REMARK SMILES IDX 2 13 1 14 3 15
REMARK H PARENT
REMARK Flexibility Score: inf
ROOT
ATOM      1  C   UNL     1      -4.740   8.847 -20.533  1.00  0.00     0.012 C 
ENDROOT
BRANCH   1   2
ATOM      2  C   UNL     1      -3.297   8.935 -21.090  1.00  0.00     0.016 C 
ATOM      3  C   UNL     1      -2.630  10.283 -20.771  1.00  0.00     0.013 C 
BRANCH   2   4
ATOM      4  C   UNL     1      -2.455   7.792 -20.554  1.00  0.00    -0.045 A 
ATOM      5  C   UNL     1      -0.017   4.575 -19.015  1.00  0.00     0.044 C 
ATOM      6  C   UNL     1      -0.888   5.677 -19.539  1.00  0.00    -0.051 A 
ATOM      7  C   UNL     1      -1.163   6.800 -18.744  1.00  0.00     0.004 A 
ATOM      8  C   UNL     1      -1.377   5.628 -20.852  1.00  0.00     0.004 A 
ATOM      9  C   UNL     1      -1.944   7.845 -19.244  1.00  0.00     0.004 A 
ATOM     10  C   UNL     1      -2.159   6.672 -21.354  1.00  0.00     0.004 A 
ENDBRANCH   2   4
ENDBRANCH   1   2
BRANCH   1  11
ATOM     11  C   UNL     1      -5.717   8.096 -21.454  1.00  0.00     0.028 C 
BRANCH  11  12
ATOM     12  C   UNL     1      -5.630   8.566 -22.888  1.00  0.00    -0.028 C 
ATOM     13  C   UNL     1      -5.291   7.753 -23.911  1.00  0.00    -0.080 C 
ATOM     14  C   UNL     1      -4.973   6.293 -23.689  1.00  0.00     0.039 C 
ATOM     15  C   UNL     1      -5.228   8.328 -25.302  1.00  0.00     0.039 C 
ENDBRANCH  11  12
ENDBRANCH   1  11
TORSDOF 4
ENDMDL
