MODEL 1
REMARK VINA RESULT:    -2.444      0.000      0.000
REMARK INTER + INTRA:          -3.724
REMARK INTER:                  -3.301
REMARK INTRA:                  -0.423
REMARK UNBOUND:                -0.423
REMARK SMILES CCCCCCCC(C)=O
REMARK SMILES IDX 5 1 4 2 3 3 2 4 1 5 6 6 7 7 8 8 10 9 9 10
REMARK H PARENT
REMARK Flexibility Score: inf
ROOT
ATOM      1  C   UNL     1     111.745 128.856 116.008  1.00  0.00     0.000 C 
ENDROOT
BRANCH   1   2
ATOM      2  C   UNL     1     111.306 128.494 117.442  1.00  0.00     0.000 C 
BRANCH   2   3
ATOM      3  C   UNL     1     111.669 127.068 117.895  1.00  0.00    -0.000 C 
BRANCH   3   4
ATOM      4  C   UNL     1     110.434 126.197 118.166  1.00  0.00    -0.003 C 
ATOM      5  C   UNL     1     110.837 124.767 118.516  1.00  0.00     0.004 C 
ENDBRANCH   3   4
ENDBRANCH   2   3
ENDBRANCH   1   2
BRANCH   1   6
ATOM      6  C   UNL     1     112.843 127.955 115.415  1.00  0.00     0.008 C 
BRANCH   6   7
ATOM      7  C   UNL     1     114.101 128.735 115.012  1.00  0.00     0.075 C 
BRANCH   7   8
ATOM      8  C   UNL     1     115.202 128.524 116.018  1.00  0.00     0.129 C 
ATOM      9  O   UNL     1     116.211 127.919 115.687  1.00  0.00    -0.300 OA
ATOM     10  C   UNL     1     115.094 129.050 117.419  1.00  0.00     0.087 C 
ENDBRANCH   7   8
ENDBRANCH   6   7
ENDBRANCH   1   6
TORSDOF 6
ENDMDL
MODEL 2
REMARK VINA RESULT:    -2.427     12.672     15.305
REMARK INTER + INTRA:          -3.701
REMARK INTER:                  -3.343
REMARK INTRA:                  -0.358
REMARK UNBOUND:                -0.423
REMARK SMILES CCCCCCCC(C)=O
REMARK SMILES IDX 5 1 4 2 3 3 2 4 1 5 6 6 7 7 8 8 10 9 9 10
REMARK H PARENT
REMARK Flexibility Score: inf
ROOT
ATOM      1  C   UNL     1     129.222 127.429 117.418  1.00  0.00     0.000 C 
ENDROOT
BRANCH   1   2
ATOM      2  C   UNL     1     129.744 127.734 115.999  1.00  0.00     0.000 C 
BRANCH   2   3
ATOM      3  C   UNL     1     129.584 126.587 114.984  1.00  0.00    -0.000 C 
BRANCH   3   4
ATOM      4  C   UNL     1     128.247 125.846 115.129  1.00  0.00    -0.003 C 
ATOM      5  C   UNL     1     128.468 124.377 115.477  1.00  0.00     0.004 C 
ENDBRANCH   3   4
ENDBRANCH   2   3
ENDBRANCH   1   2
BRANCH   1   6
ATOM      6  C   UNL     1     128.075 128.336 117.899  1.00  0.00     0.008 C 
BRANCH   6   7
ATOM      7  C   UNL     1     126.720 127.617 117.933  1.00  0.00     0.075 C 
BRANCH   7   8
ATOM      8  C   UNL     1     125.639 128.544 118.423  1.00  0.00     0.129 C 
ATOM      9  O   UNL     1     125.872 129.740 118.520  1.00  0.00    -0.300 OA
ATOM     10  C   UNL     1     124.276 128.034 118.787  1.00  0.00     0.087 C 
ENDBRANCH   7   8
ENDBRANCH   6   7
ENDBRANCH   1   6
TORSDOF 6
ENDMDL
MODEL 3
REMARK VINA RESULT:    -2.423     13.444     15.797
REMARK INTER + INTRA:          -3.696
REMARK INTER:                  -3.346
REMARK INTRA:                  -0.350
REMARK UNBOUND:                -0.423
REMARK SMILES CCCCCCCC(C)=O
REMARK SMILES IDX 5 1 4 2 3 3 2 4 1 5 6 6 7 7 8 8 10 9 9 10
REMARK H PARENT
REMARK Flexibility Score: inf
ROOT
ATOM      1  C   UNL     1     129.353 126.579 115.065  1.00  0.00     0.000 C 
ENDROOT
BRANCH   1   2
ATOM      2  C   UNL     1     128.963 127.445 116.281  1.00  0.00     0.000 C 
BRANCH   2   3
ATOM      3  C   UNL     1     127.576 127.145 116.877  1.00  0.00    -0.000 C 
BRANCH   3   4
ATOM      4  C   UNL     1     127.279 127.970 118.138  1.00  0.00    -0.003 C 
ATOM      5  C   UNL     1     125.794 128.314 118.232  1.00  0.00     0.004 C 
ENDBRANCH   3   4
ENDBRANCH   2   3
ENDBRANCH   1   2
BRANCH   1   6
ATOM      6  C   UNL     1     128.509 125.306 114.875  1.00  0.00     0.008 C 
BRANCH   6   7
ATOM      7  C   UNL     1     129.272 124.024 115.234  1.00  0.00     0.075 C 
BRANCH   7   8
ATOM      8  C   UNL     1     128.448 123.152 116.143  1.00  0.00     0.129 C 
ATOM      9  O   UNL     1     127.607 122.407 115.662  1.00  0.00    -0.300 OA
ATOM     10  C   UNL     1     128.643 123.168 117.631  1.00  0.00     0.087 C 
ENDBRANCH   7   8
ENDBRANCH   6   7
ENDBRANCH   1   6
TORSDOF 6
ENDMDL
MODEL 4
REMARK VINA RESULT:    -2.418     14.929     16.516
REMARK INTER + INTRA:          -3.690
REMARK INTER:                  -3.474
REMARK INTRA:                  -0.216
REMARK UNBOUND:                -0.423
REMARK SMILES CCCCCCCC(C)=O
REMARK SMILES IDX 5 1 4 2 3 3 2 4 1 5 6 6 7 7 8 8 10 9 9 10
REMARK H PARENT
REMARK Flexibility Score: inf
ROOT
ATOM      1  C   UNL     1     129.507 123.427 115.963  1.00  0.00     0.000 C 
ENDROOT
BRANCH   1   2
ATOM      2  C   UNL     1     129.418 124.682 115.070  1.00  0.00     0.000 C 
BRANCH   2   3
ATOM      3  C   UNL     1     128.052 125.393 115.080  1.00  0.00    -0.000 C 
BRANCH   3   4
ATOM      4  C   UNL     1     128.151 126.868 115.496  1.00  0.00    -0.003 C 
ATOM      5  C   UNL     1     127.587 127.083 116.898  1.00  0.00     0.004 C 
ENDBRANCH   3   4
ENDBRANCH   2   3
ENDBRANCH   1   2
BRANCH   1   6
ATOM      6  C   UNL     1     129.095 122.111 115.280  1.00  0.00     0.008 C 
BRANCH   6   7
ATOM      7  C   UNL     1     128.509 121.088 116.262  1.00  0.00     0.075 C 
BRANCH   7   8
ATOM      8  C   UNL     1     127.130 120.666 115.828  1.00  0.00     0.129 C 
ATOM      9  O   UNL     1     126.428 121.451 115.209  1.00  0.00    -0.300 OA
ATOM     10  C   UNL     1     126.599 119.295 116.132  1.00  0.00     0.087 C 
ENDBRANCH   7   8
ENDBRANCH   6   7
ENDBRANCH   1   6
TORSDOF 6
ENDMDL
MODEL 5
REMARK VINA RESULT:    -2.415      1.840      3.125
REMARK INTER + INTRA:          -3.685
REMARK INTER:                  -3.353
REMARK INTRA:                  -0.332
REMARK UNBOUND:                -0.423
REMARK SMILES CCCCCCCC(C)=O
REMARK SMILES IDX 5 1 4 2 3 3 2 4 1 5 6 6 7 7 8 8 10 9 9 10
REMARK H PARENT
REMARK Flexibility Score: inf
ROOT
ATOM      1  C   UNL     1     114.805 128.585 116.053  1.00  0.00     0.000 C 
ENDROOT
BRANCH   1   2
ATOM      2  C   UNL     1     113.766 128.131 115.006  1.00  0.00     0.000 C 
BRANCH   2   3
ATOM      3  C   UNL     1     112.360 127.847 115.565  1.00  0.00    -0.000 C 
BRANCH   3   4
ATOM      4  C   UNL     1     112.293 127.958 117.095  1.00  0.00    -0.003 C 
ATOM      5  C   UNL     1     111.335 126.923 117.679  1.00  0.00     0.004 C 
ENDBRANCH   3   4
ENDBRANCH   2   3
ENDBRANCH   1   2
BRANCH   1   6
ATOM      6  C   UNL     1     116.112 129.152 115.470  1.00  0.00     0.008 C 
BRANCH   6   7
ATOM      7  C   UNL     1     117.326 128.902 116.374  1.00  0.00     0.075 C 
BRANCH   7   8
ATOM      8  C   UNL     1     117.573 127.425 116.534  1.00  0.00     0.129 C 
ATOM      9  O   UNL     1     117.528 126.926 117.648  1.00  0.00    -0.300 OA
ATOM     10  C   UNL     1     117.864 126.548 115.352  1.00  0.00     0.087 C 
ENDBRANCH   7   8
ENDBRANCH   6   7
ENDBRANCH   1   6
TORSDOF 6
ENDMDL
MODEL 6
REMARK VINA RESULT:    -2.409     11.852     14.520
REMARK INTER + INTRA:          -3.677
REMARK INTER:                  -3.410
REMARK INTRA:                  -0.266
REMARK UNBOUND:                -0.423
REMARK SMILES CCCCCCCC(C)=O
REMARK SMILES IDX 5 1 4 2 3 3 2 4 1 5 6 6 7 7 8 8 10 9 9 10
REMARK H PARENT
REMARK Flexibility Score: inf
ROOT
ATOM      1  C   UNL     1     127.246 127.288 117.342  1.00  0.00     0.000 C 
ENDROOT
BRANCH   1   2
ATOM      2  C   UNL     1     128.646 127.515 116.735  1.00  0.00     0.000 C 
BRANCH   2   3
ATOM      3  C   UNL     1     128.873 126.864 115.358  1.00  0.00    -0.000 C 
BRANCH   3   4
ATOM      4  C   UNL     1     127.962 125.652 115.114  1.00  0.00    -0.003 C 
ATOM      5  C   UNL     1     128.692 124.346 115.416  1.00  0.00     0.004 C 
ENDBRANCH   3   4
ENDBRANCH   2   3
ENDBRANCH   1   2
BRANCH   1   6
ATOM      6  C   UNL     1     126.826 128.313 118.410  1.00  0.00     0.008 C 
BRANCH   6   7
ATOM      7  C   UNL     1     125.365 128.760 118.266  1.00  0.00     0.075 C 
BRANCH   7   8
ATOM      8  C   UNL     1     124.521 128.183 119.372  1.00  0.00     0.129 C 
ATOM      9  O   UNL     1     124.524 128.716 120.471  1.00  0.00    -0.300 OA
ATOM     10  C   UNL     1     123.666 126.970 119.152  1.00  0.00     0.087 C 
ENDBRANCH   7   8
ENDBRANCH   6   7
ENDBRANCH   1   6
TORSDOF 6
ENDMDL
MODEL 7
REMARK VINA RESULT:    -2.407     14.365     16.158
REMARK INTER + INTRA:          -3.674
REMARK INTER:                  -3.280
REMARK INTRA:                  -0.394
REMARK UNBOUND:                -0.423
REMARK SMILES CCCCCCCC(C)=O
REMARK SMILES IDX 5 1 4 2 3 3 2 4 1 5 6 6 7 7 8 8 10 9 9 10
REMARK H PARENT
REMARK Flexibility Score: inf
ROOT
ATOM      1  C   UNL     1     128.187 125.502 115.112  1.00  0.00     0.000 C 
ENDROOT
BRANCH   1   2
ATOM      2  C   UNL     1     129.045 126.773 115.276  1.00  0.00     0.000 C 
BRANCH   2   3
ATOM      3  C   UNL     1     128.873 127.507 116.619  1.00  0.00    -0.000 C 
BRANCH   3   4
ATOM      4  C   UNL     1     127.748 126.916 117.481  1.00  0.00    -0.003 C 
ATOM      5  C   UNL     1     126.664 127.955 117.758  1.00  0.00     0.004 C 
ENDBRANCH   3   4
ENDBRANCH   2   3
ENDBRANCH   1   2
BRANCH   1   6
ATOM      6  C   UNL     1     128.964 124.176 115.194  1.00  0.00     0.008 C 
BRANCH   6   7
ATOM      7  C   UNL     1     128.633 123.367 116.455  1.00  0.00     0.075 C 
BRANCH   7   8
ATOM      8  C   UNL     1     128.307 121.940 116.100  1.00  0.00     0.129 C 
ATOM      9  O   UNL     1     129.163 121.078 116.229  1.00  0.00    -0.300 OA
ATOM     10  C   UNL     1     126.948 121.549 115.600  1.00  0.00     0.087 C 
ENDBRANCH   7   8
ENDBRANCH   6   7
ENDBRANCH   1   6
TORSDOF 6
ENDMDL
MODEL 8
REMARK VINA RESULT:    -2.369      1.544      2.462
REMARK INTER + INTRA:          -3.623
REMARK INTER:                  -3.378
REMARK INTRA:                  -0.245
REMARK UNBOUND:                -0.423
REMARK SMILES CCCCCCCC(C)=O
REMARK SMILES IDX 5 1 4 2 3 3 2 4 1 5 6 6 7 7 8 8 10 9 9 10
REMARK H PARENT
REMARK Flexibility Score: inf
ROOT
ATOM      1  C   UNL     1     111.807 126.971 117.785  1.00  0.00     0.000 C 
ENDROOT
BRANCH   1   2
ATOM      2  C   UNL     1     110.503 126.221 118.126  1.00  0.00     0.000 C 
BRANCH   2   3
ATOM      3  C   UNL     1     110.687 124.752 118.549  1.00  0.00    -0.000 C 
BRANCH   3   4
ATOM      4  C   UNL     1     111.989 124.515 119.328  1.00  0.00    -0.003 C 
ATOM      5  C   UNL     1     112.522 123.105 119.089  1.00  0.00     0.004 C 
ENDBRANCH   3   4
ENDBRANCH   2   3
ENDBRANCH   1   2
BRANCH   1   6
ATOM      6  C   UNL     1     111.667 128.065 116.711  1.00  0.00     0.008 C 
BRANCH   6   7
ATOM      7  C   UNL     1     112.500 127.778 115.455  1.00  0.00     0.075 C 
BRANCH   7   8
ATOM      8  C   UNL     1     113.532 128.855 115.245  1.00  0.00     0.129 C 
ATOM      9  O   UNL     1     113.174 129.971 114.901  1.00  0.00    -0.300 OA
ATOM     10  C   UNL     1     114.994 128.590 115.457  1.00  0.00     0.087 C 
ENDBRANCH   7   8
ENDBRANCH   6   7
ENDBRANCH   1   6
TORSDOF 6
ENDMDL
MODEL 9
REMARK VINA RESULT:    -2.335      2.326      5.179
REMARK INTER + INTRA:          -3.577
REMARK INTER:                  -3.301
REMARK INTRA:                  -0.276
REMARK UNBOUND:                -0.423
REMARK SMILES CCCCCCCC(C)=O
REMARK SMILES IDX 5 1 4 2 3 3 2 4 1 5 6 6 7 7 8 8 10 9 9 10
REMARK H PARENT
REMARK Flexibility Score: inf
ROOT
ATOM      1  C   UNL     1     111.177 128.239 117.692  1.00  0.00     0.000 C 
ENDROOT
BRANCH   1   2
ATOM      2  C   UNL     1     111.638 128.909 116.381  1.00  0.00     0.000 C 
BRANCH   2   3
ATOM      3  C   UNL     1     112.497 128.021 115.462  1.00  0.00    -0.000 C 
BRANCH   3   4
ATOM      4  C   UNL     1     113.705 128.765 114.875  1.00  0.00    -0.003 C 
ATOM      5  C   UNL     1     114.987 128.409 115.624  1.00  0.00     0.004 C 
ENDBRANCH   3   4
ENDBRANCH   2   3
ENDBRANCH   1   2
BRANCH   1   6
ATOM      6  C   UNL     1     111.421 126.721 117.769  1.00  0.00     0.008 C 
BRANCH   6   7
ATOM      7  C   UNL     1     110.204 125.947 118.291  1.00  0.00     0.075 C 
BRANCH   7   8
ATOM      8  C   UNL     1     110.640 124.769 119.123  1.00  0.00     0.129 C 
ATOM      9  O   UNL     1     111.375 123.926 118.632  1.00  0.00    -0.300 OA
ATOM     10  C   UNL     1     110.200 124.612 120.549  1.00  0.00     0.087 C 
ENDBRANCH   7   8
ENDBRANCH   6   7
ENDBRANCH   1   6
TORSDOF 6
ENDMDL
