MODEL 1
REMARK VINA RESULT:    -2.379      0.000      0.000
REMARK INTER + INTRA:          -2.614
REMARK INTER:                  -2.587
REMARK INTRA:                  -0.027
REMARK UNBOUND:                -0.027
REMARK SMILES O=C([O-])c1ccc(O)cc1
REMARK SMILES IDX 7 1 6 2 9 3 5 4 10 5 4 6 8 7 2 9 1 10 3 11
REMARK H PARENT 8 8
REMARK Flexibility Score: inf
ROOT
ATOM      1  C   UNL     1     -39.776   6.491 -53.566  1.00  0.00     0.115 A 
ATOM      2  C   UNL     1     -38.974   7.315 -52.767  1.00  0.00     0.047 A 
ATOM      3  C   UNL     1     -39.219   5.845 -54.674  1.00  0.00     0.047 A 
ATOM      4  C   UNL     1     -37.621   7.492 -53.074  1.00  0.00     0.014 A 
ATOM      5  C   UNL     1     -37.866   6.020 -54.984  1.00  0.00     0.014 A 
ATOM      6  C   UNL     1     -37.053   6.846 -54.186  1.00  0.00    -0.003 A 
ENDROOT
BRANCH   1   7
ATOM      7  O   UNL     1     -41.125   6.307 -53.269  1.00  0.00    -0.508 OA
ATOM      8  H   UNL     1     -41.652   5.535 -53.658  1.00  0.00     0.293 HD
ENDBRANCH   1   7
BRANCH   6   9
ATOM      9  C   UNL     1     -35.622   7.035 -54.510  1.00  0.00     0.071 C 
ATOM     10  O   UNL     1     -34.753   6.240 -54.062  1.00  0.00    -0.545 OA
ATOM     11  O   UNL     1     -35.215   8.094 -55.313  1.00  0.00    -0.545 OA
ENDBRANCH   6   9
TORSDOF 2
ENDMDL
MODEL 2
REMARK VINA RESULT:    -2.128     14.946     16.917
REMARK INTER + INTRA:          -2.342
REMARK INTER:                  -2.311
REMARK INTRA:                  -0.031
REMARK UNBOUND:                -0.027
REMARK SMILES O=C([O-])c1ccc(O)cc1
REMARK SMILES IDX 7 1 6 2 9 3 5 4 10 5 4 6 8 7 2 9 1 10 3 11
REMARK H PARENT 8 8
REMARK Flexibility Score: inf
ROOT
ATOM      1  C   UNL     1     -23.457   7.216 -49.253  1.00  0.00     0.115 A 
ATOM      2  C   UNL     1     -22.560   6.160 -49.049  1.00  0.00     0.047 A 
ATOM      3  C   UNL     1     -23.707   8.123 -48.218  1.00  0.00     0.047 A 
ATOM      4  C   UNL     1     -21.914   6.013 -47.817  1.00  0.00     0.014 A 
ATOM      5  C   UNL     1     -23.063   7.978 -46.985  1.00  0.00     0.014 A 
ATOM      6  C   UNL     1     -22.159   6.921 -46.772  1.00  0.00    -0.003 A 
ENDROOT
BRANCH   1   7
ATOM      7  O   UNL     1     -24.106   7.372 -50.476  1.00  0.00    -0.508 OA
ATOM      8  H   UNL     1     -23.690   7.902 -51.231  1.00  0.00     0.293 HD
ENDBRANCH   1   7
BRANCH   6   9
ATOM      9  C   UNL     1     -21.476   6.763 -45.470  1.00  0.00     0.071 C 
ATOM     10  O   UNL     1     -20.977   7.760 -44.882  1.00  0.00    -0.545 OA
ATOM     11  O   UNL     1     -21.374   5.510 -44.875  1.00  0.00    -0.545 OA
ENDBRANCH   6   9
TORSDOF 2
ENDMDL
MODEL 3
REMARK VINA RESULT:    -1.895     14.660     16.743
REMARK INTER + INTRA:          -2.088
REMARK INTER:                  -2.059
REMARK INTRA:                  -0.030
REMARK UNBOUND:                -0.027
REMARK SMILES O=C([O-])c1ccc(O)cc1
REMARK SMILES IDX 7 1 6 2 9 3 5 4 10 5 4 6 8 7 2 9 1 10 3 11
REMARK H PARENT 8 8
REMARK Flexibility Score: inf
ROOT
ATOM      1  C   UNL     1     -21.724   5.349 -45.725  1.00  0.00     0.115 A 
ATOM      2  C   UNL     1     -21.240   6.548 -46.262  1.00  0.00     0.047 A 
ATOM      3  C   UNL     1     -23.025   4.932 -46.020  1.00  0.00     0.047 A 
ATOM      4  C   UNL     1     -22.053   7.327 -47.091  1.00  0.00     0.014 A 
ATOM      5  C   UNL     1     -23.842   5.709 -46.849  1.00  0.00     0.014 A 
ATOM      6  C   UNL     1     -23.363   6.915 -47.393  1.00  0.00    -0.003 A 
ENDROOT
BRANCH   1   7
ATOM      7  O   UNL     1     -20.921   4.565 -44.897  1.00  0.00    -0.508 OA
ATOM      8  H   UNL     1     -20.273   4.982 -44.241  1.00  0.00     0.293 HD
ENDBRANCH   1   7
BRANCH   6   9
ATOM      9  C   UNL     1     -24.222   7.740 -48.270  1.00  0.00     0.071 C 
ATOM     10  O   UNL     1     -25.357   8.125 -47.878  1.00  0.00    -0.545 OA
ATOM     11  O   UNL     1     -23.790   8.104 -49.540  1.00  0.00    -0.545 OA
ENDBRANCH   6   9
TORSDOF 2
ENDMDL
MODEL 4
REMARK VINA RESULT:    -1.821      1.272      4.320
REMARK INTER + INTRA:          -2.007
REMARK INTER:                  -1.980
REMARK INTRA:                  -0.028
REMARK UNBOUND:                -0.027
REMARK SMILES O=C([O-])c1ccc(O)cc1
REMARK SMILES IDX 7 1 6 2 9 3 5 4 10 5 4 6 8 7 2 9 1 10 3 11
REMARK H PARENT 8 8
REMARK Flexibility Score: inf
ROOT
ATOM      1  C   UNL     1     -35.242   7.249 -54.858  1.00  0.00     0.115 A 
ATOM      2  C   UNL     1     -36.341   7.997 -55.296  1.00  0.00     0.047 A 
ATOM      3  C   UNL     1     -35.437   6.185 -53.972  1.00  0.00     0.047 A 
ATOM      4  C   UNL     1     -37.630   7.683 -54.852  1.00  0.00     0.014 A 
ATOM      5  C   UNL     1     -36.724   5.868 -53.525  1.00  0.00     0.014 A 
ATOM      6  C   UNL     1     -37.834   6.614 -53.962  1.00  0.00    -0.003 A 
ENDROOT
BRANCH   1   7
ATOM      7  O   UNL     1     -33.954   7.554 -55.294  1.00  0.00    -0.508 OA
ATOM      8  H   UNL     1     -33.160   6.979 -55.041  1.00  0.00     0.293 HD
ENDBRANCH   1   7
BRANCH   6   9
ATOM      9  C   UNL     1     -39.197   6.283 -53.492  1.00  0.00     0.071 C 
ATOM     10  O   UNL     1     -39.792   5.258 -53.921  1.00  0.00    -0.545 OA
ATOM     11  O   UNL     1     -39.843   7.100 -52.571  1.00  0.00    -0.545 OA
ENDBRANCH   6   9
TORSDOF 2
ENDMDL
MODEL 5
REMARK VINA RESULT:    -0.622      1.247      4.286
REMARK INTER + INTRA:          -0.704
REMARK INTER:                  -0.677
REMARK INTRA:                  -0.027
REMARK UNBOUND:                -0.027
REMARK SMILES O=C([O-])c1ccc(O)cc1
REMARK SMILES IDX 7 1 6 2 9 3 5 4 10 5 4 6 8 7 2 9 1 10 3 11
REMARK H PARENT 8 8
REMARK Flexibility Score: inf
ROOT
ATOM      1  C   UNL     1     -36.143   7.059 -54.308  1.00  0.00     0.115 A 
ATOM      2  C   UNL     1     -36.644   6.354 -53.206  1.00  0.00     0.047 A 
ATOM      3  C   UNL     1     -36.992   7.375 -55.373  1.00  0.00     0.047 A 
ATOM      4  C   UNL     1     -37.987   5.967 -53.169  1.00  0.00     0.014 A 
ATOM      5  C   UNL     1     -38.336   6.989 -55.339  1.00  0.00     0.014 A 
ATOM      6  C   UNL     1     -38.847   6.281 -54.236  1.00  0.00    -0.003 A 
ENDROOT
BRANCH   1   7
ATOM      7  O   UNL     1     -34.806   7.449 -54.354  1.00  0.00    -0.508 OA
ATOM      8  H   UNL     1     -34.315   7.549 -55.234  1.00  0.00     0.293 HD
ENDBRANCH   1   7
BRANCH   6   9
ATOM      9  C   UNL     1     -40.268   5.871 -54.195  1.00  0.00     0.071 C 
ATOM     10  O   UNL     1     -41.124   6.581 -53.603  1.00  0.00    -0.545 OA
ATOM     11  O   UNL     1     -40.679   4.693 -54.810  1.00  0.00    -0.545 OA
ENDBRANCH   6   9
TORSDOF 2
ENDMDL
MODEL 6
REMARK VINA RESULT:     0.288     12.957     15.006
REMARK INTER + INTRA:           0.287
REMARK INTER:                   0.314
REMARK INTRA:                  -0.027
REMARK UNBOUND:                -0.027
REMARK SMILES O=C([O-])c1ccc(O)cc1
REMARK SMILES IDX 7 1 6 2 9 3 5 4 10 5 4 6 8 7 2 9 1 10 3 11
REMARK H PARENT 8 8
REMARK Flexibility Score: inf
ROOT
ATOM      1  C   UNL     1     -25.045   6.882 -57.369  1.00  0.00     0.115 A 
ATOM      2  C   UNL     1     -23.762   7.440 -57.408  1.00  0.00     0.047 A 
ATOM      3  C   UNL     1     -25.247   5.577 -57.828  1.00  0.00     0.047 A 
ATOM      4  C   UNL     1     -22.685   6.697 -57.903  1.00  0.00     0.014 A 
ATOM      5  C   UNL     1     -24.173   4.831 -58.324  1.00  0.00     0.014 A 
ATOM      6  C   UNL     1     -22.880   5.384 -58.366  1.00  0.00    -0.003 A 
ENDROOT
BRANCH   1   7
ATOM      7  O   UNL     1     -26.124   7.614 -56.878  1.00  0.00    -0.508 OA
ATOM      8  H   UNL     1     -26.620   8.279 -57.458  1.00  0.00     0.293 HD
ENDBRANCH   1   7
BRANCH   6   9
ATOM      9  C   UNL     1     -21.740   4.599 -58.890  1.00  0.00     0.071 C 
ATOM     10  O   UNL     1     -20.875   4.124 -58.106  1.00  0.00    -0.545 OA
ATOM     11  O   UNL     1     -21.607   4.376 -60.255  1.00  0.00    -0.545 OA
ENDBRANCH   6   9
TORSDOF 2
ENDMDL
MODEL 7
REMARK VINA RESULT:     0.409     12.133     14.830
REMARK INTER + INTRA:           0.418
REMARK INTER:                   0.452
REMARK INTRA:                  -0.034
REMARK UNBOUND:                -0.027
REMARK SMILES O=C([O-])c1ccc(O)cc1
REMARK SMILES IDX 7 1 6 2 9 3 5 4 10 5 4 6 8 7 2 9 1 10 3 11
REMARK H PARENT 8 8
REMARK Flexibility Score: inf
ROOT
ATOM      1  C   UNL     1     -22.111   5.209 -58.455  1.00  0.00     0.115 A 
ATOM      2  C   UNL     1     -22.197   6.379 -57.691  1.00  0.00     0.047 A 
ATOM      3  C   UNL     1     -23.275   4.509 -58.786  1.00  0.00     0.047 A 
ATOM      4  C   UNL     1     -23.442   6.848 -57.259  1.00  0.00     0.014 A 
ATOM      5  C   UNL     1     -24.522   4.975 -58.355  1.00  0.00     0.014 A 
ATOM      6  C   UNL     1     -24.618   6.150 -57.587  1.00  0.00    -0.003 A 
ENDROOT
BRANCH   1   7
ATOM      7  O   UNL     1     -20.875   4.734 -58.890  1.00  0.00    -0.508 OA
ATOM      8  H   UNL     1     -20.027   4.910 -58.367  1.00  0.00     0.293 HD
ENDBRANCH   1   7
BRANCH   6   9
ATOM      9  C   UNL     1     -25.934   6.646 -57.129  1.00  0.00     0.071 C 
ATOM     10  O   UNL     1     -26.106   7.869 -56.880  1.00  0.00    -0.545 OA
ATOM     11  O   UNL     1     -27.001   5.769 -56.968  1.00  0.00    -0.545 OA
ENDBRANCH   6   9
TORSDOF 2
ENDMDL
