MODEL 1
REMARK VINA RESULT:    -4.710      0.000      0.000
REMARK INTER + INTRA:          -6.907
REMARK INTER:                  -6.361
REMARK INTRA:                  -0.545
REMARK UNBOUND:                -0.545
REMARK SMILES CC(=O)CCC=C(C)CCC=C(C)C
REMARK SMILES IDX 7 1 6 2 8 3 9 4 10 5 11 6 13 7 12 8 14 9 5 10 4 11 2 12 3 13
REMARK SMILES IDX 1 14
REMARK H PARENT
REMARK Flexibility Score: inf
ROOT
ATOM      1  C   UNL     1      76.585  35.020  52.015  1.00  0.00    -0.077 C 
ATOM      2  C   UNL     1      75.428  35.364  52.625  1.00  0.00    -0.028 C 
ATOM      3  C   UNL     1      77.134  33.614  52.078  1.00  0.00     0.039 C 
ENDROOT
BRANCH   1   4
ATOM      4  C   UNL     1      77.363  36.079  51.264  1.00  0.00     0.034 C 
BRANCH   4   5
ATOM      5  C   UNL     1      78.860  35.981  51.580  1.00  0.00     0.032 C 
BRANCH   5   6
ATOM      6  C   UNL     1      79.642  35.598  50.348  1.00  0.00    -0.028 C 
ATOM      7  C   UNL     1      81.233  34.309  48.989  1.00  0.00     0.039 C 
ATOM      8  C   UNL     1      80.559  34.606  50.303  1.00  0.00    -0.080 C 
ATOM      9  C   UNL     1      80.931  33.805  51.529  1.00  0.00     0.039 C 
ENDBRANCH   5   6
ENDBRANCH   4   5
ENDBRANCH   1   4
BRANCH   2  10
ATOM     10  C   UNL     1      74.540  34.403  53.375  1.00  0.00     0.035 C 
BRANCH  10  11
ATOM     11  C   UNL     1      73.832  35.108  54.535  1.00  0.00     0.079 C 
BRANCH  11  12
ATOM     12  C   UNL     1      72.873  34.172  55.222  1.00  0.00     0.130 C 
ATOM     13  O   UNL     1      72.699  33.051  54.768  1.00  0.00    -0.300 OA
ATOM     14  C   UNL     1      72.116  34.590  56.448  1.00  0.00     0.087 C 
ENDBRANCH  11  12
ENDBRANCH  10  11
ENDBRANCH   2  10
TORSDOF 6
ENDMDL
MODEL 2
REMARK VINA RESULT:    -4.604      2.633      6.959
REMARK INTER + INTRA:          -6.764
REMARK INTER:                  -6.009
REMARK INTRA:                  -0.755
REMARK UNBOUND:                -0.545
REMARK SMILES CC(=O)CCC=C(C)CCC=C(C)C
REMARK SMILES IDX 7 1 6 2 8 3 9 4 10 5 11 6 13 7 12 8 14 9 5 10 4 11 2 12 3 13
REMARK SMILES IDX 1 14
REMARK H PARENT
REMARK Flexibility Score: inf
ROOT
ATOM      1  C   UNL     1      77.016  35.334  52.015  1.00  0.00    -0.077 C 
ATOM      2  C   UNL     1      77.887  36.064  51.282  1.00  0.00    -0.028 C 
ATOM      3  C   UNL     1      77.083  33.825  52.065  1.00  0.00     0.039 C 
ENDROOT
BRANCH   1   4
ATOM      4  C   UNL     1      75.931  36.046  52.792  1.00  0.00     0.034 C 
BRANCH   4   5
ATOM      5  C   UNL     1      74.618  35.257  52.742  1.00  0.00     0.032 C 
BRANCH   5   6
ATOM      6  C   UNL     1      73.882  35.359  54.054  1.00  0.00    -0.028 C 
ATOM      7  C   UNL     1      72.705  34.555  56.057  1.00  0.00     0.039 C 
ATOM      8  C   UNL     1      73.382  34.303  54.734  1.00  0.00    -0.080 C 
ATOM      9  C   UNL     1      73.471  32.893  54.200  1.00  0.00     0.039 C 
ENDBRANCH   5   6
ENDBRANCH   4   5
ENDBRANCH   1   4
BRANCH   2  10
ATOM     10  C   UNL     1      79.034  35.484  50.492  1.00  0.00     0.035 C 
BRANCH  10  11
ATOM     11  C   UNL     1      80.377  35.952  51.059  1.00  0.00     0.079 C 
BRANCH  11  12
ATOM     12  C   UNL     1      80.871  34.998  52.114  1.00  0.00     0.130 C 
ATOM     13  O   UNL     1      81.262  35.438  53.186  1.00  0.00    -0.300 OA
ATOM     14  C   UNL     1      80.907  33.518  51.875  1.00  0.00     0.087 C 
ENDBRANCH  11  12
ENDBRANCH  10  11
ENDBRANCH   2  10
TORSDOF 6
ENDMDL
MODEL 3
REMARK VINA RESULT:    -4.576      2.765      7.343
REMARK INTER + INTRA:          -6.727
REMARK INTER:                  -6.174
REMARK INTRA:                  -0.553
REMARK UNBOUND:                -0.545
REMARK SMILES CC(=O)CCC=C(C)CCC=C(C)C
REMARK SMILES IDX 7 1 6 2 8 3 9 4 10 5 11 6 13 7 12 8 14 9 5 10 4 11 2 12 3 13
REMARK SMILES IDX 1 14
REMARK H PARENT
REMARK Flexibility Score: inf
ROOT
ATOM      1  C   UNL     1      76.030  34.756  52.322  1.00  0.00    -0.077 C 
ATOM      2  C   UNL     1      77.314  34.479  51.998  1.00  0.00    -0.028 C 
ATOM      3  C   UNL     1      75.400  36.095  52.013  1.00  0.00     0.039 C 
ENDROOT
BRANCH   1   4
ATOM      4  C   UNL     1      75.207  33.704  53.033  1.00  0.00     0.034 C 
BRANCH   4   5
ATOM      5  C   UNL     1      73.712  34.026  52.938  1.00  0.00     0.032 C 
BRANCH   5   6
ATOM      6  C   UNL     1      73.024  33.767  54.255  1.00  0.00    -0.028 C 
ATOM      7  C   UNL     1      72.247  34.252  56.535  1.00  0.00     0.039 C 
ATOM      8  C   UNL     1      73.012  34.632  55.293  1.00  0.00    -0.080 C 
ATOM      9  C   UNL     1      73.750  35.949  55.247  1.00  0.00     0.039 C 
ENDBRANCH   5   6
ENDBRANCH   4   5
ENDBRANCH   1   4
BRANCH   2  10
ATOM     10  C   UNL     1      78.231  35.422  51.261  1.00  0.00     0.035 C 
BRANCH  10  11
ATOM     11  C   UNL     1      79.653  35.351  51.825  1.00  0.00     0.079 C 
BRANCH  11  12
ATOM     12  C   UNL     1      80.558  34.589  50.893  1.00  0.00     0.130 C 
ATOM     13  O   UNL     1      80.725  34.995  49.753  1.00  0.00    -0.300 OA
ATOM     14  C   UNL     1      81.252  33.333  51.330  1.00  0.00     0.087 C 
ENDBRANCH  11  12
ENDBRANCH  10  11
ENDBRANCH   2  10
TORSDOF 6
ENDMDL
MODEL 4
REMARK VINA RESULT:    -4.559     15.983     18.100
REMARK INTER + INTRA:          -6.703
REMARK INTER:                  -5.953
REMARK INTRA:                  -0.750
REMARK UNBOUND:                -0.545
REMARK SMILES CC(=O)CCC=C(C)CCC=C(C)C
REMARK SMILES IDX 7 1 6 2 8 3 9 4 10 5 11 6 13 7 12 8 14 9 5 10 4 11 2 12 3 13
REMARK SMILES IDX 1 14
REMARK H PARENT
REMARK Flexibility Score: inf
ROOT
ATOM      1  C   UNL     1      88.527  31.100  65.205  1.00  0.00    -0.077 C 
ATOM      2  C   UNL     1      88.711  30.053  64.369  1.00  0.00    -0.028 C 
ATOM      3  C   UNL     1      88.534  30.934  66.707  1.00  0.00     0.039 C 
ENDROOT
BRANCH   1   4
ATOM      4  C   UNL     1      88.286  32.474  64.620  1.00  0.00     0.034 C 
BRANCH   4   5
ATOM      5  C   UNL     1      87.063  33.134  65.266  1.00  0.00     0.032 C 
BRANCH   5   6
ATOM      6  C   UNL     1      85.796  32.422  64.861  1.00  0.00    -0.028 C 
ATOM      7  C   UNL     1      83.624  31.315  65.174  1.00  0.00     0.039 C 
ATOM      8  C   UNL     1      84.861  31.974  65.728  1.00  0.00    -0.080 C 
ATOM      9  C   UNL     1      85.031  32.101  67.224  1.00  0.00     0.039 C 
ENDBRANCH   5   6
ENDBRANCH   4   5
ENDBRANCH   1   4
BRANCH   2  10
ATOM     10  C   UNL     1      88.994  28.641  64.819  1.00  0.00     0.035 C 
BRANCH  10  11
ATOM     11  C   UNL     1      89.125  27.703  63.616  1.00  0.00     0.079 C 
BRANCH  11  12
ATOM     12  C   UNL     1      88.598  26.332  63.949  1.00  0.00     0.130 C 
ATOM     13  O   UNL     1      88.325  26.059  65.109  1.00  0.00    -0.300 OA
ATOM     14  C   UNL     1      88.410  25.287  62.890  1.00  0.00     0.087 C 
ENDBRANCH  11  12
ENDBRANCH  10  11
ENDBRANCH   2  10
TORSDOF 6
ENDMDL
MODEL 5
REMARK VINA RESULT:    -4.505     16.007     18.272
REMARK INTER + INTRA:          -6.630
REMARK INTER:                  -6.109
REMARK INTRA:                  -0.521
REMARK UNBOUND:                -0.545
REMARK SMILES CC(=O)CCC=C(C)CCC=C(C)C
REMARK SMILES IDX 7 1 6 2 8 3 9 4 10 5 11 6 13 7 12 8 14 9 5 10 4 11 2 12 3 13
REMARK SMILES IDX 1 14
REMARK H PARENT
REMARK Flexibility Score: inf
ROOT
ATOM      1  C   UNL     1      87.793  29.026  64.901  1.00  0.00    -0.077 C 
ATOM      2  C   UNL     1      88.752  28.127  64.583  1.00  0.00    -0.028 C 
ATOM      3  C   UNL     1      86.322  28.694  64.802  1.00  0.00     0.039 C 
ENDROOT
BRANCH   1   4
ATOM      4  C   UNL     1      88.205  30.412  65.348  1.00  0.00     0.034 C 
BRANCH   4   5
ATOM      5  C   UNL     1      87.066  31.414  65.130  1.00  0.00     0.032 C 
BRANCH   5   6
ATOM      6  C   UNL     1      86.429  31.794  66.444  1.00  0.00    -0.028 C 
ATOM      7  C   UNL     1      84.604  32.252  68.025  1.00  0.00     0.039 C 
ATOM      8  C   UNL     1      85.097  31.904  66.644  1.00  0.00    -0.080 C 
ATOM      9  C   UNL     1      84.101  31.703  65.526  1.00  0.00     0.039 C 
ENDBRANCH   5   6
ENDBRANCH   4   5
ENDBRANCH   1   4
BRANCH   2  10
ATOM     10  C   UNL     1      88.481  26.705  64.158  1.00  0.00     0.035 C 
BRANCH  10  11
ATOM     11  C   UNL     1      89.005  26.452  62.741  1.00  0.00     0.079 C 
BRANCH  11  12
ATOM     12  C   UNL     1      88.471  25.152  62.199  1.00  0.00     0.130 C 
ATOM     13  O   UNL     1      87.586  24.567  62.806  1.00  0.00    -0.300 OA
ATOM     14  C   UNL     1      89.010  24.552  60.935  1.00  0.00     0.087 C 
ENDBRANCH  11  12
ENDBRANCH  10  11
ENDBRANCH   2  10
TORSDOF 6
ENDMDL
MODEL 6
REMARK VINA RESULT:    -4.504     15.826     18.123
REMARK INTER + INTRA:          -6.629
REMARK INTER:                  -5.956
REMARK INTRA:                  -0.673
REMARK UNBOUND:                -0.545
REMARK SMILES CC(=O)CCC=C(C)CCC=C(C)C
REMARK SMILES IDX 7 1 6 2 8 3 9 4 10 5 11 6 13 7 12 8 14 9 5 10 4 11 2 12 3 13
REMARK SMILES IDX 1 14
REMARK H PARENT
REMARK Flexibility Score: inf
ROOT
ATOM      1  C   UNL     1      88.813  29.658  64.907  1.00  0.00    -0.077 C 
ATOM      2  C   UNL     1      88.769  28.308  64.843  1.00  0.00    -0.028 C 
ATOM      3  C   UNL     1      89.104  30.507  63.691  1.00  0.00     0.039 C 
ENDROOT
BRANCH   1   4
ATOM      4  C   UNL     1      88.583  30.338  66.239  1.00  0.00     0.034 C 
BRANCH   4   5
ATOM      5  C   UNL     1      87.823  31.656  66.054  1.00  0.00     0.032 C 
BRANCH   5   6
ATOM      6  C   UNL     1      86.333  31.423  66.086  1.00  0.00    -0.028 C 
ATOM      7  C   UNL     1      84.006  31.550  65.305  1.00  0.00     0.039 C 
ATOM      8  C   UNL     1      85.466  31.900  65.166  1.00  0.00    -0.080 C 
ATOM      9  C   UNL     1      85.915  32.778  64.022  1.00  0.00     0.039 C 
ENDBRANCH   5   6
ENDBRANCH   4   5
ENDBRANCH   1   4
BRANCH   2  10
ATOM     10  C   UNL     1      88.945  27.507  63.576  1.00  0.00     0.035 C 
BRANCH  10  11
ATOM     11  C   UNL     1      88.916  26.006  63.873  1.00  0.00     0.079 C 
BRANCH  11  12
ATOM     12  C   UNL     1      88.252  25.253  62.751  1.00  0.00     0.130 C 
ATOM     13  O   UNL     1      87.121  24.817  62.907  1.00  0.00    -0.300 OA
ATOM     14  C   UNL     1      88.953  25.015  61.446  1.00  0.00     0.087 C 
ENDBRANCH  11  12
ENDBRANCH  10  11
ENDBRANCH   2  10
TORSDOF 6
ENDMDL
MODEL 7
REMARK VINA RESULT:    -4.281      1.446      2.148
REMARK INTER + INTRA:          -6.329
REMARK INTER:                  -5.939
REMARK INTRA:                  -0.390
REMARK UNBOUND:                -0.545
REMARK SMILES CC(=O)CCC=C(C)CCC=C(C)C
REMARK SMILES IDX 7 1 6 2 8 3 9 4 10 5 11 6 13 7 12 8 14 9 5 10 4 11 2 12 3 13
REMARK SMILES IDX 1 14
REMARK H PARENT
REMARK Flexibility Score: inf
ROOT
ATOM      1  C   UNL     1      74.671  35.062  52.619  1.00  0.00    -0.077 C 
ATOM      2  C   UNL     1      74.670  33.993  53.448  1.00  0.00    -0.028 C 
ATOM      3  C   UNL     1      73.391  35.644  52.065  1.00  0.00     0.039 C 
ENDROOT
BRANCH   1   4
ATOM      4  C   UNL     1      75.992  35.681  52.219  1.00  0.00     0.034 C 
BRANCH   4   5
ATOM      5  C   UNL     1      77.049  34.598  51.978  1.00  0.00     0.032 C 
BRANCH   5   6
ATOM      6  C   UNL     1      78.364  35.215  51.568  1.00  0.00    -0.028 C 
ATOM      7  C   UNL     1      80.788  35.326  51.180  1.00  0.00     0.039 C 
ATOM      8  C   UNL     1      79.561  34.598  51.669  1.00  0.00    -0.080 C 
ATOM      9  C   UNL     1      79.703  33.218  52.267  1.00  0.00     0.039 C 
ENDBRANCH   5   6
ENDBRANCH   4   5
ENDBRANCH   1   4
BRANCH   2  10
ATOM     10  C   UNL     1      73.426  33.305  53.952  1.00  0.00     0.035 C 
BRANCH  10  11
ATOM     11  C   UNL     1      73.351  33.366  55.480  1.00  0.00     0.079 C 
BRANCH  11  12
ATOM     12  C   UNL     1      72.670  34.633  55.929  1.00  0.00     0.130 C 
ATOM     13  O   UNL     1      73.180  35.713  55.672  1.00  0.00    -0.300 OA
ATOM     14  C   UNL     1      71.382  34.597  56.697  1.00  0.00     0.087 C 
ENDBRANCH  11  12
ENDBRANCH  10  11
ENDBRANCH   2  10
TORSDOF 6
ENDMDL
MODEL 8
REMARK VINA RESULT:    -4.123     15.595     17.152
REMARK INTER + INTRA:          -6.114
REMARK INTER:                  -5.316
REMARK INTRA:                  -0.798
REMARK UNBOUND:                -0.545
REMARK SMILES CC(=O)CCC=C(C)CCC=C(C)C
REMARK SMILES IDX 7 1 6 2 8 3 9 4 10 5 11 6 13 7 12 8 14 9 5 10 4 11 2 12 3 13
REMARK SMILES IDX 1 14
REMARK H PARENT
REMARK Flexibility Score: inf
ROOT
ATOM      1  C   UNL     1      87.793  31.234  66.007  1.00  0.00    -0.077 C 
ATOM      2  C   UNL     1      87.217  31.735  64.891  1.00  0.00    -0.028 C 
ATOM      3  C   UNL     1      87.523  31.815  67.376  1.00  0.00     0.039 C 
ENDROOT
BRANCH   1   4
ATOM      4  C   UNL     1      88.753  30.070  65.880  1.00  0.00     0.034 C 
BRANCH   4   5
ATOM      5  C   UNL     1      88.885  29.631  64.418  1.00  0.00     0.032 C 
BRANCH   5   6
ATOM      6  C   UNL     1      89.117  28.143  64.325  1.00  0.00    -0.028 C 
ATOM      7  C   UNL     1      88.517  25.762  64.232  1.00  0.00     0.039 C 
ATOM      8  C   UNL     1      88.138  27.213  64.380  1.00  0.00    -0.080 C 
ATOM      9  C   UNL     1      86.691  27.586  64.599  1.00  0.00     0.039 C 
ENDBRANCH   5   6
ENDBRANCH   4   5
ENDBRANCH   1   4
BRANCH   2  10
ATOM     10  C   UNL     1      86.219  32.866  64.880  1.00  0.00     0.035 C 
BRANCH  10  11
ATOM     11  C   UNL     1      84.908  32.428  64.222  1.00  0.00     0.079 C 
BRANCH  11  12
ATOM     12  C   UNL     1      84.038  31.690  65.206  1.00  0.00     0.130 C 
ATOM     13  O   UNL     1      84.054  32.016  66.384  1.00  0.00    -0.300 OA
ATOM     14  C   UNL     1      83.160  30.554  64.775  1.00  0.00     0.087 C 
ENDBRANCH  11  12
ENDBRANCH  10  11
ENDBRANCH   2  10
TORSDOF 6
ENDMDL
MODEL 9
REMARK VINA RESULT:    -4.006     15.532     17.127
REMARK INTER + INTRA:          -5.957
REMARK INTER:                  -5.512
REMARK INTRA:                  -0.444
REMARK UNBOUND:                -0.545
REMARK SMILES CC(=O)CCC=C(C)CCC=C(C)C
REMARK SMILES IDX 7 1 6 2 8 3 9 4 10 5 11 6 13 7 12 8 14 9 5 10 4 11 2 12 3 13
REMARK SMILES IDX 1 14
REMARK H PARENT
REMARK Flexibility Score: inf
ROOT
ATOM      1  C   UNL     1      88.364  29.971  65.127  1.00  0.00    -0.077 C 
ATOM      2  C   UNL     1      87.027  30.120  64.993  1.00  0.00    -0.028 C 
ATOM      3  C   UNL     1      89.125  30.582  66.282  1.00  0.00     0.039 C 
ENDROOT
BRANCH   1   4
ATOM      4  C   UNL     1      89.125  29.187  64.080  1.00  0.00     0.034 C 
BRANCH   4   5
ATOM      5  C   UNL     1      88.785  27.695  64.164  1.00  0.00     0.032 C 
BRANCH   5   6
ATOM      6  C   UNL     1      89.078  27.005  62.854  1.00  0.00    -0.028 C 
ATOM      7  C   UNL     1      89.052  25.190  61.198  1.00  0.00     0.039 C 
ATOM      8  C   UNL     1      88.729  25.732  62.567  1.00  0.00    -0.080 C 
ATOM      9  C   UNL     1      88.044  24.843  63.578  1.00  0.00     0.039 C 
ENDBRANCH   5   6
ENDBRANCH   4   5
ENDBRANCH   1   4
BRANCH   2  10
ATOM     10  C   UNL     1      86.146  30.846  65.980  1.00  0.00     0.035 C 
BRANCH  10  11
ATOM     11  C   UNL     1      85.253  31.864  65.265  1.00  0.00     0.079 C 
BRANCH  11  12
ATOM     12  C   UNL     1      83.799  31.513  65.440  1.00  0.00     0.130 C 
ATOM     13  O   UNL     1      83.157  32.040  66.336  1.00  0.00    -0.300 OA
ATOM     14  C   UNL     1      83.122  30.518  64.544  1.00  0.00     0.087 C 
ENDBRANCH  11  12
ENDBRANCH  10  11
ENDBRANCH   2  10
TORSDOF 6
ENDMDL
