MODEL 1
REMARK VINA RESULT:    -2.756      0.000      0.000
REMARK INTER + INTRA:          -6.249
REMARK INTER:                  -4.690
REMARK INTRA:                  -1.559
REMARK UNBOUND:                -1.559
REMARK SMILES CCCCCCCCCCCCCC(=O)[O-]
REMARK SMILES IDX 8 1 9 2 10 3 11 4 12 5 13 6 14 7 15 8 16 9 7 10 6 11 5 12
REMARK SMILES IDX 4 13 3 14 2 15 1 16
REMARK H PARENT
REMARK Flexibility Score: inf
ROOT
ATOM      1  C   UNL     1      24.488   6.019  14.740  1.00  0.00     0.000 C 
ENDROOT
BRANCH   1   2
ATOM      2  C   UNL     1      24.923   6.411  16.162  1.00  0.00     0.000 C 
BRANCH   2   3
ATOM      3  C   UNL     1      24.680   7.901  16.465  1.00  0.00     0.000 C 
BRANCH   3   4
ATOM      4  C   UNL     1      23.955   8.122  17.802  1.00  0.00     0.000 C 
BRANCH   4   5
ATOM      5  C   UNL     1      24.233   7.001  18.815  1.00  0.00     0.006 C 
BRANCH   5   6
ATOM      6  C   UNL     1      25.166   7.489  19.928  1.00  0.00     0.053 C 
BRANCH   6   7
ATOM      7  C   UNL     1      26.592   7.419  19.483  1.00  0.00     0.041 C 
ATOM      8  O   UNL     1      27.349   8.415  19.622  1.00  0.00    -0.550 OA
ATOM      9  O   UNL     1      27.100   6.236  18.959  1.00  0.00    -0.550 OA
ENDBRANCH   6   7
ENDBRANCH   5   6
ENDBRANCH   4   5
ENDBRANCH   3   4
ENDBRANCH   2   3
ENDBRANCH   1   2
BRANCH   1  10
ATOM     10  C   UNL     1      23.000   5.648  14.659  1.00  0.00     0.000 C 
BRANCH  10  11
ATOM     11  C   UNL     1      22.496   5.101  15.999  1.00  0.00    -0.000 C 
BRANCH  11  12
ATOM     12  C   UNL     1      21.252   5.862  16.473  1.00  0.00    -0.000 C 
BRANCH  12  13
ATOM     13  C   UNL     1      20.934   7.035  15.534  1.00  0.00    -0.000 C 
BRANCH  13  14
ATOM     14  C   UNL     1      20.421   8.280  16.283  1.00  0.00    -0.000 C 
BRANCH  14  15
ATOM     15  C   UNL     1      18.923   8.576  16.093  1.00  0.00    -0.003 C 
ATOM     16  C   UNL     1      18.490   9.899  16.723  1.00  0.00     0.004 C 
ENDBRANCH  14  15
ENDBRANCH  13  14
ENDBRANCH  12  13
ENDBRANCH  11  12
ENDBRANCH  10  11
ENDBRANCH   1  10
TORSDOF 12
ENDMDL
MODEL 2
REMARK VINA RESULT:    -2.739      1.894      4.355
REMARK INTER + INTRA:          -6.220
REMARK INTER:                  -4.321
REMARK INTRA:                  -1.899
REMARK UNBOUND:                -1.559
REMARK SMILES CCCCCCCCCCCCCC(=O)[O-]
REMARK SMILES IDX 8 1 9 2 10 3 11 4 12 5 13 6 14 7 15 8 16 9 7 10 6 11 5 12
REMARK SMILES IDX 4 13 3 14 2 15 1 16
REMARK H PARENT
REMARK Flexibility Score: inf
ROOT
ATOM      1  C   UNL     1      19.187   7.000  16.928  1.00  0.00     0.000 C 
ENDROOT
BRANCH   1   2
ATOM      2  C   UNL     1      19.818   7.132  15.532  1.00  0.00     0.000 C 
BRANCH   2   3
ATOM      3  C   UNL     1      21.304   6.727  15.514  1.00  0.00     0.000 C 
BRANCH   3   4
ATOM      4  C   UNL     1      21.728   5.984  16.791  1.00  0.00     0.000 C 
BRANCH   4   5
ATOM      5  C   UNL     1      23.132   5.370  16.677  1.00  0.00     0.006 C 
BRANCH   5   6
ATOM      6  C   UNL     1      24.022   6.207  15.753  1.00  0.00     0.053 C 
BRANCH   6   7
ATOM      7  C   UNL     1      24.954   7.059  16.556  1.00  0.00     0.041 C 
ATOM      8  O   UNL     1      24.902   8.314  16.465  1.00  0.00    -0.550 OA
ATOM      9  O   UNL     1      25.846   6.469  17.442  1.00  0.00    -0.550 OA
ENDBRANCH   6   7
ENDBRANCH   5   6
ENDBRANCH   4   5
ENDBRANCH   3   4
ENDBRANCH   2   3
ENDBRANCH   1   2
BRANCH   1  10
ATOM     10  C   UNL     1      18.295   8.197  17.289  1.00  0.00     0.000 C 
BRANCH  10  11
ATOM     11  C   UNL     1      18.307   9.247  16.173  1.00  0.00    -0.000 C 
BRANCH  11  12
ATOM     12  C   UNL     1      18.345  10.667  16.751  1.00  0.00    -0.000 C 
BRANCH  12  13
ATOM     13  C   UNL     1      19.485  10.816  17.768  1.00  0.00    -0.000 C 
BRANCH  13  14
ATOM     14  C   UNL     1      20.851  11.071  17.104  1.00  0.00    -0.000 C 
BRANCH  14  15
ATOM     15  C   UNL     1      21.825   9.881  17.150  1.00  0.00    -0.003 C 
ATOM     16  C   UNL     1      21.873   9.199  18.517  1.00  0.00     0.004 C 
ENDBRANCH  14  15
ENDBRANCH  13  14
ENDBRANCH  12  13
ENDBRANCH  11  12
ENDBRANCH  10  11
ENDBRANCH   1  10
TORSDOF 12
ENDMDL
MODEL 3
REMARK VINA RESULT:    -2.722      3.285      5.554
REMARK INTER + INTRA:          -6.191
REMARK INTER:                  -4.692
REMARK INTRA:                  -1.498
REMARK UNBOUND:                -1.559
REMARK SMILES CCCCCCCCCCCCCC(=O)[O-]
REMARK SMILES IDX 8 1 9 2 10 3 11 4 12 5 13 6 14 7 15 8 16 9 7 10 6 11 5 12
REMARK SMILES IDX 4 13 3 14 2 15 1 16
REMARK H PARENT
REMARK Flexibility Score: inf
ROOT
ATOM      1  C   UNL     1      21.178   7.037  15.747  1.00  0.00     0.000 C 
ENDROOT
BRANCH   1   2
ATOM      2  C   UNL     1      19.680   7.362  15.620  1.00  0.00     0.000 C 
BRANCH   2   3
ATOM      3  C   UNL     1      19.270   8.592  16.449  1.00  0.00     0.000 C 
BRANCH   3   4
ATOM      4  C   UNL     1      20.071   8.718  17.755  1.00  0.00     0.000 C 
BRANCH   4   5
ATOM      5  C   UNL     1      20.390  10.177  18.112  1.00  0.00     0.006 C 
BRANCH   5   6
ATOM      6  C   UNL     1      21.259  10.828  17.031  1.00  0.00     0.053 C 
BRANCH   6   7
ATOM      7  C   UNL     1      21.041  12.308  17.005  1.00  0.00     0.041 C 
ATOM      8  O   UNL     1      21.604  13.016  16.129  1.00  0.00    -0.550 OA
ATOM      9  O   UNL     1      20.178  12.900  17.919  1.00  0.00    -0.550 OA
ENDBRANCH   6   7
ENDBRANCH   5   6
ENDBRANCH   4   5
ENDBRANCH   3   4
ENDBRANCH   2   3
ENDBRANCH   1   2
BRANCH   1  10
ATOM     10  C   UNL     1      21.432   5.603  16.237  1.00  0.00     0.000 C 
BRANCH  10  11
ATOM     11  C   UNL     1      22.688   5.015  15.586  1.00  0.00    -0.000 C 
BRANCH  11  12
ATOM     12  C   UNL     1      23.340   6.024  14.632  1.00  0.00    -0.000 C 
BRANCH  12  13
ATOM     13  C   UNL     1      24.866   6.035  14.803  1.00  0.00    -0.000 C 
BRANCH  13  14
ATOM     14  C   UNL     1      25.314   6.618  16.156  1.00  0.00    -0.000 C 
BRANCH  14  15
ATOM     15  C   UNL     1      24.667   7.965  16.525  1.00  0.00    -0.003 C 
ATOM     16  C   UNL     1      24.009   7.955  17.905  1.00  0.00     0.004 C 
ENDBRANCH  14  15
ENDBRANCH  13  14
ENDBRANCH  12  13
ENDBRANCH  11  12
ENDBRANCH  10  11
ENDBRANCH   1  10
TORSDOF 12
ENDMDL
MODEL 4
REMARK VINA RESULT:    -2.718      2.737      4.734
REMARK INTER + INTRA:          -6.183
REMARK INTER:                  -4.573
REMARK INTRA:                  -1.610
REMARK UNBOUND:                -1.559
REMARK SMILES CCCCCCCCCCCCCC(=O)[O-]
REMARK SMILES IDX 8 1 9 2 10 3 11 4 12 5 13 6 14 7 15 8 16 9 7 10 6 11 5 12
REMARK SMILES IDX 4 13 3 14 2 15 1 16
REMARK H PARENT
REMARK Flexibility Score: inf
ROOT
ATOM      1  C   UNL     1      20.636   8.674  16.434  1.00  0.00     0.000 C 
ENDROOT
BRANCH   1   2
ATOM      2  C   UNL     1      21.919   9.299  17.005  1.00  0.00     0.000 C 
BRANCH   2   3
ATOM      3  C   UNL     1      22.060   9.078  18.522  1.00  0.00     0.000 C 
BRANCH   3   4
ATOM      4  C   UNL     1      23.106   8.006  18.868  1.00  0.00     0.000 C 
BRANCH   4   5
ATOM      5  C   UNL     1      24.195   7.876  17.791  1.00  0.00     0.006 C 
BRANCH   5   6
ATOM      6  C   UNL     1      24.346   6.420  17.341  1.00  0.00     0.053 C 
BRANCH   6   7
ATOM      7  C   UNL     1      24.046   6.289  15.881  1.00  0.00     0.041 C 
ATOM      8  O   UNL     1      22.866   6.085  15.492  1.00  0.00    -0.550 OA
ATOM      9  O   UNL     1      25.062   6.443  14.946  1.00  0.00    -0.550 OA
ENDBRANCH   6   7
ENDBRANCH   5   6
ENDBRANCH   4   5
ENDBRANCH   3   4
ENDBRANCH   2   3
ENDBRANCH   1   2
BRANCH   1  10
ATOM     10  C   UNL     1      19.398   8.981  17.289  1.00  0.00     0.000 C 
BRANCH  10  11
ATOM     11  C   UNL     1      18.321   9.692  16.462  1.00  0.00    -0.000 C 
BRANCH  11  12
ATOM     12  C   UNL     1      18.329  11.202  16.729  1.00  0.00    -0.000 C 
BRANCH  12  13
ATOM     13  C   UNL     1      18.850  11.509  18.140  1.00  0.00    -0.000 C 
BRANCH  13  14
ATOM     14  C   UNL     1      19.638  12.831  18.214  1.00  0.00    -0.000 C 
BRANCH  14  15
ATOM     15  C   UNL     1      21.144  12.703  17.928  1.00  0.00    -0.003 C 
ATOM     16  C   UNL     1      21.510  13.041  16.483  1.00  0.00     0.004 C 
ENDBRANCH  14  15
ENDBRANCH  13  14
ENDBRANCH  12  13
ENDBRANCH  11  12
ENDBRANCH  10  11
ENDBRANCH   1  10
TORSDOF 12
ENDMDL
MODEL 5
REMARK VINA RESULT:    -2.702      3.388      6.239
REMARK INTER + INTRA:          -6.156
REMARK INTER:                  -5.016
REMARK INTRA:                  -1.140
REMARK UNBOUND:                -1.559
REMARK SMILES CCCCCCCCCCCCCC(=O)[O-]
REMARK SMILES IDX 8 1 9 2 10 3 11 4 12 5 13 6 14 7 15 8 16 9 7 10 6 11 5 12
REMARK SMILES IDX 4 13 3 14 2 15 1 16
REMARK H PARENT
REMARK Flexibility Score: inf
ROOT
ATOM      1  C   UNL     1      20.303   7.456  15.496  1.00  0.00     0.000 C 
ENDROOT
BRANCH   1   2
ATOM      2  C   UNL     1      19.481   7.980  16.685  1.00  0.00     0.000 C 
BRANCH   2   3
ATOM      3  C   UNL     1      18.435   9.028  16.264  1.00  0.00     0.000 C 
BRANCH   3   4
ATOM      4  C   UNL     1      18.837  10.456  16.663  1.00  0.00     0.000 C 
BRANCH   4   5
ATOM      5  C   UNL     1      20.006  10.484  17.659  1.00  0.00     0.006 C 
BRANCH   5   6
ATOM      6  C   UNL     1      21.262  11.075  17.012  1.00  0.00     0.053 C 
BRANCH   6   7
ATOM      7  C   UNL     1      21.201  12.570  17.021  1.00  0.00     0.041 C 
ATOM      8  O   UNL     1      21.599  13.226  16.023  1.00  0.00    -0.550 OA
ATOM      9  O   UNL     1      20.659  13.237  18.112  1.00  0.00    -0.550 OA
ENDBRANCH   6   7
ENDBRANCH   5   6
ENDBRANCH   4   5
ENDBRANCH   3   4
ENDBRANCH   2   3
ENDBRANCH   1   2
BRANCH   1  10
ATOM     10  C   UNL     1      21.597   6.755  15.936  1.00  0.00     0.000 C 
BRANCH  10  11
ATOM     11  C   UNL     1      22.149   7.378  17.223  1.00  0.00    -0.000 C 
BRANCH  11  12
ATOM     12  C   UNL     1      23.556   7.946  17.002  1.00  0.00    -0.000 C 
BRANCH  12  13
ATOM     13  C   UNL     1      24.549   6.831  16.641  1.00  0.00    -0.000 C 
BRANCH  13  14
ATOM     14  C   UNL     1      25.984   7.129  17.114  1.00  0.00    -0.000 C 
BRANCH  14  15
ATOM     15  C   UNL     1      26.089   8.169  18.243  1.00  0.00    -0.003 C 
ATOM     16  C   UNL     1      26.823   7.643  19.476  1.00  0.00     0.004 C 
ENDBRANCH  14  15
ENDBRANCH  13  14
ENDBRANCH  12  13
ENDBRANCH  11  12
ENDBRANCH  10  11
ENDBRANCH   1  10
TORSDOF 12
ENDMDL
MODEL 6
REMARK VINA RESULT:    -2.692      3.185      5.461
REMARK INTER + INTRA:          -6.140
REMARK INTER:                  -4.521
REMARK INTRA:                  -1.619
REMARK UNBOUND:                -1.559
REMARK SMILES CCCCCCCCCCCCCC(=O)[O-]
REMARK SMILES IDX 8 1 9 2 10 3 11 4 12 5 13 6 14 7 15 8 16 9 7 10 6 11 5 12
REMARK SMILES IDX 4 13 3 14 2 15 1 16
REMARK H PARENT
REMARK Flexibility Score: inf
ROOT
ATOM      1  C   UNL     1      22.167   6.183  16.725  1.00  0.00     0.000 C 
ENDROOT
BRANCH   1   2
ATOM      2  C   UNL     1      20.779   6.457  16.125  1.00  0.00     0.000 C 
BRANCH   2   3
ATOM      3  C   UNL     1      20.433   7.957  16.095  1.00  0.00     0.000 C 
BRANCH   3   4
ATOM      4  C   UNL     1      21.001   8.718  17.303  1.00  0.00     0.000 C 
BRANCH   4   5
ATOM      5  C   UNL     1      21.602  10.077  16.914  1.00  0.00     0.006 C 
BRANCH   5   6
ATOM      6  C   UNL     1      20.634  11.217  17.244  1.00  0.00     0.053 C 
BRANCH   6   7
ATOM      7  C   UNL     1      21.360  12.525  17.288  1.00  0.00     0.041 C 
ATOM      8  O   UNL     1      21.785  12.977  18.384  1.00  0.00    -0.550 OA
ATOM      9  O   UNL     1      21.610  13.221  16.112  1.00  0.00    -0.550 OA
ENDBRANCH   6   7
ENDBRANCH   5   6
ENDBRANCH   4   5
ENDBRANCH   3   4
ENDBRANCH   2   3
ENDBRANCH   1   2
BRANCH   1  10
ATOM     10  C   UNL     1      23.251   6.007  15.651  1.00  0.00     0.000 C 
BRANCH  10  11
ATOM     11  C   UNL     1      24.637   6.346  16.209  1.00  0.00    -0.000 C 
BRANCH  11  12
ATOM     12  C   UNL     1      24.754   7.841  16.528  1.00  0.00    -0.000 C 
BRANCH  12  13
ATOM     13  C   UNL     1      25.873   8.101  17.546  1.00  0.00    -0.000 C 
BRANCH  13  14
ATOM     14  C   UNL     1      25.444   7.810  18.997  1.00  0.00    -0.000 C 
BRANCH  14  15
ATOM     15  C   UNL     1      24.095   8.427  19.407  1.00  0.00    -0.003 C 
ATOM     16  C   UNL     1      23.159   7.424  20.081  1.00  0.00     0.004 C 
ENDBRANCH  14  15
ENDBRANCH  13  14
ENDBRANCH  12  13
ENDBRANCH  11  12
ENDBRANCH  10  11
ENDBRANCH   1  10
TORSDOF 12
ENDMDL
MODEL 7
REMARK VINA RESULT:    -2.675      2.154      3.961
REMARK INTER + INTRA:          -6.111
REMARK INTER:                  -4.244
REMARK INTRA:                  -1.867
REMARK UNBOUND:                -1.559
REMARK SMILES CCCCCCCCCCCCCC(=O)[O-]
REMARK SMILES IDX 8 1 9 2 10 3 11 4 12 5 13 6 14 7 15 8 16 9 7 10 6 11 5 12
REMARK SMILES IDX 4 13 3 14 2 15 1 16
REMARK H PARENT
REMARK Flexibility Score: inf
ROOT
ATOM      1  C   UNL     1      20.114   7.880  15.664  1.00  0.00     0.000 C 
ENDROOT
BRANCH   1   2
ATOM      2  C   UNL     1      20.299   6.589  16.479  1.00  0.00     0.000 C 
BRANCH   2   3
ATOM      3  C   UNL     1      21.730   6.435  17.026  1.00  0.00     0.000 C 
BRANCH   3   4
ATOM      4  C   UNL     1      21.928   7.151  18.372  1.00  0.00     0.000 C 
BRANCH   4   5
ATOM      5  C   UNL     1      23.234   7.958  18.424  1.00  0.00     0.006 C 
BRANCH   5   6
ATOM      6  C   UNL     1      23.788   8.194  17.016  1.00  0.00     0.053 C 
BRANCH   6   7
ATOM      7  C   UNL     1      25.209   7.734  16.928  1.00  0.00     0.041 C 
ATOM      8  O   UNL     1      26.123   8.388  17.495  1.00  0.00    -0.550 OA
ATOM      9  O   UNL     1      25.518   6.555  16.261  1.00  0.00    -0.550 OA
ENDBRANCH   6   7
ENDBRANCH   5   6
ENDBRANCH   4   5
ENDBRANCH   3   4
ENDBRANCH   2   3
ENDBRANCH   1   2
BRANCH   1  10
ATOM     10  C   UNL     1      18.761   8.557  15.928  1.00  0.00     0.000 C 
BRANCH  10  11
ATOM     11  C   UNL     1      18.548   8.791  17.428  1.00  0.00    -0.000 C 
BRANCH  11  12
ATOM     12  C   UNL     1      18.835  10.249  17.805  1.00  0.00    -0.000 C 
BRANCH  12  13
ATOM     13  C   UNL     1      19.855  10.330  18.950  1.00  0.00    -0.000 C 
BRANCH  13  14
ATOM     14  C   UNL     1      21.204  10.930  18.511  1.00  0.00    -0.000 C 
BRANCH  14  15
ATOM     15  C   UNL     1      21.326  11.211  17.003  1.00  0.00    -0.003 C 
ATOM     16  C   UNL     1      21.381  12.702  16.674  1.00  0.00     0.004 C 
ENDBRANCH  14  15
ENDBRANCH  13  14
ENDBRANCH  12  13
ENDBRANCH  11  12
ENDBRANCH  10  11
ENDBRANCH   1  10
TORSDOF 12
ENDMDL
MODEL 8
REMARK VINA RESULT:    -2.645      1.649      3.562
REMARK INTER + INTRA:          -6.060
REMARK INTER:                  -3.964
REMARK INTRA:                  -2.096
REMARK UNBOUND:                -1.559
REMARK SMILES CCCCCCCCCCCCCC(=O)[O-]
REMARK SMILES IDX 8 1 9 2 10 3 11 4 12 5 13 6 14 7 15 8 16 9 7 10 6 11 5 12
REMARK SMILES IDX 4 13 3 14 2 15 1 16
REMARK H PARENT
REMARK Flexibility Score: inf
ROOT
ATOM      1  C   UNL     1      19.869   6.155  16.180  1.00  0.00     0.000 C 
ENDROOT
BRANCH   1   2
ATOM      2  C   UNL     1      21.128   5.341  16.519  1.00  0.00     0.000 C 
BRANCH   2   3
ATOM      3  C   UNL     1      22.341   5.743  15.660  1.00  0.00     0.000 C 
BRANCH   3   4
ATOM      4  C   UNL     1      23.641   5.825  16.476  1.00  0.00     0.000 C 
BRANCH   4   5
ATOM      5  C   UNL     1      24.721   6.668  15.782  1.00  0.00     0.006 C 
BRANCH   5   6
ATOM      6  C   UNL     1      25.012   7.945  16.576  1.00  0.00     0.053 C 
BRANCH   6   7
ATOM      7  C   UNL     1      25.739   7.620  17.842  1.00  0.00     0.041 C 
ATOM      8  O   UNL     1      26.555   6.661  17.876  1.00  0.00    -0.550 OA
ATOM      9  O   UNL     1      25.553   8.407  18.972  1.00  0.00    -0.550 OA
ENDBRANCH   6   7
ENDBRANCH   5   6
ENDBRANCH   4   5
ENDBRANCH   3   4
ENDBRANCH   2   3
ENDBRANCH   1   2
BRANCH   1  10
ATOM     10  C   UNL     1      20.199   7.546  15.617  1.00  0.00     0.000 C 
BRANCH  10  11
ATOM     11  C   UNL     1      19.299   8.618  16.242  1.00  0.00    -0.000 C 
BRANCH  11  12
ATOM     12  C   UNL     1      20.132   9.704  16.933  1.00  0.00    -0.000 C 
BRANCH  12  13
ATOM     13  C   UNL     1      21.596   9.263  17.082  1.00  0.00    -0.000 C 
BRANCH  13  14
ATOM     14  C   UNL     1      22.050   9.178  18.551  1.00  0.00    -0.000 C 
BRANCH  14  15
ATOM     15  C   UNL     1      22.057   7.758  19.144  1.00  0.00    -0.003 C 
ATOM     16  C   UNL     1      20.692   7.325  19.677  1.00  0.00     0.004 C 
ENDBRANCH  14  15
ENDBRANCH  13  14
ENDBRANCH  12  13
ENDBRANCH  11  12
ENDBRANCH  10  11
ENDBRANCH   1  10
TORSDOF 12
ENDMDL
MODEL 9
REMARK VINA RESULT:    -2.625      1.563      3.005
REMARK INTER + INTRA:          -6.026
REMARK INTER:                  -4.607
REMARK INTRA:                  -1.419
REMARK UNBOUND:                -1.559
REMARK SMILES CCCCCCCCCCCCCC(=O)[O-]
REMARK SMILES IDX 8 1 9 2 10 3 11 4 12 5 13 6 14 7 15 8 16 9 7 10 6 11 5 12
REMARK SMILES IDX 4 13 3 14 2 15 1 16
REMARK H PARENT
REMARK Flexibility Score: inf
ROOT
ATOM      1  C   UNL     1      21.464   6.790  16.070  1.00  0.00     0.000 C 
ENDROOT
BRANCH   1   2
ATOM      2  C   UNL     1      21.537   6.823  17.605  1.00  0.00     0.000 C 
BRANCH   2   3
ATOM      3  C   UNL     1      22.817   7.505  18.121  1.00  0.00     0.000 C 
BRANCH   3   4
ATOM      4  C   UNL     1      23.607   8.202  17.003  1.00  0.00     0.000 C 
BRANCH   4   5
ATOM      5  C   UNL     1      25.096   7.823  17.007  1.00  0.00     0.006 C 
BRANCH   5   6
ATOM      6  C   UNL     1      25.342   6.583  17.872  1.00  0.00     0.053 C 
BRANCH   6   7
ATOM      7  C   UNL     1      26.543   6.781  18.742  1.00  0.00     0.041 C 
ATOM      8  O   UNL     1      26.801   7.919  19.217  1.00  0.00    -0.550 OA
ATOM      9  O   UNL     1      27.351   5.699  19.068  1.00  0.00    -0.550 OA
ENDBRANCH   6   7
ENDBRANCH   5   6
ENDBRANCH   4   5
ENDBRANCH   3   4
ENDBRANCH   2   3
ENDBRANCH   1   2
BRANCH   1  10
ATOM     10  C   UNL     1      20.201   7.472  15.523  1.00  0.00     0.000 C 
BRANCH  10  11
ATOM     11  C   UNL     1      19.311   7.976  16.665  1.00  0.00    -0.000 C 
BRANCH  11  12
ATOM     12  C   UNL     1      18.359   9.075  16.179  1.00  0.00    -0.000 C 
BRANCH  12  13
ATOM     13  C   UNL     1      18.752  10.440  16.762  1.00  0.00    -0.000 C 
BRANCH  13  14
ATOM     14  C   UNL     1      20.005  10.372  17.655  1.00  0.00    -0.000 C 
BRANCH  14  15
ATOM     15  C   UNL     1      21.262  11.029  17.056  1.00  0.00    -0.003 C 
ATOM     16  C   UNL     1      21.142  12.547  16.931  1.00  0.00     0.004 C 
ENDBRANCH  14  15
ENDBRANCH  13  14
ENDBRANCH  12  13
ENDBRANCH  11  12
ENDBRANCH  10  11
ENDBRANCH   1  10
TORSDOF 12
ENDMDL
