MODEL 1
REMARK VINA RESULT:    -1.700      0.000      0.000
REMARK INTER + INTRA:          -2.872
REMARK INTER:                  -2.594
REMARK INTRA:                  -0.278
REMARK UNBOUND:                -0.278
REMARK SMILES OC[C@@H]1O[C@@](CO)(O[C@@H]2O[C@@H](CO)[C@@H](O)[C@@H](O)[C@@H]2O)[C@H](O)[C@@H]1O
REMARK SMILES IDX 8 1 9 2 11 3 14 4 10 5 16 6 18 7 12 8 13 9 15 11 17 13 19 15
REMARK SMILES IDX 5 17 20 18 4 19 22 20 3 21 6 22 7 23 21 25 23 27 2 29 1 30
REMARK H PARENT 13 10 15 12 17 14 19 16 7 24 21 26 23 28 1 31
REMARK Flexibility Score: inf
ROOT
ATOM      1  O   UNL     1    -128.874 108.418  40.214  1.00  0.00    -0.313 OA
ENDROOT
BRANCH   1   2
ATOM      2  C   UNL     1    -129.359 109.293  39.184  1.00  0.00     0.285 C 
ATOM      3  C   UNL     1    -128.328 111.395  38.563  1.00  0.00     0.178 C 
ATOM      4  C   UNL     1    -128.782 111.984  39.940  1.00  0.00     0.177 C 
ATOM      5  O   UNL     1    -128.346 109.972  38.454  1.00  0.00    -0.341 OA
ATOM      6  C   UNL     1    -130.075 111.345  40.509  1.00  0.00     0.179 C 
ATOM      7  C   UNL     1    -130.545 110.160  39.667  1.00  0.00     0.202 C 
BRANCH   3   8
ATOM      8  C   UNL     1    -129.023 112.046  37.357  1.00  0.00     0.191 C 
BRANCH   8   9
ATOM      9  O   UNL     1    -128.521 113.338  37.163  1.00  0.00    -0.394 OA
ATOM     10  H   UNL     1    -127.625 113.357  37.591  1.00  0.00     0.210 HD
ENDBRANCH   8   9
ENDBRANCH   3   8
BRANCH   4  11
ATOM     11  O   UNL     1    -128.919 113.381  39.834  1.00  0.00    -0.387 OA
ATOM     12  H   UNL     1    -128.123 113.773  40.273  1.00  0.00     0.211 HD
ENDBRANCH   4  11
BRANCH   6  13
ATOM     13  O   UNL     1    -131.109 112.295  40.600  1.00  0.00    -0.387 OA
ATOM     14  H   UNL     1    -131.948 111.848  40.307  1.00  0.00     0.211 HD
ENDBRANCH   6  13
BRANCH   7  15
ATOM     15  O   UNL     1    -131.504 109.390  40.355  1.00  0.00    -0.385 OA
ATOM     16  H   UNL     1    -132.166 110.013  40.760  1.00  0.00     0.211 HD
ENDBRANCH   7  15
ENDBRANCH   1   2
BRANCH   1  17
ATOM     17  C   UNL     1    -129.326 107.059  40.338  1.00  0.00     0.224 C 
ATOM     18  C   UNL     1    -130.119 106.721  39.044  1.00  0.00     0.208 C 
ATOM     19  O   UNL     1    -128.284 106.106  40.478  1.00  0.00    -0.337 OA
ATOM     20  C   UNL     1    -129.120 105.902  38.272  1.00  0.00     0.180 C 
ATOM     21  C   UNL     1    -128.314 105.226  39.378  1.00  0.00     0.179 C 
BRANCH  17  22
ATOM     22  C   UNL     1    -130.220 106.981  41.597  1.00  0.00     0.225 C 
BRANCH  22  23
ATOM     23  O   UNL     1    -129.900 108.026  42.479  1.00  0.00    -0.391 OA
ATOM     24  H   UNL     1    -128.919 107.971  42.637  1.00  0.00     0.210 HD
ENDBRANCH  22  23
ENDBRANCH  17  22
BRANCH  18  25
ATOM     25  O   UNL     1    -131.278 105.970  39.314  1.00  0.00    -0.385 OA
ATOM     26  H   UNL     1    -131.477 105.427  38.500  1.00  0.00     0.211 HD
ENDBRANCH  18  25
BRANCH  20  27
ATOM     27  O   UNL     1    -129.725 104.997  37.383  1.00  0.00    -0.387 OA
ATOM     28  H   UNL     1    -129.055 104.278  37.229  1.00  0.00     0.211 HD
ENDBRANCH  20  27
BRANCH  21  29
ATOM     29  C   UNL     1    -128.868 103.868  39.856  1.00  0.00     0.191 C 
BRANCH  29  30
ATOM     30  O   UNL     1    -129.809 104.029  40.888  1.00  0.00    -0.394 OA
ATOM     31  H   UNL     1    -129.807 104.994  41.108  1.00  0.00     0.210 HD
ENDBRANCH  29  30
ENDBRANCH  21  29
ENDBRANCH   1  17
TORSDOF 13
ENDMDL
MODEL 2
REMARK VINA RESULT:    -0.926      2.464      4.774
REMARK INTER + INTRA:          -1.692
REMARK INTER:                  -1.712
REMARK INTRA:                   0.021
REMARK UNBOUND:                -0.278
REMARK SMILES OC[C@@H]1O[C@@](CO)(O[C@@H]2O[C@@H](CO)[C@@H](O)[C@@H](O)[C@@H]2O)[C@H](O)[C@@H]1O
REMARK SMILES IDX 8 1 9 2 11 3 14 4 10 5 16 6 18 7 12 8 13 9 15 11 17 13 19 15
REMARK SMILES IDX 5 17 20 18 4 19 22 20 3 21 6 22 7 23 21 25 23 27 2 29 1 30
REMARK H PARENT 13 10 15 12 17 14 19 16 7 24 21 26 23 28 1 31
REMARK Flexibility Score: inf
ROOT
ATOM      1  O   UNL     1    -130.454 108.036  41.238  1.00  0.00    -0.313 OA
ENDROOT
BRANCH   1   2
ATOM      2  C   UNL     1    -129.883 107.880  42.545  1.00  0.00     0.285 C 
ATOM      3  C   UNL     1    -130.886 108.688  44.595  1.00  0.00     0.178 C 
ATOM      4  C   UNL     1    -130.593 110.151  44.121  1.00  0.00     0.177 C 
ATOM      5  O   UNL     1    -130.827 107.679  43.588  1.00  0.00    -0.341 OA
ATOM      6  C   UNL     1    -129.353 110.282  43.197  1.00  0.00     0.179 C 
ATOM      7  C   UNL     1    -128.772 108.919  42.824  1.00  0.00     0.202 C 
BRANCH   3   8
ATOM      8  C   UNL     1    -130.082 108.272  45.837  1.00  0.00     0.191 C 
BRANCH   8   9
ATOM      9  O   UNL     1    -130.737 108.712  46.993  1.00  0.00    -0.394 OA
ATOM     10  H   UNL     1    -131.620 108.257  47.004  1.00  0.00     0.210 HD
ENDBRANCH   8   9
ENDBRANCH   3   8
BRANCH   4  11
ATOM     11  O   UNL     1    -130.475 110.996  45.240  1.00  0.00    -0.387 OA
ATOM     12  H   UNL     1    -129.662 111.540  45.093  1.00  0.00     0.211 HD
ENDBRANCH   4  11
BRANCH   6  13
ATOM     13  O   UNL     1    -128.355 111.067  43.804  1.00  0.00    -0.387 OA
ATOM     14  H   UNL     1    -128.790 111.903  44.124  1.00  0.00     0.211 HD
ENDBRANCH   6  13
BRANCH   7  15
ATOM     15  O   UNL     1    -127.875 109.023  41.743  1.00  0.00    -0.385 OA
ATOM     16  H   UNL     1    -127.647 109.984  41.622  1.00  0.00     0.211 HD
ENDBRANCH   7  15
ENDBRANCH   1   2
BRANCH   1  17
ATOM     17  C   UNL     1    -129.949 107.329  40.092  1.00  0.00     0.224 C 
ATOM     18  C   UNL     1    -129.058 106.173  40.624  1.00  0.00     0.208 C 
ATOM     19  O   UNL     1    -130.953 106.766  39.263  1.00  0.00    -0.337 OA
ATOM     20  C   UNL     1    -129.964 104.983  40.465  1.00  0.00     0.180 C 
ATOM     21  C   UNL     1    -130.810 105.365  39.253  1.00  0.00     0.179 C 
BRANCH  17  22
ATOM     22  C   UNL     1    -129.139 108.339  39.246  1.00  0.00     0.225 C 
BRANCH  22  23
ATOM     23  O   UNL     1    -129.608 109.642  39.473  1.00  0.00    -0.391 OA
ATOM     24  H   UNL     1    -130.397 109.764  38.880  1.00  0.00     0.210 HD
ENDBRANCH  22  23
ENDBRANCH  17  22
BRANCH  18  25
ATOM     25  O   UNL     1    -127.885 106.014  39.862  1.00  0.00    -0.385 OA
ATOM     26  H   UNL     1    -127.245 105.479  40.411  1.00  0.00     0.211 HD
ENDBRANCH  18  25
BRANCH  20  27
ATOM     27  O   UNL     1    -129.260 103.777  40.303  1.00  0.00    -0.387 OA
ATOM     28  H   UNL     1    -129.791 103.237  39.659  1.00  0.00     0.211 HD
ENDBRANCH  20  27
BRANCH  21  29
ATOM     29  C   UNL     1    -130.226 104.944  37.888  1.00  0.00     0.191 C 
BRANCH  29  30
ATOM     30  O   UNL     1    -129.010 105.596  37.624  1.00  0.00    -0.394 OA
ATOM     31  H   UNL     1    -129.029 106.430  38.157  1.00  0.00     0.210 HD
ENDBRANCH  29  30
ENDBRANCH  21  29
ENDBRANCH   1  17
TORSDOF 13
ENDMDL
MODEL 3
REMARK VINA RESULT:    -0.819      2.921      4.867
REMARK INTER + INTRA:          -1.528
REMARK INTER:                  -0.751
REMARK INTRA:                  -0.777
REMARK UNBOUND:                -0.278
REMARK SMILES OC[C@@H]1O[C@@](CO)(O[C@@H]2O[C@@H](CO)[C@@H](O)[C@@H](O)[C@@H]2O)[C@H](O)[C@@H]1O
REMARK SMILES IDX 8 1 9 2 11 3 14 4 10 5 16 6 18 7 12 8 13 9 15 11 17 13 19 15
REMARK SMILES IDX 5 17 20 18 4 19 22 20 3 21 6 22 7 23 21 25 23 27 2 29 1 30
REMARK H PARENT 13 10 15 12 17 14 19 16 7 24 21 26 23 28 1 31
REMARK Flexibility Score: inf
ROOT
ATOM      1  O   UNL     1    -129.142 111.749  40.787  1.00  0.00    -0.313 OA
ENDROOT
BRANCH   1   2
ATOM      2  C   UNL     1    -130.050 112.457  41.645  1.00  0.00     0.285 C 
ATOM      3  C   UNL     1    -129.585 114.598  42.678  1.00  0.00     0.178 C 
ATOM      4  C   UNL     1    -128.526 113.890  43.587  1.00  0.00     0.177 C 
ATOM      5  O   UNL     1    -130.004 113.873  41.522  1.00  0.00    -0.341 OA
ATOM      6  C   UNL     1    -128.839 112.399  43.882  1.00  0.00     0.179 C 
ATOM      7  C   UNL     1    -130.044 111.900  43.087  1.00  0.00     0.202 C 
BRANCH   3   8
ATOM      8  C   UNL     1    -130.795 115.142  43.452  1.00  0.00     0.191 C 
BRANCH   8   9
ATOM      9  O   UNL     1    -130.519 116.435  43.912  1.00  0.00    -0.394 OA
ATOM     10  H   UNL     1    -131.393 116.905  43.965  1.00  0.00     0.210 HD
ENDBRANCH   8   9
ENDBRANCH   3   8
BRANCH   4  11
ATOM     11  O   UNL     1    -128.371 114.615  44.784  1.00  0.00    -0.387 OA
ATOM     12  H   UNL     1    -127.397 114.740  44.908  1.00  0.00     0.211 HD
ENDBRANCH   4  11
BRANCH   6  13
ATOM     13  O   UNL     1    -129.066 112.195  45.256  1.00  0.00    -0.387 OA
ATOM     14  H   UNL     1    -128.257 111.751  45.627  1.00  0.00     0.211 HD
ENDBRANCH   6  13
BRANCH   7  15
ATOM     15  O   UNL     1    -130.119 110.493  43.100  1.00  0.00    -0.385 OA
ATOM     16  H   UNL     1    -129.722 110.171  43.954  1.00  0.00     0.211 HD
ENDBRANCH   7  15
ENDBRANCH   1   2
BRANCH   1  17
ATOM     17  C   UNL     1    -129.602 110.900  39.721  1.00  0.00     0.224 C 
ATOM     18  C   UNL     1    -128.854 109.545  39.861  1.00  0.00     0.208 C 
ATOM     19  O   UNL     1    -130.996 110.639  39.742  1.00  0.00    -0.337 OA
ATOM     20  C   UNL     1    -129.909 108.670  40.482  1.00  0.00     0.180 C 
ATOM     21  C   UNL     1    -131.202 109.257  39.923  1.00  0.00     0.179 C 
BRANCH  17  22
ATOM     22  C   UNL     1    -129.266 111.609  38.388  1.00  0.00     0.225 C 
BRANCH  22  23
ATOM     23  O   UNL     1    -127.875 111.656  38.206  1.00  0.00    -0.391 OA
ATOM     24  H   UNL     1    -127.628 110.829  37.710  1.00  0.00     0.210 HD
ENDBRANCH  22  23
ENDBRANCH  17  22
BRANCH  18  25
ATOM     25  O   UNL     1    -128.449 109.033  38.614  1.00  0.00    -0.385 OA
ATOM     26  H   UNL     1    -128.050 109.788  38.098  1.00  0.00     0.211 HD
ENDBRANCH  18  25
BRANCH  20  27
ATOM     27  O   UNL     1    -129.734 107.308  40.184  1.00  0.00    -0.387 OA
ATOM     28  H   UNL     1    -130.152 106.809  40.936  1.00  0.00     0.211 HD
ENDBRANCH  20  27
BRANCH  21  29
ATOM     29  C   UNL     1    -131.670 108.654  38.582  1.00  0.00     0.191 C 
BRANCH  29  30
ATOM     30  O   UNL     1    -131.159 107.359  38.393  1.00  0.00    -0.394 OA
ATOM     31  H   UNL     1    -130.262 107.478  37.992  1.00  0.00     0.210 HD
ENDBRANCH  29  30
ENDBRANCH  21  29
ENDBRANCH   1  17
TORSDOF 13
ENDMDL
MODEL 4
REMARK VINA RESULT:    -0.815      1.353      6.287
REMARK INTER + INTRA:          -1.521
REMARK INTER:                  -0.602
REMARK INTRA:                  -0.919
REMARK UNBOUND:                -0.278
REMARK SMILES OC[C@@H]1O[C@@](CO)(O[C@@H]2O[C@@H](CO)[C@@H](O)[C@@H](O)[C@@H]2O)[C@H](O)[C@@H]1O
REMARK SMILES IDX 8 1 9 2 11 3 14 4 10 5 16 6 18 7 12 8 13 9 15 11 17 13 19 15
REMARK SMILES IDX 5 17 20 18 4 19 22 20 3 21 6 22 7 23 21 25 23 27 2 29 1 30
REMARK H PARENT 13 10 15 12 17 14 19 16 7 24 21 26 23 28 1 31
REMARK Flexibility Score: inf
ROOT
ATOM      1  O   UNL     1    -130.829 108.484  39.750  1.00  0.00    -0.313 OA
ENDROOT
BRANCH   1   2
ATOM      2  C   UNL     1    -130.018 107.495  39.098  1.00  0.00     0.285 C 
ATOM      3  C   UNL     1    -130.457 105.114  39.125  1.00  0.00     0.178 C 
ATOM      4  C   UNL     1    -130.091 105.100  40.647  1.00  0.00     0.177 C 
ATOM      5  O   UNL     1    -130.738 106.394  38.561  1.00  0.00    -0.341 OA
ATOM      6  C   UNL     1    -129.068 106.189  41.064  1.00  0.00     0.179 C 
ATOM      7  C   UNL     1    -128.754 107.146  39.916  1.00  0.00     0.202 C 
BRANCH   3   8
ATOM      8  C   UNL     1    -129.468 104.332  38.248  1.00  0.00     0.191 C 
BRANCH   8   9
ATOM      9  O   UNL     1    -129.801 104.496  36.899  1.00  0.00    -0.394 OA
ATOM     10  H   UNL     1    -128.968 104.782  36.439  1.00  0.00     0.210 HD
ENDBRANCH   8   9
ENDBRANCH   3   8
BRANCH   4  11
ATOM     11  O   UNL     1    -129.636 103.819  41.012  1.00  0.00    -0.387 OA
ATOM     12  H   UNL     1    -129.549 103.825  41.997  1.00  0.00     0.211 HD
ENDBRANCH   4  11
BRANCH   6  13
ATOM     13  O   UNL     1    -127.875 105.606  41.530  1.00  0.00    -0.387 OA
ATOM     14  H   UNL     1    -127.467 105.116  40.765  1.00  0.00     0.211 HD
ENDBRANCH   6  13
BRANCH   7  15
ATOM     15  O   UNL     1    -128.099 108.305  40.380  1.00  0.00    -0.385 OA
ATOM     16  H   UNL     1    -128.734 108.807  40.958  1.00  0.00     0.211 HD
ENDBRANCH   7  15
ENDBRANCH   1   2
BRANCH   1  17
ATOM     17  C   UNL     1    -130.801 109.870  39.368  1.00  0.00     0.224 C 
ATOM     18  C   UNL     1    -131.029 110.705  40.658  1.00  0.00     0.208 C 
ATOM     19  O   UNL     1    -129.580 110.290  38.780  1.00  0.00    -0.337 OA
ATOM     20  C   UNL     1    -129.634 111.172  40.976  1.00  0.00     0.180 C 
ATOM     21  C   UNL     1    -128.993 111.278  39.595  1.00  0.00     0.179 C 
BRANCH  17  22
ATOM     22  C   UNL     1    -131.931 110.087  38.334  1.00  0.00     0.225 C 
BRANCH  22  23
ATOM     23  O   UNL     1    -133.090 109.407  38.739  1.00  0.00    -0.391 OA
ATOM     24  H   UNL     1    -132.946 109.144  39.688  1.00  0.00     0.210 HD
ENDBRANCH  22  23
ENDBRANCH  17  22
BRANCH  18  25
ATOM     25  O   UNL     1    -131.885 111.800  40.438  1.00  0.00    -0.385 OA
ATOM     26  H   UNL     1    -132.821 111.451  40.448  1.00  0.00     0.211 HD
ENDBRANCH  18  25
BRANCH  20  27
ATOM     27  O   UNL     1    -129.613 112.377  41.700  1.00  0.00    -0.387 OA
ATOM     28  H   UNL     1    -130.096 112.193  42.549  1.00  0.00     0.211 HD
ENDBRANCH  20  27
BRANCH  21  29
ATOM     29  C   UNL     1    -129.158 112.645  38.898  1.00  0.00     0.191 C 
BRANCH  29  30
ATOM     30  O   UNL     1    -128.801 112.578  37.541  1.00  0.00    -0.394 OA
ATOM     31  H   UNL     1    -128.939 113.489  37.179  1.00  0.00     0.210 HD
ENDBRANCH  29  30
ENDBRANCH  21  29
ENDBRANCH   1  17
TORSDOF 13
ENDMDL
MODEL 5
REMARK VINA RESULT:    -0.795      2.812      4.893
REMARK INTER + INTRA:          -1.491
REMARK INTER:                  -0.943
REMARK INTRA:                  -0.548
REMARK UNBOUND:                -0.278
REMARK SMILES OC[C@@H]1O[C@@](CO)(O[C@@H]2O[C@@H](CO)[C@@H](O)[C@@H](O)[C@@H]2O)[C@H](O)[C@@H]1O
REMARK SMILES IDX 8 1 9 2 11 3 14 4 10 5 16 6 18 7 12 8 13 9 15 11 17 13 19 15
REMARK SMILES IDX 5 17 20 18 4 19 22 20 3 21 6 22 7 23 21 25 23 27 2 29 1 30
REMARK H PARENT 13 10 15 12 17 14 19 16 7 24 21 26 23 28 1 31
REMARK Flexibility Score: inf
ROOT
ATOM      1  O   UNL     1    -130.398 111.739  40.840  1.00  0.00    -0.313 OA
ENDROOT
BRANCH   1   2
ATOM      2  C   UNL     1    -129.384 112.448  41.567  1.00  0.00     0.285 C 
ATOM      3  C   UNL     1    -129.507 113.002  43.922  1.00  0.00     0.178 C 
ATOM      4  C   UNL     1    -130.650 114.018  43.587  1.00  0.00     0.177 C 
ATOM      5  O   UNL     1    -129.217 112.032  42.916  1.00  0.00    -0.341 OA
ATOM      6  C   UNL     1    -130.563 114.624  42.161  1.00  0.00     0.179 C 
ATOM      7  C   UNL     1    -129.457 113.974  41.331  1.00  0.00     0.202 C 
BRANCH   3   8
ATOM      8  C   UNL     1    -128.220 113.670  44.428  1.00  0.00     0.191 C 
BRANCH   8   9
ATOM      9  O   UNL     1    -128.512 114.488  45.526  1.00  0.00    -0.394 OA
ATOM     10  H   UNL     1    -127.656 114.618  46.013  1.00  0.00     0.210 HD
ENDBRANCH   8   9
ENDBRANCH   3   8
BRANCH   4  11
ATOM     11  O   UNL     1    -130.680 115.033  44.561  1.00  0.00    -0.387 OA
ATOM     12  H   UNL     1    -130.653 115.891  44.069  1.00  0.00     0.211 HD
ENDBRANCH   4  11
BRANCH   6  13
ATOM     13  O   UNL     1    -130.353 116.014  42.218  1.00  0.00    -0.387 OA
ATOM     14  H   UNL     1    -129.798 116.261  41.430  1.00  0.00     0.211 HD
ENDBRANCH   6  13
BRANCH   7  15
ATOM     15  O   UNL     1    -129.595 114.282  39.963  1.00  0.00    -0.385 OA
ATOM     16  H   UNL     1    -130.554 114.478  39.786  1.00  0.00     0.211 HD
ENDBRANCH   7  15
ENDBRANCH   1   2
BRANCH   1  17
ATOM     17  C   UNL     1    -130.081 110.672  39.929  1.00  0.00     0.224 C 
ATOM     18  C   UNL     1    -128.957 109.826  40.589  1.00  0.00     0.208 C 
ATOM     19  O   UNL     1    -131.169 109.809  39.639  1.00  0.00    -0.337 OA
ATOM     20  C   UNL     1    -129.722 108.635  41.098  1.00  0.00     0.180 C 
ATOM     21  C   UNL     1    -130.860 108.511  40.088  1.00  0.00     0.179 C 
BRANCH  17  22
ATOM     22  C   UNL     1    -129.614 111.318  38.604  1.00  0.00     0.225 C 
BRANCH  22  23
ATOM     23  O   UNL     1    -128.327 111.857  38.759  1.00  0.00    -0.391 OA
ATOM     24  H   UNL     1    -127.688 111.118  38.572  1.00  0.00     0.210 HD
ENDBRANCH  22  23
ENDBRANCH  17  22
BRANCH  18  25
ATOM     25  O   UNL     1    -127.976 109.431  39.659  1.00  0.00    -0.385 OA
ATOM     26  H   UNL     1    -127.771 110.224  39.089  1.00  0.00     0.211 HD
ENDBRANCH  18  25
BRANCH  20  27
ATOM     27  O   UNL     1    -128.929 107.478  41.197  1.00  0.00    -0.387 OA
ATOM     28  H   UNL     1    -129.365 106.908  41.886  1.00  0.00     0.211 HD
ENDBRANCH  20  27
BRANCH  21  29
ATOM     29  C   UNL     1    -130.552 107.629  38.859  1.00  0.00     0.191 C 
BRANCH  29  30
ATOM     30  O   UNL     1    -130.350 106.288  39.224  1.00  0.00    -0.394 OA
ATOM     31  H   UNL     1    -129.419 106.235  39.558  1.00  0.00     0.210 HD
ENDBRANCH  29  30
ENDBRANCH  21  29
ENDBRANCH   1  17
TORSDOF 13
ENDMDL
MODEL 6
REMARK VINA RESULT:    -0.781      1.656      3.445
REMARK INTER + INTRA:          -1.469
REMARK INTER:                  -0.882
REMARK INTRA:                  -0.587
REMARK UNBOUND:                -0.278
REMARK SMILES OC[C@@H]1O[C@@](CO)(O[C@@H]2O[C@@H](CO)[C@@H](O)[C@@H](O)[C@@H]2O)[C@H](O)[C@@H]1O
REMARK SMILES IDX 8 1 9 2 11 3 14 4 10 5 16 6 18 7 12 8 13 9 15 11 17 13 19 15
REMARK SMILES IDX 5 17 20 18 4 19 22 20 3 21 6 22 7 23 21 25 23 27 2 29 1 30
REMARK H PARENT 13 10 15 12 17 14 19 16 7 24 21 26 23 28 1 31
REMARK Flexibility Score: inf
ROOT
ATOM      1  O   UNL     1    -129.884 108.408  39.748  1.00  0.00    -0.313 OA
ENDROOT
BRANCH   1   2
ATOM      2  C   UNL     1    -129.028 109.228  40.558  1.00  0.00     0.285 C 
ATOM      3  C   UNL     1    -129.790 110.667  42.351  1.00  0.00     0.178 C 
ATOM      4  C   UNL     1    -130.458 111.591  41.278  1.00  0.00     0.177 C 
ATOM      5  O   UNL     1    -129.434 109.356  41.914  1.00  0.00    -0.341 OA
ATOM      6  C   UNL     1    -129.748 111.578  39.899  1.00  0.00     0.179 C 
ATOM      7  C   UNL     1    -128.630 110.539  39.841  1.00  0.00     0.202 C 
BRANCH   3   8
ATOM      8  C   UNL     1    -128.622 111.333  43.094  1.00  0.00     0.191 C 
BRANCH   8   9
ATOM      9  O   UNL     1    -129.118 112.202  44.073  1.00  0.00    -0.394 OA
ATOM     10  H   UNL     1    -129.136 113.105  43.661  1.00  0.00     0.210 HD
ENDBRANCH   8   9
ENDBRANCH   3   8
BRANCH   4  11
ATOM     11  O   UNL     1    -130.555 112.902  41.779  1.00  0.00    -0.387 OA
ATOM     12  H   UNL     1    -131.082 113.414  41.117  1.00  0.00     0.211 HD
ENDBRANCH   4  11
BRANCH   6  13
ATOM     13  O   UNL     1    -129.225 112.848  39.591  1.00  0.00    -0.387 OA
ATOM     14  H   UNL     1    -129.858 113.283  38.958  1.00  0.00     0.211 HD
ENDBRANCH   6  13
BRANCH   7  15
ATOM     15  O   UNL     1    -128.219 110.301  38.514  1.00  0.00    -0.385 OA
ATOM     16  H   UNL     1    -128.515 111.071  37.957  1.00  0.00     0.211 HD
ENDBRANCH   7  15
ENDBRANCH   1   2
BRANCH   1  17
ATOM     17  C   UNL     1    -129.448 107.150  39.205  1.00  0.00     0.224 C 
ATOM     18  C   UNL     1    -129.046 106.248  40.405  1.00  0.00     0.208 C 
ATOM     19  O   UNL     1    -130.435 106.465  38.450  1.00  0.00    -0.337 OA
ATOM     20  C   UNL     1    -130.237 105.335  40.521  1.00  0.00     0.180 C 
ATOM     21  C   UNL     1    -130.726 105.239  39.078  1.00  0.00     0.179 C 
BRANCH  17  22
ATOM     22  C   UNL     1    -128.247 107.439  38.275  1.00  0.00     0.225 C 
BRANCH  22  23
ATOM     23  O   UNL     1    -128.068 106.376  37.375  1.00  0.00    -0.391 OA
ATOM     24  H   UNL     1    -127.087 106.285  37.239  1.00  0.00     0.210 HD
ENDBRANCH  22  23
ENDBRANCH  17  22
BRANCH  18  25
ATOM     25  O   UNL     1    -127.875 105.511  40.146  1.00  0.00    -0.385 OA
ATOM     26  H   UNL     1    -127.693 105.578  39.167  1.00  0.00     0.211 HD
ENDBRANCH  18  25
BRANCH  20  27
ATOM     27  O   UNL     1    -129.919 104.091  41.091  1.00  0.00    -0.387 OA
ATOM     28  H   UNL     1    -129.808 104.259  42.065  1.00  0.00     0.211 HD
ENDBRANCH  20  27
BRANCH  21  29
ATOM     29  C   UNL     1    -130.095 104.102  38.246  1.00  0.00     0.191 C 
BRANCH  29  30
ATOM     30  O   UNL     1    -129.927 104.479  36.903  1.00  0.00    -0.394 OA
ATOM     31  H   UNL     1    -129.079 104.990  36.869  1.00  0.00     0.210 HD
ENDBRANCH  29  30
ENDBRANCH  21  29
ENDBRANCH   1  17
TORSDOF 13
ENDMDL
MODEL 7
REMARK VINA RESULT:    -0.738      3.227      4.390
REMARK INTER + INTRA:          -1.404
REMARK INTER:                  -0.403
REMARK INTRA:                  -1.001
REMARK UNBOUND:                -0.278
REMARK SMILES OC[C@@H]1O[C@@](CO)(O[C@@H]2O[C@@H](CO)[C@@H](O)[C@@H](O)[C@@H]2O)[C@H](O)[C@@H]1O
REMARK SMILES IDX 8 1 9 2 11 3 14 4 10 5 16 6 18 7 12 8 13 9 15 11 17 13 19 15
REMARK SMILES IDX 5 17 20 18 4 19 22 20 3 21 6 22 7 23 21 25 23 27 2 29 1 30
REMARK H PARENT 13 10 15 12 17 14 19 16 7 24 21 26 23 28 1 31
REMARK Flexibility Score: inf
ROOT
ATOM      1  O   UNL     1    -129.007 110.820  43.049  1.00  0.00    -0.313 OA
ENDROOT
BRANCH   1   2
ATOM      2  C   UNL     1    -129.985 111.854  43.233  1.00  0.00     0.285 C 
ATOM      3  C   UNL     1    -129.875 114.053  42.224  1.00  0.00     0.178 C 
ATOM      4  C   UNL     1    -128.658 114.380  43.153  1.00  0.00     0.177 C 
ATOM      5  O   UNL     1    -130.210 112.672  42.093  1.00  0.00    -0.341 OA
ATOM      6  C   UNL     1    -128.673 113.623  44.508  1.00  0.00     0.179 C 
ATOM      7  C   UNL     1    -129.802 112.597  44.577  1.00  0.00     0.202 C 
BRANCH   3   8
ATOM      8  C   UNL     1    -131.124 114.893  42.530  1.00  0.00     0.191 C 
BRANCH   8   9
ATOM      9  O   UNL     1    -130.866 116.241  42.256  1.00  0.00    -0.394 OA
ATOM     10  H   UNL     1    -131.351 116.765  42.946  1.00  0.00     0.210 HD
ENDBRANCH   8   9
ENDBRANCH   3   8
BRANCH   4  11
ATOM     11  O   UNL     1    -128.580 115.770  43.358  1.00  0.00    -0.387 OA
ATOM     12  H   UNL     1    -127.814 115.918  43.967  1.00  0.00     0.211 HD
ENDBRANCH   4  11
BRANCH   6  13
ATOM     13  O   UNL     1    -128.788 114.521  45.585  1.00  0.00    -0.387 OA
ATOM     14  H   UNL     1    -127.875 114.862  45.785  1.00  0.00     0.211 HD
ENDBRANCH   6  13
BRANCH   7  15
ATOM     15  O   UNL     1    -129.614 111.698  45.645  1.00  0.00    -0.385 OA
ATOM     16  H   UNL     1    -129.927 110.800  45.352  1.00  0.00     0.211 HD
ENDBRANCH   7  15
ENDBRANCH   1   2
BRANCH   1  17
ATOM     17  C   UNL     1    -129.373 109.473  42.704  1.00  0.00     0.224 C 
ATOM     18  C   UNL     1    -130.009 109.520  41.288  1.00  0.00     0.208 C 
ATOM     19  O   UNL     1    -128.285 108.562  42.669  1.00  0.00    -0.337 OA
ATOM     20  C   UNL     1    -128.885 109.015  40.424  1.00  0.00     0.180 C 
ATOM     21  C   UNL     1    -128.146 108.062  41.360  1.00  0.00     0.179 C 
BRANCH  17  22
ATOM     22  C   UNL     1    -130.377 108.979  43.771  1.00  0.00     0.225 C 
BRANCH  22  23
ATOM     23  O   UNL     1    -129.757 108.931  45.030  1.00  0.00    -0.391 OA
ATOM     24  H   UNL     1    -130.007 109.772  45.499  1.00  0.00     0.210 HD
ENDBRANCH  22  23
ENDBRANCH  17  22
BRANCH  18  25
ATOM     25  O   UNL     1    -131.134 108.681  41.184  1.00  0.00    -0.385 OA
ATOM     26  H   UNL     1    -131.557 108.860  40.298  1.00  0.00     0.211 HD
ENDBRANCH  18  25
BRANCH  20  27
ATOM     27  O   UNL     1    -129.335 108.406  39.241  1.00  0.00    -0.387 OA
ATOM     28  H   UNL     1    -128.545 107.938  38.858  1.00  0.00     0.211 HD
ENDBRANCH  20  27
BRANCH  21  29
ATOM     29  C   UNL     1    -128.648 106.603  41.339  1.00  0.00     0.191 C 
BRANCH  29  30
ATOM     30  O   UNL     1    -128.423 105.998  40.091  1.00  0.00    -0.394 OA
ATOM     31  H   UNL     1    -127.891 105.183  40.277  1.00  0.00     0.210 HD
ENDBRANCH  29  30
ENDBRANCH  21  29
ENDBRANCH   1  17
TORSDOF 13
ENDMDL
MODEL 8
REMARK VINA RESULT:    -0.689      2.010      2.749
REMARK INTER + INTRA:          -1.330
REMARK INTER:                  -0.734
REMARK INTRA:                  -0.596
REMARK UNBOUND:                -0.278
REMARK SMILES OC[C@@H]1O[C@@](CO)(O[C@@H]2O[C@@H](CO)[C@@H](O)[C@@H](O)[C@@H]2O)[C@H](O)[C@@H]1O
REMARK SMILES IDX 8 1 9 2 11 3 14 4 10 5 16 6 18 7 12 8 13 9 15 11 17 13 19 15
REMARK SMILES IDX 5 17 20 18 4 19 22 20 3 21 6 22 7 23 21 25 23 27 2 29 1 30
REMARK H PARENT 13 10 15 12 17 14 19 16 7 24 21 26 23 28 1 31
REMARK Flexibility Score: inf
ROOT
ATOM      1  O   UNL     1    -129.194 107.699  41.399  1.00  0.00    -0.313 OA
ENDROOT
BRANCH   1   2
ATOM      2  C   UNL     1    -130.072 108.830  41.500  1.00  0.00     0.285 C 
ATOM      3  C   UNL     1    -129.352 111.142  41.478  1.00  0.00     0.178 C 
ATOM      4  C   UNL     1    -128.703 110.917  42.885  1.00  0.00     0.177 C 
ATOM      5  O   UNL     1    -129.674 109.964  40.741  1.00  0.00    -0.341 OA
ATOM      6  C   UNL     1    -129.409 109.834  43.742  1.00  0.00     0.179 C 
ATOM      7  C   UNL     1    -130.501 109.107  42.959  1.00  0.00     0.202 C 
BRANCH   3   8
ATOM      8  C   UNL     1    -130.537 112.118  41.497  1.00  0.00     0.191 C 
BRANCH   8   9
ATOM      9  O   UNL     1    -130.068 113.434  41.413  1.00  0.00    -0.394 OA
ATOM     10  H   UNL     1    -130.472 113.823  40.594  1.00  0.00     0.210 HD
ENDBRANCH   8   9
ENDBRANCH   3   8
BRANCH   4  11
ATOM     11  O   UNL     1    -128.640 112.141  43.577  1.00  0.00    -0.387 OA
ATOM     12  H   UNL     1    -127.688 112.277  43.812  1.00  0.00     0.211 HD
ENDBRANCH   4  11
BRANCH   6  13
ATOM     13  O   UNL     1    -129.962 110.396  44.907  1.00  0.00    -0.387 OA
ATOM     14  H   UNL     1    -130.939 110.504  44.749  1.00  0.00     0.211 HD
ENDBRANCH   6  13
BRANCH   7  15
ATOM     15  O   UNL     1    -130.902 107.926  43.615  1.00  0.00    -0.385 OA
ATOM     16  H   UNL     1    -131.849 108.037  43.899  1.00  0.00     0.211 HD
ENDBRANCH   7  15
ENDBRANCH   1   2
BRANCH   1  17
ATOM     17  C   UNL     1    -129.598 106.470  40.771  1.00  0.00     0.224 C 
ATOM     18  C   UNL     1    -129.954 106.806  39.296  1.00  0.00     0.208 C 
ATOM     19  O   UNL     1    -128.601 105.461  40.765  1.00  0.00    -0.337 OA
ATOM     20  C   UNL     1    -128.733 106.319  38.563  1.00  0.00     0.180 C 
ATOM     21  C   UNL     1    -128.262 105.157  39.432  1.00  0.00     0.179 C 
BRANCH  17  22
ATOM     22  C   UNL     1    -130.821 105.933  41.550  1.00  0.00     0.225 C 
BRANCH  22  23
ATOM     23  O   UNL     1    -130.937 104.546  41.364  1.00  0.00    -0.391 OA
ATOM     24  H   UNL     1    -131.743 104.404  40.798  1.00  0.00     0.210 HD
ENDBRANCH  22  23
ENDBRANCH  17  22
BRANCH  18  25
ATOM     25  O   UNL     1    -131.105 106.124  38.859  1.00  0.00    -0.385 OA
ATOM     26  H   UNL     1    -130.850 105.602  38.047  1.00  0.00     0.211 HD
ENDBRANCH  18  25
BRANCH  20  27
ATOM     27  O   UNL     1    -129.004 105.954  37.232  1.00  0.00    -0.387 OA
ATOM     28  H   UNL     1    -128.998 104.960  37.217  1.00  0.00     0.211 HD
ENDBRANCH  20  27
BRANCH  21  29
ATOM     29  C   UNL     1    -128.868 103.784  39.076  1.00  0.00     0.191 C 
BRANCH  29  30
ATOM     30  O   UNL     1    -129.054 102.990  40.220  1.00  0.00    -0.394 OA
ATOM     31  H   UNL     1    -129.820 102.396  40.017  1.00  0.00     0.210 HD
ENDBRANCH  29  30
ENDBRANCH  21  29
ENDBRANCH   1  17
TORSDOF 13
ENDMDL
MODEL 9
REMARK VINA RESULT:    -0.457      1.300      2.544
REMARK INTER + INTRA:          -0.975
REMARK INTER:                  -0.670
REMARK INTRA:                  -0.305
REMARK UNBOUND:                -0.278
REMARK SMILES OC[C@@H]1O[C@@](CO)(O[C@@H]2O[C@@H](CO)[C@@H](O)[C@@H](O)[C@@H]2O)[C@H](O)[C@@H]1O
REMARK SMILES IDX 8 1 9 2 11 3 14 4 10 5 16 6 18 7 12 8 13 9 15 11 17 13 19 15
REMARK SMILES IDX 5 17 20 18 4 19 22 20 3 21 6 22 7 23 21 25 23 27 2 29 1 30
REMARK H PARENT 13 10 15 12 17 14 19 16 7 24 21 26 23 28 1 31
REMARK Flexibility Score: inf
ROOT
ATOM      1  O   UNL     1    -129.592 108.301  39.657  1.00  0.00    -0.313 OA
ENDROOT
BRANCH   1   2
ATOM      2  C   UNL     1    -128.838 109.206  40.478  1.00  0.00     0.285 C 
ATOM      3  C   UNL     1    -129.799 110.722  42.103  1.00  0.00     0.178 C 
ATOM      4  C   UNL     1    -130.408 111.548  40.920  1.00  0.00     0.177 C 
ATOM      5  O   UNL     1    -129.360 109.402  41.785  1.00  0.00    -0.341 OA
ATOM      6  C   UNL     1    -129.584 111.478  39.607  1.00  0.00     0.179 C 
ATOM      7  C   UNL     1    -128.428 110.485  39.710  1.00  0.00     0.202 C 
BRANCH   3   8
ATOM      8  C   UNL     1    -128.723 111.483  42.893  1.00  0.00     0.191 C 
BRANCH   8   9
ATOM      9  O   UNL     1    -129.332 112.385  43.773  1.00  0.00    -0.394 OA
ATOM     10  H   UNL     1    -130.312 112.275  43.652  1.00  0.00     0.210 HD
ENDBRANCH   8   9
ENDBRANCH   3   8
BRANCH   4  11
ATOM     11  O   UNL     1    -130.595 112.883  41.324  1.00  0.00    -0.387 OA
ATOM     12  H   UNL     1    -129.707 113.214  41.610  1.00  0.00     0.211 HD
ENDBRANCH   4  11
BRANCH   6  13
ATOM     13  O   UNL     1    -129.084 112.746  39.260  1.00  0.00    -0.387 OA
ATOM     14  H   UNL     1    -129.863 113.361  39.183  1.00  0.00     0.211 HD
ENDBRANCH   6  13
BRANCH   7  15
ATOM     15  O   UNL     1    -127.899 110.181  38.441  1.00  0.00    -0.385 OA
ATOM     16  H   UNL     1    -126.936 109.955  38.554  1.00  0.00     0.211 HD
ENDBRANCH   7  15
ENDBRANCH   1   2
BRANCH   1  17
ATOM     17  C   UNL     1    -129.725 106.906  39.980  1.00  0.00     0.224 C 
ATOM     18  C   UNL     1    -130.493 106.237  38.807  1.00  0.00     0.208 C 
ATOM     19  O   UNL     1    -128.492 106.224  40.146  1.00  0.00    -0.337 OA
ATOM     20  C   UNL     1    -129.382 105.552  38.057  1.00  0.00     0.180 C 
ATOM     21  C   UNL     1    -128.387 105.218  39.165  1.00  0.00     0.179 C 
BRANCH  17  22
ATOM     22  C   UNL     1    -130.508 106.811  41.310  1.00  0.00     0.225 C 
BRANCH  22  23
ATOM     23  O   UNL     1    -129.615 106.754  42.391  1.00  0.00    -0.391 OA
ATOM     24  H   UNL     1    -129.684 107.629  42.860  1.00  0.00     0.210 HD
ENDBRANCH  22  23
ENDBRANCH  17  22
BRANCH  18  25
ATOM     25  O   UNL     1    -131.442 105.301  39.260  1.00  0.00    -0.385 OA
ATOM     26  H   UNL     1    -132.240 105.814  39.571  1.00  0.00     0.211 HD
ENDBRANCH  18  25
BRANCH  20  27
ATOM     27  O   UNL     1    -129.821 104.428  37.336  1.00  0.00    -0.387 OA
ATOM     28  H   UNL     1    -129.304 104.432  36.487  1.00  0.00     0.211 HD
ENDBRANCH  20  27
BRANCH  21  29
ATOM     29  C   UNL     1    -128.601 103.850  39.847  1.00  0.00     0.191 C 
BRANCH  29  30
ATOM     30  O   UNL     1    -129.615 103.909  40.817  1.00  0.00    -0.394 OA
ATOM     31  H   UNL     1    -130.443 104.149  40.329  1.00  0.00     0.210 HD
ENDBRANCH  29  30
ENDBRANCH  21  29
ENDBRANCH   1  17
TORSDOF 13
ENDMDL
