MODEL 1
REMARK VINA RESULT:    -3.253      0.000      0.000
REMARK INTER + INTRA:          -9.201
REMARK INTER:                  -5.915
REMARK INTRA:                  -3.286
REMARK UNBOUND:                -3.286
REMARK SMILES CCCCCC=CCC=CCCCCCCCC(=O)[O-]
REMARK SMILES IDX 11 1 12 2 13 3 14 4 15 5 16 6 17 7 18 8 19 9 20 10 10 11
REMARK SMILES IDX 9 12 8 13 7 14 6 15 5 16 4 17 3 18 2 19 1 20
REMARK H PARENT
REMARK Flexibility Score: inf
ROOT
ATOM      1  C   UNL     1      -2.898  31.526 -17.988  1.00  0.00     0.027 C 
ENDROOT
BRANCH   1   2
ATOM      2  C   UNL     1      -2.876  29.997 -18.126  1.00  0.00     0.004 C 
BRANCH   2   3
ATOM      3  C   UNL     1      -4.054  29.316 -17.410  1.00  0.00     0.000 C 
BRANCH   3   4
ATOM      4  C   UNL     1      -3.757  27.863 -16.981  1.00  0.00     0.000 C 
BRANCH   4   5
ATOM      5  C   UNL     1      -2.535  27.280 -17.711  1.00  0.00     0.000 C 
BRANCH   5   6
ATOM      6  C   UNL     1      -2.123  25.894 -17.188  1.00  0.00     0.006 C 
BRANCH   6   7
ATOM      7  C   UNL     1      -2.497  25.644 -15.715  1.00  0.00     0.053 C 
BRANCH   7   8
ATOM      8  C   UNL     1      -1.328  25.787 -14.789  1.00  0.00     0.041 C 
ATOM      9  O   UNL     1      -0.153  25.771 -15.240  1.00  0.00    -0.550 OA
ATOM     10  O   UNL     1      -1.536  25.905 -13.420  1.00  0.00    -0.550 OA
ENDBRANCH   7   8
ENDBRANCH   6   7
ENDBRANCH   5   6
ENDBRANCH   4   5
ENDBRANCH   3   4
ENDBRANCH   2   3
ENDBRANCH   1   2
BRANCH   1  11
ATOM     11  C   UNL     1      -3.286  31.938 -16.595  1.00  0.00    -0.031 C 
ATOM     12  C   UNL     1      -2.569  32.836 -15.903  1.00  0.00    -0.027 C 
BRANCH  12  13
ATOM     13  C   UNL     1      -2.964  33.256 -14.517  1.00  0.00     0.054 C 
BRANCH  13  14
ATOM     14  C   UNL     1      -1.895  32.861 -13.529  1.00  0.00    -0.027 C 
ATOM     15  C   UNL     1      -1.881  31.719 -12.816  1.00  0.00    -0.031 C 
BRANCH  15  16
ATOM     16  C   UNL     1      -2.908  30.618 -12.928  1.00  0.00     0.027 C 
BRANCH  16  17
ATOM     17  C   UNL     1      -2.480  29.523 -13.917  1.00  0.00     0.004 C 
BRANCH  17  18
ATOM     18  C   UNL     1      -0.949  29.386 -13.998  1.00  0.00     0.000 C 
BRANCH  18  19
ATOM     19  C   UNL     1      -0.436  29.364 -15.446  1.00  0.00    -0.003 C 
ATOM     20  C   UNL     1       0.272  30.659 -15.844  1.00  0.00     0.004 C 
ENDBRANCH  18  19
ENDBRANCH  17  18
ENDBRANCH  16  17
ENDBRANCH  15  16
ENDBRANCH  13  14
ENDBRANCH  12  13
ENDBRANCH   1  11
TORSDOF 14
ENDMDL
MODEL 2
REMARK VINA RESULT:    -3.245      3.263      5.874
REMARK INTER + INTRA:          -9.187
REMARK INTER:                  -6.296
REMARK INTRA:                  -2.891
REMARK UNBOUND:                -3.286
REMARK SMILES CCCCCC=CCC=CCCCCCCCC(=O)[O-]
REMARK SMILES IDX 11 1 12 2 13 3 14 4 15 5 16 6 17 7 18 8 19 9 20 10 10 11
REMARK SMILES IDX 9 12 8 13 7 14 6 15 5 16 4 17 3 18 2 19 1 20
REMARK H PARENT
REMARK Flexibility Score: inf
ROOT
ATOM      1  C   UNL     1      -1.262  29.162 -13.208  1.00  0.00     0.027 C 
ENDROOT
BRANCH   1   2
ATOM      2  C   UNL     1      -0.014  30.048 -13.085  1.00  0.00     0.004 C 
BRANCH   2   3
ATOM      3  C   UNL     1      -0.336  31.466 -12.585  1.00  0.00     0.000 C 
BRANCH   3   4
ATOM      4  C   UNL     1      -0.657  32.461 -13.720  1.00  0.00     0.000 C 
BRANCH   4   5
ATOM      5  C   UNL     1      -2.073  33.048 -13.596  1.00  0.00     0.000 C 
BRANCH   5   6
ATOM      6  C   UNL     1      -2.877  32.970 -14.905  1.00  0.00     0.006 C 
BRANCH   6   7
ATOM      7  C   UNL     1      -2.156  32.218 -16.038  1.00  0.00     0.053 C 
BRANCH   7   8
ATOM      8  C   UNL     1      -2.741  30.862 -16.297  1.00  0.00     0.041 C 
ATOM      9  O   UNL     1      -3.980  30.671 -16.178  1.00  0.00    -0.550 OA
ATOM     10  O   UNL     1      -1.912  29.801 -16.639  1.00  0.00    -0.550 OA
ENDBRANCH   7   8
ENDBRANCH   6   7
ENDBRANCH   5   6
ENDBRANCH   4   5
ENDBRANCH   3   4
ENDBRANCH   2   3
ENDBRANCH   1   2
BRANCH   1  11
ATOM     11  C   UNL     1      -2.343  29.616 -12.265  1.00  0.00    -0.031 C 
ATOM     12  C   UNL     1      -3.602  29.812 -12.684  1.00  0.00    -0.027 C 
BRANCH  12  13
ATOM     13  C   UNL     1      -4.683  30.253 -11.740  1.00  0.00     0.054 C 
BRANCH  13  14
ATOM     14  C   UNL     1      -4.119  31.200 -10.709  1.00  0.00    -0.027 C 
ATOM     15  C   UNL     1      -4.127  30.992  -9.378  1.00  0.00    -0.031 C 
BRANCH  15  16
ATOM     16  C   UNL     1      -4.656  29.752  -8.701  1.00  0.00     0.027 C 
BRANCH  16  17
ATOM     17  C   UNL     1      -3.552  28.974  -7.967  1.00  0.00     0.004 C 
BRANCH  17  18
ATOM     18  C   UNL     1      -2.973  27.842  -8.834  1.00  0.00     0.000 C 
BRANCH  18  19
ATOM     19  C   UNL     1      -4.029  27.195  -9.743  1.00  0.00    -0.003 C 
ATOM     20  C   UNL     1      -3.414  26.342 -10.851  1.00  0.00     0.004 C 
ENDBRANCH  18  19
ENDBRANCH  17  18
ENDBRANCH  16  17
ENDBRANCH  15  16
ENDBRANCH  13  14
ENDBRANCH  12  13
ENDBRANCH   1  11
TORSDOF 14
ENDMDL
MODEL 3
REMARK VINA RESULT:    -3.168      1.905      2.359
REMARK INTER + INTRA:          -9.047
REMARK INTER:                  -6.295
REMARK INTRA:                  -2.751
REMARK UNBOUND:                -3.286
REMARK SMILES CCCCCC=CCC=CCCCCCCCC(=O)[O-]
REMARK SMILES IDX 11 1 12 2 13 3 14 4 15 5 16 6 17 7 18 8 19 9 20 10 10 11
REMARK SMILES IDX 9 12 8 13 7 14 6 15 5 16 4 17 3 18 2 19 1 20
REMARK H PARENT
REMARK Flexibility Score: inf
ROOT
ATOM      1  C   UNL     1      -3.077  31.521 -18.076  1.00  0.00     0.027 C 
ENDROOT
BRANCH   1   2
ATOM      2  C   UNL     1      -1.584  31.203 -18.237  1.00  0.00     0.004 C 
BRANCH   2   3
ATOM      3  C   UNL     1      -1.300  30.249 -19.410  1.00  0.00     0.000 C 
BRANCH   3   4
ATOM      4  C   UNL     1      -2.145  28.959 -19.372  1.00  0.00     0.000 C 
BRANCH   4   5
ATOM      5  C   UNL     1      -1.765  28.049 -18.190  1.00  0.00     0.000 C 
BRANCH   5   6
ATOM      6  C   UNL     1      -2.867  27.953 -17.122  1.00  0.00     0.006 C 
BRANCH   6   7
ATOM      7  C   UNL     1      -3.122  26.524 -16.611  1.00  0.00     0.053 C 
BRANCH   7   8
ATOM      8  C   UNL     1      -4.035  25.743 -17.507  1.00  0.00     0.041 C 
ATOM      9  O   UNL     1      -5.283  25.890 -17.427  1.00  0.00    -0.550 OA
ATOM     10  O   UNL     1      -3.508  24.829 -18.411  1.00  0.00    -0.550 OA
ENDBRANCH   7   8
ENDBRANCH   6   7
ENDBRANCH   5   6
ENDBRANCH   4   5
ENDBRANCH   3   4
ENDBRANCH   2   3
ENDBRANCH   1   2
BRANCH   1  11
ATOM     11  C   UNL     1      -3.393  31.934 -16.665  1.00  0.00    -0.031 C 
ATOM     12  C   UNL     1      -2.524  32.646 -15.931  1.00  0.00    -0.027 C 
BRANCH  12  13
ATOM     13  C   UNL     1      -2.846  33.068 -14.526  1.00  0.00     0.054 C 
BRANCH  13  14
ATOM     14  C   UNL     1      -1.637  32.895 -13.641  1.00  0.00    -0.027 C 
ATOM     15  C   UNL     1      -1.411  31.842 -12.833  1.00  0.00    -0.031 C 
BRANCH  15  16
ATOM     16  C   UNL     1      -2.306  30.633 -12.720  1.00  0.00     0.027 C 
BRANCH  16  17
ATOM     17  C   UNL     1      -1.959  29.553 -13.756  1.00  0.00     0.004 C 
BRANCH  17  18
ATOM     18  C   UNL     1      -0.439  29.386 -13.928  1.00  0.00     0.000 C 
BRANCH  18  19
ATOM     19  C   UNL     1       0.017  29.592 -15.380  1.00  0.00    -0.003 C 
ATOM     20  C   UNL     1       0.905  30.824 -15.554  1.00  0.00     0.004 C 
ENDBRANCH  18  19
ENDBRANCH  17  18
ENDBRANCH  16  17
ENDBRANCH  15  16
ENDBRANCH  13  14
ENDBRANCH  12  13
ENDBRANCH   1  11
TORSDOF 14
ENDMDL
MODEL 4
REMARK VINA RESULT:    -3.103      3.082      5.208
REMARK INTER + INTRA:          -8.928
REMARK INTER:                  -6.610
REMARK INTRA:                  -2.318
REMARK UNBOUND:                -3.286
REMARK SMILES CCCCCC=CCC=CCCCCCCCC(=O)[O-]
REMARK SMILES IDX 11 1 12 2 13 3 14 4 15 5 16 6 17 7 18 8 19 9 20 10 10 11
REMARK SMILES IDX 9 12 8 13 7 14 6 15 5 16 4 17 3 18 2 19 1 20
REMARK H PARENT
REMARK Flexibility Score: inf
ROOT
ATOM      1  C   UNL     1      -2.018  32.665 -13.165  1.00  0.00     0.027 C 
ENDROOT
BRANCH   1   2
ATOM      2  C   UNL     1      -1.756  32.463 -14.664  1.00  0.00     0.004 C 
BRANCH   2   3
ATOM      3  C   UNL     1      -2.905  32.981 -15.545  1.00  0.00     0.000 C 
BRANCH   3   4
ATOM      4  C   UNL     1      -3.346  31.978 -16.632  1.00  0.00     0.000 C 
BRANCH   4   5
ATOM      5  C   UNL     1      -2.542  30.668 -16.575  1.00  0.00     0.000 C 
BRANCH   5   6
ATOM      6  C   UNL     1      -3.394  29.422 -16.874  1.00  0.00     0.006 C 
BRANCH   6   7
ATOM      7  C   UNL     1      -4.658  29.304 -16.002  1.00  0.00     0.053 C 
BRANCH   7   8
ATOM      8  C   UNL     1      -5.643  28.313 -16.543  1.00  0.00     0.041 C 
ATOM      9  O   UNL     1      -5.273  27.147 -16.842  1.00  0.00    -0.550 OA
ATOM     10  O   UNL     1      -6.966  28.687 -16.747  1.00  0.00    -0.550 OA
ENDBRANCH   7   8
ENDBRANCH   6   7
ENDBRANCH   5   6
ENDBRANCH   4   5
ENDBRANCH   3   4
ENDBRANCH   2   3
ENDBRANCH   1   2
BRANCH   1  11
ATOM     11  C   UNL     1      -2.345  31.360 -12.493  1.00  0.00    -0.031 C 
ATOM     12  C   UNL     1      -1.897  30.190 -12.975  1.00  0.00    -0.027 C 
BRANCH  12  13
ATOM     13  C   UNL     1      -2.214  28.890 -12.296  1.00  0.00     0.054 C 
BRANCH  13  14
ATOM     14  C   UNL     1      -3.708  28.686 -12.233  1.00  0.00    -0.027 C 
ATOM     15  C   UNL     1      -4.422  28.522 -11.103  1.00  0.00    -0.031 C 
BRANCH  15  16
ATOM     16  C   UNL     1      -3.851  28.570  -9.706  1.00  0.00     0.027 C 
BRANCH  16  17
ATOM     17  C   UNL     1      -4.444  29.717  -8.874  1.00  0.00     0.004 C 
BRANCH  17  18
ATOM     18  C   UNL     1      -3.893  31.087  -9.306  1.00  0.00     0.000 C 
BRANCH  18  19
ATOM     19  C   UNL     1      -5.003  32.127  -9.525  1.00  0.00    -0.003 C 
ATOM     20  C   UNL     1      -5.993  31.716 -10.613  1.00  0.00     0.004 C 
ENDBRANCH  18  19
ENDBRANCH  17  18
ENDBRANCH  16  17
ENDBRANCH  15  16
ENDBRANCH  13  14
ENDBRANCH  12  13
ENDBRANCH   1  11
TORSDOF 14
ENDMDL
MODEL 5
REMARK VINA RESULT:    -3.077      2.057      3.272
REMARK INTER + INTRA:          -8.881
REMARK INTER:                  -5.719
REMARK INTRA:                  -3.162
REMARK UNBOUND:                -3.286
REMARK SMILES CCCCCC=CCC=CCCCCCCCC(=O)[O-]
REMARK SMILES IDX 11 1 12 2 13 3 14 4 15 5 16 6 17 7 18 8 19 9 20 10 10 11
REMARK SMILES IDX 9 12 8 13 7 14 6 15 5 16 4 17 3 18 2 19 1 20
REMARK H PARENT
REMARK Flexibility Score: inf
ROOT
ATOM      1  C   UNL     1      -2.875  31.479 -18.072  1.00  0.00     0.027 C 
ENDROOT
BRANCH   1   2
ATOM      2  C   UNL     1      -3.190  29.998 -18.325  1.00  0.00     0.004 C 
BRANCH   2   3
ATOM      3  C   UNL     1      -1.925  29.141 -18.505  1.00  0.00     0.000 C 
BRANCH   3   4
ATOM      4  C   UNL     1      -1.701  28.126 -17.364  1.00  0.00     0.000 C 
BRANCH   4   5
ATOM      5  C   UNL     1      -0.294  28.240 -16.752  1.00  0.00     0.000 C 
BRANCH   5   6
ATOM      6  C   UNL     1       0.294  29.658 -16.850  1.00  0.00     0.006 C 
BRANCH   6   7
ATOM      7  C   UNL     1       0.333  30.414 -15.509  1.00  0.00     0.053 C 
BRANCH   7   8
ATOM      8  C   UNL     1       1.688  30.387 -14.870  1.00  0.00     0.041 C 
ATOM      9  O   UNL     1       2.289  31.462 -14.608  1.00  0.00    -0.550 OA
ATOM     10  O   UNL     1       2.302  29.172 -14.591  1.00  0.00    -0.550 OA
ENDBRANCH   7   8
ENDBRANCH   6   7
ENDBRANCH   5   6
ENDBRANCH   4   5
ENDBRANCH   3   4
ENDBRANCH   2   3
ENDBRANCH   1   2
BRANCH   1  11
ATOM     11  C   UNL     1      -3.258  31.883 -16.675  1.00  0.00    -0.031 C 
ATOM     12  C   UNL     1      -2.449  32.638 -15.917  1.00  0.00    -0.027 C 
BRANCH  12  13
ATOM     13  C   UNL     1      -2.837  33.051 -14.526  1.00  0.00     0.054 C 
BRANCH  13  14
ATOM     14  C   UNL     1      -1.645  32.968 -13.606  1.00  0.00    -0.027 C 
ATOM     15  C   UNL     1      -1.476  32.050 -12.635  1.00  0.00    -0.031 C 
BRANCH  15  16
ATOM     16  C   UNL     1      -2.431  30.919 -12.341  1.00  0.00     0.027 C 
BRANCH  16  17
ATOM     17  C   UNL     1      -1.833  29.548 -12.693  1.00  0.00     0.004 C 
BRANCH  17  18
ATOM     18  C   UNL     1      -2.594  28.866 -13.843  1.00  0.00     0.000 C 
BRANCH  18  19
ATOM     19  C   UNL     1      -4.010  29.431 -14.031  1.00  0.00    -0.003 C 
ATOM     20  C   UNL     1      -4.759  28.781 -15.193  1.00  0.00     0.004 C 
ENDBRANCH  18  19
ENDBRANCH  17  18
ENDBRANCH  16  17
ENDBRANCH  15  16
ENDBRANCH  13  14
ENDBRANCH  12  13
ENDBRANCH   1  11
TORSDOF 14
ENDMDL
MODEL 6
REMARK VINA RESULT:    -3.055      3.431      4.422
REMARK INTER + INTRA:          -8.841
REMARK INTER:                  -6.695
REMARK INTRA:                  -2.146
REMARK UNBOUND:                -3.286
REMARK SMILES CCCCCC=CCC=CCCCCCCCC(=O)[O-]
REMARK SMILES IDX 11 1 12 2 13 3 14 4 15 5 16 6 17 7 18 8 19 9 20 10 10 11
REMARK SMILES IDX 9 12 8 13 7 14 6 15 5 16 4 17 3 18 2 19 1 20
REMARK H PARENT
REMARK Flexibility Score: inf
ROOT
ATOM      1  C   UNL     1      -3.199  31.204 -17.586  1.00  0.00     0.027 C 
ENDROOT
BRANCH   1   2
ATOM      2  C   UNL     1      -3.536  29.707 -17.530  1.00  0.00     0.004 C 
BRANCH   2   3
ATOM      3  C   UNL     1      -2.494  28.834 -18.249  1.00  0.00     0.000 C 
BRANCH   3   4
ATOM      4  C   UNL     1      -1.592  29.626 -19.220  1.00  0.00     0.000 C 
BRANCH   4   5
ATOM      5  C   UNL     1      -1.681  29.094 -20.661  1.00  0.00     0.000 C 
BRANCH   5   6
ATOM      6  C   UNL     1      -0.572  29.642 -21.576  1.00  0.00     0.006 C 
BRANCH   6   7
ATOM      7  C   UNL     1      -0.554  29.014 -22.982  1.00  0.00     0.053 C 
BRANCH   7   8
ATOM      8  C   UNL     1       0.145  27.688 -23.014  1.00  0.00     0.041 C 
ATOM      9  O   UNL     1       1.389  27.629 -23.196  1.00  0.00    -0.550 OA
ATOM     10  O   UNL     1      -0.586  26.514 -22.875  1.00  0.00    -0.550 OA
ENDBRANCH   7   8
ENDBRANCH   6   7
ENDBRANCH   5   6
ENDBRANCH   4   5
ENDBRANCH   3   4
ENDBRANCH   2   3
ENDBRANCH   1   2
BRANCH   1  11
ATOM     11  C   UNL     1      -3.382  31.850 -16.240  1.00  0.00    -0.031 C 
ATOM     12  C   UNL     1      -2.580  32.842 -15.823  1.00  0.00    -0.027 C 
BRANCH  12  13
ATOM     13  C   UNL     1      -2.771  33.494 -14.485  1.00  0.00     0.054 C 
BRANCH  13  14
ATOM     14  C   UNL     1      -2.866  32.447 -13.403  1.00  0.00    -0.027 C 
ATOM     15  C   UNL     1      -1.819  31.803 -12.852  1.00  0.00    -0.031 C 
BRANCH  15  16
ATOM     16  C   UNL     1      -0.371  32.063 -13.189  1.00  0.00     0.027 C 
BRANCH  16  17
ATOM     17  C   UNL     1       0.362  30.787 -13.629  1.00  0.00     0.004 C 
BRANCH  17  18
ATOM     18  C   UNL     1      -0.375  30.064 -14.770  1.00  0.00     0.000 C 
BRANCH  18  19
ATOM     19  C   UNL     1       0.458  29.994 -16.058  1.00  0.00    -0.003 C 
ATOM     20  C   UNL     1       0.602  31.352 -16.745  1.00  0.00     0.004 C 
ENDBRANCH  18  19
ENDBRANCH  17  18
ENDBRANCH  16  17
ENDBRANCH  15  16
ENDBRANCH  13  14
ENDBRANCH  12  13
ENDBRANCH   1  11
TORSDOF 14
ENDMDL
MODEL 7
REMARK VINA RESULT:    -3.040      2.363      2.702
REMARK INTER + INTRA:          -8.815
REMARK INTER:                  -6.516
REMARK INTRA:                  -2.299
REMARK UNBOUND:                -3.286
REMARK SMILES CCCCCC=CCC=CCCCCCCCC(=O)[O-]
REMARK SMILES IDX 11 1 12 2 13 3 14 4 15 5 16 6 17 7 18 8 19 9 20 10 10 11
REMARK SMILES IDX 9 12 8 13 7 14 6 15 5 16 4 17 3 18 2 19 1 20
REMARK H PARENT
REMARK Flexibility Score: inf
ROOT
ATOM      1  C   UNL     1      -2.937  31.224 -17.887  1.00  0.00     0.027 C 
ENDROOT
BRANCH   1   2
ATOM      2  C   UNL     1      -2.643  29.735 -17.652  1.00  0.00     0.004 C 
BRANCH   2   3
ATOM      3  C   UNL     1      -3.898  28.931 -17.276  1.00  0.00     0.000 C 
BRANCH   3   4
ATOM      4  C   UNL     1      -3.648  27.411 -17.175  1.00  0.00     0.000 C 
BRANCH   4   5
ATOM      5  C   UNL     1      -4.951  26.621 -16.961  1.00  0.00     0.000 C 
BRANCH   5   6
ATOM      6  C   UNL     1      -4.732  25.100 -16.903  1.00  0.00     0.006 C 
BRANCH   6   7
ATOM      7  C   UNL     1      -3.551  24.604 -17.757  1.00  0.00     0.053 C 
BRANCH   7   8
ATOM      8  C   UNL     1      -3.922  24.398 -19.194  1.00  0.00     0.041 C 
ATOM      9  O   UNL     1      -4.863  23.620 -19.503  1.00  0.00    -0.550 OA
ATOM     10  O   UNL     1      -3.207  25.042 -20.196  1.00  0.00    -0.550 OA
ENDBRANCH   7   8
ENDBRANCH   6   7
ENDBRANCH   5   6
ENDBRANCH   4   5
ENDBRANCH   3   4
ENDBRANCH   2   3
ENDBRANCH   1   2
BRANCH   1  11
ATOM     11  C   UNL     1      -3.350  31.902 -16.610  1.00  0.00    -0.031 C 
ATOM     12  C   UNL     1      -2.495  32.668 -15.914  1.00  0.00    -0.027 C 
BRANCH  12  13
ATOM     13  C   UNL     1      -2.912  33.355 -14.646  1.00  0.00     0.054 C 
BRANCH  13  14
ATOM     14  C   UNL     1      -1.975  32.987 -13.522  1.00  0.00    -0.027 C 
ATOM     15  C   UNL     1      -2.116  31.921 -12.712  1.00  0.00    -0.031 C 
BRANCH  15  16
ATOM     16  C   UNL     1      -3.209  30.886 -12.828  1.00  0.00     0.027 C 
BRANCH  16  17
ATOM     17  C   UNL     1      -2.759  29.653 -13.627  1.00  0.00     0.004 C 
BRANCH  17  18
ATOM     18  C   UNL     1      -1.249  29.393 -13.484  1.00  0.00     0.000 C 
BRANCH  18  19
ATOM     19  C   UNL     1      -0.535  29.309 -14.841  1.00  0.00    -0.003 C 
ATOM     20  C   UNL     1       0.415  30.482 -15.085  1.00  0.00     0.004 C 
ENDBRANCH  18  19
ENDBRANCH  17  18
ENDBRANCH  16  17
ENDBRANCH  15  16
ENDBRANCH  13  14
ENDBRANCH  12  13
ENDBRANCH   1  11
TORSDOF 14
ENDMDL
MODEL 8
REMARK VINA RESULT:    -3.030      2.969      5.768
REMARK INTER + INTRA:          -8.796
REMARK INTER:                  -6.344
REMARK INTRA:                  -2.452
REMARK UNBOUND:                -3.286
REMARK SMILES CCCCCC=CCC=CCCCCCCCC(=O)[O-]
REMARK SMILES IDX 11 1 12 2 13 3 14 4 15 5 16 6 17 7 18 8 19 9 20 10 10 11
REMARK SMILES IDX 9 12 8 13 7 14 6 15 5 16 4 17 3 18 2 19 1 20
REMARK H PARENT
REMARK Flexibility Score: inf
ROOT
ATOM      1  C   UNL     1      -2.827  33.135 -14.419  1.00  0.00     0.027 C 
ENDROOT
BRANCH   1   2
ATOM      2  C   UNL     1      -1.549  32.666 -13.708  1.00  0.00     0.004 C 
BRANCH   2   3
ATOM      3  C   UNL     1      -1.833  31.712 -12.536  1.00  0.00     0.000 C 
BRANCH   3   4
ATOM      4  C   UNL     1      -3.291  31.774 -12.033  1.00  0.00     0.000 C 
BRANCH   4   5
ATOM      5  C   UNL     1      -3.961  30.389 -12.022  1.00  0.00     0.000 C 
BRANCH   5   6
ATOM      6  C   UNL     1      -3.680  29.591 -10.737  1.00  0.00     0.006 C 
BRANCH   6   7
ATOM      7  C   UNL     1      -4.158  30.288  -9.450  1.00  0.00     0.053 C 
BRANCH   7   8
ATOM      8  C   UNL     1      -4.325  29.335  -8.305  1.00  0.00     0.041 C 
ATOM      9  O   UNL     1      -5.475  29.039  -7.887  1.00  0.00    -0.550 OA
ATOM     10  O   UNL     1      -3.207  28.799  -7.678  1.00  0.00    -0.550 OA
ENDBRANCH   7   8
ENDBRANCH   6   7
ENDBRANCH   5   6
ENDBRANCH   4   5
ENDBRANCH   3   4
ENDBRANCH   2   3
ENDBRANCH   1   2
BRANCH   1  11
ATOM     11  C   UNL     1      -2.824  32.722 -15.865  1.00  0.00    -0.031 C 
ATOM     12  C   UNL     1      -1.698  32.333 -16.482  1.00  0.00    -0.027 C 
BRANCH  12  13
ATOM     13  C   UNL     1      -1.699  31.909 -17.922  1.00  0.00     0.054 C 
BRANCH  13  14
ATOM     14  C   UNL     1      -0.695  30.805 -18.141  1.00  0.00    -0.027 C 
ATOM     15  C   UNL     1      -0.990  29.562 -18.568  1.00  0.00    -0.031 C 
BRANCH  15  16
ATOM     16  C   UNL     1      -2.369  29.085 -18.951  1.00  0.00     0.027 C 
BRANCH  16  17
ATOM     17  C   UNL     1      -3.067  28.341 -17.802  1.00  0.00     0.004 C 
BRANCH  17  18
ATOM     18  C   UNL     1      -4.087  29.235 -17.073  1.00  0.00     0.000 C 
BRANCH  18  19
ATOM     19  C   UNL     1      -3.904  29.215 -15.548  1.00  0.00    -0.003 C 
ATOM     20  C   UNL     1      -2.452  28.990 -15.129  1.00  0.00     0.004 C 
ENDBRANCH  18  19
ENDBRANCH  17  18
ENDBRANCH  16  17
ENDBRANCH  15  16
ENDBRANCH  13  14
ENDBRANCH  12  13
ENDBRANCH   1  11
TORSDOF 14
ENDMDL
MODEL 9
REMARK VINA RESULT:    -3.019      2.597      4.889
REMARK INTER + INTRA:          -8.777
REMARK INTER:                  -6.112
REMARK INTRA:                  -2.664
REMARK UNBOUND:                -3.286
REMARK SMILES CCCCCC=CCC=CCCCCCCCC(=O)[O-]
REMARK SMILES IDX 11 1 12 2 13 3 14 4 15 5 16 6 17 7 18 8 19 9 20 10 10 11
REMARK SMILES IDX 9 12 8 13 7 14 6 15 5 16 4 17 3 18 2 19 1 20
REMARK H PARENT
REMARK Flexibility Score: inf
ROOT
ATOM      1  C   UNL     1      -2.631  33.039 -14.428  1.00  0.00     0.027 C 
ENDROOT
BRANCH   1   2
ATOM      2  C   UNL     1      -1.381  32.681 -13.611  1.00  0.00     0.004 C 
BRANCH   2   3
ATOM      3  C   UNL     1      -1.658  31.620 -12.533  1.00  0.00     0.000 C 
BRANCH   3   4
ATOM      4  C   UNL     1      -3.121  31.129 -12.514  1.00  0.00     0.000 C 
BRANCH   4   5
ATOM      5  C   UNL     1      -3.240  29.641 -12.884  1.00  0.00     0.000 C 
BRANCH   5   6
ATOM      6  C   UNL     1      -3.933  29.408 -14.238  1.00  0.00     0.006 C 
BRANCH   6   7
ATOM      7  C   UNL     1      -5.114  28.422 -14.176  1.00  0.00     0.053 C 
BRANCH   7   8
ATOM      8  C   UNL     1      -5.730  28.173 -15.519  1.00  0.00     0.041 C 
ATOM      9  O   UNL     1      -5.912  29.124 -16.322  1.00  0.00    -0.550 OA
ATOM     10  O   UNL     1      -6.134  26.890 -15.871  1.00  0.00    -0.550 OA
ENDBRANCH   7   8
ENDBRANCH   6   7
ENDBRANCH   5   6
ENDBRANCH   4   5
ENDBRANCH   3   4
ENDBRANCH   2   3
ENDBRANCH   1   2
BRANCH   1  11
ATOM     11  C   UNL     1      -2.446  32.691 -15.880  1.00  0.00    -0.031 C 
ATOM     12  C   UNL     1      -3.344  31.946 -16.543  1.00  0.00    -0.027 C 
BRANCH  12  13
ATOM     13  C   UNL     1      -3.164  31.611 -17.995  1.00  0.00     0.054 C 
BRANCH  13  14
ATOM     14  C   UNL     1      -3.027  30.118 -18.172  1.00  0.00    -0.027 C 
ATOM     15  C   UNL     1      -2.137  29.511 -18.979  1.00  0.00    -0.031 C 
BRANCH  15  16
ATOM     16  C   UNL     1      -1.091  30.222 -19.802  1.00  0.00     0.027 C 
BRANCH  16  17
ATOM     17  C   UNL     1       0.084  30.719 -18.946  1.00  0.00     0.004 C 
BRANCH  17  18
ATOM     18  C   UNL     1       0.470  29.706 -17.854  1.00  0.00     0.000 C 
BRANCH  18  19
ATOM     19  C   UNL     1       0.429  30.314 -16.444  1.00  0.00    -0.003 C 
ATOM     20  C   UNL     1      -0.445  29.514 -15.479  1.00  0.00     0.004 C 
ENDBRANCH  18  19
ENDBRANCH  17  18
ENDBRANCH  16  17
ENDBRANCH  15  16
ENDBRANCH  13  14
ENDBRANCH  12  13
ENDBRANCH   1  11
TORSDOF 14
ENDMDL
