MODEL 1
REMARK VINA RESULT:    -4.144      0.000      0.000
REMARK INTER + INTRA:          -6.251
REMARK INTER:                  -5.840
REMARK INTRA:                  -0.411
REMARK UNBOUND:                -0.411
REMARK SMILES CCCCCCCCC(=O)[O-]
REMARK SMILES IDX 6 1 7 2 8 3 9 4 10 5 11 6 5 7 4 8 3 9 2 10 1 11
REMARK H PARENT
REMARK Flexibility Score: inf
ROOT
ATOM      1  C   UNL     1      39.909  20.754   5.227  1.00  0.00     0.000 C 
ENDROOT
BRANCH   1   2
ATOM      2  C   UNL     1      39.777  20.150   6.637  1.00  0.00     0.006 C 
BRANCH   2   3
ATOM      3  C   UNL     1      38.539  19.256   6.792  1.00  0.00     0.053 C 
BRANCH   3   4
ATOM      4  C   UNL     1      37.512  19.930   7.647  1.00  0.00     0.041 C 
ATOM      5  O   UNL     1      36.722  19.244   8.347  1.00  0.00    -0.550 OA
ATOM      6  O   UNL     1      37.393  21.313   7.632  1.00  0.00    -0.550 OA
ENDBRANCH   3   4
ENDBRANCH   2   3
ENDBRANCH   1   2
BRANCH   1   7
ATOM      7  C   UNL     1      38.899  20.221   4.193  1.00  0.00     0.000 C 
BRANCH   7   8
ATOM      8  C   UNL     1      37.756  21.206   3.910  1.00  0.00    -0.000 C 
BRANCH   8   9
ATOM      9  C   UNL     1      36.419  20.465   3.758  1.00  0.00    -0.000 C 
BRANCH   9  10
ATOM     10  C   UNL     1      35.836  20.585   2.341  1.00  0.00    -0.003 C 
ATOM     11  C   UNL     1      34.427  21.176   2.329  1.00  0.00     0.004 C 
ENDBRANCH   9  10
ENDBRANCH   8   9
ENDBRANCH   7   8
ENDBRANCH   1   7
TORSDOF 7
ENDMDL
MODEL 2
REMARK VINA RESULT:    -4.111      1.702      2.206
REMARK INTER + INTRA:          -6.204
REMARK INTER:                  -5.831
REMARK INTRA:                  -0.373
REMARK UNBOUND:                -0.411
REMARK SMILES CCCCCCCCC(=O)[O-]
REMARK SMILES IDX 6 1 7 2 8 3 9 4 10 5 11 6 5 7 4 8 3 9 2 10 1 11
REMARK H PARENT
REMARK Flexibility Score: inf
ROOT
ATOM      1  C   UNL     1      37.003  19.920   5.241  1.00  0.00     0.000 C 
ENDROOT
BRANCH   1   2
ATOM      2  C   UNL     1      37.511  19.930   6.694  1.00  0.00     0.006 C 
BRANCH   2   3
ATOM      3  C   UNL     1      38.856  19.212   6.862  1.00  0.00     0.053 C 
BRANCH   3   4
ATOM      4  C   UNL     1      39.906  20.172   7.326  1.00  0.00     0.041 C 
ATOM      5  O   UNL     1      40.927  19.751   7.933  1.00  0.00    -0.550 OA
ATOM      6  O   UNL     1      39.735  21.537   7.134  1.00  0.00    -0.550 OA
ENDBRANCH   3   4
ENDBRANCH   2   3
ENDBRANCH   1   2
BRANCH   1   7
ATOM      7  C   UNL     1      37.680  20.940   4.306  1.00  0.00     0.000 C 
BRANCH   7   8
ATOM      8  C   UNL     1      36.980  21.063   2.945  1.00  0.00    -0.000 C 
BRANCH   8   9
ATOM      9  C   UNL     1      35.633  20.325   2.952  1.00  0.00    -0.000 C 
BRANCH   9  10
ATOM     10  C   UNL     1      34.491  21.175   2.375  1.00  0.00    -0.003 C 
ATOM     11  C   UNL     1      34.910  21.969   1.138  1.00  0.00     0.004 C 
ENDBRANCH   9  10
ENDBRANCH   8   9
ENDBRANCH   7   8
ENDBRANCH   1   7
TORSDOF 7
ENDMDL
MODEL 3
REMARK VINA RESULT:    -4.100      2.680      4.705
REMARK INTER + INTRA:          -6.189
REMARK INTER:                  -5.466
REMARK INTRA:                  -0.723
REMARK UNBOUND:                -0.411
REMARK SMILES CCCCCCCCC(=O)[O-]
REMARK SMILES IDX 6 1 7 2 8 3 9 4 10 5 11 6 5 7 4 8 3 9 2 10 1 11
REMARK H PARENT
REMARK Flexibility Score: inf
ROOT
ATOM      1  C   UNL     1      38.352  21.822   4.665  1.00  0.00     0.000 C 
ENDROOT
BRANCH   1   2
ATOM      2  C   UNL     1      37.893  20.519   3.985  1.00  0.00     0.006 C 
BRANCH   2   3
ATOM      3  C   UNL     1      36.383  20.279   4.112  1.00  0.00     0.053 C 
BRANCH   3   4
ATOM      4  C   UNL     1      35.705  20.508   2.798  1.00  0.00     0.041 C 
ATOM      5  O   UNL     1      35.054  19.579   2.250  1.00  0.00    -0.550 OA
ATOM      6  O   UNL     1      35.833  21.731   2.153  1.00  0.00    -0.550 OA
ENDBRANCH   3   4
ENDBRANCH   2   3
ENDBRANCH   1   2
BRANCH   1   7
ATOM      7  C   UNL     1      39.675  21.717   5.447  1.00  0.00     0.000 C 
BRANCH   7   8
ATOM      8  C   UNL     1      39.478  21.267   6.901  1.00  0.00    -0.000 C 
BRANCH   8   9
ATOM      9  C   UNL     1      39.886  19.797   7.082  1.00  0.00    -0.000 C 
BRANCH   9  10
ATOM     10  C   UNL     1      38.685  18.883   7.369  1.00  0.00    -0.003 C 
ATOM     11  C   UNL     1      37.413  19.663   7.702  1.00  0.00     0.004 C 
ENDBRANCH   9  10
ENDBRANCH   8   9
ENDBRANCH   7   8
ENDBRANCH   1   7
TORSDOF 7
ENDMDL
MODEL 4
REMARK VINA RESULT:    -4.021      1.528      2.110
REMARK INTER + INTRA:          -6.077
REMARK INTER:                  -5.427
REMARK INTRA:                  -0.650
REMARK UNBOUND:                -0.411
REMARK SMILES CCCCCCCCC(=O)[O-]
REMARK SMILES IDX 6 1 7 2 8 3 9 4 10 5 11 6 5 7 4 8 3 9 2 10 1 11
REMARK H PARENT
REMARK Flexibility Score: inf
ROOT
ATOM      1  C   UNL     1      38.376  21.847   4.415  1.00  0.00     0.000 C 
ENDROOT
BRANCH   1   2
ATOM      2  C   UNL     1      38.122  20.329   4.440  1.00  0.00     0.006 C 
BRANCH   2   3
ATOM      3  C   UNL     1      37.130  19.906   5.532  1.00  0.00     0.053 C 
BRANCH   3   4
ATOM      4  C   UNL     1      37.860  19.502   6.773  1.00  0.00     0.041 C 
ATOM      5  O   UNL     1      37.272  19.513   7.887  1.00  0.00    -0.550 OA
ATOM      6  O   UNL     1      39.205  19.159   6.709  1.00  0.00    -0.550 OA
ENDBRANCH   3   4
ENDBRANCH   2   3
ENDBRANCH   1   2
BRANCH   1   7
ATOM      7  C   UNL     1      38.013  22.547   3.092  1.00  0.00     0.000 C 
BRANCH   7   8
ATOM      8  C   UNL     1      37.276  21.626   2.109  1.00  0.00    -0.000 C 
BRANCH   8   9
ATOM      9  C   UNL     1      35.931  22.235   1.689  1.00  0.00    -0.000 C 
BRANCH   9  10
ATOM     10  C   UNL     1      34.735  21.355   2.084  1.00  0.00    -0.003 C 
ATOM     11  C   UNL     1      35.114  19.885   2.260  1.00  0.00     0.004 C 
ENDBRANCH   9  10
ENDBRANCH   8   9
ENDBRANCH   7   8
ENDBRANCH   1   7
TORSDOF 7
ENDMDL
MODEL 5
REMARK VINA RESULT:    -3.920      2.801      4.690
REMARK INTER + INTRA:          -5.934
REMARK INTER:                  -5.360
REMARK INTRA:                  -0.574
REMARK UNBOUND:                -0.411
REMARK SMILES CCCCCCCCC(=O)[O-]
REMARK SMILES IDX 6 1 7 2 8 3 9 4 10 5 11 6 5 7 4 8 3 9 2 10 1 11
REMARK H PARENT
REMARK Flexibility Score: inf
ROOT
ATOM      1  C   UNL     1      38.645  21.502   3.979  1.00  0.00     0.000 C 
ENDROOT
BRANCH   1   2
ATOM      2  C   UNL     1      37.550  21.214   2.935  1.00  0.00     0.006 C 
BRANCH   2   3
ATOM      3  C   UNL     1      36.365  20.429   3.513  1.00  0.00     0.053 C 
BRANCH   3   4
ATOM      4  C   UNL     1      35.243  20.376   2.524  1.00  0.00     0.041 C 
ATOM      5  O   UNL     1      34.884  19.274   2.031  1.00  0.00    -0.550 OA
ATOM      6  O   UNL     1      34.625  21.548   2.110  1.00  0.00    -0.550 OA
ENDBRANCH   3   4
ENDBRANCH   2   3
ENDBRANCH   1   2
BRANCH   1   7
ATOM      7  C   UNL     1      39.428  20.266   4.460  1.00  0.00     0.000 C 
BRANCH   7   8
ATOM      8  C   UNL     1      39.525  20.175   5.989  1.00  0.00    -0.000 C 
BRANCH   8   9
ATOM      9  C   UNL     1      38.383  19.321   6.562  1.00  0.00    -0.000 C 
BRANCH   9  10
ATOM     10  C   UNL     1      37.493  20.105   7.539  1.00  0.00    -0.003 C 
ATOM     11  C   UNL     1      37.673  21.618   7.421  1.00  0.00     0.004 C 
ENDBRANCH   9  10
ENDBRANCH   8   9
ENDBRANCH   7   8
ENDBRANCH   1   7
TORSDOF 7
ENDMDL
MODEL 6
REMARK VINA RESULT:    -3.793      1.759      2.862
REMARK INTER + INTRA:          -5.755
REMARK INTER:                  -5.334
REMARK INTRA:                  -0.421
REMARK UNBOUND:                -0.411
REMARK SMILES CCCCCCCCC(=O)[O-]
REMARK SMILES IDX 6 1 7 2 8 3 9 4 10 5 11 6 5 7 4 8 3 9 2 10 1 11
REMARK H PARENT
REMARK Flexibility Score: inf
ROOT
ATOM      1  C   UNL     1      36.648  19.986   4.542  1.00  0.00     0.000 C 
ENDROOT
BRANCH   1   2
ATOM      2  C   UNL     1      38.124  20.326   4.817  1.00  0.00     0.006 C 
BRANCH   2   3
ATOM      3  C   UNL     1      38.615  19.809   6.176  1.00  0.00     0.053 C 
BRANCH   3   4
ATOM      4  C   UNL     1      37.739  20.320   7.276  1.00  0.00     0.041 C 
ATOM      5  O   UNL     1      37.689  21.554   7.525  1.00  0.00    -0.550 OA
ATOM      6  O   UNL     1      37.015  19.431   8.059  1.00  0.00    -0.550 OA
ENDBRANCH   3   4
ENDBRANCH   2   3
ENDBRANCH   1   2
BRANCH   1   7
ATOM      7  C   UNL     1      36.024  20.720   3.340  1.00  0.00     0.000 C 
BRANCH   7   8
ATOM      8  C   UNL     1      37.059  21.126   2.282  1.00  0.00    -0.000 C 
BRANCH   8   9
ATOM      9  C   UNL     1      36.954  22.624   1.957  1.00  0.00    -0.000 C 
BRANCH   9  10
ATOM     10  C   UNL     1      37.944  23.474   2.767  1.00  0.00    -0.003 C 
ATOM     11  C   UNL     1      38.022  24.920   2.278  1.00  0.00     0.004 C 
ENDBRANCH   9  10
ENDBRANCH   8   9
ENDBRANCH   7   8
ENDBRANCH   1   7
TORSDOF 7
ENDMDL
MODEL 7
REMARK VINA RESULT:    -3.426      3.204      5.031
REMARK INTER + INTRA:          -5.239
REMARK INTER:                  -4.697
REMARK INTRA:                  -0.541
REMARK UNBOUND:                -0.411
REMARK SMILES CCCCCCCCC(=O)[O-]
REMARK SMILES IDX 6 1 7 2 8 3 9 4 10 5 11 6 5 7 4 8 3 9 2 10 1 11
REMARK H PARENT
REMARK Flexibility Score: inf
ROOT
ATOM      1  C   UNL     1      37.640  20.235   4.239  1.00  0.00     0.000 C 
ENDROOT
BRANCH   1   2
ATOM      2  C   UNL     1      37.477  21.279   3.119  1.00  0.00     0.006 C 
BRANCH   2   3
ATOM      3  C   UNL     1      38.082  22.642   3.478  1.00  0.00     0.053 C 
BRANCH   3   4
ATOM      4  C   UNL     1      39.266  22.934   2.612  1.00  0.00     0.041 C 
ATOM      5  O   UNL     1      39.271  22.578   1.404  1.00  0.00    -0.550 OA
ATOM      6  O   UNL     1      40.385  23.555   3.150  1.00  0.00    -0.550 OA
ENDBRANCH   3   4
ENDBRANCH   2   3
ENDBRANCH   1   2
BRANCH   1   7
ATOM      7  C   UNL     1      39.090  19.997   4.701  1.00  0.00     0.000 C 
BRANCH   7   8
ATOM      8  C   UNL     1      39.250  20.058   6.227  1.00  0.00    -0.000 C 
BRANCH   8   9
ATOM      9  C   UNL     1      37.951  19.641   6.933  1.00  0.00    -0.000 C 
BRANCH   9  10
ATOM     10  C   UNL     1      37.336  20.780   7.759  1.00  0.00    -0.003 C 
ATOM     11  C   UNL     1      37.925  22.148   7.413  1.00  0.00     0.004 C 
ENDBRANCH   9  10
ENDBRANCH   8   9
ENDBRANCH   7   8
ENDBRANCH   1   7
TORSDOF 7
ENDMDL
MODEL 8
REMARK VINA RESULT:    -3.405      3.134      5.456
REMARK INTER + INTRA:          -5.208
REMARK INTER:                  -4.916
REMARK INTRA:                  -0.292
REMARK UNBOUND:                -0.411
REMARK SMILES CCCCCCCCC(=O)[O-]
REMARK SMILES IDX 6 1 7 2 8 3 9 4 10 5 11 6 5 7 4 8 3 9 2 10 1 11
REMARK H PARENT
REMARK Flexibility Score: inf
ROOT
ATOM      1  C   UNL     1      37.939  20.040   4.553  1.00  0.00     0.000 C 
ENDROOT
BRANCH   1   2
ATOM      2  C   UNL     1      36.458  20.266   4.200  1.00  0.00     0.006 C 
BRANCH   2   3
ATOM      3  C   UNL     1      36.265  21.015   2.875  1.00  0.00     0.053 C 
BRANCH   3   4
ATOM      4  C   UNL     1      35.030  20.536   2.179  1.00  0.00     0.041 C 
ATOM      5  O   UNL     1      34.804  19.302   2.066  1.00  0.00    -0.550 OA
ATOM      6  O   UNL     1      34.152  21.450   1.613  1.00  0.00    -0.550 OA
ENDBRANCH   3   4
ENDBRANCH   2   3
ENDBRANCH   1   2
BRANCH   1   7
ATOM      7  C   UNL     1      38.713  21.308   4.958  1.00  0.00     0.000 C 
BRANCH   7   8
ATOM      8  C   UNL     1      40.233  21.159   4.801  1.00  0.00    -0.000 C 
BRANCH   8   9
ATOM      9  C   UNL     1      40.979  21.968   5.873  1.00  0.00    -0.000 C 
BRANCH   9  10
ATOM     10  C   UNL     1      40.542  21.600   7.299  1.00  0.00    -0.003 C 
ATOM     11  C   UNL     1      40.913  20.167   7.681  1.00  0.00     0.004 C 
ENDBRANCH   9  10
ENDBRANCH   8   9
ENDBRANCH   7   8
ENDBRANCH   1   7
TORSDOF 7
ENDMDL
MODEL 9
REMARK VINA RESULT:    -3.351      2.025      3.749
REMARK INTER + INTRA:          -5.132
REMARK INTER:                  -4.626
REMARK INTRA:                  -0.506
REMARK UNBOUND:                -0.411
REMARK SMILES CCCCCCCCC(=O)[O-]
REMARK SMILES IDX 6 1 7 2 8 3 9 4 10 5 11 6 5 7 4 8 3 9 2 10 1 11
REMARK H PARENT
REMARK Flexibility Score: inf
ROOT
ATOM      1  C   UNL     1      36.666  20.834   3.217  1.00  0.00     0.000 C 
ENDROOT
BRANCH   1   2
ATOM      2  C   UNL     1      37.662  20.238   4.228  1.00  0.00     0.006 C 
BRANCH   2   3
ATOM      3  C   UNL     1      37.025  19.937   5.590  1.00  0.00     0.053 C 
BRANCH   3   4
ATOM      4  C   UNL     1      38.074  19.546   6.583  1.00  0.00     0.041 C 
ATOM      5  O   UNL     1      39.280  19.463   6.230  1.00  0.00    -0.550 OA
ATOM      6  O   UNL     1      37.714  19.224   7.885  1.00  0.00    -0.550 OA
ENDBRANCH   3   4
ENDBRANCH   2   3
ENDBRANCH   1   2
BRANCH   1   7
ATOM      7  C   UNL     1      37.113  22.155   2.562  1.00  0.00     0.000 C 
BRANCH   7   8
ATOM      8  C   UNL     1      38.187  22.893   3.375  1.00  0.00    -0.000 C 
BRANCH   8   9
ATOM      9  C   UNL     1      39.412  23.210   2.504  1.00  0.00    -0.000 C 
BRANCH   9  10
ATOM     10  C   UNL     1      40.720  23.228   3.310  1.00  0.00    -0.003 C 
ATOM     11  C   UNL     1      40.825  22.064   4.295  1.00  0.00     0.004 C 
ENDBRANCH   9  10
ENDBRANCH   8   9
ENDBRANCH   7   8
ENDBRANCH   1   7
TORSDOF 7
ENDMDL
