MODEL 1
REMARK VINA RESULT:    -4.152      0.000      0.000
REMARK INTER + INTRA:          -4.492
REMARK INTER:                  -4.395
REMARK INTRA:                  -0.097
REMARK UNBOUND:                -0.097
REMARK SMILES C=C(C)[C@@H]1CC=C(C)C(=O)C1
REMARK SMILES IDX 8 1 7 2 6 3 5 4 4 5 11 6 9 7 10 8 2 9 1 10 3 11
REMARK H PARENT
REMARK Flexibility Score: inf
ROOT
ATOM      1  C   UNL     1      75.255  35.851  52.273  1.00  0.00     0.048 C 
ATOM      2  C   UNL     1      74.248  35.362  53.277  1.00  0.00    -0.012 C 
ATOM      3  C   UNL     1      74.028  36.065  54.401  1.00  0.00    -0.019 C 
ATOM      4  C   UNL     1      73.018  35.630  55.430  1.00  0.00     0.036 C 
ATOM      5  C   UNL     1      72.915  34.095  55.491  1.00  0.00     0.025 C 
ATOM      6  C   UNL     1      72.607  33.523  54.095  1.00  0.00     0.089 C 
ATOM      7  C   UNL     1      73.589  34.046  53.082  1.00  0.00     0.158 C 
ATOM      8  O   UNL     1      73.820  33.369  52.045  1.00  0.00    -0.295 OA
ENDROOT
BRANCH   5   9
ATOM      9  C   UNL     1      71.881  33.646  56.514  1.00  0.00    -0.077 C 
ATOM     10  C   UNL     1      70.650  34.183  56.508  1.00  0.00     0.008 C 
ATOM     11  C   UNL     1      72.204  32.600  57.553  1.00  0.00     0.039 C 
ENDBRANCH   5   9
TORSDOF 1
ENDMDL
MODEL 2
REMARK VINA RESULT:    -3.942      2.728      4.330
REMARK INTER + INTRA:          -4.269
REMARK INTER:                  -4.171
REMARK INTRA:                  -0.098
REMARK UNBOUND:                -0.097
REMARK SMILES C=C(C)[C@@H]1CC=C(C)C(=O)C1
REMARK SMILES IDX 8 1 7 2 6 3 5 4 4 5 11 6 9 7 10 8 2 9 1 10 3 11
REMARK H PARENT
REMARK Flexibility Score: inf
ROOT
ATOM      1  C   UNL     1      79.374  34.249  51.589  1.00  0.00     0.048 C 
ATOM      2  C   UNL     1      77.879  34.390  51.672  1.00  0.00    -0.012 C 
ATOM      3  C   UNL     1      77.308  35.588  51.464  1.00  0.00    -0.019 C 
ATOM      4  C   UNL     1      75.814  35.780  51.516  1.00  0.00     0.036 C 
ATOM      5  C   UNL     1      75.169  34.825  52.537  1.00  0.00     0.025 C 
ATOM      6  C   UNL     1      75.557  33.368  52.227  1.00  0.00     0.089 C 
ATOM      7  C   UNL     1      77.050  33.236  52.102  1.00  0.00     0.158 C 
ATOM      8  O   UNL     1      77.589  32.119  52.332  1.00  0.00    -0.295 OA
ENDROOT
BRANCH   5   9
ATOM      9  C   UNL     1      73.656  34.999  52.582  1.00  0.00    -0.077 C 
ATOM     10  C   UNL     1      73.079  36.039  51.960  1.00  0.00     0.008 C 
ATOM     11  C   UNL     1      72.774  34.021  53.319  1.00  0.00     0.039 C 
ENDBRANCH   5   9
TORSDOF 1
ENDMDL
MODEL 3
REMARK VINA RESULT:    -3.822     16.029     17.034
REMARK INTER + INTRA:          -4.143
REMARK INTER:                  -4.049
REMARK INTRA:                  -0.094
REMARK UNBOUND:                -0.097
REMARK SMILES C=C(C)[C@@H]1CC=C(C)C(=O)C1
REMARK SMILES IDX 8 1 7 2 6 3 5 4 4 5 11 6 9 7 10 8 2 9 1 10 3 11
REMARK H PARENT
REMARK Flexibility Score: inf
ROOT
ATOM      1  C   UNL     1      88.104  33.205  66.159  1.00  0.00     0.048 C 
ATOM      2  C   UNL     1      87.074  32.260  65.603  1.00  0.00    -0.012 C 
ATOM      3  C   UNL     1      86.022  32.743  64.921  1.00  0.00    -0.019 C 
ATOM      4  C   UNL     1      84.973  31.840  64.327  1.00  0.00     0.036 C 
ATOM      5  C   UNL     1      84.773  30.581  65.190  1.00  0.00     0.025 C 
ATOM      6  C   UNL     1      86.115  29.856  65.397  1.00  0.00     0.089 C 
ATOM      7  C   UNL     1      87.157  30.810  65.913  1.00  0.00     0.158 C 
ATOM      8  O   UNL     1      88.125  30.360  66.583  1.00  0.00    -0.295 OA
ENDROOT
BRANCH   5   9
ATOM      9  C   UNL     1      83.728  29.652  64.587  1.00  0.00    -0.077 C 
ATOM     10  C   UNL     1      82.517  30.127  64.253  1.00  0.00     0.008 C 
ATOM     11  C   UNL     1      84.018  28.190  64.350  1.00  0.00     0.039 C 
ENDBRANCH   5   9
TORSDOF 1
ENDMDL
MODEL 4
REMARK VINA RESULT:    -3.725      1.429      2.070
REMARK INTER + INTRA:          -4.040
REMARK INTER:                  -3.948
REMARK INTRA:                  -0.091
REMARK UNBOUND:                -0.097
REMARK SMILES C=C(C)[C@@H]1CC=C(C)C(=O)C1
REMARK SMILES IDX 8 1 7 2 6 3 5 4 4 5 11 6 9 7 10 8 2 9 1 10 3 11
REMARK H PARENT
REMARK Flexibility Score: inf
ROOT
ATOM      1  C   UNL     1      75.117  33.796  52.205  1.00  0.00     0.048 C 
ATOM      2  C   UNL     1      74.316  33.746  53.477  1.00  0.00    -0.012 C 
ATOM      3  C   UNL     1      73.921  32.562  53.972  1.00  0.00    -0.019 C 
ATOM      4  C   UNL     1      73.132  32.454  55.252  1.00  0.00     0.036 C 
ATOM      5  C   UNL     1      72.210  33.673  55.438  1.00  0.00     0.025 C 
ATOM      6  C   UNL     1      73.025  34.977  55.364  1.00  0.00     0.089 C 
ATOM      7  C   UNL     1      73.859  35.008  54.113  1.00  0.00     0.158 C 
ATOM      8  O   UNL     1      74.200  36.121  53.629  1.00  0.00    -0.295 OA
ENDROOT
BRANCH   5   9
ATOM      9  C   UNL     1      71.424  33.582  56.739  1.00  0.00    -0.077 C 
ATOM     10  C   UNL     1      70.267  34.251  56.875  1.00  0.00     0.008 C 
ATOM     11  C   UNL     1      71.915  32.751  57.898  1.00  0.00     0.039 C 
ENDBRANCH   5   9
TORSDOF 1
ENDMDL
MODEL 5
REMARK VINA RESULT:    -3.716      3.424      6.813
REMARK INTER + INTRA:          -4.030
REMARK INTER:                  -3.933
REMARK INTRA:                  -0.097
REMARK UNBOUND:                -0.097
REMARK SMILES C=C(C)[C@@H]1CC=C(C)C(=O)C1
REMARK SMILES IDX 8 1 7 2 6 3 5 4 4 5 11 6 9 7 10 8 2 9 1 10 3 11
REMARK H PARENT
REMARK Flexibility Score: inf
ROOT
ATOM      1  C   UNL     1      74.314  33.891  52.748  1.00  0.00     0.048 C 
ATOM      2  C   UNL     1      75.706  34.328  52.383  1.00  0.00    -0.012 C 
ATOM      3  C   UNL     1      75.964  35.628  52.166  1.00  0.00    -0.019 C 
ATOM      4  C   UNL     1      77.343  36.122  51.816  1.00  0.00     0.036 C 
ATOM      5  C   UNL     1      78.115  35.073  50.994  1.00  0.00     0.025 C 
ATOM      6  C   UNL     1      78.150  33.727  51.742  1.00  0.00     0.089 C 
ATOM      7  C   UNL     1      76.761  33.311  52.145  1.00  0.00     0.158 C 
ATOM      8  O   UNL     1      76.512  32.087  52.314  1.00  0.00    -0.295 OA
ENDROOT
BRANCH   5   9
ATOM      9  C   UNL     1      79.518  35.554  50.653  1.00  0.00    -0.077 C 
ATOM     10  C   UNL     1      80.284  36.123  51.599  1.00  0.00     0.008 C 
ATOM     11  C   UNL     1      80.083  35.410  49.261  1.00  0.00     0.039 C 
ENDBRANCH   5   9
TORSDOF 1
ENDMDL
MODEL 6
REMARK VINA RESULT:    -3.511      2.445      5.875
REMARK INTER + INTRA:          -3.813
REMARK INTER:                  -3.715
REMARK INTRA:                  -0.098
REMARK UNBOUND:                -0.097
REMARK SMILES C=C(C)[C@@H]1CC=C(C)C(=O)C1
REMARK SMILES IDX 8 1 7 2 6 3 5 4 4 5 11 6 9 7 10 8 2 9 1 10 3 11
REMARK H PARENT
REMARK Flexibility Score: inf
ROOT
ATOM      1  C   UNL     1      73.204  33.499  53.784  1.00  0.00     0.048 C 
ATOM      2  C   UNL     1      74.377  33.938  52.951  1.00  0.00    -0.012 C 
ATOM      3  C   UNL     1      75.434  33.123  52.803  1.00  0.00    -0.019 C 
ATOM      4  C   UNL     1      76.626  33.506  51.964  1.00  0.00     0.036 C 
ATOM      5  C   UNL     1      76.870  35.026  52.010  1.00  0.00     0.025 C 
ATOM      6  C   UNL     1      75.597  35.785  51.594  1.00  0.00     0.089 C 
ATOM      7  C   UNL     1      74.416  35.316  52.398  1.00  0.00     0.158 C 
ATOM      8  O   UNL     1      73.439  36.094  52.566  1.00  0.00    -0.295 OA
ENDROOT
BRANCH   5   9
ATOM      9  C   UNL     1      78.061  35.425  51.150  1.00  0.00    -0.077 C 
ATOM     10  C   UNL     1      77.867  36.075  49.991  1.00  0.00     0.008 C 
ATOM     11  C   UNL     1      79.476  35.105  51.567  1.00  0.00     0.039 C 
ENDBRANCH   5   9
TORSDOF 1
ENDMDL
MODEL 7
REMARK VINA RESULT:    -3.450     16.032     17.273
REMARK INTER + INTRA:          -3.749
REMARK INTER:                  -3.661
REMARK INTRA:                  -0.088
REMARK UNBOUND:                -0.097
REMARK SMILES C=C(C)[C@@H]1CC=C(C)C(=O)C1
REMARK SMILES IDX 8 1 7 2 6 3 5 4 4 5 11 6 9 7 10 8 2 9 1 10 3 11
REMARK H PARENT
REMARK Flexibility Score: inf
ROOT
ATOM      1  C   UNL     1      83.290  29.127  64.464  1.00  0.00     0.048 C 
ATOM      2  C   UNL     1      84.437  30.061  64.739  1.00  0.00    -0.012 C 
ATOM      3  C   UNL     1      85.625  29.566  65.124  1.00  0.00    -0.019 C 
ATOM      4  C   UNL     1      86.811  30.454  65.395  1.00  0.00     0.036 C 
ATOM      5  C   UNL     1      86.365  31.816  65.959  1.00  0.00     0.025 C 
ATOM      6  C   UNL     1      85.345  32.478  65.014  1.00  0.00     0.089 C 
ATOM      7  C   UNL     1      84.220  31.529  64.704  1.00  0.00     0.158 C 
ATOM      8  O   UNL     1      83.096  31.996  64.377  1.00  0.00    -0.295 OA
ENDROOT
BRANCH   5   9
ATOM      9  C   UNL     1      87.556  32.729  66.217  1.00  0.00    -0.077 C 
ATOM     10  C   UNL     1      88.125  32.767  67.432  1.00  0.00     0.008 C 
ATOM     11  C   UNL     1      88.125  33.607  65.128  1.00  0.00     0.039 C 
ENDBRANCH   5   9
TORSDOF 1
ENDMDL
MODEL 8
REMARK VINA RESULT:    -3.070      1.099      4.345
REMARK INTER + INTRA:          -3.346
REMARK INTER:                  -3.257
REMARK INTRA:                  -0.089
REMARK UNBOUND:                -0.097
REMARK SMILES C=C(C)[C@@H]1CC=C(C)C(=O)C1
REMARK SMILES IDX 8 1 7 2 6 3 5 4 4 5 11 6 9 7 10 8 2 9 1 10 3 11
REMARK H PARENT
REMARK Flexibility Score: inf
ROOT
ATOM      1  C   UNL     1      71.497  33.540  56.293  1.00  0.00     0.048 C 
ATOM      2  C   UNL     1      72.560  34.081  55.376  1.00  0.00    -0.012 C 
ATOM      3  C   UNL     1      72.912  35.376  55.450  1.00  0.00    -0.019 C 
ATOM      4  C   UNL     1      73.982  35.964  54.568  1.00  0.00     0.036 C 
ATOM      5  C   UNL     1      74.007  35.274  53.192  1.00  0.00     0.025 C 
ATOM      6  C   UNL     1      74.163  33.752  53.360  1.00  0.00     0.089 C 
ATOM      7  C   UNL     1      73.127  33.216  54.310  1.00  0.00     0.158 C 
ATOM      8  O   UNL     1      72.772  32.011  54.216  1.00  0.00    -0.295 OA
ENDROOT
BRANCH   5   9
ATOM      9  C   UNL     1      75.099  35.849  52.301  1.00  0.00    -0.077 C 
ATOM     10  C   UNL     1      74.842  36.122  51.011  1.00  0.00     0.008 C 
ATOM     11  C   UNL     1      76.485  36.124  52.832  1.00  0.00     0.039 C 
ENDBRANCH   5   9
TORSDOF 1
ENDMDL
