MODEL 1
REMARK VINA RESULT:    -6.710      0.000      0.000
REMARK INTER + INTRA:         -10.167
REMARK INTER:                  -9.063
REMARK INTRA:                  -1.103
REMARK UNBOUND:                -1.103
REMARK SMILES O=c1c(-c2ccc(O)cc2)coc2c([C@H]3O[C@@H](CO)[C@@H](O)[C@H](O)[C@@H]3O)c(O)ccc12
REMARK SMILES IDX 3 1 11 2 12 3 13 4 30 5 2 6 1 7 29 8 28 9 26 10 14 11 4 12
REMARK SMILES IDX 5 13 6 14 7 15 10 16 9 17 8 18 15 20 24 21 16 22 22 23 17 24
REMARK SMILES IDX 20 25 25 26 23 28 18 30 19 31 21 33 27 35
REMARK H PARENT 8 19 25 27 23 29 19 32 21 34 27 36
REMARK Flexibility Score: inf
ROOT
ATOM      1  C   UNL     1      -6.795 -28.479   1.017  1.00  0.00     0.065 A 
ATOM      2  C   UNL     1      -5.696 -29.219   0.567  1.00  0.00     0.208 A 
ATOM      3  O   UNL     1      -5.702 -29.788  -0.636  1.00  0.00    -0.463 OA
ATOM      4  C   UNL     1      -6.720 -29.686  -1.492  1.00  0.00     0.147 A 
ATOM      5  C   UNL     1      -7.902 -29.014  -1.079  1.00  0.00     0.066 A 
ATOM      6  C   UNL     1      -7.931 -28.413   0.193  1.00  0.00     0.200 A 
ATOM      7  O   UNL     1      -8.949 -27.762   0.566  1.00  0.00    -0.288 OA
ATOM      8  C   UNL     1      -8.971 -28.869  -1.978  1.00  0.00     0.020 A 
ATOM      9  C   UNL     1      -8.807 -29.229  -3.312  1.00  0.00     0.047 A 
ATOM     10  C   UNL     1      -7.606 -29.780  -3.757  1.00  0.00     0.125 A 
ATOM     11  C   UNL     1      -6.610 -30.186  -2.824  1.00  0.00     0.069 A 
ENDROOT
BRANCH   1  12
ATOM     12  C   UNL     1      -6.667 -27.638   2.237  1.00  0.00    -0.011 A 
ATOM     13  C   UNL     1      -6.680 -28.203   3.525  1.00  0.00     0.013 A 
ATOM     14  C   UNL     1      -6.553 -27.388   4.657  1.00  0.00     0.047 A 
ATOM     15  C   UNL     1      -6.445 -25.993   4.508  1.00  0.00     0.115 A 
ATOM     16  C   UNL     1      -6.552 -26.243   2.101  1.00  0.00     0.013 A 
ATOM     17  C   UNL     1      -6.458 -25.427   3.228  1.00  0.00     0.047 A 
BRANCH  15  18
ATOM     18  O   UNL     1      -6.295 -25.167   5.621  1.00  0.00    -0.508 OA
ATOM     19  H   UNL     1      -6.893 -24.361   5.781  1.00  0.00     0.293 HD
ENDBRANCH  15  18
ENDBRANCH   1  12
BRANCH  11  20
ATOM     20  C   UNL     1      -5.391 -31.008  -3.287  1.00  0.00     0.188 C 
ATOM     21  C   UNL     1      -4.124 -30.102  -3.536  1.00  0.00     0.179 C 
ATOM     22  O   UNL     1      -5.729 -31.771  -4.441  1.00  0.00    -0.362 OA
ATOM     23  C   UNL     1      -3.850 -29.914  -5.050  1.00  0.00     0.177 C 
ATOM     24  C   UNL     1      -4.590 -32.354  -5.048  1.00  0.00     0.176 C 
ATOM     25  C   UNL     1      -3.809 -31.261  -5.826  1.00  0.00     0.177 C 
BRANCH  21  26
ATOM     26  O   UNL     1      -3.012 -30.621  -2.827  1.00  0.00    -0.387 OA
ATOM     27  H   UNL     1      -2.204 -30.611  -3.409  1.00  0.00     0.211 HD
ENDBRANCH  21  26
BRANCH  23  28
ATOM     28  O   UNL     1      -2.642 -29.223  -5.246  1.00  0.00    -0.387 OA
ATOM     29  H   UNL     1      -1.940 -29.907  -5.404  1.00  0.00     0.211 HD
ENDBRANCH  23  28
BRANCH  24  30
ATOM     30  C   UNL     1      -5.027 -33.506  -5.958  1.00  0.00     0.191 C 
BRANCH  30  31
ATOM     31  O   UNL     1      -3.937 -33.942  -6.720  1.00  0.00    -0.394 OA
ATOM     32  H   UNL     1      -3.180 -33.346  -6.481  1.00  0.00     0.210 HD
ENDBRANCH  30  31
ENDBRANCH  24  30
BRANCH  25  33
ATOM     33  O   UNL     1      -4.354 -31.078  -7.114  1.00  0.00    -0.388 OA
ATOM     34  H   UNL     1      -4.251 -30.110  -7.330  1.00  0.00     0.211 HD
ENDBRANCH  25  33
ENDBRANCH  11  20
BRANCH  10  35
ATOM     35  O   UNL     1      -7.418 -29.863  -5.138  1.00  0.00    -0.507 OA
ATOM     36  H   UNL     1      -6.494 -29.891  -5.556  1.00  0.00     0.293 HD
ENDBRANCH  10  35
TORSDOF 9
ENDMDL
MODEL 2
REMARK VINA RESULT:    -6.423      6.469      9.484
REMARK INTER + INTRA:          -9.779
REMARK INTER:                  -9.039
REMARK INTRA:                  -0.740
REMARK UNBOUND:                -1.103
REMARK SMILES O=c1c(-c2ccc(O)cc2)coc2c([C@H]3O[C@@H](CO)[C@@H](O)[C@H](O)[C@@H]3O)c(O)ccc12
REMARK SMILES IDX 3 1 11 2 12 3 13 4 30 5 2 6 1 7 29 8 28 9 26 10 14 11 4 12
REMARK SMILES IDX 5 13 6 14 7 15 10 16 9 17 8 18 15 20 24 21 16 22 22 23 17 24
REMARK SMILES IDX 20 25 25 26 23 28 18 30 19 31 21 33 27 35
REMARK H PARENT 8 19 25 27 23 29 19 32 21 34 27 36
REMARK Flexibility Score: inf
ROOT
ATOM      1  C   UNL     1      -1.834 -28.322  -0.737  1.00  0.00     0.065 A 
ATOM      2  C   UNL     1      -0.508 -27.897  -0.876  1.00  0.00     0.208 A 
ATOM      3  O   UNL     1       0.108 -27.248   0.110  1.00  0.00    -0.463 OA
ATOM      4  C   UNL     1      -0.468 -26.974   1.282  1.00  0.00     0.147 A 
ATOM      5  C   UNL     1      -1.836 -27.307   1.471  1.00  0.00     0.066 A 
ATOM      6  C   UNL     1      -2.518 -27.982   0.442  1.00  0.00     0.200 A 
ATOM      7  O   UNL     1      -3.721 -28.339   0.604  1.00  0.00    -0.288 OA
ATOM      8  C   UNL     1      -2.449 -27.056   2.709  1.00  0.00     0.020 A 
ATOM      9  C   UNL     1      -1.679 -26.643   3.792  1.00  0.00     0.047 A 
ATOM     10  C   UNL     1      -0.308 -26.429   3.648  1.00  0.00     0.125 A 
ATOM     11  C   UNL     1       0.287 -26.413   2.355  1.00  0.00     0.069 A 
ENDROOT
BRANCH   1  12
ATOM     12  C   UNL     1      -2.412 -29.267  -1.729  1.00  0.00    -0.011 A 
ATOM     13  C   UNL     1      -2.577 -30.633  -1.436  1.00  0.00     0.013 A 
ATOM     14  C   UNL     1      -3.128 -31.500  -2.388  1.00  0.00     0.047 A 
ATOM     15  C   UNL     1      -3.487 -31.010  -3.657  1.00  0.00     0.115 A 
ATOM     16  C   UNL     1      -2.781 -28.788  -3.000  1.00  0.00     0.013 A 
ATOM     17  C   UNL     1      -3.300 -29.657  -3.960  1.00  0.00     0.047 A 
BRANCH  15  18
ATOM     18  O   UNL     1      -4.058 -31.852  -4.610  1.00  0.00    -0.508 OA
ATOM     19  H   UNL     1      -4.968 -32.284  -4.475  1.00  0.00     0.293 HD
ENDBRANCH  15  18
ENDBRANCH   1  12
BRANCH  11  20
ATOM     20  C   UNL     1       1.743 -25.945   2.169  1.00  0.00     0.188 C 
ATOM     21  C   UNL     1       1.829 -24.540   1.456  1.00  0.00     0.179 C 
ATOM     22  O   UNL     1       2.489 -26.937   1.472  1.00  0.00    -0.362 OA
ATOM     23  C   UNL     1       2.291 -24.679  -0.018  1.00  0.00     0.177 C 
ATOM     24  C   UNL     1       3.759 -26.462   1.064  1.00  0.00     0.176 C 
ATOM     25  C   UNL     1       3.587 -25.527  -0.163  1.00  0.00     0.177 C 
BRANCH  21  26
ATOM     26  O   UNL     1       2.641 -23.661   2.215  1.00  0.00    -0.387 OA
ATOM     27  H   UNL     1       2.068 -23.035   2.736  1.00  0.00     0.211 HD
ENDBRANCH  21  26
BRANCH  23  28
ATOM     28  O   UNL     1       2.494 -23.412  -0.588  1.00  0.00    -0.387 OA
ATOM     29  H   UNL     1       3.418 -23.403  -0.952  1.00  0.00     0.211 HD
ENDBRANCH  23  28
BRANCH  24  30
ATOM     30  C   UNL     1       4.676 -27.651   0.758  1.00  0.00     0.191 C 
BRANCH  30  31
ATOM     31  O   UNL     1       5.797 -27.207   0.046  1.00  0.00    -0.394 OA
ATOM     32  H   UNL     1       6.046 -27.950  -0.563  1.00  0.00     0.210 HD
ENDBRANCH  30  31
ENDBRANCH  24  30
BRANCH  25  33
ATOM     33  O   UNL     1       3.526 -26.276  -1.357  1.00  0.00    -0.388 OA
ATOM     34  H   UNL     1       4.192 -25.871  -1.979  1.00  0.00     0.211 HD
ENDBRANCH  25  33
ENDBRANCH  11  20
BRANCH  10  35
ATOM     35  O   UNL     1       0.438 -26.284   4.819  1.00  0.00    -0.507 OA
ATOM     36  H   UNL     1       1.273 -25.708   4.859  1.00  0.00     0.293 HD
ENDBRANCH  10  35
TORSDOF 9
ENDMDL
MODEL 3
REMARK VINA RESULT:    -6.275      7.238     10.256
REMARK INTER + INTRA:          -9.579
REMARK INTER:                  -8.519
REMARK INTRA:                  -1.059
REMARK UNBOUND:                -1.103
REMARK SMILES O=c1c(-c2ccc(O)cc2)coc2c([C@H]3O[C@@H](CO)[C@@H](O)[C@H](O)[C@@H]3O)c(O)ccc12
REMARK SMILES IDX 3 1 11 2 12 3 13 4 30 5 2 6 1 7 29 8 28 9 26 10 14 11 4 12
REMARK SMILES IDX 5 13 6 14 7 15 10 16 9 17 8 18 15 20 24 21 16 22 22 23 17 24
REMARK SMILES IDX 20 25 25 26 23 28 18 30 19 31 21 33 27 35
REMARK H PARENT 8 19 25 27 23 29 19 32 21 34 27 36
REMARK Flexibility Score: inf
ROOT
ATOM      1  C   UNL     1      -2.019 -28.617  -0.634  1.00  0.00     0.065 A 
ATOM      2  C   UNL     1      -1.433 -27.354  -0.772  1.00  0.00     0.208 A 
ATOM      3  O   UNL     1      -0.387 -27.002  -0.027  1.00  0.00    -0.463 OA
ATOM      4  C   UNL     1       0.180 -27.808   0.871  1.00  0.00     0.147 A 
ATOM      5  C   UNL     1      -0.404 -29.079   1.121  1.00  0.00     0.066 A 
ATOM      6  C   UNL     1      -1.519 -29.475   0.359  1.00  0.00     0.200 A 
ATOM      7  O   UNL     1      -2.026 -30.622   0.522  1.00  0.00    -0.288 OA
ATOM      8  C   UNL     1       0.199 -29.954   2.040  1.00  0.00     0.020 A 
ATOM      9  C   UNL     1       1.448 -29.648   2.571  1.00  0.00     0.047 A 
ATOM     10  C   UNL     1       2.088 -28.455   2.238  1.00  0.00     0.125 A 
ATOM     11  C   UNL     1       1.390 -27.435   1.530  1.00  0.00     0.069 A 
ENDROOT
BRANCH   1  12
ATOM     12  C   UNL     1      -3.002 -29.086  -1.647  1.00  0.00    -0.011 A 
ATOM     13  C   UNL     1      -4.288 -29.521  -1.278  1.00  0.00     0.013 A 
ATOM     14  C   UNL     1      -5.196 -29.954  -2.253  1.00  0.00     0.047 A 
ATOM     15  C   UNL     1      -4.810 -29.985  -3.605  1.00  0.00     0.115 A 
ATOM     16  C   UNL     1      -2.630 -29.117  -3.003  1.00  0.00     0.013 A 
ATOM     17  C   UNL     1      -3.522 -29.577  -3.972  1.00  0.00     0.047 A 
BRANCH  15  18
ATOM     18  O   UNL     1      -5.706 -30.391  -4.593  1.00  0.00    -0.508 OA
ATOM     19  H   UNL     1      -6.666 -30.649  -4.379  1.00  0.00     0.293 HD
ENDBRANCH  15  18
ENDBRANCH   1  12
BRANCH  11  20
ATOM     20  C   UNL     1       2.007 -26.032   1.368  1.00  0.00     0.188 C 
ATOM     21  C   UNL     1       2.843 -25.901   0.036  1.00  0.00     0.179 C 
ATOM     22  O   UNL     1       2.785 -25.707   2.514  1.00  0.00    -0.362 OA
ATOM     23  C   UNL     1       4.367 -25.910   0.321  1.00  0.00     0.177 C 
ATOM     24  C   UNL     1       3.564 -24.541   2.317  1.00  0.00     0.176 C 
ATOM     25  C   UNL     1       4.780 -24.884   1.415  1.00  0.00     0.177 C 
BRANCH  21  26
ATOM     26  O   UNL     1       2.418 -24.763  -0.693  1.00  0.00    -0.387 OA
ATOM     27  H   UNL     1       1.468 -24.558  -0.477  1.00  0.00     0.211 HD
ENDBRANCH  21  26
BRANCH  23  28
ATOM     28  O   UNL     1       5.086 -25.654  -0.858  1.00  0.00    -0.387 OA
ATOM     29  H   UNL     1       4.670 -24.858  -1.283  1.00  0.00     0.211 HD
ENDBRANCH  23  28
BRANCH  24  30
ATOM     30  C   UNL     1       3.997 -23.979   3.675  1.00  0.00     0.191 C 
BRANCH  30  31
ATOM     31  O   UNL     1       4.813 -22.858   3.480  1.00  0.00    -0.394 OA
ATOM     32  H   UNL     1       5.278 -22.704   4.343  1.00  0.00     0.210 HD
ENDBRANCH  30  31
ENDBRANCH  24  30
BRANCH  25  33
ATOM     33  O   UNL     1       5.838 -25.416   2.182  1.00  0.00    -0.388 OA
ATOM     34  H   UNL     1       6.344 -26.028   1.579  1.00  0.00     0.211 HD
ENDBRANCH  25  33
ENDBRANCH  11  20
BRANCH  10  35
ATOM     35  O   UNL     1       3.435 -28.339   2.584  1.00  0.00    -0.507 OA
ATOM     36  H   UNL     1       3.744 -27.781   3.374  1.00  0.00     0.293 HD
ENDBRANCH  10  35
TORSDOF 9
ENDMDL
MODEL 4
REMARK VINA RESULT:    -6.008      4.485      5.826
REMARK INTER + INTRA:          -9.218
REMARK INTER:                  -9.668
REMARK INTRA:                   0.450
REMARK UNBOUND:                -1.103
REMARK SMILES O=c1c(-c2ccc(O)cc2)coc2c([C@H]3O[C@@H](CO)[C@@H](O)[C@H](O)[C@@H]3O)c(O)ccc12
REMARK SMILES IDX 3 1 11 2 12 3 13 4 30 5 2 6 1 7 29 8 28 9 26 10 14 11 4 12
REMARK SMILES IDX 5 13 6 14 7 15 10 16 9 17 8 18 15 20 24 21 16 22 22 23 17 24
REMARK SMILES IDX 20 25 25 26 23 28 18 30 19 31 21 33 27 35
REMARK H PARENT 8 19 25 27 23 29 19 32 21 34 27 36
REMARK Flexibility Score: inf
ROOT
ATOM      1  C   UNL     1      -0.492 -27.944  -0.223  1.00  0.00     0.065 A 
ATOM      2  C   UNL     1      -1.078 -27.594  -1.445  1.00  0.00     0.208 A 
ATOM      3  O   UNL     1      -1.919 -28.422  -2.061  1.00  0.00    -0.463 OA
ATOM      4  C   UNL     1      -2.274 -29.609  -1.568  1.00  0.00     0.147 A 
ATOM      5  C   UNL     1      -1.665 -30.067  -0.369  1.00  0.00     0.066 A 
ATOM      6  C   UNL     1      -0.761 -29.220   0.299  1.00  0.00     0.200 A 
ATOM      7  O   UNL     1      -0.245 -29.580   1.395  1.00  0.00    -0.288 OA
ATOM      8  C   UNL     1      -2.051 -31.301   0.181  1.00  0.00     0.020 A 
ATOM      9  C   UNL     1      -3.140 -31.985  -0.350  1.00  0.00     0.047 A 
ATOM     10  C   UNL     1      -3.824 -31.482  -1.456  1.00  0.00     0.125 A 
ATOM     11  C   UNL     1      -3.294 -30.386  -2.194  1.00  0.00     0.069 A 
ENDROOT
BRANCH   1  12
ATOM     12  C   UNL     1       0.225 -26.912   0.572  1.00  0.00    -0.011 A 
ATOM     13  C   UNL     1       1.337 -26.223   0.052  1.00  0.00     0.013 A 
ATOM     14  C   UNL     1       1.991 -25.253   0.822  1.00  0.00     0.047 A 
ATOM     15  C   UNL     1       1.557 -24.989   2.134  1.00  0.00     0.115 A 
ATOM     16  C   UNL     1      -0.203 -26.634   1.883  1.00  0.00     0.013 A 
ATOM     17  C   UNL     1       0.468 -25.691   2.662  1.00  0.00     0.047 A 
BRANCH  15  18
ATOM     18  O   UNL     1       2.181 -24.011   2.907  1.00  0.00    -0.508 OA
ATOM     19  H   UNL     1       2.242 -24.078   3.919  1.00  0.00     0.293 HD
ENDBRANCH  15  18
ENDBRANCH   1  12
BRANCH  11  20
ATOM     20  C   UNL     1      -3.914 -29.980  -3.546  1.00  0.00     0.188 C 
ATOM     21  C   UNL     1      -5.202 -30.825  -3.887  1.00  0.00     0.179 C 
ATOM     22  O   UNL     1      -2.936 -30.070  -4.576  1.00  0.00    -0.362 OA
ATOM     23  C   UNL     1      -4.914 -31.878  -4.987  1.00  0.00     0.177 C 
ATOM     24  C   UNL     1      -3.506 -29.943  -5.866  1.00  0.00     0.176 C 
ATOM     25  C   UNL     1      -4.226 -31.265  -6.241  1.00  0.00     0.177 C 
BRANCH  21  26
ATOM     26  O   UNL     1      -6.277 -29.959  -4.209  1.00  0.00    -0.387 OA
ATOM     27  H   UNL     1      -6.291 -29.786  -5.189  1.00  0.00     0.211 HD
ENDBRANCH  21  26
BRANCH  23  28
ATOM     28  O   UNL     1      -6.103 -32.520  -5.372  1.00  0.00    -0.387 OA
ATOM     29  H   UNL     1      -6.420 -32.071  -6.198  1.00  0.00     0.211 HD
ENDBRANCH  23  28
BRANCH  24  30
ATOM     30  C   UNL     1      -2.412 -29.578  -6.876  1.00  0.00     0.191 C 
BRANCH  30  31
ATOM     31  O   UNL     1      -1.195 -30.138  -6.471  1.00  0.00    -0.394 OA
ATOM     32  H   UNL     1      -0.489 -29.509  -6.774  1.00  0.00     0.210 HD
ENDBRANCH  30  31
ENDBRANCH  24  30
BRANCH  25  33
ATOM     33  O   UNL     1      -3.314 -32.198  -6.778  1.00  0.00    -0.388 OA
ATOM     34  H   UNL     1      -2.563 -32.266  -6.126  1.00  0.00     0.211 HD
ENDBRANCH  25  33
ENDBRANCH  11  20
BRANCH  10  35
ATOM     35  O   UNL     1      -5.054 -32.068  -1.763  1.00  0.00    -0.507 OA
ATOM     36  H   UNL     1      -5.419 -32.092  -2.709  1.00  0.00     0.293 HD
ENDBRANCH  10  35
TORSDOF 9
ENDMDL
MODEL 5
REMARK VINA RESULT:    -5.862      6.973      9.771
REMARK INTER + INTRA:          -9.021
REMARK INTER:                  -8.647
REMARK INTRA:                  -0.374
REMARK UNBOUND:                -1.103
REMARK SMILES O=c1c(-c2ccc(O)cc2)coc2c([C@H]3O[C@@H](CO)[C@@H](O)[C@H](O)[C@@H]3O)c(O)ccc12
REMARK SMILES IDX 3 1 11 2 12 3 13 4 30 5 2 6 1 7 29 8 28 9 26 10 14 11 4 12
REMARK SMILES IDX 5 13 6 14 7 15 10 16 9 17 8 18 15 20 24 21 16 22 22 23 17 24
REMARK SMILES IDX 20 25 25 26 23 28 18 30 19 31 21 33 27 35
REMARK H PARENT 8 19 25 27 23 29 19 32 21 34 27 36
REMARK Flexibility Score: inf
ROOT
ATOM      1  C   UNL     1      -1.474 -28.630  -0.046  1.00  0.00     0.065 A 
ATOM      2  C   UNL     1      -0.662 -27.520  -0.306  1.00  0.00     0.208 A 
ATOM      3  O   UNL     1       0.447 -27.306   0.398  1.00  0.00    -0.463 OA
ATOM      4  C   UNL     1       0.870 -28.118   1.368  1.00  0.00     0.147 A 
ATOM      5  C   UNL     1       0.060 -29.224   1.741  1.00  0.00     0.066 A 
ATOM      6  C   UNL     1      -1.125 -29.470   1.024  1.00  0.00     0.200 A 
ATOM      7  O   UNL     1      -1.837 -30.478   1.299  1.00  0.00    -0.288 OA
ATOM      8  C   UNL     1       0.506 -30.108   2.738  1.00  0.00     0.020 A 
ATOM      9  C   UNL     1       1.801 -29.997   3.233  1.00  0.00     0.047 A 
ATOM     10  C   UNL     1       2.649 -28.985   2.784  1.00  0.00     0.125 A 
ATOM     11  C   UNL     1       2.142 -27.922   1.984  1.00  0.00     0.069 A 
ENDROOT
BRANCH   1  12
ATOM     12  C   UNL     1      -2.550 -28.995  -1.005  1.00  0.00    -0.011 A 
ATOM     13  C   UNL     1      -3.857 -29.285  -0.571  1.00  0.00     0.013 A 
ATOM     14  C   UNL     1      -4.852 -29.623  -1.497  1.00  0.00     0.047 A 
ATOM     15  C   UNL     1      -4.537 -29.705  -2.866  1.00  0.00     0.115 A 
ATOM     16  C   UNL     1      -2.250 -29.075  -2.377  1.00  0.00     0.013 A 
ATOM     17  C   UNL     1      -3.232 -29.442  -3.297  1.00  0.00     0.047 A 
BRANCH  15  18
ATOM     18  O   UNL     1      -5.519 -30.017  -3.805  1.00  0.00    -0.508 OA
ATOM     19  H   UNL     1      -5.833 -29.347  -4.502  1.00  0.00     0.293 HD
ENDBRANCH  15  18
ENDBRANCH   1  12
BRANCH  11  20
ATOM     20  C   UNL     1       3.010 -26.684   1.685  1.00  0.00     0.188 C 
ATOM     21  C   UNL     1       2.537 -25.416   2.496  1.00  0.00     0.179 C 
ATOM     22  O   UNL     1       3.037 -26.435   0.284  1.00  0.00    -0.362 OA
ATOM     23  C   UNL     1       1.796 -24.404   1.585  1.00  0.00     0.177 C 
ATOM     24  C   UNL     1       3.615 -25.180  -0.024  1.00  0.00     0.176 C 
ATOM     25  C   UNL     1       2.599 -24.053   0.300  1.00  0.00     0.177 C 
BRANCH  21  26
ATOM     26  O   UNL     1       3.635 -24.846   3.187  1.00  0.00    -0.387 OA
ATOM     27  H   UNL     1       3.980 -24.059   2.685  1.00  0.00     0.211 HD
ENDBRANCH  21  26
BRANCH  23  28
ATOM     28  O   UNL     1       1.508 -23.227   2.295  1.00  0.00    -0.387 OA
ATOM     29  H   UNL     1       2.379 -22.816   2.539  1.00  0.00     0.211 HD
ENDBRANCH  23  28
BRANCH  24  30
ATOM     30  C   UNL     1       4.045 -25.161  -1.495  1.00  0.00     0.191 C 
BRANCH  30  31
ATOM     31  O   UNL     1       4.011 -26.463  -2.010  1.00  0.00    -0.394 OA
ATOM     32  H   UNL     1       3.970 -27.067  -1.224  1.00  0.00     0.210 HD
ENDBRANCH  30  31
ENDBRANCH  24  30
BRANCH  25  33
ATOM     33  O   UNL     1       1.705 -23.861  -0.774  1.00  0.00    -0.388 OA
ATOM     34  H   UNL     1       1.816 -22.915  -1.068  1.00  0.00     0.211 HD
ENDBRANCH  25  33
ENDBRANCH  11  20
BRANCH  10  35
ATOM     35  O   UNL     1       4.001 -29.096   3.114  1.00  0.00    -0.507 OA
ATOM     36  H   UNL     1       4.313 -29.258   4.066  1.00  0.00     0.293 HD
ENDBRANCH  10  35
TORSDOF 9
ENDMDL
MODEL 6
REMARK VINA RESULT:    -5.822      3.158      4.998
REMARK INTER + INTRA:          -8.967
REMARK INTER:                  -7.716
REMARK INTRA:                  -1.251
REMARK UNBOUND:                -1.103
REMARK SMILES O=c1c(-c2ccc(O)cc2)coc2c([C@H]3O[C@@H](CO)[C@@H](O)[C@H](O)[C@@H]3O)c(O)ccc12
REMARK SMILES IDX 3 1 11 2 12 3 13 4 30 5 2 6 1 7 29 8 28 9 26 10 14 11 4 12
REMARK SMILES IDX 5 13 6 14 7 15 10 16 9 17 8 18 15 20 24 21 16 22 22 23 17 24
REMARK SMILES IDX 20 25 25 26 23 28 18 30 19 31 21 33 27 35
REMARK H PARENT 8 19 25 27 23 29 19 32 21 34 27 36
REMARK Flexibility Score: inf
ROOT
ATOM      1  C   UNL     1      -3.863 -29.490  -1.215  1.00  0.00     0.065 A 
ATOM      2  C   UNL     1      -5.234 -29.682  -1.419  1.00  0.00     0.208 A 
ATOM      3  O   UNL     1      -5.717 -29.909  -2.639  1.00  0.00    -0.463 OA
ATOM      4  C   UNL     1      -4.953 -29.987  -3.729  1.00  0.00     0.147 A 
ATOM      5  C   UNL     1      -3.561 -29.728  -3.614  1.00  0.00     0.066 A 
ATOM      6  C   UNL     1      -3.022 -29.472  -2.340  1.00  0.00     0.200 A 
ATOM      7  O   UNL     1      -1.778 -29.292  -2.200  1.00  0.00    -0.288 OA
ATOM      8  C   UNL     1      -2.736 -29.838  -4.746  1.00  0.00     0.020 A 
ATOM      9  C   UNL     1      -3.250 -30.360  -5.929  1.00  0.00     0.047 A 
ATOM     10  C   UNL     1      -4.591 -30.731  -6.018  1.00  0.00     0.125 A 
ATOM     11  C   UNL     1      -5.506 -30.383  -4.984  1.00  0.00     0.069 A 
ENDROOT
BRANCH   1  12
ATOM     12  C   UNL     1      -3.316 -29.504   0.168  1.00  0.00    -0.011 A 
ATOM     13  C   UNL     1      -2.910 -30.700   0.787  1.00  0.00     0.013 A 
ATOM     14  C   UNL     1      -2.394 -30.684   2.089  1.00  0.00     0.047 A 
ATOM     15  C   UNL     1      -2.313 -29.470   2.796  1.00  0.00     0.115 A 
ATOM     16  C   UNL     1      -3.224 -28.296   0.883  1.00  0.00     0.013 A 
ATOM     17  C   UNL     1      -2.740 -28.283   2.191  1.00  0.00     0.047 A 
BRANCH  15  18
ATOM     18  O   UNL     1      -1.782 -29.430   4.084  1.00  0.00    -0.508 OA
ATOM     19  H   UNL     1      -1.269 -28.625   4.433  1.00  0.00     0.293 HD
ENDBRANCH  15  18
ENDBRANCH   1  12
BRANCH  11  20
ATOM     20  C   UNL     1      -7.022 -30.577  -5.182  1.00  0.00     0.188 C 
ATOM     21  C   UNL     1      -7.537 -31.924  -4.541  1.00  0.00     0.179 C 
ATOM     22  O   UNL     1      -7.347 -30.492  -6.565  1.00  0.00    -0.362 OA
ATOM     23  C   UNL     1      -7.840 -32.989  -5.627  1.00  0.00     0.177 C 
ATOM     24  C   UNL     1      -8.678 -30.900  -6.826  1.00  0.00     0.176 C 
ATOM     25  C   UNL     1      -8.762 -32.448  -6.756  1.00  0.00     0.177 C 
BRANCH  21  26
ATOM     26  O   UNL     1      -8.639 -31.664  -3.690  1.00  0.00    -0.387 OA
ATOM     27  H   UNL     1      -9.185 -30.918  -4.059  1.00  0.00     0.211 HD
ENDBRANCH  21  26
BRANCH  23  28
ATOM     28  O   UNL     1      -8.427 -34.125  -5.046  1.00  0.00    -0.387 OA
ATOM     29  H   UNL     1      -9.211 -33.811  -4.523  1.00  0.00     0.211 HD
ENDBRANCH  23  28
BRANCH  24  30
ATOM     30  C   UNL     1      -9.120 -30.360  -8.190  1.00  0.00     0.191 C 
BRANCH  30  31
ATOM     31  O   UNL     1      -8.009 -30.257  -9.036  1.00  0.00    -0.394 OA
ATOM     32  H   UNL     1      -7.615 -29.363  -8.864  1.00  0.00     0.210 HD
ENDBRANCH  30  31
ENDBRANCH  24  30
BRANCH  25  33
ATOM     33  O   UNL     1      -8.385 -33.026  -7.987  1.00  0.00    -0.388 OA
ATOM     34  H   UNL     1      -8.464 -32.307  -8.673  1.00  0.00     0.211 HD
ENDBRANCH  25  33
ENDBRANCH  11  20
BRANCH  10  35
ATOM     35  O   UNL     1      -4.968 -31.489  -7.128  1.00  0.00    -0.507 OA
ATOM     36  H   UNL     1      -4.576 -32.406  -7.314  1.00  0.00     0.293 HD
ENDBRANCH  10  35
TORSDOF 9
ENDMDL
MODEL 7
REMARK VINA RESULT:    -5.738      2.866      4.983
REMARK INTER + INTRA:          -8.855
REMARK INTER:                  -8.758
REMARK INTRA:                  -0.096
REMARK UNBOUND:                -1.103
REMARK SMILES O=c1c(-c2ccc(O)cc2)coc2c([C@H]3O[C@@H](CO)[C@@H](O)[C@H](O)[C@@H]3O)c(O)ccc12
REMARK SMILES IDX 3 1 11 2 12 3 13 4 30 5 2 6 1 7 29 8 28 9 26 10 14 11 4 12
REMARK SMILES IDX 5 13 6 14 7 15 10 16 9 17 8 18 15 20 24 21 16 22 22 23 17 24
REMARK SMILES IDX 20 25 25 26 23 28 18 30 19 31 21 33 27 35
REMARK H PARENT 8 19 25 27 23 29 19 32 21 34 27 36
REMARK Flexibility Score: inf
ROOT
ATOM      1  C   UNL     1      -3.431 -28.961  -0.630  1.00  0.00     0.065 A 
ATOM      2  C   UNL     1      -4.779 -29.263  -0.857  1.00  0.00     0.208 A 
ATOM      3  O   UNL     1      -5.184 -29.732  -2.036  1.00  0.00    -0.463 OA
ATOM      4  C   UNL     1      -4.359 -29.962  -3.058  1.00  0.00     0.147 A 
ATOM      5  C   UNL     1      -2.989 -29.609  -2.929  1.00  0.00     0.066 A 
ATOM      6  C   UNL     1      -2.532 -29.098  -1.700  1.00  0.00     0.200 A 
ATOM      7  O   UNL     1      -1.308 -28.827  -1.540  1.00  0.00    -0.288 OA
ATOM      8  C   UNL     1      -2.100 -29.873  -3.984  1.00  0.00     0.020 A 
ATOM      9  C   UNL     1      -2.523 -30.628  -5.074  1.00  0.00     0.047 A 
ATOM     10  C   UNL     1      -3.839 -31.083  -5.154  1.00  0.00     0.125 A 
ATOM     11  C   UNL     1      -4.823 -30.607  -4.243  1.00  0.00     0.069 A 
ENDROOT
BRANCH   1  12
ATOM     12  C   UNL     1      -2.960 -28.696   0.755  1.00  0.00    -0.011 A 
ATOM     13  C   UNL     1      -2.731 -29.742   1.668  1.00  0.00     0.013 A 
ATOM     14  C   UNL     1      -2.283 -29.464   2.966  1.00  0.00     0.047 A 
ATOM     15  C   UNL     1      -2.093 -28.130   3.371  1.00  0.00     0.115 A 
ATOM     16  C   UNL     1      -2.761 -27.367   1.171  1.00  0.00     0.013 A 
ATOM     17  C   UNL     1      -2.345 -27.087   2.473  1.00  0.00     0.047 A 
BRANCH  15  18
ATOM     18  O   UNL     1      -1.626 -27.834   4.650  1.00  0.00    -0.508 OA
ATOM     19  H   UNL     1      -1.878 -28.393   5.461  1.00  0.00     0.293 HD
ENDBRANCH  15  18
ENDBRANCH   1  12
BRANCH  11  20
ATOM     20  C   UNL     1      -6.316 -30.918  -4.470  1.00  0.00     0.188 C 
ATOM     21  C   UNL     1      -6.664 -31.075  -6.001  1.00  0.00     0.179 C 
ATOM     22  O   UNL     1      -7.121 -29.925  -3.844  1.00  0.00    -0.362 OA
ATOM     23  C   UNL     1      -7.431 -29.839  -6.537  1.00  0.00     0.177 C 
ATOM     24  C   UNL     1      -8.482 -30.026  -4.221  1.00  0.00     0.176 C 
ATOM     25  C   UNL     1      -8.659 -29.466  -5.657  1.00  0.00     0.177 C 
BRANCH  21  26
ATOM     26  O   UNL     1      -7.350 -32.296  -6.218  1.00  0.00    -0.387 OA
ATOM     27  H   UNL     1      -8.332 -32.149  -6.156  1.00  0.00     0.211 HD
ENDBRANCH  21  26
BRANCH  23  28
ATOM     28  O   UNL     1      -7.851 -30.060  -7.858  1.00  0.00    -0.387 OA
ATOM     29  H   UNL     1      -7.041 -30.014  -8.431  1.00  0.00     0.211 HD
ENDBRANCH  23  28
BRANCH  24  30
ATOM     30  C   UNL     1      -9.352 -29.282  -3.202  1.00  0.00     0.191 C 
BRANCH  30  31
ATOM     31  O   UNL     1      -8.782 -28.034  -2.922  1.00  0.00    -0.394 OA
ATOM     32  H   UNL     1      -7.978 -28.218  -2.370  1.00  0.00     0.210 HD
ENDBRANCH  30  31
ENDBRANCH  24  30
BRANCH  25  33
ATOM     33  O   UNL     1      -8.810 -28.063  -5.633  1.00  0.00    -0.388 OA
ATOM     34  H   UNL     1      -7.930 -27.689  -5.350  1.00  0.00     0.211 HD
ENDBRANCH  25  33
ENDBRANCH  11  20
BRANCH  10  35
ATOM     35  O   UNL     1      -4.119 -32.049  -6.124  1.00  0.00    -0.507 OA
ATOM     36  H   UNL     1      -5.013 -32.091  -6.601  1.00  0.00     0.293 HD
ENDBRANCH  10  35
TORSDOF 9
ENDMDL
MODEL 8
REMARK VINA RESULT:    -5.731      5.886      9.799
REMARK INTER + INTRA:          -8.844
REMARK INTER:                  -7.566
REMARK INTRA:                  -1.279
REMARK UNBOUND:                -1.103
REMARK SMILES O=c1c(-c2ccc(O)cc2)coc2c([C@H]3O[C@@H](CO)[C@@H](O)[C@H](O)[C@@H]3O)c(O)ccc12
REMARK SMILES IDX 3 1 11 2 12 3 13 4 30 5 2 6 1 7 29 8 28 9 26 10 14 11 4 12
REMARK SMILES IDX 5 13 6 14 7 15 10 16 9 17 8 18 15 20 24 21 16 22 22 23 17 24
REMARK SMILES IDX 20 25 25 26 23 28 18 30 19 31 21 33 27 35
REMARK H PARENT 8 19 25 27 23 29 19 32 21 34 27 36
REMARK Flexibility Score: inf
ROOT
ATOM      1  C   UNL     1      -2.606 -29.375  -1.839  1.00  0.00     0.065 A 
ATOM      2  C   UNL     1      -2.029 -28.101  -1.786  1.00  0.00     0.208 A 
ATOM      3  O   UNL     1      -1.317 -27.718  -0.729  1.00  0.00    -0.463 OA
ATOM      4  C   UNL     1      -1.088 -28.501   0.326  1.00  0.00     0.147 A 
ATOM      5  C   UNL     1      -1.703 -29.781   0.379  1.00  0.00     0.066 A 
ATOM      6  C   UNL     1      -2.473 -30.210  -0.718  1.00  0.00     0.200 A 
ATOM      7  O   UNL     1      -2.986 -31.365  -0.721  1.00  0.00    -0.288 OA
ATOM      8  C   UNL     1      -1.447 -30.632   1.467  1.00  0.00     0.020 A 
ATOM      9  C   UNL     1      -0.468 -30.293   2.396  1.00  0.00     0.047 A 
ATOM     10  C   UNL     1       0.229 -29.090   2.286  1.00  0.00     0.125 A 
ATOM     11  C   UNL     1      -0.193 -28.094   1.360  1.00  0.00     0.069 A 
ENDROOT
BRANCH   1  12
ATOM     12  C   UNL     1      -3.164 -29.877  -3.123  1.00  0.00    -0.011 A 
ATOM     13  C   UNL     1      -2.329 -30.287  -4.179  1.00  0.00     0.013 A 
ATOM     14  C   UNL     1      -2.882 -30.760  -5.376  1.00  0.00     0.047 A 
ATOM     15  C   UNL     1      -4.279 -30.794  -5.538  1.00  0.00     0.115 A 
ATOM     16  C   UNL     1      -4.559 -29.922  -3.295  1.00  0.00     0.013 A 
ATOM     17  C   UNL     1      -5.111 -30.362  -4.499  1.00  0.00     0.047 A 
BRANCH  15  18
ATOM     18  O   UNL     1      -4.848 -31.282  -6.713  1.00  0.00    -0.508 OA
ATOM     19  H   UNL     1      -4.885 -32.276  -6.924  1.00  0.00     0.293 HD
ENDBRANCH  15  18
ENDBRANCH   1  12
BRANCH  11  20
ATOM     20  C   UNL     1       0.419 -26.680   1.398  1.00  0.00     0.188 C 
ATOM     21  C   UNL     1       1.658 -26.543   0.430  1.00  0.00     0.179 C 
ATOM     22  O   UNL     1       0.754 -26.330   2.736  1.00  0.00    -0.362 OA
ATOM     23  C   UNL     1       2.993 -26.518   1.219  1.00  0.00     0.177 C 
ATOM     24  C   UNL     1       1.534 -25.150   2.801  1.00  0.00     0.176 C 
ATOM     25  C   UNL     1       2.990 -25.476   2.372  1.00  0.00     0.177 C 
BRANCH  21  26
ATOM     26  O   UNL     1       1.488 -25.419  -0.416  1.00  0.00    -0.387 OA
ATOM     27  H   UNL     1       0.654 -24.934  -0.173  1.00  0.00     0.211 HD
ENDBRANCH  21  26
BRANCH  23  28
ATOM     28  O   UNL     1       4.067 -26.256   0.352  1.00  0.00    -0.387 OA
ATOM     29  H   UNL     1       4.829 -26.814   0.658  1.00  0.00     0.211 HD
ENDBRANCH  23  28
BRANCH  24  30
ATOM     30  C   UNL     1       1.467 -24.569   4.217  1.00  0.00     0.191 C 
BRANCH  30  31
ATOM     31  O   UNL     1       1.351 -25.609   5.146  1.00  0.00    -0.394 OA
ATOM     32  H   UNL     1       2.234 -26.059   5.166  1.00  0.00     0.210 HD
ENDBRANCH  30  31
ENDBRANCH  24  30
BRANCH  25  33
ATOM     33  O   UNL     1       3.732 -25.979   3.462  1.00  0.00    -0.388 OA
ATOM     34  H   UNL     1       3.676 -25.294   4.183  1.00  0.00     0.211 HD
ENDBRANCH  25  33
ENDBRANCH  11  20
BRANCH  10  35
ATOM     35  O   UNL     1       1.367 -28.940   3.081  1.00  0.00    -0.507 OA
ATOM     36  H   UNL     1       1.950 -28.111   3.038  1.00  0.00     0.293 HD
ENDBRANCH  10  35
TORSDOF 9
ENDMDL
