MODEL 1
REMARK VINA RESULT:    -3.978      0.000      0.000
REMARK INTER + INTRA:          -9.053
REMARK INTER:                  -7.234
REMARK INTRA:                  -1.818
REMARK UNBOUND:                -1.818
REMARK SMILES CCCCCCCCCCCCCCCC(=O)[O-]
REMARK SMILES IDX 9 1 10 2 11 3 12 4 13 5 14 6 15 7 16 8 17 9 18 10 8 11 7 12
REMARK SMILES IDX 6 13 5 14 4 15 3 16 2 17 1 18
REMARK H PARENT
REMARK Flexibility Score: inf
ROOT
ATOM      1  C   UNL     1      -6.906  20.268  -8.482  1.00  0.00     0.000 C 
ENDROOT
BRANCH   1   2
ATOM      2  C   UNL     1      -5.925  20.051  -9.644  1.00  0.00     0.000 C 
BRANCH   2   3
ATOM      3  C   UNL     1      -6.674  19.696 -10.934  1.00  0.00     0.000 C 
BRANCH   3   4
ATOM      4  C   UNL     1      -8.101  19.220 -10.630  1.00  0.00     0.000 C 
BRANCH   4   5
ATOM      5  C   UNL     1      -8.604  18.159 -11.624  1.00  0.00     0.000 C 
BRANCH   5   6
ATOM      6  C   UNL     1      -9.604  17.159 -11.007  1.00  0.00     0.006 C 
BRANCH   6   7
ATOM      7  C   UNL     1     -10.629  16.657 -12.031  1.00  0.00     0.053 C 
BRANCH   7   8
ATOM      8  C   UNL     1     -11.725  17.659 -12.210  1.00  0.00     0.041 C 
ATOM      9  O   UNL     1     -11.643  18.792 -11.667  1.00  0.00    -0.550 OA
ATOM     10  O   UNL     1     -12.814  17.361 -13.019  1.00  0.00    -0.550 OA
ENDBRANCH   7   8
ENDBRANCH   6   7
ENDBRANCH   5   6
ENDBRANCH   4   5
ENDBRANCH   3   4
ENDBRANCH   2   3
ENDBRANCH   1   2
BRANCH   1  11
ATOM     11  C   UNL     1      -6.205  20.733  -7.195  1.00  0.00     0.000 C 
BRANCH  11  12
ATOM     12  C   UNL     1      -4.749  20.252  -7.105  1.00  0.00    -0.000 C 
BRANCH  12  13
ATOM     13  C   UNL     1      -4.624  19.053  -6.158  1.00  0.00    -0.000 C 
BRANCH  13  14
ATOM     14  C   UNL     1      -4.056  17.828  -6.890  1.00  0.00    -0.000 C 
BRANCH  14  15
ATOM     15  C   UNL     1      -5.004  16.619  -6.852  1.00  0.00    -0.000 C 
BRANCH  15  16
ATOM     16  C   UNL     1      -6.450  16.990  -7.220  1.00  0.00    -0.000 C 
BRANCH  16  17
ATOM     17  C   UNL     1      -6.869  16.440  -8.592  1.00  0.00    -0.003 C 
ATOM     18  C   UNL     1      -5.697  16.320  -9.567  1.00  0.00     0.004 C 
ENDBRANCH  16  17
ENDBRANCH  15  16
ENDBRANCH  14  15
ENDBRANCH  13  14
ENDBRANCH  12  13
ENDBRANCH  11  12
ENDBRANCH   1  11
TORSDOF 14
ENDMDL
MODEL 2
REMARK VINA RESULT:    -3.956      1.076      2.899
REMARK INTER + INTRA:          -9.012
REMARK INTER:                  -6.883
REMARK INTRA:                  -2.129
REMARK UNBOUND:                -1.818
REMARK SMILES CCCCCCCCCCCCCCCC(=O)[O-]
REMARK SMILES IDX 9 1 10 2 11 3 12 4 13 5 14 6 15 7 16 8 17 9 18 10 8 11 7 12
REMARK SMILES IDX 6 13 5 14 4 15 3 16 2 17 1 18
REMARK H PARENT
REMARK Flexibility Score: inf
ROOT
ATOM      1  C   UNL     1      -6.866  16.953  -9.177  1.00  0.00     0.000 C 
ENDROOT
BRANCH   1   2
ATOM      2  C   UNL     1      -5.518  17.087  -9.902  1.00  0.00     0.000 C 
BRANCH   2   3
ATOM      3  C   UNL     1      -5.373  18.476 -10.535  1.00  0.00     0.000 C 
BRANCH   3   4
ATOM      4  C   UNL     1      -6.115  18.552 -11.877  1.00  0.00     0.000 C 
BRANCH   4   5
ATOM      5  C   UNL     1      -7.319  19.508 -11.843  1.00  0.00     0.000 C 
BRANCH   5   6
ATOM      6  C   UNL     1      -8.591  18.923 -12.492  1.00  0.00     0.006 C 
BRANCH   6   7
ATOM      7  C   UNL     1      -9.345  17.981 -11.546  1.00  0.00     0.053 C 
BRANCH   7   8
ATOM      8  C   UNL     1     -10.788  18.364 -11.465  1.00  0.00     0.041 C 
ATOM      9  O   UNL     1     -11.121  19.487 -11.002  1.00  0.00    -0.550 OA
ATOM     10  O   UNL     1     -11.765  17.502 -11.947  1.00  0.00    -0.550 OA
ENDBRANCH   7   8
ENDBRANCH   6   7
ENDBRANCH   5   6
ENDBRANCH   4   5
ENDBRANCH   3   4
ENDBRANCH   2   3
ENDBRANCH   1   2
BRANCH   1  11
ATOM     11  C   UNL     1      -6.710  16.865  -7.650  1.00  0.00     0.000 C 
BRANCH  11  12
ATOM     12  C   UNL     1      -5.343  16.310  -7.225  1.00  0.00    -0.000 C 
BRANCH  12  13
ATOM     13  C   UNL     1      -4.790  17.075  -6.017  1.00  0.00    -0.000 C 
BRANCH  13  14
ATOM     14  C   UNL     1      -3.903  18.246  -6.465  1.00  0.00    -0.000 C 
BRANCH  14  15
ATOM     15  C   UNL     1      -4.535  19.617  -6.177  1.00  0.00    -0.000 C 
BRANCH  15  16
ATOM     16  C   UNL     1      -5.131  20.268  -7.436  1.00  0.00    -0.000 C 
BRANCH  16  17
ATOM     17  C   UNL     1      -6.515  20.887  -7.179  1.00  0.00    -0.003 C 
ATOM     18  C   UNL     1      -7.530  20.545  -8.270  1.00  0.00     0.004 C 
ENDBRANCH  16  17
ENDBRANCH  15  16
ENDBRANCH  14  15
ENDBRANCH  13  14
ENDBRANCH  12  13
ENDBRANCH  11  12
ENDBRANCH   1  11
TORSDOF 14
ENDMDL
MODEL 3
REMARK VINA RESULT:    -3.942      1.304      1.887
REMARK INTER + INTRA:          -8.987
REMARK INTER:                  -6.908
REMARK INTRA:                  -2.080
REMARK UNBOUND:                -1.818
REMARK SMILES CCCCCCCCCCCCCCCC(=O)[O-]
REMARK SMILES IDX 9 1 10 2 11 3 12 4 13 5 14 6 15 7 16 8 17 9 18 10 8 11 7 12
REMARK SMILES IDX 6 13 5 14 4 15 3 16 2 17 1 18
REMARK H PARENT
REMARK Flexibility Score: inf
ROOT
ATOM      1  C   UNL     1      -5.914  20.183  -7.621  1.00  0.00     0.000 C 
ENDROOT
BRANCH   1   2
ATOM      2  C   UNL     1      -5.245  20.277  -9.000  1.00  0.00     0.000 C 
BRANCH   2   3
ATOM      3  C   UNL     1      -6.278  20.590 -10.090  1.00  0.00     0.000 C 
BRANCH   3   4
ATOM      4  C   UNL     1      -7.667  20.065  -9.700  1.00  0.00     0.000 C 
BRANCH   4   5
ATOM      5  C   UNL     1      -8.716  20.267 -10.807  1.00  0.00     0.000 C 
BRANCH   5   6
ATOM      6  C   UNL     1      -9.053  18.977 -11.584  1.00  0.00     0.006 C 
BRANCH   6   7
ATOM      7  C   UNL     1     -10.463  18.462 -11.271  1.00  0.00     0.053 C 
BRANCH   7   8
ATOM      8  C   UNL     1     -10.499  16.968 -11.322  1.00  0.00     0.041 C 
ATOM      9  O   UNL     1     -10.137  16.290 -10.325  1.00  0.00    -0.550 OA
ATOM     10  O   UNL     1     -10.980  16.323 -12.455  1.00  0.00    -0.550 OA
ENDBRANCH   7   8
ENDBRANCH   6   7
ENDBRANCH   5   6
ENDBRANCH   4   5
ENDBRANCH   3   4
ENDBRANCH   2   3
ENDBRANCH   1   2
BRANCH   1  11
ATOM     11  C   UNL     1      -4.925  19.796  -6.509  1.00  0.00     0.000 C 
BRANCH  11  12
ATOM     12  C   UNL     1      -4.171  18.493  -6.814  1.00  0.00    -0.000 C 
BRANCH  12  13
ATOM     13  C   UNL     1      -4.754  17.321  -6.017  1.00  0.00    -0.000 C 
BRANCH  13  14
ATOM     14  C   UNL     1      -5.371  16.271  -6.952  1.00  0.00    -0.000 C 
BRANCH  14  15
ATOM     15  C   UNL     1      -6.709  16.725  -7.557  1.00  0.00    -0.000 C 
BRANCH  15  16
ATOM     16  C   UNL     1      -6.720  16.646  -9.093  1.00  0.00    -0.000 C 
BRANCH  16  17
ATOM     17  C   UNL     1      -5.355  16.241  -9.672  1.00  0.00    -0.003 C 
ATOM     18  C   UNL     1      -4.898  17.153 -10.810  1.00  0.00     0.004 C 
ENDBRANCH  16  17
ENDBRANCH  15  16
ENDBRANCH  14  15
ENDBRANCH  13  14
ENDBRANCH  12  13
ENDBRANCH  11  12
ENDBRANCH   1  11
TORSDOF 14
ENDMDL
MODEL 4
REMARK VINA RESULT:    -3.728      2.630      6.161
REMARK INTER + INTRA:          -8.597
REMARK INTER:                  -6.428
REMARK INTRA:                  -2.169
REMARK UNBOUND:                -1.818
REMARK SMILES CCCCCCCCCCCCCCCC(=O)[O-]
REMARK SMILES IDX 9 1 10 2 11 3 12 4 13 5 14 6 15 7 16 8 17 9 18 10 8 11 7 12
REMARK SMILES IDX 6 13 5 14 4 15 3 16 2 17 1 18
REMARK H PARENT
REMARK Flexibility Score: inf
ROOT
ATOM      1  C   UNL     1      -7.699  19.389  -9.891  1.00  0.00     0.000 C 
ENDROOT
BRANCH   1   2
ATOM      2  C   UNL     1      -6.826  19.973  -8.770  1.00  0.00     0.000 C 
BRANCH   2   3
ATOM      3  C   UNL     1      -5.388  20.194  -9.255  1.00  0.00     0.000 C 
BRANCH   3   4
ATOM      4  C   UNL     1      -4.374  19.797  -8.174  1.00  0.00     0.000 C 
BRANCH   4   5
ATOM      5  C   UNL     1      -5.029  19.124  -6.956  1.00  0.00     0.000 C 
BRANCH   5   6
ATOM      6  C   UNL     1      -4.397  17.765  -6.586  1.00  0.00     0.006 C 
BRANCH   6   7
ATOM      7  C   UNL     1      -5.409  16.616  -6.658  1.00  0.00     0.053 C 
BRANCH   7   8
ATOM      8  C   UNL     1      -5.865  16.406  -8.067  1.00  0.00     0.041 C 
ATOM      9  O   UNL     1      -5.022  16.257  -8.990  1.00  0.00    -0.550 OA
ATOM     10  O   UNL     1      -7.222  16.324  -8.353  1.00  0.00    -0.550 OA
ENDBRANCH   7   8
ENDBRANCH   6   7
ENDBRANCH   5   6
ENDBRANCH   4   5
ENDBRANCH   3   4
ENDBRANCH   2   3
ENDBRANCH   1   2
BRANCH   1  11
ATOM     11  C   UNL     1      -6.879  18.630 -10.946  1.00  0.00     0.000 C 
BRANCH  11  12
ATOM     12  C   UNL     1      -7.321  18.949 -12.382  1.00  0.00    -0.000 C 
BRANCH  12  13
ATOM     13  C   UNL     1      -8.287  20.139 -12.409  1.00  0.00    -0.000 C 
BRANCH  13  14
ATOM     14  C   UNL     1      -9.604  19.764 -13.104  1.00  0.00    -0.000 C 
BRANCH  14  15
ATOM     15  C   UNL     1     -10.841  20.090 -12.252  1.00  0.00    -0.000 C 
BRANCH  15  16
ATOM     16  C   UNL     1     -11.103  19.036 -11.164  1.00  0.00    -0.000 C 
BRANCH  16  17
ATOM     17  C   UNL     1     -11.118  17.604 -11.722  1.00  0.00    -0.003 C 
ATOM     18  C   UNL     1     -10.199  16.656 -10.951  1.00  0.00     0.004 C 
ENDBRANCH  16  17
ENDBRANCH  15  16
ENDBRANCH  14  15
ENDBRANCH  13  14
ENDBRANCH  12  13
ENDBRANCH  11  12
ENDBRANCH   1  11
TORSDOF 14
ENDMDL
MODEL 5
REMARK VINA RESULT:    -3.713      2.365      5.673
REMARK INTER + INTRA:          -8.570
REMARK INTER:                  -7.109
REMARK INTRA:                  -1.462
REMARK UNBOUND:                -1.818
REMARK SMILES CCCCCCCCCCCCCCCC(=O)[O-]
REMARK SMILES IDX 9 1 10 2 11 3 12 4 13 5 14 6 15 7 16 8 17 9 18 10 8 11 7 12
REMARK SMILES IDX 6 13 5 14 4 15 3 16 2 17 1 18
REMARK H PARENT
REMARK Flexibility Score: inf
ROOT
ATOM      1  C   UNL     1      -6.859  19.846  -8.126  1.00  0.00     0.000 C 
ENDROOT
BRANCH   1   2
ATOM      2  C   UNL     1      -5.498  20.470  -7.784  1.00  0.00     0.000 C 
BRANCH   2   3
ATOM      3  C   UNL     1      -5.008  19.997  -6.410  1.00  0.00     0.000 C 
BRANCH   3   4
ATOM      4  C   UNL     1      -4.088  18.775  -6.543  1.00  0.00     0.000 C 
BRANCH   4   5
ATOM      5  C   UNL     1      -4.633  17.533  -5.818  1.00  0.00     0.000 C 
BRANCH   5   6
ATOM      6  C   UNL     1      -5.315  16.518  -6.758  1.00  0.00     0.006 C 
BRANCH   6   7
ATOM      7  C   UNL     1      -4.691  16.514  -8.159  1.00  0.00     0.053 C 
BRANCH   7   8
ATOM      8  C   UNL     1      -5.754  16.598  -9.207  1.00  0.00     0.041 C 
ATOM      9  O   UNL     1      -6.959  16.388  -8.907  1.00  0.00    -0.550 OA
ATOM     10  O   UNL     1      -5.421  16.957 -10.507  1.00  0.00    -0.550 OA
ENDBRANCH   7   8
ENDBRANCH   6   7
ENDBRANCH   5   6
ENDBRANCH   4   5
ENDBRANCH   3   4
ENDBRANCH   2   3
ENDBRANCH   1   2
BRANCH   1  11
ATOM     11  C   UNL     1      -7.925  20.900  -8.466  1.00  0.00     0.000 C 
BRANCH  11  12
ATOM     12  C   UNL     1      -8.601  20.644  -9.821  1.00  0.00    -0.000 C 
BRANCH  12  13
ATOM     13  C   UNL     1      -7.594  20.107 -10.845  1.00  0.00    -0.000 C 
BRANCH  13  14
ATOM     14  C   UNL     1      -8.102  18.808 -11.489  1.00  0.00    -0.000 C 
BRANCH  14  15
ATOM     15  C   UNL     1      -9.520  18.431 -11.030  1.00  0.00    -0.000 C 
BRANCH  15  16
ATOM     16  C   UNL     1      -9.773  16.916 -11.079  1.00  0.00    -0.000 C 
BRANCH  16  17
ATOM     17  C   UNL     1     -10.895  16.538 -12.060  1.00  0.00    -0.003 C 
ATOM     18  C   UNL     1     -11.720  17.743 -12.512  1.00  0.00     0.004 C 
ENDBRANCH  16  17
ENDBRANCH  15  16
ENDBRANCH  14  15
ENDBRANCH  13  14
ENDBRANCH  12  13
ENDBRANCH  11  12
ENDBRANCH   1  11
TORSDOF 14
ENDMDL
MODEL 6
REMARK VINA RESULT:    -3.627      1.551      3.085
REMARK INTER + INTRA:          -8.413
REMARK INTER:                  -6.811
REMARK INTRA:                  -1.602
REMARK UNBOUND:                -1.818
REMARK SMILES CCCCCCCCCCCCCCCC(=O)[O-]
REMARK SMILES IDX 9 1 10 2 11 3 12 4 13 5 14 6 15 7 16 8 17 9 18 10 8 11 7 12
REMARK SMILES IDX 6 13 5 14 4 15 3 16 2 17 1 18
REMARK H PARENT
REMARK Flexibility Score: inf
ROOT
ATOM      1  C   UNL     1      -7.669  17.521 -10.226  1.00  0.00     0.000 C 
ENDROOT
BRANCH   1   2
ATOM      2  C   UNL     1      -7.176  18.561 -11.243  1.00  0.00     0.000 C 
BRANCH   2   3
ATOM      3  C   UNL     1      -8.328  19.458 -11.711  1.00  0.00     0.000 C 
BRANCH   3   4
ATOM      4  C   UNL     1      -9.057  20.088 -10.516  1.00  0.00     0.000 C 
BRANCH   4   5
ATOM      5  C   UNL     1     -10.588  20.061 -10.665  1.00  0.00     0.000 C 
BRANCH   5   6
ATOM      6  C   UNL     1     -11.090  20.660 -11.996  1.00  0.00     0.006 C 
BRANCH   6   7
ATOM      7  C   UNL     1     -12.213  19.825 -12.621  1.00  0.00     0.053 C 
BRANCH   7   8
ATOM      8  C   UNL     1     -11.686  18.509 -13.098  1.00  0.00     0.041 C 
ATOM      9  O   UNL     1     -10.825  18.466 -14.016  1.00  0.00    -0.550 OA
ATOM     10  O   UNL     1     -12.107  17.332 -12.492  1.00  0.00    -0.550 OA
ENDBRANCH   7   8
ENDBRANCH   6   7
ENDBRANCH   5   6
ENDBRANCH   4   5
ENDBRANCH   3   4
ENDBRANCH   2   3
ENDBRANCH   1   2
BRANCH   1  11
ATOM     11  C   UNL     1      -6.515  16.780  -9.530  1.00  0.00     0.000 C 
BRANCH  11  12
ATOM     12  C   UNL     1      -6.856  16.373  -8.088  1.00  0.00    -0.000 C 
BRANCH  12  13
ATOM     13  C   UNL     1      -5.631  16.502  -7.176  1.00  0.00    -0.000 C 
BRANCH  13  14
ATOM     14  C   UNL     1      -4.381  16.885  -7.982  1.00  0.00    -0.000 C 
BRANCH  14  15
ATOM     15  C   UNL     1      -3.875  18.301  -7.661  1.00  0.00    -0.000 C 
BRANCH  15  16
ATOM     16  C   UNL     1      -4.519  18.884  -6.392  1.00  0.00    -0.000 C 
BRANCH  16  17
ATOM     17  C   UNL     1      -5.260  20.204  -6.661  1.00  0.00    -0.003 C 
ATOM     18  C   UNL     1      -6.292  20.088  -7.784  1.00  0.00     0.004 C 
ENDBRANCH  16  17
ENDBRANCH  15  16
ENDBRANCH  14  15
ENDBRANCH  13  14
ENDBRANCH  12  13
ENDBRANCH  11  12
ENDBRANCH   1  11
TORSDOF 14
ENDMDL
MODEL 7
REMARK VINA RESULT:    -3.567      3.308      6.869
REMARK INTER + INTRA:          -8.305
REMARK INTER:                  -6.817
REMARK INTRA:                  -1.488
REMARK UNBOUND:                -1.818
REMARK SMILES CCCCCCCCCCCCCCCC(=O)[O-]
REMARK SMILES IDX 9 1 10 2 11 3 12 4 13 5 14 6 15 7 16 8 17 9 18 10 8 11 7 12
REMARK SMILES IDX 6 13 5 14 4 15 3 16 2 17 1 18
REMARK H PARENT
REMARK Flexibility Score: inf
ROOT
ATOM      1  C   UNL     1      -7.037  18.748 -10.029  1.00  0.00     0.000 C 
ENDROOT
BRANCH   1   2
ATOM      2  C   UNL     1      -7.571  17.311  -9.928  1.00  0.00     0.000 C 
BRANCH   2   3
ATOM      3  C   UNL     1      -6.643  16.441  -9.071  1.00  0.00     0.000 C 
BRANCH   3   4
ATOM      4  C   UNL     1      -6.522  17.001  -7.647  1.00  0.00     0.000 C 
BRANCH   4   5
ATOM      5  C   UNL     1      -5.268  16.500  -6.911  1.00  0.00     0.000 C 
BRANCH   5   6
ATOM      6  C   UNL     1      -4.125  17.536  -6.859  1.00  0.00     0.006 C 
BRANCH   6   7
ATOM      7  C   UNL     1      -4.267  18.497  -5.673  1.00  0.00     0.053 C 
BRANCH   7   8
ATOM      8  C   UNL     1      -4.661  19.860  -6.146  1.00  0.00     0.041 C 
ATOM      9  O   UNL     1      -4.748  20.103  -7.379  1.00  0.00    -0.550 OA
ATOM     10  O   UNL     1      -4.981  20.850  -5.225  1.00  0.00    -0.550 OA
ENDBRANCH   7   8
ENDBRANCH   6   7
ENDBRANCH   5   6
ENDBRANCH   4   5
ENDBRANCH   3   4
ENDBRANCH   2   3
ENDBRANCH   1   2
BRANCH   1  11
ATOM     11  C   UNL     1      -6.272  19.005 -11.337  1.00  0.00     0.000 C 
BRANCH  11  12
ATOM     12  C   UNL     1      -7.024  19.947 -12.289  1.00  0.00    -0.000 C 
BRANCH  12  13
ATOM     13  C   UNL     1      -8.199  19.227 -12.960  1.00  0.00    -0.000 C 
BRANCH  13  14
ATOM     14  C   UNL     1      -9.485  20.062 -12.865  1.00  0.00    -0.000 C 
BRANCH  14  15
ATOM     15  C   UNL     1     -10.238  19.847 -11.543  1.00  0.00    -0.000 C 
BRANCH  15  16
ATOM     16  C   UNL     1     -11.361  18.804 -11.665  1.00  0.00    -0.000 C 
BRANCH  16  17
ATOM     17  C   UNL     1     -10.962  17.438 -11.086  1.00  0.00    -0.003 C 
ATOM     18  C   UNL     1     -10.553  16.432 -12.163  1.00  0.00     0.004 C 
ENDBRANCH  16  17
ENDBRANCH  15  16
ENDBRANCH  14  15
ENDBRANCH  13  14
ENDBRANCH  12  13
ENDBRANCH  11  12
ENDBRANCH   1  11
TORSDOF 14
ENDMDL
MODEL 8
REMARK VINA RESULT:    -3.559      1.709      2.255
REMARK INTER + INTRA:          -8.290
REMARK INTER:                  -6.612
REMARK INTRA:                  -1.678
REMARK UNBOUND:                -1.818
REMARK SMILES CCCCCCCCCCCCCCCC(=O)[O-]
REMARK SMILES IDX 9 1 10 2 11 3 12 4 13 5 14 6 15 7 16 8 17 9 18 10 8 11 7 12
REMARK SMILES IDX 6 13 5 14 4 15 3 16 2 17 1 18
REMARK H PARENT
REMARK Flexibility Score: inf
ROOT
ATOM      1  C   UNL     1      -7.534  19.072 -10.356  1.00  0.00     0.000 C 
ENDROOT
BRANCH   1   2
ATOM      2  C   UNL     1      -7.162  18.852 -11.831  1.00  0.00     0.000 C 
BRANCH   2   3
ATOM      3  C   UNL     1      -7.806  19.919 -12.723  1.00  0.00     0.000 C 
BRANCH   3   4
ATOM      4  C   UNL     1      -9.029  20.546 -12.039  1.00  0.00     0.000 C 
BRANCH   4   5
ATOM      5  C   UNL     1     -10.311  20.431 -12.882  1.00  0.00     0.000 C 
BRANCH   5   6
ATOM      6  C   UNL     1     -11.465  19.707 -12.156  1.00  0.00     0.006 C 
BRANCH   6   7
ATOM      7  C   UNL     1     -10.966  18.839 -10.994  1.00  0.00     0.053 C 
BRANCH   7   8
ATOM      8  C   UNL     1     -11.028  17.390 -11.358  1.00  0.00     0.041 C 
ATOM      9  O   UNL     1     -10.431  16.533 -10.654  1.00  0.00    -0.550 OA
ATOM     10  O   UNL     1     -11.787  16.979 -12.446  1.00  0.00    -0.550 OA
ENDBRANCH   7   8
ENDBRANCH   6   7
ENDBRANCH   5   6
ENDBRANCH   4   5
ENDBRANCH   3   4
ENDBRANCH   2   3
ENDBRANCH   1   2
BRANCH   1  11
ATOM     11  C   UNL     1      -6.337  19.527  -9.505  1.00  0.00     0.000 C 
BRANCH  11  12
ATOM     12  C   UNL     1      -6.516  19.209  -8.013  1.00  0.00    -0.000 C 
BRANCH  12  13
ATOM     13  C   UNL     1      -5.159  19.071  -7.314  1.00  0.00    -0.000 C 
BRANCH  13  14
ATOM     14  C   UNL     1      -5.081  17.760  -6.517  1.00  0.00    -0.000 C 
BRANCH  14  15
ATOM     15  C   UNL     1      -5.271  16.515  -7.398  1.00  0.00    -0.000 C 
BRANCH  15  16
ATOM     16  C   UNL     1      -4.291  16.475  -8.582  1.00  0.00    -0.000 C 
BRANCH  16  17
ATOM     17  C   UNL     1      -4.996  16.196  -9.919  1.00  0.00    -0.003 C 
ATOM     18  C   UNL     1      -4.166  16.627 -11.129  1.00  0.00     0.004 C 
ENDBRANCH  16  17
ENDBRANCH  15  16
ENDBRANCH  14  15
ENDBRANCH  13  14
ENDBRANCH  12  13
ENDBRANCH  11  12
ENDBRANCH   1  11
TORSDOF 14
ENDMDL
MODEL 9
REMARK VINA RESULT:    -3.469      2.894      6.638
REMARK INTER + INTRA:          -8.127
REMARK INTER:                  -6.285
REMARK INTRA:                  -1.842
REMARK UNBOUND:                -1.818
REMARK SMILES CCCCCCCCCCCCCCCC(=O)[O-]
REMARK SMILES IDX 9 1 10 2 11 3 12 4 13 5 14 6 15 7 16 8 17 9 18 10 8 11 7 12
REMARK SMILES IDX 6 13 5 14 4 15 3 16 2 17 1 18
REMARK H PARENT
REMARK Flexibility Score: inf
ROOT
ATOM      1  C   UNL     1      -9.346  20.254 -10.477  1.00  0.00     0.000 C 
ENDROOT
BRANCH   1   2
ATOM      2  C   UNL     1      -8.727  19.820 -11.814  1.00  0.00     0.000 C 
BRANCH   2   3
ATOM      3  C   UNL     1      -7.393  19.099 -11.592  1.00  0.00     0.000 C 
BRANCH   3   4
ATOM      4  C   UNL     1      -6.238  20.102 -11.465  1.00  0.00     0.000 C 
BRANCH   4   5
ATOM      5  C   UNL     1      -5.504  20.003 -10.116  1.00  0.00     0.000 C 
BRANCH   5   6
ATOM      6  C   UNL     1      -5.405  18.563  -9.570  1.00  0.00     0.006 C 
BRANCH   6   7
ATOM      7  C   UNL     1      -6.025  18.428  -8.174  1.00  0.00     0.053 C 
BRANCH   7   8
ATOM      8  C   UNL     1      -6.320  16.994  -7.868  1.00  0.00     0.041 C 
ATOM      9  O   UNL     1      -5.610  16.361  -7.044  1.00  0.00    -0.550 OA
ATOM     10  O   UNL     1      -7.413  16.369  -8.457  1.00  0.00    -0.550 OA
ENDBRANCH   7   8
ENDBRANCH   6   7
ENDBRANCH   5   6
ENDBRANCH   4   5
ENDBRANCH   3   4
ENDBRANCH   2   3
ENDBRANCH   1   2
BRANCH   1  11
ATOM     11  C   UNL     1     -10.760  20.834 -10.639  1.00  0.00     0.000 C 
BRANCH  11  12
ATOM     12  C   UNL     1     -11.188  20.949 -12.110  1.00  0.00    -0.000 C 
BRANCH  12  13
ATOM     13  C   UNL     1     -12.659  20.555 -12.288  1.00  0.00    -0.000 C 
BRANCH  13  14
ATOM     14  C   UNL     1     -12.830  19.582 -13.464  1.00  0.00    -0.000 C 
BRANCH  14  15
ATOM     15  C   UNL     1     -11.733  18.506 -13.512  1.00  0.00    -0.000 C 
BRANCH  15  16
ATOM     16  C   UNL     1     -11.880  17.463 -12.392  1.00  0.00    -0.000 C 
BRANCH  16  17
ATOM     17  C   UNL     1     -10.595  16.649 -12.174  1.00  0.00    -0.003 C 
ATOM     18  C   UNL     1     -10.171  16.588 -10.706  1.00  0.00     0.004 C 
ENDBRANCH  16  17
ENDBRANCH  15  16
ENDBRANCH  14  15
ENDBRANCH  13  14
ENDBRANCH  12  13
ENDBRANCH  11  12
ENDBRANCH   1  11
TORSDOF 14
ENDMDL
