MODEL 1
REMARK VINA RESULT:    -5.101      0.000      0.000
REMARK INTER + INTRA:          -5.733
REMARK INTER:                  -5.549
REMARK INTRA:                  -0.184
REMARK UNBOUND:                -0.184
REMARK SMILES C[C@@H]1[C@H](C)CC[C@]2(C(=O)[O-])CC[C@]3(C)C(=CC[C@@H]4[C@]5(C)CC[C@H](O)C(C)(C)[C@@H]5CC[C@]43C)[C@H]12
REMARK SMILES IDX 7 1 6 2 11 3 33 4 5 5 12 6 15 7 2 8 3 9 13 10 16 11 1 12
REMARK SMILES IDX 4 13 14 14 31 15 17 16 18 17 30 18 32 19 19 20 29 21 28 22
REMARK SMILES IDX 21 23 20 24 25 25 22 26 23 27 26 28 27 29 8 30 9 31 10 32
REMARK SMILES IDX 24 33
REMARK H PARENT 24 34
REMARK Flexibility Score: inf
ROOT
ATOM      1  C   UNL     1     124.317 109.862 109.751  1.00  0.00     0.017 C 
ATOM      2  C   UNL     1     123.720 108.465 110.123  1.00  0.00     0.014 C 
ATOM      3  C   UNL     1     125.736 109.944 110.353  1.00  0.00     0.014 C 
ATOM      4  C   UNL     1     123.390 111.029 110.286  1.00  0.00     0.030 C 
ATOM      5  C   UNL     1     122.203 108.439 109.963  1.00  0.00     0.004 C 
ATOM      6  C   UNL     1     126.396 111.306 110.119  1.00  0.00     0.013 C 
ATOM      7  C   UNL     1     124.099 112.372 110.565  1.00  0.00    -0.063 C 
ATOM      8  C   UNL     1     122.395 110.604 111.422  1.00  0.00    -0.003 C 
ATOM      9  C   UNL     1     121.497 109.403 110.951  1.00  0.00    -0.011 C 
ATOM     10  C   UNL     1     125.625 112.513 110.753  1.00  0.00    -0.006 C 
ATOM     11  C   UNL     1     123.310 113.478 110.626  1.00  0.00    -0.027 C 
ATOM     12  C   UNL     1     123.073 110.427 112.797  1.00  0.00     0.008 C 
ATOM     13  C   UNL     1     120.833 108.628 112.100  1.00  0.00     0.008 C 
ATOM     14  C   UNL     1     125.891 112.441 112.296  1.00  0.00     0.017 C 
ATOM     15  C   UNL     1     126.104 113.915 110.100  1.00  0.00    -0.020 C 
ATOM     16  C   UNL     1     123.803 114.906 110.592  1.00  0.00     0.032 C 
ATOM     17  C   UNL     1     125.330 115.086 110.816  1.00  0.00     0.006 C 
ATOM     18  C   UNL     1     127.619 114.146 110.288  1.00  0.00     0.008 C 
ATOM     19  C   UNL     1     125.806 113.900 108.559  1.00  0.00     0.012 C 
ATOM     20  C   UNL     1     125.857 116.603 110.671  1.00  0.00    -0.025 C 
ATOM     21  C   UNL     1     128.068 115.516 109.790  1.00  0.00     0.005 C 
ATOM     22  C   UNL     1     127.451 116.684 110.605  1.00  0.00     0.003 C 
ATOM     23  C   UNL     1     125.197 117.339 109.459  1.00  0.00     0.010 C 
ATOM     24  C   UNL     1     125.375 117.337 111.970  1.00  0.00     0.012 C 
ATOM     25  C   UNL     1     128.053 118.103 110.168  1.00  0.00    -0.006 C 
ATOM     26  C   UNL     1     125.770 118.727 109.156  1.00  0.00     0.033 C 
ATOM     27  C   UNL     1     127.287 118.696 108.943  1.00  0.00     0.120 C 
ATOM     28  C   UNL     1     129.562 118.002 109.789  1.00  0.00     0.014 C 
ATOM     29  C   UNL     1     128.024 119.121 111.352  1.00  0.00     0.014 C 
ENDROOT
BRANCH   1  30
ATOM     30  C   UNL     1     124.445 109.948 108.224  1.00  0.00     0.048 C 
ATOM     31  O   UNL     1     124.142 111.007 107.612  1.00  0.00    -0.550 OA
ATOM     32  O   UNL     1     124.798 108.834 107.471  1.00  0.00    -0.550 OA
ENDBRANCH   1  30
BRANCH  27  33
ATOM     33  O   UNL     1     127.552 117.956 107.775  1.00  0.00    -0.393 OA
ATOM     34  H   UNL     1     128.454 117.553 107.869  1.00  0.00     0.210 HD
ENDBRANCH  27  33
TORSDOF 2
ENDMDL
MODEL 2
REMARK VINA RESULT:    -5.007      1.504      1.930
REMARK INTER + INTRA:          -5.629
REMARK INTER:                  -5.329
REMARK INTRA:                  -0.300
REMARK UNBOUND:                -0.184
REMARK SMILES C[C@@H]1[C@H](C)CC[C@]2(C(=O)[O-])CC[C@]3(C)C(=CC[C@@H]4[C@]5(C)CC[C@H](O)C(C)(C)[C@@H]5CC[C@]43C)[C@H]12
REMARK SMILES IDX 7 1 6 2 11 3 33 4 5 5 12 6 15 7 2 8 3 9 13 10 16 11 1 12
REMARK SMILES IDX 4 13 14 14 31 15 17 16 18 17 30 18 32 19 19 20 29 21 28 22
REMARK SMILES IDX 21 23 20 24 25 25 22 26 23 27 26 28 27 29 8 30 9 31 10 32
REMARK SMILES IDX 24 33
REMARK H PARENT 24 34
REMARK Flexibility Score: inf
ROOT
ATOM      1  C   UNL     1     123.433 109.243 109.364  1.00  0.00     0.017 C 
ATOM      2  C   UNL     1     122.575 107.938 109.452  1.00  0.00     0.014 C 
ATOM      3  C   UNL     1     124.077 109.477 110.747  1.00  0.00     0.014 C 
ATOM      4  C   UNL     1     122.539 110.473 108.923  1.00  0.00     0.030 C 
ATOM      5  C   UNL     1     121.569 107.845 108.308  1.00  0.00     0.004 C 
ATOM      6  C   UNL     1     124.884 110.778 110.806  1.00  0.00     0.013 C 
ATOM      7  C   UNL     1     123.035 111.860 109.384  1.00  0.00    -0.063 C 
ATOM      8  C   UNL     1     120.997 110.265 109.124  1.00  0.00    -0.003 C 
ATOM      9  C   UNL     1     120.509 108.974 108.374  1.00  0.00    -0.011 C 
ATOM     10  C   UNL     1     124.043 112.071 110.535  1.00  0.00    -0.006 C 
ATOM     11  C   UNL     1     122.553 112.937 108.709  1.00  0.00    -0.027 C 
ATOM     12  C   UNL     1     120.550 110.388 110.596  1.00  0.00     0.008 C 
ATOM     13  C   UNL     1     119.157 108.434 108.869  1.00  0.00     0.008 C 
ATOM     14  C   UNL     1     123.194 112.321 111.829  1.00  0.00     0.017 C 
ATOM     15  C   UNL     1     125.003 113.321 110.165  1.00  0.00    -0.020 C 
ATOM     16  C   UNL     1     123.111 114.339 108.786  1.00  0.00     0.032 C 
ATOM     17  C   UNL     1     124.100 114.595 109.957  1.00  0.00     0.006 C 
ATOM     18  C   UNL     1     126.014 113.620 111.294  1.00  0.00     0.008 C 
ATOM     19  C   UNL     1     125.817 112.986 108.865  1.00  0.00     0.012 C 
ATOM     20  C   UNL     1     124.769 116.063 109.963  1.00  0.00    -0.025 C 
ATOM     21  C   UNL     1     126.844 114.869 111.019  1.00  0.00     0.005 C 
ATOM     22  C   UNL     1     125.989 116.164 110.989  1.00  0.00     0.003 C 
ATOM     23  C   UNL     1     125.189 116.521 108.527  1.00  0.00     0.010 C 
ATOM     24  C   UNL     1     123.636 117.035 110.441  1.00  0.00     0.012 C 
ATOM     25  C   UNL     1     126.897 117.478 110.854  1.00  0.00    -0.006 C 
ATOM     26  C   UNL     1     125.982 117.831 108.475  1.00  0.00     0.033 C 
ATOM     27  C   UNL     1     127.231 117.792 109.361  1.00  0.00     0.120 C 
ATOM     28  C   UNL     1     128.243 117.336 111.628  1.00  0.00     0.014 C 
ATOM     29  C   UNL     1     126.207 118.715 111.512  1.00  0.00     0.014 C 
ENDROOT
BRANCH   1  30
ATOM     30  C   UNL     1     124.561 109.018 108.348  1.00  0.00     0.048 C 
ATOM     31  O   UNL     1     124.522 109.566 107.214  1.00  0.00    -0.550 OA
ATOM     32  O   UNL     1     125.596 108.128 108.611  1.00  0.00    -0.550 OA
ENDBRANCH   1  30
BRANCH  27  33
ATOM     33  O   UNL     1     128.117 116.836 108.830  1.00  0.00    -0.393 OA
ATOM     34  H   UNL     1     127.657 115.957 108.837  1.00  0.00     0.210 HD
ENDBRANCH  27  33
TORSDOF 2
ENDMDL
MODEL 3
REMARK VINA RESULT:    -5.004     10.567     15.870
REMARK INTER + INTRA:          -5.626
REMARK INTER:                  -5.330
REMARK INTRA:                  -0.296
REMARK UNBOUND:                -0.184
REMARK SMILES C[C@@H]1[C@H](C)CC[C@]2(C(=O)[O-])CC[C@]3(C)C(=CC[C@@H]4[C@]5(C)CC[C@H](O)C(C)(C)[C@@H]5CC[C@]43C)[C@H]12
REMARK SMILES IDX 7 1 6 2 11 3 33 4 5 5 12 6 15 7 2 8 3 9 13 10 16 11 1 12
REMARK SMILES IDX 4 13 14 14 31 15 17 16 18 17 30 18 32 19 19 20 29 21 28 22
REMARK SMILES IDX 21 23 20 24 25 25 22 26 23 27 26 28 27 29 8 30 9 31 10 32
REMARK SMILES IDX 24 33
REMARK H PARENT 24 34
REMARK Flexibility Score: inf
ROOT
ATOM      1  C   UNL     1     123.018 108.080 120.785  1.00  0.00     0.017 C 
ATOM      2  C   UNL     1     124.523 108.279 120.407  1.00  0.00     0.014 C 
ATOM      3  C   UNL     1     122.956 107.094 121.970  1.00  0.00     0.014 C 
ATOM      4  C   UNL     1     122.194 107.549 119.541  1.00  0.00     0.030 C 
ATOM      5  C   UNL     1     124.681 108.874 119.011  1.00  0.00     0.004 C 
ATOM      6  C   UNL     1     121.519 106.758 122.380  1.00  0.00     0.013 C 
ATOM      7  C   UNL     1     120.928 106.733 119.878  1.00  0.00    -0.063 C 
ATOM      8  C   UNL     1     123.065 106.905 118.407  1.00  0.00    -0.003 C 
ATOM      9  C   UNL     1     124.161 107.916 117.909  1.00  0.00    -0.011 C 
ATOM     10  C   UNL     1     120.669 106.080 121.253  1.00  0.00    -0.006 C 
ATOM     11  C   UNL     1     119.998 106.614 118.893  1.00  0.00    -0.027 C 
ATOM     12  C   UNL     1     123.575 105.490 118.754  1.00  0.00     0.008 C 
ATOM     13  C   UNL     1     125.328 107.255 117.156  1.00  0.00     0.008 C 
ATOM     14  C   UNL     1     121.181 104.602 121.147  1.00  0.00     0.017 C 
ATOM     15  C   UNL     1     119.087 106.173 121.585  1.00  0.00    -0.020 C 
ATOM     16  C   UNL     1     118.580 106.125 119.082  1.00  0.00     0.032 C 
ATOM     17  C   UNL     1     118.296 105.429 120.442  1.00  0.00     0.006 C 
ATOM     18  C   UNL     1     118.744 105.499 122.932  1.00  0.00     0.008 C 
ATOM     19  C   UNL     1     118.661 107.681 121.678  1.00  0.00     0.012 C 
ATOM     20  C   UNL     1     116.756 105.010 120.673  1.00  0.00    -0.025 C 
ATOM     21  C   UNL     1     117.244 105.466 123.204  1.00  0.00     0.005 C 
ATOM     22  C   UNL     1     116.468 104.587 122.187  1.00  0.00     0.003 C 
ATOM     23  C   UNL     1     115.767 106.122 120.193  1.00  0.00     0.010 C 
ATOM     24  C   UNL     1     116.522 103.761 119.755  1.00  0.00     0.012 C 
ATOM     25  C   UNL     1     114.921 104.440 122.580  1.00  0.00    -0.006 C 
ATOM     26  C   UNL     1     114.296 105.868 120.532  1.00  0.00     0.033 C 
ATOM     27  C   UNL     1     114.076 105.633 122.030  1.00  0.00     0.120 C 
ATOM     28  C   UNL     1     114.718 104.378 124.125  1.00  0.00     0.014 C 
ATOM     29  C   UNL     1     114.329 103.091 122.062  1.00  0.00     0.014 C 
ENDROOT
BRANCH   1  30
ATOM     30  C   UNL     1     122.451 109.425 121.259  1.00  0.00     0.048 C 
ATOM     31  O   UNL     1     122.960 110.026 122.243  1.00  0.00    -0.550 OA
ATOM     32  O   UNL     1     121.305 109.962 120.684  1.00  0.00    -0.550 OA
ENDBRANCH   1  30
BRANCH  27  33
ATOM     33  O   UNL     1     114.382 106.826 122.713  1.00  0.00    -0.393 OA
ATOM     34  H   UNL     1     114.665 106.585 123.632  1.00  0.00     0.210 HD
ENDBRANCH  27  33
TORSDOF 2
ENDMDL
MODEL 4
REMARK VINA RESULT:    -4.985     11.902     16.136
REMARK INTER + INTRA:          -5.606
REMARK INTER:                  -5.300
REMARK INTRA:                  -0.306
REMARK UNBOUND:                -0.184
REMARK SMILES C[C@@H]1[C@H](C)CC[C@]2(C(=O)[O-])CC[C@]3(C)C(=CC[C@@H]4[C@]5(C)CC[C@H](O)C(C)(C)[C@@H]5CC[C@]43C)[C@H]12
REMARK SMILES IDX 7 1 6 2 11 3 33 4 5 5 12 6 15 7 2 8 3 9 13 10 16 11 1 12
REMARK SMILES IDX 4 13 14 14 31 15 17 16 18 17 30 18 32 19 19 20 29 21 28 22
REMARK SMILES IDX 21 23 20 24 25 25 22 26 23 27 26 28 27 29 8 30 9 31 10 32
REMARK SMILES IDX 24 33
REMARK H PARENT 24 34
REMARK Flexibility Score: inf
ROOT
ATOM      1  C   UNL     1     114.747 103.881 122.197  1.00  0.00     0.017 C 
ATOM      2  C   UNL     1     113.733 102.700 122.349  1.00  0.00     0.014 C 
ATOM      3  C   UNL     1     115.005 104.089 120.690  1.00  0.00     0.014 C 
ATOM      4  C   UNL     1     116.089 103.571 122.979  1.00  0.00     0.030 C 
ATOM      5  C   UNL     1     113.738 102.130 123.765  1.00  0.00     0.004 C 
ATOM      6  C   UNL     1     116.050 105.176 120.417  1.00  0.00     0.013 C 
ATOM      7  C   UNL     1     117.354 104.274 122.441  1.00  0.00    -0.063 C 
ATOM      8  C   UNL     1     116.315 102.056 123.314  1.00  0.00    -0.003 C 
ATOM      9  C   UNL     1     115.098 101.479 124.125  1.00  0.00    -0.011 C 
ATOM     10  C   UNL     1     117.462 104.878 121.024  1.00  0.00    -0.006 C 
ATOM     11  C   UNL     1     118.410 104.367 123.293  1.00  0.00    -0.027 C 
ATOM     12  C   UNL     1     116.758 101.218 122.096  1.00  0.00     0.008 C 
ATOM     13  C   UNL     1     114.999  99.945 124.103  1.00  0.00     0.008 C 
ATOM     14  C   UNL     1     118.105 103.772 120.118  1.00  0.00     0.017 C 
ATOM     15  C   UNL     1     118.358 106.225 121.098  1.00  0.00    -0.020 C 
ATOM     16  C   UNL     1     119.619 105.252 123.094  1.00  0.00     0.032 C 
ATOM     17  C   UNL     1     119.778 105.846 121.667  1.00  0.00     0.006 C 
ATOM     18  C   UNL     1     118.546 106.864 119.705  1.00  0.00     0.008 C 
ATOM     19  C   UNL     1     117.642 107.276 122.018  1.00  0.00     0.012 C 
ATOM     20  C   UNL     1     121.010 106.873 121.500  1.00  0.00    -0.025 C 
ATOM     21  C   UNL     1     119.488 108.063 119.734  1.00  0.00     0.005 C 
ATOM     22  C   UNL     1     120.941 107.677 120.121  1.00  0.00     0.003 C 
ATOM     23  C   UNL     1     121.134 107.843 122.721  1.00  0.00     0.010 C 
ATOM     24  C   UNL     1     122.298 105.980 121.491  1.00  0.00     0.012 C 
ATOM     25  C   UNL     1     121.945 108.920 119.996  1.00  0.00    -0.006 C 
ATOM     26  C   UNL     1     122.175 108.954 122.559  1.00  0.00     0.033 C 
ATOM     27  C   UNL     1     121.945 109.788 121.294  1.00  0.00     0.120 C 
ATOM     28  C   UNL     1     121.575 109.847 118.797  1.00  0.00     0.014 C 
ATOM     29  C   UNL     1     123.398 108.446 119.678  1.00  0.00     0.014 C 
ENDROOT
BRANCH   1  30
ATOM     30  C   UNL     1     114.098 105.157 122.748  1.00  0.00     0.048 C 
ATOM     31  O   UNL     1     114.599 105.758 123.736  1.00  0.00    -0.550 OA
ATOM     32  O   UNL     1     112.891 105.624 122.240  1.00  0.00    -0.550 OA
ENDBRANCH   1  30
BRANCH  27  33
ATOM     33  O   UNL     1     120.727 110.480 121.439  1.00  0.00    -0.393 OA
ATOM     34  H   UNL     1     120.938 111.419 121.681  1.00  0.00     0.210 HD
ENDBRANCH  27  33
TORSDOF 2
ENDMDL
MODEL 5
REMARK VINA RESULT:    -4.965     12.035     15.422
REMARK INTER + INTRA:          -5.584
REMARK INTER:                  -5.287
REMARK INTRA:                  -0.297
REMARK UNBOUND:                -0.184
REMARK SMILES C[C@@H]1[C@H](C)CC[C@]2(C(=O)[O-])CC[C@]3(C)C(=CC[C@@H]4[C@]5(C)CC[C@H](O)C(C)(C)[C@@H]5CC[C@]43C)[C@H]12
REMARK SMILES IDX 7 1 6 2 11 3 33 4 5 5 12 6 15 7 2 8 3 9 13 10 16 11 1 12
REMARK SMILES IDX 4 13 14 14 31 15 17 16 18 17 30 18 32 19 19 20 29 21 28 22
REMARK SMILES IDX 21 23 20 24 25 25 22 26 23 27 26 28 27 29 8 30 9 31 10 32
REMARK SMILES IDX 24 33
REMARK H PARENT 24 34
REMARK Flexibility Score: inf
ROOT
ATOM      1  C   UNL     1     114.770 105.124 121.485  1.00  0.00     0.017 C 
ATOM      2  C   UNL     1     113.372 104.545 121.086  1.00  0.00     0.014 C 
ATOM      3  C   UNL     1     114.820 106.595 121.023  1.00  0.00     0.014 C 
ATOM      4  C   UNL     1     115.936 104.270 120.839  1.00  0.00     0.030 C 
ATOM      5  C   UNL     1     113.368 103.019 121.099  1.00  0.00     0.004 C 
ATOM      6  C   UNL     1     116.179 107.249 121.291  1.00  0.00     0.013 C 
ATOM      7  C   UNL     1     117.263 105.021 120.602  1.00  0.00    -0.063 C 
ATOM      8  C   UNL     1     115.498 103.383 119.621  1.00  0.00    -0.003 C 
ATOM      9  C   UNL     1     114.319 102.426 120.028  1.00  0.00    -0.011 C 
ATOM     10  C   UNL     1     117.381 106.560 120.560  1.00  0.00    -0.006 C 
ATOM     11  C   UNL     1     118.377 104.258 120.442  1.00  0.00    -0.027 C 
ATOM     12  C   UNL     1     115.282 104.188 118.322  1.00  0.00     0.008 C 
ATOM     13  C   UNL     1     113.526 101.866 118.836  1.00  0.00     0.008 C 
ATOM     14  C   UNL     1     117.272 106.973 119.052  1.00  0.00     0.017 C 
ATOM     15  C   UNL     1     118.792 106.993 121.227  1.00  0.00    -0.020 C 
ATOM     16  C   UNL     1     119.800 104.765 120.494  1.00  0.00     0.032 C 
ATOM     17  C   UNL     1     119.955 106.310 120.415  1.00  0.00     0.006 C 
ATOM     18  C   UNL     1     119.000 108.523 121.182  1.00  0.00     0.008 C 
ATOM     19  C   UNL     1     118.814 106.548 122.732  1.00  0.00     0.012 C 
ATOM     20  C   UNL     1     121.469 106.841 120.579  1.00  0.00    -0.025 C 
ATOM     21  C   UNL     1     120.374 108.941 121.693  1.00  0.00     0.005 C 
ATOM     22  C   UNL     1     121.532 108.423 120.798  1.00  0.00     0.003 C 
ATOM     23  C   UNL     1     122.240 106.078 121.706  1.00  0.00     0.010 C 
ATOM     24  C   UNL     1     122.180 106.498 119.225  1.00  0.00     0.012 C 
ATOM     25  C   UNL     1     122.953 109.000 121.262  1.00  0.00    -0.006 C 
ATOM     26  C   UNL     1     123.626 106.639 122.034  1.00  0.00     0.033 C 
ATOM     27  C   UNL     1     123.582 108.127 122.394  1.00  0.00     0.120 C 
ATOM     28  C   UNL     1     122.841 110.464 121.788  1.00  0.00     0.014 C 
ATOM     29  C   UNL     1     123.945 109.100 120.060  1.00  0.00     0.014 C 
ENDROOT
BRANCH   1  30
ATOM     30  C   UNL     1     114.887 105.105 123.016  1.00  0.00     0.048 C 
ATOM     31  O   UNL     1     114.064 105.737 123.731  1.00  0.00    -0.550 OA
ATOM     32  O   UNL     1     115.958 104.479 123.644  1.00  0.00    -0.550 OA
ENDBRANCH   1  30
BRANCH  27  33
ATOM     33  O   UNL     1     122.865 108.268 123.597  1.00  0.00    -0.393 OA
ATOM     34  H   UNL     1     122.017 108.741 123.392  1.00  0.00     0.210 HD
ENDBRANCH  27  33
TORSDOF 2
ENDMDL
MODEL 6
REMARK VINA RESULT:    -4.903      2.020      3.546
REMARK INTER + INTRA:          -5.517
REMARK INTER:                  -5.207
REMARK INTRA:                  -0.310
REMARK UNBOUND:                -0.184
REMARK SMILES C[C@@H]1[C@H](C)CC[C@]2(C(=O)[O-])CC[C@]3(C)C(=CC[C@@H]4[C@]5(C)CC[C@H](O)C(C)(C)[C@@H]5CC[C@]43C)[C@H]12
REMARK SMILES IDX 7 1 6 2 11 3 33 4 5 5 12 6 15 7 2 8 3 9 13 10 16 11 1 12
REMARK SMILES IDX 4 13 14 14 31 15 17 16 18 17 30 18 32 19 19 20 29 21 28 22
REMARK SMILES IDX 21 23 20 24 25 25 22 26 23 27 26 28 27 29 8 30 9 31 10 32
REMARK SMILES IDX 24 33
REMARK H PARENT 24 34
REMARK Flexibility Score: inf
ROOT
ATOM      1  C   UNL     1     122.587 109.762 110.302  1.00  0.00     0.017 C 
ATOM      2  C   UNL     1     122.057 108.318 110.015  1.00  0.00     0.014 C 
ATOM      3  C   UNL     1     122.112 110.675 109.151  1.00  0.00     0.014 C 
ATOM      4  C   UNL     1     124.165 109.765 110.433  1.00  0.00     0.030 C 
ATOM      5  C   UNL     1     122.809 107.269 110.830  1.00  0.00     0.004 C 
ATOM      6  C   UNL     1     122.640 112.107 109.282  1.00  0.00     0.013 C 
ATOM      7  C   UNL     1     124.863 111.098 110.088  1.00  0.00    -0.063 C 
ATOM      8  C   UNL     1     124.874 108.512 109.810  1.00  0.00    -0.003 C 
ATOM      9  C   UNL     1     124.305 107.185 110.432  1.00  0.00    -0.011 C 
ATOM     10  C   UNL     1     124.201 112.223 109.263  1.00  0.00    -0.006 C 
ATOM     11  C   UNL     1     126.125 111.268 110.565  1.00  0.00    -0.027 C 
ATOM     12  C   UNL     1     124.940 108.548 108.268  1.00  0.00     0.008 C 
ATOM     13  C   UNL     1     124.583 105.928 109.592  1.00  0.00     0.008 C 
ATOM     14  C   UNL     1     124.640 112.000 107.775  1.00  0.00     0.017 C 
ATOM     15  C   UNL     1     124.684 113.653 109.851  1.00  0.00    -0.020 C 
ATOM     16  C   UNL     1     126.875 112.580 110.605  1.00  0.00     0.032 C 
ATOM     17  C   UNL     1     126.255 113.723 109.755  1.00  0.00     0.006 C 
ATOM     18  C   UNL     1     124.094 114.831 109.045  1.00  0.00     0.008 C 
ATOM     19  C   UNL     1     124.201 113.795 111.338  1.00  0.00     0.012 C 
ATOM     20  C   UNL     1     127.005 115.144 109.892  1.00  0.00    -0.025 C 
ATOM     21  C   UNL     1     124.634 116.181 109.505  1.00  0.00     0.005 C 
ATOM     22  C   UNL     1     126.157 116.337 109.251  1.00  0.00     0.003 C 
ATOM     23  C   UNL     1     127.402 115.457 111.373  1.00  0.00     0.010 C 
ATOM     24  C   UNL     1     128.339 114.992 109.083  1.00  0.00     0.012 C 
ATOM     25  C   UNL     1     126.674 117.815 109.596  1.00  0.00    -0.006 C 
ATOM     26  C   UNL     1     127.967 116.861 111.607  1.00  0.00     0.033 C 
ATOM     27  C   UNL     1     127.021 117.959 111.112  1.00  0.00     0.120 C 
ATOM     28  C   UNL     1     125.612 118.899 109.239  1.00  0.00     0.014 C 
ATOM     29  C   UNL     1     127.916 118.198 108.731  1.00  0.00     0.014 C 
ENDROOT
BRANCH   1  30
ATOM     30  C   UNL     1     121.948 110.268 111.602  1.00  0.00     0.048 C 
ATOM     31  O   UNL     1     122.649 110.453 112.633  1.00  0.00    -0.550 OA
ATOM     32  O   UNL     1     120.572 110.435 111.707  1.00  0.00    -0.550 OA
ENDBRANCH   1  30
BRANCH  27  33
ATOM     33  O   UNL     1     125.856 117.925 111.902  1.00  0.00    -0.393 OA
ATOM     34  H   UNL     1     126.110 118.171 112.829  1.00  0.00     0.210 HD
ENDBRANCH  27  33
TORSDOF 2
ENDMDL
MODEL 7
REMARK VINA RESULT:    -4.882     11.801     14.100
REMARK INTER + INTRA:          -5.494
REMARK INTER:                  -5.184
REMARK INTRA:                  -0.310
REMARK UNBOUND:                -0.184
REMARK SMILES C[C@@H]1[C@H](C)CC[C@]2(C(=O)[O-])CC[C@]3(C)C(=CC[C@@H]4[C@]5(C)CC[C@H](O)C(C)(C)[C@@H]5CC[C@]43C)[C@H]12
REMARK SMILES IDX 7 1 6 2 11 3 33 4 5 5 12 6 15 7 2 8 3 9 13 10 16 11 1 12
REMARK SMILES IDX 4 13 14 14 31 15 17 16 18 17 30 18 32 19 19 20 29 21 28 22
REMARK SMILES IDX 21 23 20 24 25 25 22 26 23 27 26 28 27 29 8 30 9 31 10 32
REMARK SMILES IDX 24 33
REMARK H PARENT 24 34
REMARK Flexibility Score: inf
ROOT
ATOM      1  C   UNL     1     127.775 102.725 117.818  1.00  0.00     0.017 C 
ATOM      2  C   UNL     1     129.252 102.282 117.552  1.00  0.00     0.014 C 
ATOM      3  C   UNL     1     127.528 104.033 117.037  1.00  0.00     0.014 C 
ATOM      4  C   UNL     1     127.518 102.916 119.369  1.00  0.00     0.030 C 
ATOM      5  C   UNL     1     129.733 101.270 118.588  1.00  0.00     0.004 C 
ATOM      6  C   UNL     1     126.130 104.610 117.285  1.00  0.00     0.013 C 
ATOM      7  C   UNL     1     126.396 103.908 119.744  1.00  0.00    -0.063 C 
ATOM      8  C   UNL     1     128.817 103.092 120.229  1.00  0.00    -0.003 C 
ATOM      9  C   UNL     1     129.795 101.881 120.011  1.00  0.00    -0.011 C 
ATOM     10  C   UNL     1     125.840 104.978 118.778  1.00  0.00    -0.006 C 
ATOM     11  C   UNL     1     125.877 103.798 120.995  1.00  0.00    -0.027 C 
ATOM     12  C   UNL     1     129.454 104.491 120.100  1.00  0.00     0.008 C 
ATOM     13  C   UNL     1     131.248 102.164 120.427  1.00  0.00     0.008 C 
ATOM     14  C   UNL     1     126.638 106.295 119.069  1.00  0.00     0.017 C 
ATOM     15  C   UNL     1     124.250 105.138 119.039  1.00  0.00    -0.020 C 
ATOM     16  C   UNL     1     124.599 104.449 121.472  1.00  0.00     0.032 C 
ATOM     17  C   UNL     1     124.033 105.557 120.542  1.00  0.00     0.006 C 
ATOM     18  C   UNL     1     123.629 106.226 118.135  1.00  0.00     0.008 C 
ATOM     19  C   UNL     1     123.531 103.779 118.721  1.00  0.00     0.012 C 
ATOM     20  C   UNL     1     122.614 106.166 121.008  1.00  0.00    -0.025 C 
ATOM     21  C   UNL     1     122.159 106.478 118.450  1.00  0.00     0.005 C 
ATOM     22  C   UNL     1     121.941 107.064 119.871  1.00  0.00     0.003 C 
ATOM     23  C   UNL     1     121.636 105.054 121.512  1.00  0.00     0.010 C 
ATOM     24  C   UNL     1     122.939 107.082 122.238  1.00  0.00     0.012 C 
ATOM     25  C   UNL     1     120.410 107.466 120.125  1.00  0.00    -0.006 C 
ATOM     26  C   UNL     1     120.214 105.535 121.814  1.00  0.00     0.033 C 
ATOM     27  C   UNL     1     119.572 106.244 120.617  1.00  0.00     0.120 C 
ATOM     28  C   UNL     1     119.735 108.025 118.835  1.00  0.00     0.014 C 
ATOM     29  C   UNL     1     120.294 108.635 121.154  1.00  0.00     0.014 C 
ENDROOT
BRANCH   1  30
ATOM     30  C   UNL     1     126.834 101.652 117.254  1.00  0.00     0.048 C 
ATOM     31  O   UNL     1     126.127 100.949 118.025  1.00  0.00    -0.550 OA
ATOM     32  O   UNL     1     126.814 101.359 115.895  1.00  0.00    -0.550 OA
ENDBRANCH   1  30
BRANCH  27  33
ATOM     33  O   UNL     1     119.401 105.301 119.586  1.00  0.00    -0.393 OA
ATOM     34  H   UNL     1     118.862 105.727 118.871  1.00  0.00     0.210 HD
ENDBRANCH  27  33
TORSDOF 2
ENDMDL
MODEL 8
REMARK VINA RESULT:    -4.834      3.701      6.303
REMARK INTER + INTRA:          -5.442
REMARK INTER:                  -5.132
REMARK INTRA:                  -0.309
REMARK UNBOUND:                -0.184
REMARK SMILES C[C@@H]1[C@H](C)CC[C@]2(C(=O)[O-])CC[C@]3(C)C(=CC[C@@H]4[C@]5(C)CC[C@H](O)C(C)(C)[C@@H]5CC[C@]43C)[C@H]12
REMARK SMILES IDX 7 1 6 2 11 3 33 4 5 5 12 6 15 7 2 8 3 9 13 10 16 11 1 12
REMARK SMILES IDX 4 13 14 14 31 15 17 16 18 17 30 18 32 19 19 20 29 21 28 22
REMARK SMILES IDX 21 23 20 24 25 25 22 26 23 27 26 28 27 29 8 30 9 31 10 32
REMARK SMILES IDX 24 33
REMARK H PARENT 24 34
REMARK Flexibility Score: inf
ROOT
ATOM      1  C   UNL     1     125.135 111.077 109.707  1.00  0.00     0.017 C 
ATOM      2  C   UNL     1     126.546 110.431 109.514  1.00  0.00     0.014 C 
ATOM      3  C   UNL     1     124.624 111.517 108.319  1.00  0.00     0.014 C 
ATOM      4  C   UNL     1     125.209 112.297 110.714  1.00  0.00     0.030 C 
ATOM      5  C   UNL     1     127.318 110.357 110.829  1.00  0.00     0.004 C 
ATOM      6  C   UNL     1     123.275 112.238 108.391  1.00  0.00     0.013 C 
ATOM      7  C   UNL     1     124.124 113.381 110.532  1.00  0.00    -0.063 C 
ATOM      8  C   UNL     1     126.647 112.886 110.921  1.00  0.00    -0.003 C 
ATOM      9  C   UNL     1     127.643 111.765 111.392  1.00  0.00    -0.011 C 
ATOM     10  C   UNL     1     123.291 113.552 109.243  1.00  0.00    -0.006 C 
ATOM     11  C   UNL     1     123.901 114.204 111.590  1.00  0.00    -0.027 C 
ATOM     12  C   UNL     1     127.132 113.751 109.739  1.00  0.00     0.008 C 
ATOM     13  C   UNL     1     129.126 112.114 111.183  1.00  0.00     0.008 C 
ATOM     14  C   UNL     1     124.030 114.628 108.377  1.00  0.00     0.017 C 
ATOM     15  C   UNL     1     121.789 113.999 109.650  1.00  0.00    -0.020 C 
ATOM     16  C   UNL     1     122.712 115.125 111.747  1.00  0.00     0.032 C 
ATOM     17  C   UNL     1     121.874 115.349 110.457  1.00  0.00     0.006 C 
ATOM     18  C   UNL     1     120.905 114.232 108.404  1.00  0.00     0.008 C 
ATOM     19  C   UNL     1     121.122 112.866 110.509  1.00  0.00     0.012 C 
ATOM     20  C   UNL     1     120.549 116.246 110.665  1.00  0.00    -0.025 C 
ATOM     21  C   UNL     1     119.524 114.772 108.761  1.00  0.00     0.005 C 
ATOM     22  C   UNL     1     119.578 116.187 109.398  1.00  0.00     0.003 C 
ATOM     23  C   UNL     1     119.793 115.877 111.983  1.00  0.00     0.010 C 
ATOM     24  C   UNL     1     121.064 117.717 110.828  1.00  0.00     0.012 C 
ATOM     25  C   UNL     1     118.114 116.799 109.622  1.00  0.00    -0.006 C 
ATOM     26  C   UNL     1     118.438 116.569 112.164  1.00  0.00     0.033 C 
ATOM     27  C   UNL     1     117.499 116.329 110.978  1.00  0.00     0.120 C 
ATOM     28  C   UNL     1     117.133 116.390 108.480  1.00  0.00     0.014 C 
ATOM     29  C   UNL     1     118.137 118.359 109.564  1.00  0.00     0.014 C 
ENDROOT
BRANCH   1  30
ATOM     30  C   UNL     1     124.177 110.005 110.246  1.00  0.00     0.048 C 
ATOM     31  O   UNL     1     123.722 110.081 111.419  1.00  0.00    -0.550 OA
ATOM     32  O   UNL     1     123.870 108.876 109.496  1.00  0.00    -0.550 OA
ENDBRANCH   1  30
BRANCH  27  33
ATOM     33  O   UNL     1     117.179 114.959 110.940  1.00  0.00    -0.393 OA
ATOM     34  H   UNL     1     117.926 114.485 110.490  1.00  0.00     0.210 HD
ENDBRANCH  27  33
TORSDOF 2
ENDMDL
MODEL 9
REMARK VINA RESULT:    -4.792      2.365      8.280
REMARK INTER + INTRA:          -5.396
REMARK INTER:                  -5.087
REMARK INTRA:                  -0.309
REMARK UNBOUND:                -0.184
REMARK SMILES C[C@@H]1[C@H](C)CC[C@]2(C(=O)[O-])CC[C@]3(C)C(=CC[C@@H]4[C@]5(C)CC[C@H](O)C(C)(C)[C@@H]5CC[C@]43C)[C@H]12
REMARK SMILES IDX 7 1 6 2 11 3 33 4 5 5 12 6 15 7 2 8 3 9 13 10 16 11 1 12
REMARK SMILES IDX 4 13 14 14 31 15 17 16 18 17 30 18 32 19 19 20 29 21 28 22
REMARK SMILES IDX 21 23 20 24 25 25 22 26 23 27 26 28 27 29 8 30 9 31 10 32
REMARK SMILES IDX 24 33
REMARK H PARENT 24 34
REMARK Flexibility Score: inf
ROOT
ATOM      1  C   UNL     1     124.244 115.187 111.227  1.00  0.00     0.017 C 
ATOM      2  C   UNL     1     124.719 116.666 111.411  1.00  0.00     0.014 C 
ATOM      3  C   UNL     1     124.962 114.326 112.286  1.00  0.00     0.014 C 
ATOM      4  C   UNL     1     124.550 114.678 109.758  1.00  0.00     0.030 C 
ATOM      5  C   UNL     1     124.421 117.512 110.176  1.00  0.00     0.004 C 
ATOM      6  C   UNL     1     124.634 112.836 112.153  1.00  0.00     0.013 C 
ATOM      7  C   UNL     1     124.736 113.153 109.604  1.00  0.00    -0.063 C 
ATOM      8  C   UNL     1     125.629 115.517 108.988  1.00  0.00    -0.003 C 
ATOM      9  C   UNL     1     125.219 117.033 108.936  1.00  0.00    -0.011 C 
ATOM     10  C   UNL     1     125.048 112.204 110.782  1.00  0.00    -0.006 C 
ATOM     11  C   UNL     1     124.593 112.644 108.352  1.00  0.00    -0.027 C 
ATOM     12  C   UNL     1     127.073 115.235 109.455  1.00  0.00     0.008 C 
ATOM     13  C   UNL     1     126.383 117.988 108.627  1.00  0.00     0.008 C 
ATOM     14  C   UNL     1     126.607 112.048 110.823  1.00  0.00     0.017 C 
ATOM     15  C   UNL     1     124.284 110.798 110.535  1.00  0.00    -0.020 C 
ATOM     16  C   UNL     1     124.439 111.179 108.015  1.00  0.00     0.032 C 
ATOM     17  C   UNL     1     124.783 110.195 109.168  1.00  0.00     0.006 C 
ATOM     18  C   UNL     1     124.585 109.779 111.656  1.00  0.00     0.008 C 
ATOM     19  C   UNL     1     122.734 111.045 110.512  1.00  0.00     0.012 C 
ATOM     20  C   UNL     1     124.512 108.642 108.829  1.00  0.00    -0.025 C 
ATOM     21  C   UNL     1     123.975 108.409 111.379  1.00  0.00     0.005 C 
ATOM     22  C   UNL     1     124.587 107.719 110.131  1.00  0.00     0.003 C 
ATOM     23  C   UNL     1     123.166 108.436 108.060  1.00  0.00     0.010 C 
ATOM     24  C   UNL     1     125.666 108.221 107.854  1.00  0.00     0.012 C 
ATOM     25  C   UNL     1     124.046 106.222 109.948  1.00  0.00    -0.006 C 
ATOM     26  C   UNL     1     122.759 106.975 107.851  1.00  0.00     0.033 C 
ATOM     27  C   UNL     1     122.694 106.194 109.167  1.00  0.00     0.120 C 
ATOM     28  C   UNL     1     123.824 105.513 111.320  1.00  0.00     0.014 C 
ATOM     29  C   UNL     1     125.095 105.324 109.219  1.00  0.00     0.014 C 
ENDROOT
BRANCH   1  30
ATOM     30  C   UNL     1     122.736 115.120 111.505  1.00  0.00     0.048 C 
ATOM     31  O   UNL     1     121.922 114.861 110.578  1.00  0.00    -0.550 OA
ATOM     32  O   UNL     1     122.223 115.442 112.756  1.00  0.00    -0.550 OA
ENDBRANCH   1  30
BRANCH  27  33
ATOM     33  O   UNL     1     121.650 106.730 109.945  1.00  0.00    -0.393 OA
ATOM     34  H   UNL     1     121.177 105.975 110.381  1.00  0.00     0.210 HD
ENDBRANCH  27  33
TORSDOF 2
ENDMDL
