MODEL 1
REMARK VINA RESULT:    -4.214      0.000      0.000
REMARK INTER + INTRA:          -6.246
REMARK INTER:                  -5.692
REMARK INTRA:                  -0.554
REMARK UNBOUND:                -0.554
REMARK SMILES CCCCCCCC(=O)[O-]
REMARK SMILES IDX 5 1 6 2 7 3 8 4 9 5 10 6 4 7 3 8 2 9 1 10
REMARK H PARENT
REMARK Flexibility Score: inf
ROOT
ATOM      1  C   UNL     1      16.702  42.941   5.704  1.00  0.00     0.000 C 
ENDROOT
BRANCH   1   2
ATOM      2  C   UNL     1      17.665  43.858   6.480  1.00  0.00     0.006 C 
BRANCH   2   3
ATOM      3  C   UNL     1      16.945  45.067   7.093  1.00  0.00     0.053 C 
BRANCH   3   4
ATOM      4  C   UNL     1      15.970  44.653   8.153  1.00  0.00     0.041 C 
ATOM      5  O   UNL     1      14.761  44.992   8.068  1.00  0.00    -0.550 OA
ATOM      6  O   UNL     1      16.405  43.923   9.252  1.00  0.00    -0.550 OA
ENDBRANCH   3   4
ENDBRANCH   2   3
ENDBRANCH   1   2
BRANCH   1   7
ATOM      7  C   UNL     1      16.661  43.256   4.197  1.00  0.00     0.000 C 
BRANCH   7   8
ATOM      8  C   UNL     1      15.292  43.721   3.669  1.00  0.00    -0.000 C 
BRANCH   8   9
ATOM      9  C   UNL     1      15.117  45.245   3.718  1.00  0.00    -0.003 C 
ATOM     10  C   UNL     1      13.988  45.638   4.666  1.00  0.00     0.004 C 
ENDBRANCH   8   9
ENDBRANCH   7   8
ENDBRANCH   1   7
TORSDOF 6
ENDMDL
MODEL 2
REMARK VINA RESULT:    -4.203      1.779      3.636
REMARK INTER + INTRA:          -6.232
REMARK INTER:                  -5.644
REMARK INTRA:                  -0.588
REMARK UNBOUND:                -0.554
REMARK SMILES CCCCCCCC(=O)[O-]
REMARK SMILES IDX 5 1 6 2 7 3 8 4 9 5 10 6 4 7 3 8 2 9 1 10
REMARK H PARENT
REMARK Flexibility Score: inf
ROOT
ATOM      1  C   UNL     1      16.681  43.438   4.178  1.00  0.00     0.000 C 
ENDROOT
BRANCH   1   2
ATOM      2  C   UNL     1      15.265  43.724   3.646  1.00  0.00     0.006 C 
BRANCH   2   3
ATOM      3  C   UNL     1      14.917  45.218   3.699  1.00  0.00     0.053 C 
BRANCH   3   4
ATOM      4  C   UNL     1      14.109  45.555   4.915  1.00  0.00     0.041 C 
ATOM      5  O   UNL     1      13.470  44.655   5.520  1.00  0.00    -0.550 OA
ATOM      6  O   UNL     1      14.034  46.869   5.358  1.00  0.00    -0.550 OA
ENDBRANCH   3   4
ENDBRANCH   2   3
ENDBRANCH   1   2
BRANCH   1   7
ATOM      7  C   UNL     1      16.685  42.964   5.643  1.00  0.00     0.000 C 
BRANCH   7   8
ATOM      8  C   UNL     1      17.669  43.706   6.563  1.00  0.00    -0.000 C 
BRANCH   8   9
ATOM      9  C   UNL     1      17.134  45.063   7.043  1.00  0.00    -0.003 C 
ATOM     10  C   UNL     1      16.020  44.883   8.069  1.00  0.00     0.004 C 
ENDBRANCH   8   9
ENDBRANCH   7   8
ENDBRANCH   1   7
TORSDOF 6
ENDMDL
MODEL 3
REMARK VINA RESULT:    -4.182      0.964      1.552
REMARK INTER + INTRA:          -6.203
REMARK INTER:                  -5.752
REMARK INTRA:                  -0.451
REMARK UNBOUND:                -0.554
REMARK SMILES CCCCCCCC(=O)[O-]
REMARK SMILES IDX 5 1 6 2 7 3 8 4 9 5 10 6 4 7 3 8 2 9 1 10
REMARK H PARENT
REMARK Flexibility Score: inf
ROOT
ATOM      1  C   UNL     1      16.654  43.339   4.162  1.00  0.00     0.000 C 
ENDROOT
BRANCH   1   2
ATOM      2  C   UNL     1      16.611  43.007   5.665  1.00  0.00     0.006 C 
BRANCH   2   3
ATOM      3  C   UNL     1      17.527  43.923   6.487  1.00  0.00     0.053 C 
BRANCH   3   4
ATOM      4  C   UNL     1      16.743  44.850   7.364  1.00  0.00     0.041 C 
ATOM      5  O   UNL     1      15.840  45.577   6.871  1.00  0.00    -0.550 OA
ATOM      6  O   UNL     1      17.032  44.938   8.720  1.00  0.00    -0.550 OA
ENDBRANCH   3   4
ENDBRANCH   2   3
ENDBRANCH   1   2
BRANCH   1   7
ATOM      7  C   UNL     1      15.265  43.659   3.580  1.00  0.00     0.000 C 
BRANCH   7   8
ATOM      8  C   UNL     1      14.902  45.154   3.551  1.00  0.00    -0.000 C 
BRANCH   8   9
ATOM      9  C   UNL     1      13.458  45.429   3.994  1.00  0.00    -0.003 C 
ATOM     10  C   UNL     1      12.805  44.168   4.552  1.00  0.00     0.004 C 
ENDBRANCH   8   9
ENDBRANCH   7   8
ENDBRANCH   1   7
TORSDOF 6
ENDMDL
MODEL 4
REMARK VINA RESULT:    -4.070      1.453      2.073
REMARK INTER + INTRA:          -6.052
REMARK INTER:                  -5.438
REMARK INTRA:                  -0.614
REMARK UNBOUND:                -0.554
REMARK SMILES CCCCCCCC(=O)[O-]
REMARK SMILES IDX 5 1 6 2 7 3 8 4 9 5 10 6 4 7 3 8 2 9 1 10
REMARK H PARENT
REMARK Flexibility Score: inf
ROOT
ATOM      1  C   UNL     1      16.757  43.267   4.253  1.00  0.00     0.000 C 
ENDROOT
BRANCH   1   2
ATOM      2  C   UNL     1      16.836  43.664   5.737  1.00  0.00     0.006 C 
BRANCH   2   3
ATOM      3  C   UNL     1      16.304  42.560   6.661  1.00  0.00     0.053 C 
BRANCH   3   4
ATOM      4  C   UNL     1      14.919  42.862   7.145  1.00  0.00     0.041 C 
ATOM      5  O   UNL     1      14.748  43.465   8.237  1.00  0.00    -0.550 OA
ATOM      6  O   UNL     1      13.818  42.446   6.409  1.00  0.00    -0.550 OA
ENDBRANCH   3   4
ENDBRANCH   2   3
ENDBRANCH   1   2
BRANCH   1   7
ATOM      7  C   UNL     1      15.439  43.703   3.586  1.00  0.00     0.000 C 
BRANCH   7   8
ATOM      8  C   UNL     1      15.140  45.210   3.664  1.00  0.00    -0.000 C 
BRANCH   8   9
ATOM      9  C   UNL     1      13.819  45.523   4.381  1.00  0.00    -0.003 C 
ATOM     10  C   UNL     1      14.070  46.219   5.716  1.00  0.00     0.004 C 
ENDBRANCH   8   9
ENDBRANCH   7   8
ENDBRANCH   1   7
TORSDOF 6
ENDMDL
MODEL 5
REMARK VINA RESULT:    -4.055      1.648      3.838
REMARK INTER + INTRA:          -6.032
REMARK INTER:                  -5.707
REMARK INTRA:                  -0.324
REMARK UNBOUND:                -0.554
REMARK SMILES CCCCCCCC(=O)[O-]
REMARK SMILES IDX 5 1 6 2 7 3 8 4 9 5 10 6 4 7 3 8 2 9 1 10
REMARK H PARENT
REMARK Flexibility Score: inf
ROOT
ATOM      1  C   UNL     1      15.271  43.738   3.697  1.00  0.00     0.000 C 
ENDROOT
BRANCH   1   2
ATOM      2  C   UNL     1      15.032  45.258   3.655  1.00  0.00     0.006 C 
BRANCH   2   3
ATOM      3  C   UNL     1      13.679  45.649   4.263  1.00  0.00     0.053 C 
BRANCH   3   4
ATOM      4  C   UNL     1      13.835  46.241   5.631  1.00  0.00     0.041 C 
ATOM      5  O   UNL     1      14.858  45.985   6.318  1.00  0.00    -0.550 OA
ATOM      6  O   UNL     1      12.835  47.047   6.159  1.00  0.00    -0.550 OA
ENDBRANCH   3   4
ENDBRANCH   2   3
ENDBRANCH   1   2
BRANCH   1   7
ATOM      7  C   UNL     1      16.626  43.362   4.323  1.00  0.00     0.000 C 
BRANCH   7   8
ATOM      8  C   UNL     1      16.561  42.926   5.797  1.00  0.00    -0.000 C 
BRANCH   8   9
ATOM      9  C   UNL     1      17.579  43.658   6.684  1.00  0.00    -0.003 C 
ATOM     10  C   UNL     1      17.554  43.118   8.110  1.00  0.00     0.004 C 
ENDBRANCH   8   9
ENDBRANCH   7   8
ENDBRANCH   1   7
TORSDOF 6
ENDMDL
MODEL 6
REMARK VINA RESULT:    -4.046      1.858      2.629
REMARK INTER + INTRA:          -6.019
REMARK INTER:                  -5.621
REMARK INTRA:                  -0.398
REMARK UNBOUND:                -0.554
REMARK SMILES CCCCCCCC(=O)[O-]
REMARK SMILES IDX 5 1 6 2 7 3 8 4 9 5 10 6 4 7 3 8 2 9 1 10
REMARK H PARENT
REMARK Flexibility Score: inf
ROOT
ATOM      1  C   UNL     1      15.599  43.507   3.577  1.00  0.00     0.000 C 
ENDROOT
BRANCH   1   2
ATOM      2  C   UNL     1      16.797  43.489   4.543  1.00  0.00     0.006 C 
BRANCH   2   3
ATOM      3  C   UNL     1      16.410  42.978   5.937  1.00  0.00     0.053 C 
BRANCH   3   4
ATOM      4  C   UNL     1      17.174  43.681   7.017  1.00  0.00     0.041 C 
ATOM      5  O   UNL     1      17.316  44.932   6.981  1.00  0.00    -0.550 OA
ATOM      6  O   UNL     1      17.759  42.952   8.044  1.00  0.00    -0.550 OA
ENDBRANCH   3   4
ENDBRANCH   2   3
ENDBRANCH   1   2
BRANCH   1   7
ATOM      7  C   UNL     1      14.682  44.726   3.785  1.00  0.00     0.000 C 
BRANCH   7   8
ATOM      8  C   UNL     1      13.199  44.390   4.023  1.00  0.00    -0.000 C 
BRANCH   8   9
ATOM      9  C   UNL     1      12.817  42.986   3.534  1.00  0.00    -0.003 C 
ATOM     10  C   UNL     1      12.305  42.123   4.683  1.00  0.00     0.004 C 
ENDBRANCH   8   9
ENDBRANCH   7   8
ENDBRANCH   1   7
TORSDOF 6
ENDMDL
MODEL 7
REMARK VINA RESULT:    -4.037      1.233      3.160
REMARK INTER + INTRA:          -6.007
REMARK INTER:                  -5.409
REMARK INTRA:                  -0.597
REMARK UNBOUND:                -0.554
REMARK SMILES CCCCCCCC(=O)[O-]
REMARK SMILES IDX 5 1 6 2 7 3 8 4 9 5 10 6 4 7 3 8 2 9 1 10
REMARK H PARENT
REMARK Flexibility Score: inf
ROOT
ATOM      1  C   UNL     1      15.093  45.249   3.619  1.00  0.00     0.000 C 
ENDROOT
BRANCH   1   2
ATOM      2  C   UNL     1      13.803  45.678   4.342  1.00  0.00     0.006 C 
BRANCH   2   3
ATOM      3  C   UNL     1      14.080  46.207   5.755  1.00  0.00     0.053 C 
BRANCH   3   4
ATOM      4  C   UNL     1      13.945  45.129   6.787  1.00  0.00     0.041 C 
ATOM      5  O   UNL     1      13.214  44.129   6.565  1.00  0.00    -0.550 OA
ATOM      6  O   UNL     1      14.599  45.247   8.007  1.00  0.00    -0.550 OA
ENDBRANCH   3   4
ENDBRANCH   2   3
ENDBRANCH   1   2
BRANCH   1   7
ATOM      7  C   UNL     1      15.310  43.725   3.636  1.00  0.00     0.000 C 
BRANCH   7   8
ATOM      8  C   UNL     1      16.687  43.271   4.150  1.00  0.00    -0.000 C 
BRANCH   8   9
ATOM      9  C   UNL     1      16.685  42.931   5.647  1.00  0.00    -0.003 C 
ATOM     10  C   UNL     1      17.580  43.888   6.430  1.00  0.00     0.004 C 
ENDBRANCH   8   9
ENDBRANCH   7   8
ENDBRANCH   1   7
TORSDOF 6
ENDMDL
MODEL 8
REMARK VINA RESULT:    -3.840      1.579      2.908
REMARK INTER + INTRA:          -5.741
REMARK INTER:                  -5.154
REMARK INTRA:                  -0.587
REMARK UNBOUND:                -0.554
REMARK SMILES CCCCCCCC(=O)[O-]
REMARK SMILES IDX 5 1 6 2 7 3 8 4 9 5 10 6 4 7 3 8 2 9 1 10
REMARK H PARENT
REMARK Flexibility Score: inf
ROOT
ATOM      1  C   UNL     1      13.976  46.252   5.819  1.00  0.00     0.000 C 
ENDROOT
BRANCH   1   2
ATOM      2  C   UNL     1      13.806  45.265   6.987  1.00  0.00     0.006 C 
BRANCH   2   3
ATOM      3  C   UNL     1      15.154  44.822   7.572  1.00  0.00     0.053 C 
BRANCH   3   4
ATOM      4  C   UNL     1      15.403  43.362   7.347  1.00  0.00     0.041 C 
ATOM      5  O   UNL     1      14.469  42.613   6.960  1.00  0.00    -0.550 OA
ATOM      6  O   UNL     1      16.658  42.823   7.599  1.00  0.00    -0.550 OA
ENDBRANCH   3   4
ENDBRANCH   2   3
ENDBRANCH   1   2
BRANCH   1   7
ATOM      7  C   UNL     1      13.759  45.595   4.443  1.00  0.00     0.000 C 
BRANCH   7   8
ATOM      8  C   UNL     1      15.049  45.204   3.701  1.00  0.00    -0.000 C 
BRANCH   8   9
ATOM      9  C   UNL     1      15.256  43.685   3.619  1.00  0.00    -0.003 C 
ATOM     10  C   UNL     1      16.691  43.306   3.971  1.00  0.00     0.004 C 
ENDBRANCH   8   9
ENDBRANCH   7   8
ENDBRANCH   1   7
TORSDOF 6
ENDMDL
MODEL 9
REMARK VINA RESULT:    -3.822      1.913      2.829
REMARK INTER + INTRA:          -5.717
REMARK INTER:                  -5.218
REMARK INTRA:                  -0.499
REMARK UNBOUND:                -0.554
REMARK SMILES CCCCCCCC(=O)[O-]
REMARK SMILES IDX 5 1 6 2 7 3 8 4 9 5 10 6 4 7 3 8 2 9 1 10
REMARK H PARENT
REMARK Flexibility Score: inf
ROOT
ATOM      1  C   UNL     1      13.904  45.680   4.437  1.00  0.00     0.000 C 
ENDROOT
BRANCH   1   2
ATOM      2  C   UNL     1      14.440  45.991   5.846  1.00  0.00     0.006 C 
BRANCH   2   3
ATOM      3  C   UNL     1      14.475  44.743   6.739  1.00  0.00     0.053 C 
BRANCH   3   4
ATOM      4  C   UNL     1      15.865  44.431   7.201  1.00  0.00     0.041 C 
ATOM      5  O   UNL     1      16.509  45.271   7.883  1.00  0.00    -0.550 OA
ATOM      6  O   UNL     1      16.463  43.228   6.848  1.00  0.00    -0.550 OA
ENDBRANCH   3   4
ENDBRANCH   2   3
ENDBRANCH   1   2
BRANCH   1   7
ATOM      7  C   UNL     1      14.819  44.730   3.644  1.00  0.00     0.000 C 
BRANCH   7   8
ATOM      8  C   UNL     1      14.197  43.365   3.300  1.00  0.00    -0.000 C 
BRANCH   8   9
ATOM      9  C   UNL     1      12.702  43.286   3.641  1.00  0.00    -0.003 C 
ATOM     10  C   UNL     1      12.438  42.233   4.714  1.00  0.00     0.004 C 
ENDBRANCH   8   9
ENDBRANCH   7   8
ENDBRANCH   1   7
TORSDOF 6
ENDMDL
