MODEL 1
REMARK VINA RESULT:    -4.736      0.000      0.000
REMARK INTER + INTRA:          -5.941
REMARK INTER:                  -5.704
REMARK INTRA:                  -0.236
REMARK UNBOUND:                -0.236
REMARK SMILES O=c1c(O)c(-c2ccc(O)c(O)c2)oc2cc(O)cc(O)c12
REMARK SMILES IDX 5 1 3 2 2 3 1 4 22 5 20 6 19 7 17 8 16 9 15 10 14 11 6 12
REMARK SMILES IDX 7 13 8 14 9 15 13 16 11 17 10 18 12 20 4 22 21 24 18 26
REMARK H PARENT 10 19 12 21 4 23 21 25 18 27
REMARK Flexibility Score: inf
ROOT
ATOM      1  C   UNL     1      58.963  22.085  22.525  1.00  0.00     0.180 A 
ATOM      2  C   UNL     1      59.890  22.003  23.577  1.00  0.00     0.208 A 
ATOM      3  C   UNL     1      61.262  22.060  23.282  1.00  0.00     0.238 A 
ATOM      4  O   UNL     1      62.089  21.931  24.222  1.00  0.00    -0.285 OA
ATOM      5  C   UNL     1      61.688  22.213  21.941  1.00  0.00     0.111 A 
ATOM      6  C   UNL     1      63.051  22.322  21.530  1.00  0.00     0.134 A 
ATOM      7  C   UNL     1      63.361  22.338  20.165  1.00  0.00     0.093 A 
ATOM      8  C   UNL     1      62.355  22.317  19.197  1.00  0.00     0.123 A 
ATOM      9  C   UNL     1      61.020  22.270  19.588  1.00  0.00     0.094 A 
ATOM     10  C   UNL     1      60.679  22.215  20.942  1.00  0.00     0.146 A 
ATOM     11  O   UNL     1      59.395  22.162  21.273  1.00  0.00    -0.452 OA
ENDROOT
BRANCH   1  12
ATOM     12  C   UNL     1      57.501  22.058  22.760  1.00  0.00     0.025 A 
ATOM     13  C   UNL     1      56.842  20.875  23.141  1.00  0.00     0.016 A 
ATOM     14  C   UNL     1      55.466  20.878  23.380  1.00  0.00     0.051 A 
ATOM     15  C   UNL     1      54.730  22.064  23.257  1.00  0.00     0.157 A 
ATOM     16  C   UNL     1      56.761  23.248  22.658  1.00  0.00     0.062 A 
ATOM     17  C   UNL     1      55.380  23.252  22.899  1.00  0.00     0.158 A 
BRANCH  15  18
ATOM     18  O   UNL     1      53.357  22.072  23.494  1.00  0.00    -0.504 OA
ATOM     19  H   UNL     1      52.699  22.371  22.784  1.00  0.00     0.293 HD
ENDBRANCH  15  18
BRANCH  17  20
ATOM     20  O   UNL     1      54.647  24.432  22.784  1.00  0.00    -0.504 OA
ATOM     21  H   UNL     1      53.634  24.435  22.833  1.00  0.00     0.293 HD
ENDBRANCH  17  20
ENDBRANCH   1  12
BRANCH   2  22
ATOM     22  O   UNL     1      59.449  21.830  24.893  1.00  0.00    -0.502 OA
ATOM     23  H   UNL     1      58.601  22.258  25.243  1.00  0.00     0.293 HD
ENDBRANCH   2  22
BRANCH   6  24
ATOM     24  O   UNL     1      64.125  22.444  22.417  1.00  0.00    -0.507 OA
ATOM     25  H   UNL     1      64.858  23.133  22.342  1.00  0.00     0.293 HD
ENDBRANCH   6  24
BRANCH   8  26
ATOM     26  O   UNL     1      62.672  22.350  17.841  1.00  0.00    -0.508 OA
ATOM     27  H   UNL     1      63.603  22.594  17.520  1.00  0.00     0.293 HD
ENDBRANCH   8  26
TORSDOF 6
ENDMDL
MODEL 2
REMARK VINA RESULT:    -3.463      1.849      2.904
REMARK INTER + INTRA:          -4.408
REMARK INTER:                  -4.253
REMARK INTRA:                  -0.154
REMARK UNBOUND:                -0.236
REMARK SMILES O=c1c(O)c(-c2ccc(O)c(O)c2)oc2cc(O)cc(O)c12
REMARK SMILES IDX 5 1 3 2 2 3 1 4 22 5 20 6 19 7 17 8 16 9 15 10 14 11 6 12
REMARK SMILES IDX 7 13 8 14 9 15 13 16 11 17 10 18 12 20 4 22 21 24 18 26
REMARK H PARENT 10 19 12 21 4 23 21 25 18 27
REMARK Flexibility Score: inf
ROOT
ATOM      1  C   UNL     1      59.128  22.655  22.451  1.00  0.00     0.180 A 
ATOM      2  C   UNL     1      59.829  21.950  21.458  1.00  0.00     0.208 A 
ATOM      3  C   UNL     1      61.184  22.248  21.239  1.00  0.00     0.238 A 
ATOM      4  O   UNL     1      61.791  21.652  20.312  1.00  0.00    -0.285 OA
ATOM      5  C   UNL     1      61.824  23.236  22.025  1.00  0.00     0.111 A 
ATOM      6  C   UNL     1      63.202  23.592  21.916  1.00  0.00     0.134 A 
ATOM      7  C   UNL     1      63.696  24.674  22.654  1.00  0.00     0.093 A 
ATOM      8  C   UNL     1      62.878  25.371  23.546  1.00  0.00     0.123 A 
ATOM      9  C   UNL     1      61.547  24.994  23.703  1.00  0.00     0.094 A 
ATOM     10  C   UNL     1      61.014  23.942  22.954  1.00  0.00     0.146 A 
ATOM     11  O   UNL     1      59.738  23.621  23.126  1.00  0.00    -0.452 OA
ENDROOT
BRANCH   1  12
ATOM     12  C   UNL     1      57.706  22.379  22.758  1.00  0.00     0.025 A 
ATOM     13  C   UNL     1      57.285  21.116  23.210  1.00  0.00     0.016 A 
ATOM     14  C   UNL     1      55.942  20.885  23.516  1.00  0.00     0.051 A 
ATOM     15  C   UNL     1      55.002  21.916  23.388  1.00  0.00     0.157 A 
ATOM     16  C   UNL     1      56.762  23.415  22.652  1.00  0.00     0.062 A 
ATOM     17  C   UNL     1      55.413  23.185  22.959  1.00  0.00     0.158 A 
BRANCH  15  18
ATOM     18  O   UNL     1      53.660  21.691  23.692  1.00  0.00    -0.504 OA
ATOM     19  H   UNL     1      52.928  21.858  23.011  1.00  0.00     0.293 HD
ENDBRANCH  15  18
BRANCH  17  20
ATOM     20  O   UNL     1      54.477  24.210  22.840  1.00  0.00    -0.504 OA
ATOM     21  H   UNL     1      54.028  24.615  23.653  1.00  0.00     0.293 HD
ENDBRANCH  17  20
ENDBRANCH   1  12
BRANCH   2  22
ATOM     22  O   UNL     1      59.172  20.993  20.678  1.00  0.00    -0.502 OA
ATOM     23  H   UNL     1      59.135  20.015  20.935  1.00  0.00     0.293 HD
ENDBRANCH   2  22
BRANCH   6  24
ATOM     24  O   UNL     1      64.125  22.901  21.125  1.00  0.00    -0.507 OA
ATOM     25  H   UNL     1      65.038  22.604  21.433  1.00  0.00     0.293 HD
ENDBRANCH   6  24
BRANCH   8  26
ATOM     26  O   UNL     1      63.382  26.437  24.288  1.00  0.00    -0.508 OA
ATOM     27  H   UNL     1      64.322  26.421  24.668  1.00  0.00     0.293 HD
ENDBRANCH   8  26
TORSDOF 6
ENDMDL
MODEL 3
REMARK VINA RESULT:    -3.300      1.616      1.952
REMARK INTER + INTRA:          -4.212
REMARK INTER:                  -3.979
REMARK INTRA:                  -0.233
REMARK UNBOUND:                -0.236
REMARK SMILES O=c1c(O)c(-c2ccc(O)c(O)c2)oc2cc(O)cc(O)c12
REMARK SMILES IDX 5 1 3 2 2 3 1 4 22 5 20 6 19 7 17 8 16 9 15 10 14 11 6 12
REMARK SMILES IDX 7 13 8 14 9 15 13 16 11 17 10 18 12 20 4 22 21 24 18 26
REMARK H PARENT 10 19 12 21 4 23 21 25 18 27
REMARK Flexibility Score: inf
ROOT
ATOM      1  C   UNL     1      59.066  22.853  23.621  1.00  0.00     0.180 A 
ATOM      2  C   UNL     1      59.558  23.376  24.829  1.00  0.00     0.208 A 
ATOM      3  C   UNL     1      60.921  23.700  24.927  1.00  0.00     0.238 A 
ATOM      4  O   UNL     1      61.366  24.117  26.027  1.00  0.00    -0.285 OA
ATOM      5  C   UNL     1      61.771  23.512  23.810  1.00  0.00     0.111 A 
ATOM      6  C   UNL     1      63.160  23.843  23.784  1.00  0.00     0.134 A 
ATOM      7  C   UNL     1      63.931  23.492  22.670  1.00  0.00     0.093 A 
ATOM      8  C   UNL     1      63.352  22.881  21.555  1.00  0.00     0.123 A 
ATOM      9  C   UNL     1      61.987  22.608  21.548  1.00  0.00     0.094 A 
ATOM     10  C   UNL     1      61.197  22.912  22.659  1.00  0.00     0.146 A 
ATOM     11  O   UNL     1      59.902  22.626  22.615  1.00  0.00    -0.452 OA
ENDROOT
BRANCH   1  12
ATOM     12  C   UNL     1      57.638  22.511  23.435  1.00  0.00     0.025 A 
ATOM     13  C   UNL     1      57.203  21.174  23.402  1.00  0.00     0.016 A 
ATOM     14  C   UNL     1      55.847  20.875  23.249  1.00  0.00     0.051 A 
ATOM     15  C   UNL     1      54.904  21.906  23.140  1.00  0.00     0.157 A 
ATOM     16  C   UNL     1      56.686  23.540  23.345  1.00  0.00     0.062 A 
ATOM     17  C   UNL     1      55.324  23.242  23.191  1.00  0.00     0.158 A 
BRANCH  15  18
ATOM     18  O   UNL     1      53.551  21.613  22.986  1.00  0.00    -0.504 OA
ATOM     19  H   UNL     1      52.831  22.217  23.365  1.00  0.00     0.293 HD
ENDBRANCH  15  18
BRANCH  17  20
ATOM     20  O   UNL     1      54.384  24.265  23.089  1.00  0.00    -0.504 OA
ATOM     21  H   UNL     1      53.718  24.300  22.326  1.00  0.00     0.293 HD
ENDBRANCH  17  20
ENDBRANCH   1  12
BRANCH   2  22
ATOM     22  O   UNL     1      58.705  23.534  25.927  1.00  0.00    -0.502 OA
ATOM     23  H   UNL     1      58.899  24.186  26.676  1.00  0.00     0.293 HD
ENDBRANCH   2  22
BRANCH   6  24
ATOM     24  O   UNL     1      63.816  24.535  24.806  1.00  0.00    -0.507 OA
ATOM     25  H   UNL     1      64.817  24.601  24.905  1.00  0.00     0.293 HD
ENDBRANCH   6  24
BRANCH   8  26
ATOM     26  O   UNL     1      64.125  22.550  20.445  1.00  0.00    -0.508 OA
ATOM     27  H   UNL     1      64.183  21.597  20.104  1.00  0.00     0.293 HD
ENDBRANCH   8  26
TORSDOF 6
ENDMDL
MODEL 4
REMARK VINA RESULT:    -2.183      1.538      6.580
REMARK INTER + INTRA:          -2.866
REMARK INTER:                  -2.644
REMARK INTRA:                  -0.221
REMARK UNBOUND:                -0.236
REMARK SMILES O=c1c(O)c(-c2ccc(O)c(O)c2)oc2cc(O)cc(O)c12
REMARK SMILES IDX 5 1 3 2 2 3 1 4 22 5 20 6 19 7 17 8 16 9 15 10 14 11 6 12
REMARK SMILES IDX 7 13 8 14 9 15 13 16 11 17 10 18 12 20 4 22 21 24 18 26
REMARK H PARENT 10 19 12 21 4 23 21 25 18 27
REMARK Flexibility Score: inf
ROOT
ATOM      1  C   UNL     1      60.323  22.558  22.013  1.00  0.00     0.180 A 
ATOM      2  C   UNL     1      60.684  23.276  23.165  1.00  0.00     0.208 A 
ATOM      3  C   UNL     1      59.696  23.581  24.115  1.00  0.00     0.238 A 
ATOM      4  O   UNL     1      60.014  24.270  25.118  1.00  0.00    -0.285 OA
ATOM      5  C   UNL     1      58.363  23.150  23.908  1.00  0.00     0.111 A 
ATOM      6  C   UNL     1      57.289  23.368  24.822  1.00  0.00     0.134 A 
ATOM      7  C   UNL     1      55.986  23.013  24.454  1.00  0.00     0.093 A 
ATOM      8  C   UNL     1      55.727  22.388  23.232  1.00  0.00     0.123 A 
ATOM      9  C   UNL     1      56.777  22.118  22.358  1.00  0.00     0.094 A 
ATOM     10  C   UNL     1      58.084  22.493  22.681  1.00  0.00     0.146 A 
ATOM     11  O   UNL     1      59.054  22.226  21.815  1.00  0.00    -0.452 OA
ENDROOT
BRANCH   1  12
ATOM     12  C   UNL     1      61.314  22.179  20.979  1.00  0.00     0.025 A 
ATOM     13  C   UNL     1      62.325  21.238  21.244  1.00  0.00     0.016 A 
ATOM     14  C   UNL     1      63.234  20.877  20.246  1.00  0.00     0.051 A 
ATOM     15  C   UNL     1      63.138  21.439  18.966  1.00  0.00     0.157 A 
ATOM     16  C   UNL     1      61.210  22.723  19.688  1.00  0.00     0.062 A 
ATOM     17  C   UNL     1      62.121  22.361  18.685  1.00  0.00     0.158 A 
BRANCH  15  18
ATOM     18  O   UNL     1      64.043  21.083  17.968  1.00  0.00    -0.504 OA
ATOM     19  H   UNL     1      63.854  21.271  16.991  1.00  0.00     0.293 HD
ENDBRANCH  15  18
BRANCH  17  20
ATOM     20  O   UNL     1      62.024  22.914  17.410  1.00  0.00    -0.504 OA
ATOM     21  H   UNL     1      62.758  22.794  16.722  1.00  0.00     0.293 HD
ENDBRANCH  17  20
ENDBRANCH   1  12
BRANCH   2  22
ATOM     22  O   UNL     1      62.002  23.711  23.340  1.00  0.00    -0.502 OA
ATOM     23  H   UNL     1      62.630  23.286  24.010  1.00  0.00     0.293 HD
ENDBRANCH   2  22
BRANCH   6  24
ATOM     24  O   UNL     1      57.453  23.899  26.105  1.00  0.00    -0.507 OA
ATOM     25  H   UNL     1      56.916  24.665  26.484  1.00  0.00     0.293 HD
ENDBRANCH   6  24
BRANCH   8  26
ATOM     26  O   UNL     1      54.430  22.024  22.880  1.00  0.00    -0.508 OA
ATOM     27  H   UNL     1      54.243  21.202  22.317  1.00  0.00     0.293 HD
ENDBRANCH   8  26
TORSDOF 6
ENDMDL
