MODEL 1
REMARK VINA RESULT:    -3.753      0.000      0.000
REMARK INTER + INTRA:          -5.137
REMARK INTER:                  -4.850
REMARK INTRA:                  -0.287
REMARK UNBOUND:                -0.287
REMARK SMILES CCCCCCC(=O)[O-]
REMARK SMILES IDX 5 1 6 2 7 3 8 4 9 5 4 6 3 7 2 8 1 9
REMARK H PARENT
REMARK Flexibility Score: inf
ROOT
ATOM      1  C   UNL     1     190.641   4.079  95.914  1.00  0.00     0.006 C 
ENDROOT
BRANCH   1   2
ATOM      2  C   UNL     1     192.008   3.651  95.362  1.00  0.00     0.053 C 
BRANCH   2   3
ATOM      3  C   UNL     1     191.992   2.235  94.876  1.00  0.00     0.041 C 
ATOM      4  O   UNL     1     191.483   1.954  93.760  1.00  0.00    -0.550 OA
ATOM      5  O   UNL     1     192.569   1.229  95.642  1.00  0.00    -0.550 OA
ENDBRANCH   2   3
ENDBRANCH   1   2
BRANCH   1   6
ATOM      6  C   UNL     1     190.375   3.510  97.316  1.00  0.00     0.000 C 
BRANCH   6   7
ATOM      7  C   UNL     1     191.579   3.744  98.240  1.00  0.00    -0.000 C 
BRANCH   7   8
ATOM      8  C   UNL     1     191.965   2.488  99.036  1.00  0.00    -0.003 C 
ATOM      9  C   UNL     1     192.996   2.776 100.130  1.00  0.00     0.004 C 
ENDBRANCH   7   8
ENDBRANCH   6   7
ENDBRANCH   1   6
TORSDOF 5
ENDMDL
MODEL 2
REMARK VINA RESULT:    -3.750      0.593      1.353
REMARK INTER + INTRA:          -5.133
REMARK INTER:                  -4.842
REMARK INTRA:                  -0.291
REMARK UNBOUND:                -0.287
REMARK SMILES CCCCCCC(=O)[O-]
REMARK SMILES IDX 5 1 6 2 7 3 8 4 9 5 4 6 3 7 2 8 1 9
REMARK H PARENT
REMARK Flexibility Score: inf
ROOT
ATOM      1  C   UNL     1     190.534   4.101  95.596  1.00  0.00     0.006 C 
ENDROOT
BRANCH   1   2
ATOM      2  C   UNL     1     191.934   3.694  95.115  1.00  0.00     0.053 C 
BRANCH   2   3
ATOM      3  C   UNL     1     191.991   2.247  94.734  1.00  0.00     0.041 C 
ATOM      4  O   UNL     1     192.522   1.408  95.508  1.00  0.00    -0.550 OA
ATOM      5  O   UNL     1     191.430   1.819  93.537  1.00  0.00    -0.550 OA
ENDBRANCH   2   3
ENDBRANCH   1   2
BRANCH   1   6
ATOM      6  C   UNL     1     190.203   3.522  96.980  1.00  0.00     0.000 C 
BRANCH   6   7
ATOM      7  C   UNL     1     190.743   4.428  98.096  1.00  0.00    -0.000 C 
BRANCH   7   8
ATOM      8  C   UNL     1     192.079   3.929  98.667  1.00  0.00    -0.003 C 
ATOM      9  C   UNL     1     192.050   2.443  99.028  1.00  0.00     0.004 C 
ENDBRANCH   7   8
ENDBRANCH   6   7
ENDBRANCH   1   6
TORSDOF 5
ENDMDL
MODEL 3
REMARK VINA RESULT:    -3.688      1.281      1.655
REMARK INTER + INTRA:          -5.053
REMARK INTER:                  -4.772
REMARK INTRA:                  -0.281
REMARK UNBOUND:                -0.287
REMARK SMILES CCCCCCC(=O)[O-]
REMARK SMILES IDX 5 1 6 2 7 3 8 4 9 5 4 6 3 7 2 8 1 9
REMARK H PARENT
REMARK Flexibility Score: inf
ROOT
ATOM      1  C   UNL     1     189.882   3.538  97.065  1.00  0.00     0.006 C 
ENDROOT
BRANCH   1   2
ATOM      2  C   UNL     1     189.837   4.040  95.615  1.00  0.00     0.053 C 
BRANCH   2   3
ATOM      3  C   UNL     1     191.148   3.843  94.918  1.00  0.00     0.041 C 
ATOM      4  O   UNL     1     191.746   4.824  94.405  1.00  0.00    -0.550 OA
ATOM      5  O   UNL     1     191.725   2.581  94.864  1.00  0.00    -0.550 OA
ENDBRANCH   2   3
ENDBRANCH   1   2
BRANCH   1   6
ATOM      6  C   UNL     1     190.502   4.569  98.019  1.00  0.00     0.000 C 
BRANCH   6   7
ATOM      7  C   UNL     1     191.873   4.096  98.522  1.00  0.00    -0.000 C 
BRANCH   7   8
ATOM      8  C   UNL     1     191.909   2.587  98.807  1.00  0.00    -0.003 C 
ATOM      9  C   UNL     1     192.763   2.236 100.027  1.00  0.00     0.004 C 
ENDBRANCH   7   8
ENDBRANCH   6   7
ENDBRANCH   1   6
TORSDOF 5
ENDMDL
MODEL 4
REMARK VINA RESULT:    -3.556      1.733      2.794
REMARK INTER + INTRA:          -4.883
REMARK INTER:                  -4.636
REMARK INTRA:                  -0.247
REMARK UNBOUND:                -0.287
REMARK SMILES CCCCCCC(=O)[O-]
REMARK SMILES IDX 5 1 6 2 7 3 8 4 9 5 4 6 3 7 2 8 1 9
REMARK H PARENT
REMARK Flexibility Score: inf
ROOT
ATOM      1  C   UNL     1     191.818   4.277  98.601  1.00  0.00     0.006 C 
ENDROOT
BRANCH   1   2
ATOM      2  C   UNL     1     190.637   3.488  98.019  1.00  0.00     0.053 C 
BRANCH   2   3
ATOM      3  C   UNL     1     190.622   3.534  96.523  1.00  0.00     0.041 C 
ATOM      4  O   UNL     1     191.698   3.652  95.881  1.00  0.00    -0.550 OA
ATOM      5  O   UNL     1     189.421   3.413  95.835  1.00  0.00    -0.550 OA
ENDBRANCH   2   3
ENDBRANCH   1   2
BRANCH   1   6
ATOM      6  C   UNL     1     192.805   3.374  99.357  1.00  0.00     0.000 C 
BRANCH   6   7
ATOM      7  C   UNL     1     192.187   1.996  99.632  1.00  0.00    -0.000 C 
BRANCH   7   8
ATOM      8  C   UNL     1     192.824   1.292 100.840  1.00  0.00    -0.003 C 
ATOM      9  C   UNL     1     193.453   2.273 101.831  1.00  0.00     0.004 C 
ENDBRANCH   7   8
ENDBRANCH   6   7
ENDBRANCH   1   6
TORSDOF 5
ENDMDL
MODEL 5
REMARK VINA RESULT:    -3.509      2.401      2.971
REMARK INTER + INTRA:          -4.821
REMARK INTER:                  -4.558
REMARK INTRA:                  -0.263
REMARK UNBOUND:                -0.287
REMARK SMILES CCCCCCC(=O)[O-]
REMARK SMILES IDX 5 1 6 2 7 3 8 4 9 5 4 6 3 7 2 8 1 9
REMARK H PARENT
REMARK Flexibility Score: inf
ROOT
ATOM      1  C   UNL     1     189.975   4.777  97.982  1.00  0.00     0.006 C 
ENDROOT
BRANCH   1   2
ATOM      2  C   UNL     1     189.155   3.613  97.409  1.00  0.00     0.053 C 
BRANCH   2   3
ATOM      3  C   UNL     1     188.739   3.869  95.994  1.00  0.00     0.041 C 
ATOM      4  O   UNL     1     189.607   4.051  95.101  1.00  0.00    -0.550 OA
ATOM      5  O   UNL     1     187.392   3.875  95.655  1.00  0.00    -0.550 OA
ENDBRANCH   2   3
ENDBRANCH   1   2
BRANCH   1   6
ATOM      6  C   UNL     1     191.426   4.373  98.287  1.00  0.00     0.000 C 
BRANCH   6   7
ATOM      7  C   UNL     1     191.623   2.861  98.105  1.00  0.00    -0.000 C 
BRANCH   7   8
ATOM      8  C   UNL     1     192.014   2.155  99.412  1.00  0.00    -0.003 C 
ATOM      9  C   UNL     1     193.125   2.886 100.169  1.00  0.00     0.004 C 
ENDBRANCH   7   8
ENDBRANCH   6   7
ENDBRANCH   1   6
TORSDOF 5
ENDMDL
MODEL 6
REMARK VINA RESULT:    -3.409      2.979      4.396
REMARK INTER + INTRA:          -4.693
REMARK INTER:                  -4.349
REMARK INTRA:                  -0.344
REMARK UNBOUND:                -0.287
REMARK SMILES CCCCCCC(=O)[O-]
REMARK SMILES IDX 5 1 6 2 7 3 8 4 9 5 4 6 3 7 2 8 1 9
REMARK H PARENT
REMARK Flexibility Score: inf
ROOT
ATOM      1  C   UNL     1     189.623   3.938  98.085  1.00  0.00     0.006 C 
ENDROOT
BRANCH   1   2
ATOM      2  C   UNL     1     188.734   3.467  96.925  1.00  0.00     0.053 C 
BRANCH   2   3
ATOM      3  C   UNL     1     188.099   4.618  96.209  1.00  0.00     0.041 C 
ATOM      4  O   UNL     1     187.978   5.732  96.782  1.00  0.00    -0.550 OA
ATOM      5  O   UNL     1     187.670   4.470  94.896  1.00  0.00    -0.550 OA
ENDBRANCH   2   3
ENDBRANCH   1   2
BRANCH   1   6
ATOM      6  C   UNL     1     191.103   4.032  97.683  1.00  0.00     0.000 C 
BRANCH   6   7
ATOM      7  C   UNL     1     191.387   3.183  96.436  1.00  0.00    -0.000 C 
BRANCH   7   8
ATOM      8  C   UNL     1     192.124   3.969  95.341  1.00  0.00    -0.003 C 
ATOM      9  C   UNL     1     191.216   4.341  94.167  1.00  0.00     0.004 C 
ENDBRANCH   7   8
ENDBRANCH   6   7
ENDBRANCH   1   6
TORSDOF 5
ENDMDL
MODEL 7
REMARK VINA RESULT:    -3.405      3.156      4.819
REMARK INTER + INTRA:          -4.687
REMARK INTER:                  -4.488
REMARK INTRA:                  -0.199
REMARK UNBOUND:                -0.287
REMARK SMILES CCCCCCC(=O)[O-]
REMARK SMILES IDX 5 1 6 2 7 3 8 4 9 5 4 6 3 7 2 8 1 9
REMARK H PARENT
REMARK Flexibility Score: inf
ROOT
ATOM      1  C   UNL     1     192.744   3.405  99.407  1.00  0.00     0.006 C 
ENDROOT
BRANCH   1   2
ATOM      2  C   UNL     1     192.199   1.977  99.549  1.00  0.00     0.053 C 
BRANCH   2   3
ATOM      3  C   UNL     1     192.796   1.268 100.725  1.00  0.00     0.041 C 
ATOM      4  O   UNL     1     192.684   0.020 100.836  1.00  0.00    -0.550 OA
ATOM      5  O   UNL     1     193.505   1.983 101.682  1.00  0.00    -0.550 OA
ENDBRANCH   2   3
ENDBRANCH   1   2
BRANCH   1   6
ATOM      6  C   UNL     1     191.897   4.258  98.450  1.00  0.00     0.000 C 
BRANCH   6   7
ATOM      7  C   UNL     1     191.033   3.371  97.543  1.00  0.00    -0.000 C 
BRANCH   7   8
ATOM      8  C   UNL     1     190.817   3.983  96.151  1.00  0.00    -0.003 C 
ATOM      9  C   UNL     1     192.087   3.979  95.299  1.00  0.00     0.004 C 
ENDBRANCH   7   8
ENDBRANCH   6   7
ENDBRANCH   1   6
TORSDOF 5
ENDMDL
MODEL 8
REMARK VINA RESULT:    -3.366      4.506      6.254
REMARK INTER + INTRA:          -4.637
REMARK INTER:                  -4.426
REMARK INTRA:                  -0.211
REMARK UNBOUND:                -0.287
REMARK SMILES CCCCCCC(=O)[O-]
REMARK SMILES IDX 5 1 6 2 7 3 8 4 9 5 4 6 3 7 2 8 1 9
REMARK H PARENT
REMARK Flexibility Score: inf
ROOT
ATOM      1  C   UNL     1     192.313   1.181 100.787  1.00  0.00     0.006 C 
ENDROOT
BRANCH   1   2
ATOM      2  C   UNL     1     193.338   1.823 101.733  1.00  0.00     0.053 C 
BRANCH   2   3
ATOM      3  C   UNL     1     192.886   1.772 103.160  1.00  0.00     0.041 C 
ATOM      4  O   UNL     1     193.708   1.971 104.092  1.00  0.00    -0.550 OA
ATOM      5  O   UNL     1     191.550   1.537 103.458  1.00  0.00    -0.550 OA
ENDBRANCH   2   3
ENDBRANCH   1   2
BRANCH   1   6
ATOM      6  C   UNL     1     192.293   1.855  99.407  1.00  0.00     0.000 C 
BRANCH   6   7
ATOM      7  C   UNL     1     192.732   3.323  99.508  1.00  0.00    -0.000 C 
BRANCH   7   8
ATOM      8  C   UNL     1     191.965   4.237  98.541  1.00  0.00    -0.003 C 
ATOM      9  C   UNL     1     190.790   3.528  97.864  1.00  0.00     0.004 C 
ENDBRANCH   7   8
ENDBRANCH   6   7
ENDBRANCH   1   6
TORSDOF 5
ENDMDL
MODEL 9
REMARK VINA RESULT:    -3.347      2.327      4.041
REMARK INTER + INTRA:          -4.612
REMARK INTER:                  -4.267
REMARK INTRA:                  -0.345
REMARK UNBOUND:                -0.287
REMARK SMILES CCCCCCC(=O)[O-]
REMARK SMILES IDX 5 1 6 2 7 3 8 4 9 5 4 6 3 7 2 8 1 9
REMARK H PARENT
REMARK Flexibility Score: inf
ROOT
ATOM      1  C   UNL     1     189.755   4.936  97.933  1.00  0.00     0.006 C 
ENDROOT
BRANCH   1   2
ATOM      2  C   UNL     1     190.142   3.481  98.232  1.00  0.00     0.053 C 
BRANCH   2   3
ATOM      3  C   UNL     1     191.570   3.363  98.665  1.00  0.00     0.041 C 
ATOM      4  O   UNL     1     192.062   2.235  98.928  1.00  0.00    -0.550 OA
ATOM      5  O   UNL     1     192.369   4.497  98.745  1.00  0.00    -0.550 OA
ENDBRANCH   2   3
ENDBRANCH   1   2
BRANCH   1   6
ATOM      6  C   UNL     1     189.436   5.159  96.446  1.00  0.00     0.000 C 
BRANCH   6   7
ATOM      7  C   UNL     1     189.623   3.862  95.645  1.00  0.00    -0.000 C 
BRANCH   7   8
ATOM      8  C   UNL     1     190.708   3.987  94.564  1.00  0.00    -0.003 C 
ATOM      9  C   UNL     1     192.050   3.399  95.004  1.00  0.00     0.004 C 
ENDBRANCH   7   8
ENDBRANCH   6   7
ENDBRANCH   1   6
TORSDOF 5
ENDMDL
