MODEL 1
REMARK VINA RESULT:    -4.355      0.000      0.000
REMARK INTER + INTRA:          -6.997
REMARK INTER:                  -6.646
REMARK INTRA:                  -0.350
REMARK UNBOUND:                -0.350
REMARK SMILES CCCCCCCCCCC(=O)[O-]
REMARK SMILES IDX 7 1 8 2 9 3 10 4 11 5 12 6 13 7 6 8 5 9 4 10 3 11 2 12 1 13
REMARK H PARENT
REMARK Flexibility Score: inf
ROOT
ATOM      1  C   UNL     1      20.271 -23.835  14.367  1.00  0.00     0.000 C 
ENDROOT
BRANCH   1   2
ATOM      2  C   UNL     1      19.962 -24.369  12.961  1.00  0.00     0.000 C 
BRANCH   2   3
ATOM      3  C   UNL     1      20.235 -25.879  12.875  1.00  0.00     0.006 C 
BRANCH   3   4
ATOM      4  C   UNL     1      21.230 -26.351  13.942  1.00  0.00     0.053 C 
BRANCH   4   5
ATOM      5  C   UNL     1      21.679 -27.759  13.699  1.00  0.00     0.041 C 
ATOM      6  O   UNL     1      22.904 -28.049  13.729  1.00  0.00    -0.550 OA
ATOM      7  O   UNL     1      20.745 -28.745  13.405  1.00  0.00    -0.550 OA
ENDBRANCH   4   5
ENDBRANCH   3   4
ENDBRANCH   2   3
ENDBRANCH   1   2
BRANCH   1   8
ATOM      8  C   UNL     1      20.869 -22.419  14.345  1.00  0.00     0.000 C 
BRANCH   8   9
ATOM      9  C   UNL     1      20.354 -21.540  15.495  1.00  0.00    -0.000 C 
BRANCH   9  10
ATOM     10  C   UNL     1      19.458 -20.415  14.966  1.00  0.00    -0.000 C 
BRANCH  10  11
ATOM     11  C   UNL     1      20.285 -19.344  14.244  1.00  0.00    -0.000 C 
BRANCH  11  12
ATOM     12  C   UNL     1      20.062 -17.962  14.868  1.00  0.00    -0.003 C 
ATOM     13  C   UNL     1      19.943 -18.055  16.386  1.00  0.00     0.004 C 
ENDBRANCH  11  12
ENDBRANCH  10  11
ENDBRANCH   9  10
ENDBRANCH   8   9
ENDBRANCH   1   8
TORSDOF 9
ENDMDL
MODEL 2
REMARK VINA RESULT:    -4.146      4.230      7.576
REMARK INTER + INTRA:          -6.678
REMARK INTER:                  -6.199
REMARK INTRA:                  -0.479
REMARK UNBOUND:                -0.350
REMARK SMILES CCCCCCCCCCC(=O)[O-]
REMARK SMILES IDX 7 1 8 2 9 3 10 4 11 5 12 6 13 7 6 8 5 9 4 10 3 11 2 12 1 13
REMARK H PARENT
REMARK Flexibility Score: inf
ROOT
ATOM      1  C   UNL     1      20.218 -23.084  14.940  1.00  0.00     0.000 C 
ENDROOT
BRANCH   1   2
ATOM      2  C   UNL     1      19.166 -22.387  14.063  1.00  0.00     0.000 C 
BRANCH   2   3
ATOM      3  C   UNL     1      18.965 -20.929  14.501  1.00  0.00     0.006 C 
BRANCH   3   4
ATOM      4  C   UNL     1      20.296 -20.207  14.750  1.00  0.00     0.053 C 
BRANCH   4   5
ATOM      5  C   UNL     1      20.123 -18.721  14.791  1.00  0.00     0.041 C 
ATOM      6  O   UNL     1      20.150 -18.049  13.727  1.00  0.00    -0.550 OA
ATOM      7  O   UNL     1      19.965 -18.072  16.010  1.00  0.00    -0.550 OA
ENDBRANCH   4   5
ENDBRANCH   3   4
ENDBRANCH   2   3
ENDBRANCH   1   2
BRANCH   1   8
ATOM      8  C   UNL     1      21.001 -24.165  14.180  1.00  0.00     0.000 C 
BRANCH   8   9
ATOM      9  C   UNL     1      20.275 -24.642  12.913  1.00  0.00    -0.000 C 
BRANCH   9  10
ATOM     10  C   UNL     1      20.185 -26.172  12.876  1.00  0.00    -0.000 C 
BRANCH  10  11
ATOM     11  C   UNL     1      21.234 -26.809  13.796  1.00  0.00    -0.000 C 
BRANCH  11  12
ATOM     12  C   UNL     1      21.689 -28.168  13.254  1.00  0.00    -0.003 C 
ATOM     13  C   UNL     1      20.497 -29.081  12.981  1.00  0.00     0.004 C 
ENDBRANCH  11  12
ENDBRANCH  10  11
ENDBRANCH   9  10
ENDBRANCH   8   9
ENDBRANCH   1   8
TORSDOF 9
ENDMDL
MODEL 3
REMARK VINA RESULT:    -3.671     14.217     16.457
REMARK INTER + INTRA:          -5.952
REMARK INTER:                  -4.895
REMARK INTRA:                  -1.057
REMARK UNBOUND:                -0.350
REMARK SMILES CCCCCCCCCCC(=O)[O-]
REMARK SMILES IDX 7 1 8 2 9 3 10 4 11 5 12 6 13 7 6 8 5 9 4 10 3 11 2 12 1 13
REMARK H PARENT
REMARK Flexibility Score: inf
ROOT
ATOM      1  C   UNL     1       8.173 -35.090  16.745  1.00  0.00     0.000 C 
ENDROOT
BRANCH   1   2
ATOM      2  C   UNL     1       7.335 -34.425  17.847  1.00  0.00     0.000 C 
BRANCH   2   3
ATOM      3  C   UNL     1       7.513 -32.900  17.828  1.00  0.00     0.006 C 
BRANCH   3   4
ATOM      4  C   UNL     1       8.816 -32.475  17.137  1.00  0.00     0.053 C 
BRANCH   4   5
ATOM      5  C   UNL     1       9.627 -31.557  17.998  1.00  0.00     0.041 C 
ATOM      6  O   UNL     1       9.464 -31.548  19.247  1.00  0.00    -0.550 OA
ATOM      7  O   UNL     1      10.541 -30.687  17.418  1.00  0.00    -0.550 OA
ENDBRANCH   4   5
ENDBRANCH   3   4
ENDBRANCH   2   3
ENDBRANCH   1   2
BRANCH   1   8
ATOM      8  C   UNL     1       7.317 -35.594  15.572  1.00  0.00     0.000 C 
BRANCH   8   9
ATOM      9  C   UNL     1       7.803 -35.066  14.214  1.00  0.00    -0.000 C 
BRANCH   9  10
ATOM     10  C   UNL     1       7.310 -33.634  13.975  1.00  0.00    -0.000 C 
BRANCH  10  11
ATOM     11  C   UNL     1       8.360 -32.808  13.221  1.00  0.00    -0.000 C 
BRANCH  11  12
ATOM     12  C   UNL     1       9.745 -33.456  13.320  1.00  0.00    -0.003 C 
ATOM     13  C   UNL     1      10.821 -32.416  13.618  1.00  0.00     0.004 C 
ENDBRANCH  11  12
ENDBRANCH  10  11
ENDBRANCH   9  10
ENDBRANCH   8   9
ENDBRANCH   1   8
TORSDOF 9
ENDMDL
MODEL 4
REMARK VINA RESULT:    -3.462     15.166     17.477
REMARK INTER + INTRA:          -5.634
REMARK INTER:                  -4.518
REMARK INTRA:                  -1.116
REMARK UNBOUND:                -0.350
REMARK SMILES CCCCCCCCCCC(=O)[O-]
REMARK SMILES IDX 7 1 8 2 9 3 10 4 11 5 12 6 13 7 6 8 5 9 4 10 3 11 2 12 1 13
REMARK H PARENT
REMARK Flexibility Score: inf
ROOT
ATOM      1  C   UNL     1       6.917 -35.074  17.024  1.00  0.00     0.000 C 
ENDROOT
BRANCH   1   2
ATOM      2  C   UNL     1       6.345 -33.877  16.250  1.00  0.00     0.000 C 
BRANCH   2   3
ATOM      3  C   UNL     1       6.910 -32.554  16.789  1.00  0.00     0.006 C 
BRANCH   3   4
ATOM      4  C   UNL     1       7.677 -32.742  18.104  1.00  0.00     0.053 C 
BRANCH   4   5
ATOM      5  C   UNL     1       8.966 -31.980  18.109  1.00  0.00     0.041 C 
ATOM      6  O   UNL     1       9.555 -31.721  17.027  1.00  0.00    -0.550 OA
ATOM      7  O   UNL     1       9.535 -31.584  19.313  1.00  0.00    -0.550 OA
ENDBRANCH   4   5
ENDBRANCH   3   4
ENDBRANCH   2   3
ENDBRANCH   1   2
BRANCH   1   8
ATOM      8  C   UNL     1       6.671 -36.413  16.310  1.00  0.00     0.000 C 
BRANCH   8   9
ATOM      9  C   UNL     1       6.626 -36.270  14.782  1.00  0.00    -0.000 C 
BRANCH   9  10
ATOM     10  C   UNL     1       8.009 -36.518  14.167  1.00  0.00    -0.000 C 
BRANCH  10  11
ATOM     11  C   UNL     1       8.462 -35.316  13.328  1.00  0.00    -0.000 C 
BRANCH  11  12
ATOM     12  C   UNL     1       9.425 -34.425  14.119  1.00  0.00    -0.003 C 
ATOM     13  C   UNL     1       9.167 -32.948  13.839  1.00  0.00     0.004 C 
ENDBRANCH  11  12
ENDBRANCH  10  11
ENDBRANCH   9  10
ENDBRANCH   8   9
ENDBRANCH   1   8
TORSDOF 9
ENDMDL
MODEL 5
REMARK VINA RESULT:    -3.449     15.478     17.396
REMARK INTER + INTRA:          -5.614
REMARK INTER:                  -4.429
REMARK INTRA:                  -1.185
REMARK UNBOUND:                -0.350
REMARK SMILES CCCCCCCCCCC(=O)[O-]
REMARK SMILES IDX 7 1 8 2 9 3 10 4 11 5 12 6 13 7 6 8 5 9 4 10 3 11 2 12 1 13
REMARK H PARENT
REMARK Flexibility Score: inf
ROOT
ATOM      1  C   UNL     1       5.977 -34.824  15.371  1.00  0.00     0.000 C 
ENDROOT
BRANCH   1   2
ATOM      2  C   UNL     1       6.886 -35.707  16.239  1.00  0.00     0.000 C 
BRANCH   2   3
ATOM      3  C   UNL     1       7.385 -34.938  17.471  1.00  0.00     0.006 C 
BRANCH   3   4
ATOM      4  C   UNL     1       8.343 -33.800  17.098  1.00  0.00     0.053 C 
BRANCH   4   5
ATOM      5  C   UNL     1       8.102 -32.576  17.926  1.00  0.00     0.041 C 
ATOM      6  O   UNL     1       6.927 -32.189  18.161  1.00  0.00    -0.550 OA
ATOM      7  O   UNL     1       9.177 -31.842  18.412  1.00  0.00    -0.550 OA
ENDBRANCH   4   5
ENDBRANCH   3   4
ENDBRANCH   2   3
ENDBRANCH   1   2
BRANCH   1   8
ATOM      8  C   UNL     1       6.159 -35.084  13.868  1.00  0.00     0.000 C 
BRANCH   8   9
ATOM      9  C   UNL     1       6.292 -33.787  13.055  1.00  0.00    -0.000 C 
BRANCH   9  10
ATOM     10  C   UNL     1       7.419 -32.907  13.608  1.00  0.00    -0.000 C 
BRANCH  10  11
ATOM     11  C   UNL     1       8.740 -33.176  12.875  1.00  0.00    -0.000 C 
BRANCH  11  12
ATOM     12  C   UNL     1       9.822 -33.653  13.850  1.00  0.00    -0.003 C 
ATOM     13  C   UNL     1       9.936 -35.175  13.847  1.00  0.00     0.004 C 
ENDBRANCH  11  12
ENDBRANCH  10  11
ENDBRANCH   9  10
ENDBRANCH   8   9
ENDBRANCH   1   8
TORSDOF 9
ENDMDL
MODEL 6
REMARK VINA RESULT:    -3.391     15.481     17.923
REMARK INTER + INTRA:          -5.526
REMARK INTER:                  -4.309
REMARK INTRA:                  -1.217
REMARK UNBOUND:                -0.350
REMARK SMILES CCCCCCCCCCC(=O)[O-]
REMARK SMILES IDX 7 1 8 2 9 3 10 4 11 5 12 6 13 7 6 8 5 9 4 10 3 11 2 12 1 13
REMARK H PARENT
REMARK Flexibility Score: inf
ROOT
ATOM      1  C   UNL     1       9.197 -34.311  14.338  1.00  0.00     0.000 C 
ENDROOT
BRANCH   1   2
ATOM      2  C   UNL     1       8.057 -33.285  14.245  1.00  0.00     0.000 C 
BRANCH   2   3
ATOM      3  C   UNL     1       7.669 -32.769  15.639  1.00  0.00     0.006 C 
BRANCH   3   4
ATOM      4  C   UNL     1       8.895 -32.453  16.505  1.00  0.00     0.053 C 
BRANCH   4   5
ATOM      5  C   UNL     1       8.522 -32.244  17.940  1.00  0.00     0.041 C 
ATOM      6  O   UNL     1       7.355 -32.501  18.337  1.00  0.00    -0.550 OA
ATOM      7  O   UNL     1       9.455 -31.734  18.834  1.00  0.00    -0.550 OA
ENDBRANCH   4   5
ENDBRANCH   3   4
ENDBRANCH   2   3
ENDBRANCH   1   2
BRANCH   1   8
ATOM      8  C   UNL     1       8.771 -35.713  13.873  1.00  0.00     0.000 C 
BRANCH   8   9
ATOM      9  C   UNL     1       7.343 -35.741  13.308  1.00  0.00    -0.000 C 
BRANCH   9  10
ATOM     10  C   UNL     1       6.474 -36.752  14.065  1.00  0.00    -0.000 C 
BRANCH  10  11
ATOM     11  C   UNL     1       5.879 -36.128  15.333  1.00  0.00    -0.000 C 
BRANCH  11  12
ATOM     12  C   UNL     1       6.394 -36.837  16.590  1.00  0.00    -0.003 C 
ATOM     13  C   UNL     1       7.300 -35.922  17.408  1.00  0.00     0.004 C 
ENDBRANCH  11  12
ENDBRANCH  10  11
ENDBRANCH   9  10
ENDBRANCH   8   9
ENDBRANCH   1   8
TORSDOF 9
ENDMDL
MODEL 7
REMARK VINA RESULT:    -3.256     14.486     16.392
REMARK INTER + INTRA:          -5.319
REMARK INTER:                  -4.600
REMARK INTRA:                  -0.719
REMARK UNBOUND:                -0.350
REMARK SMILES CCCCCCCCCCC(=O)[O-]
REMARK SMILES IDX 7 1 8 2 9 3 10 4 11 5 12 6 13 7 6 8 5 9 4 10 3 11 2 12 1 13
REMARK H PARENT
REMARK Flexibility Score: inf
ROOT
ATOM      1  C   UNL     1       7.317 -35.691  15.345  1.00  0.00     0.000 C 
ENDROOT
BRANCH   1   2
ATOM      2  C   UNL     1       8.293 -35.986  14.195  1.00  0.00     0.000 C 
BRANCH   2   3
ATOM      3  C   UNL     1       8.379 -34.796  13.229  1.00  0.00     0.006 C 
BRANCH   3   4
ATOM      4  C   UNL     1       9.829 -34.387  12.938  1.00  0.00     0.053 C 
BRANCH   4   5
ATOM      5  C   UNL     1      10.195 -33.109  13.628  1.00  0.00     0.041 C 
ATOM      6  O   UNL     1      11.338 -32.606  13.468  1.00  0.00    -0.550 OA
ATOM      7  O   UNL     1       9.284 -32.491  14.476  1.00  0.00    -0.550 OA
ENDBRANCH   4   5
ENDBRANCH   3   4
ENDBRANCH   2   3
ENDBRANCH   1   2
BRANCH   1   8
ATOM      8  C   UNL     1       6.452 -34.448  15.083  1.00  0.00     0.000 C 
BRANCH   8   9
ATOM      9  C   UNL     1       6.429 -33.481  16.276  1.00  0.00    -0.000 C 
BRANCH   9  10
ATOM     10  C   UNL     1       7.123 -34.098  17.496  1.00  0.00    -0.000 C 
BRANCH  10  11
ATOM     11  C   UNL     1       7.623 -33.010  18.455  1.00  0.00    -0.000 C 
BRANCH  11  12
ATOM     12  C   UNL     1       8.825 -32.266  17.864  1.00  0.00    -0.003 C 
ATOM     13  C   UNL     1       9.505 -31.392  18.914  1.00  0.00     0.004 C 
ENDBRANCH  11  12
ENDBRANCH  10  11
ENDBRANCH   9  10
ENDBRANCH   8   9
ENDBRANCH   1   8
TORSDOF 9
ENDMDL
MODEL 8
REMARK VINA RESULT:    -3.059     15.152     16.930
REMARK INTER + INTRA:          -5.019
REMARK INTER:                  -4.096
REMARK INTRA:                  -0.922
REMARK UNBOUND:                -0.350
REMARK SMILES CCCCCCCCCCC(=O)[O-]
REMARK SMILES IDX 7 1 8 2 9 3 10 4 11 5 12 6 13 7 6 8 5 9 4 10 3 11 2 12 1 13
REMARK H PARENT
REMARK Flexibility Score: inf
ROOT
ATOM      1  C   UNL     1       6.995 -32.983  14.865  1.00  0.00     0.000 C 
ENDROOT
BRANCH   1   2
ATOM      2  C   UNL     1       7.343 -32.928  13.369  1.00  0.00     0.000 C 
BRANCH   2   3
ATOM      3  C   UNL     1       8.861 -33.030  13.155  1.00  0.00     0.006 C 
BRANCH   3   4
ATOM      4  C   UNL     1       9.328 -34.482  12.985  1.00  0.00     0.053 C 
BRANCH   4   5
ATOM      5  C   UNL     1      10.820 -34.597  13.056  1.00  0.00     0.041 C 
ATOM      6  O   UNL     1      11.368 -35.730  13.097  1.00  0.00    -0.550 OA
ATOM      7  O   UNL     1      11.604 -33.451  13.110  1.00  0.00    -0.550 OA
ENDBRANCH   4   5
ENDBRANCH   3   4
ENDBRANCH   2   3
ENDBRANCH   1   2
BRANCH   1   8
ATOM      8  C   UNL     1       8.203 -32.680  15.766  1.00  0.00     0.000 C 
BRANCH   8   9
ATOM      9  C   UNL     1       8.153 -33.442  17.099  1.00  0.00    -0.000 C 
BRANCH   9  10
ATOM     10  C   UNL     1       8.506 -34.920  16.899  1.00  0.00    -0.000 C 
BRANCH  10  11
ATOM     11  C   UNL     1       7.388 -35.830  17.423  1.00  0.00    -0.000 C 
BRANCH  11  12
ATOM     12  C   UNL     1       6.323 -36.069  16.347  1.00  0.00    -0.003 C 
ATOM     13  C   UNL     1       6.932 -36.701  15.099  1.00  0.00     0.004 C 
ENDBRANCH  11  12
ENDBRANCH  10  11
ENDBRANCH   9  10
ENDBRANCH   8   9
ENDBRANCH   1   8
TORSDOF 9
ENDMDL
MODEL 9
REMARK VINA RESULT:    -2.942     15.787     17.354
REMARK INTER + INTRA:          -4.840
REMARK INTER:                  -3.686
REMARK INTRA:                  -1.155
REMARK UNBOUND:                -0.350
REMARK SMILES CCCCCCCCCCC(=O)[O-]
REMARK SMILES IDX 7 1 8 2 9 3 10 4 11 5 12 6 13 7 6 8 5 9 4 10 3 11 2 12 1 13
REMARK H PARENT
REMARK Flexibility Score: inf
ROOT
ATOM      1  C   UNL     1       9.952 -33.452  13.982  1.00  0.00     0.000 C 
ENDROOT
BRANCH   1   2
ATOM      2  C   UNL     1      10.148 -34.947  13.685  1.00  0.00     0.000 C 
BRANCH   2   3
ATOM      3  C   UNL     1       8.890 -35.548  13.041  1.00  0.00     0.006 C 
BRANCH   3   4
ATOM      4  C   UNL     1       8.242 -36.623  13.923  1.00  0.00     0.053 C 
BRANCH   4   5
ATOM      5  C   UNL     1       6.751 -36.629  13.788  1.00  0.00     0.041 C 
ATOM      6  O   UNL     1       6.102 -35.553  13.872  1.00  0.00    -0.550 OA
ATOM      7  O   UNL     1       6.074 -37.828  13.603  1.00  0.00    -0.550 OA
ENDBRANCH   4   5
ENDBRANCH   3   4
ENDBRANCH   2   3
ENDBRANCH   1   2
BRANCH   1   8
ATOM      8  C   UNL     1       8.522 -32.972  13.687  1.00  0.00     0.000 C 
BRANCH   8   9
ATOM      9  C   UNL     1       7.749 -32.594  14.959  1.00  0.00    -0.000 C 
BRANCH   9  10
ATOM     10  C   UNL     1       8.648 -32.695  16.197  1.00  0.00    -0.000 C 
BRANCH  10  11
ATOM     11  C   UNL     1       7.834 -33.078  17.440  1.00  0.00    -0.000 C 
BRANCH  11  12
ATOM     12  C   UNL     1       6.924 -34.276  17.154  1.00  0.00    -0.003 C 
ATOM     13  C   UNL     1       7.629 -35.593  17.467  1.00  0.00     0.004 C 
ENDBRANCH  11  12
ENDBRANCH  10  11
ENDBRANCH   9  10
ENDBRANCH   8   9
ENDBRANCH   1   8
TORSDOF 9
ENDMDL
