MODEL 1
REMARK VINA RESULT:    -5.720      0.000      0.000
REMARK INTER + INTRA:          -6.349
REMARK INTER:                  -6.221
REMARK INTRA:                  -0.128
REMARK UNBOUND:                -0.128
REMARK SMILES Cc1ccc(C(C)C)cc1O
REMARK SMILES IDX 1 1 2 2 10 3 9 4 5 5 4 6 3 7 11 8 6 10 7 11 8 12
REMARK H PARENT 11 9
REMARK Flexibility Score: inf
ROOT
ATOM      1  C   UNL     1      24.394   7.080 100.152  1.00  0.00     0.048 C 
ATOM      2  C   UNL     1      23.636   6.117 101.024  1.00  0.00    -0.009 A 
ATOM      3  C   UNL     1      22.226   6.048 100.984  1.00  0.00     0.118 A 
ATOM      4  C   UNL     1      21.551   5.141 101.809  1.00  0.00     0.050 A 
ATOM      5  C   UNL     1      22.256   4.295 102.682  1.00  0.00    -0.042 A 
ATOM      6  C   UNL     1      23.657   4.370 102.716  1.00  0.00     0.004 A 
ATOM      7  C   UNL     1      24.339   5.272 101.896  1.00  0.00     0.007 A 
ENDROOT
BRANCH   3   8
ATOM      8  O   UNL     1      21.469   6.862 100.137  1.00  0.00    -0.508 OA
ATOM      9  H   UNL     1      21.058   6.530  99.276  1.00  0.00     0.293 HD
ENDBRANCH   3   8
BRANCH   5  10
ATOM     10  C   UNL     1      21.528   3.310 103.579  1.00  0.00     0.013 C 
ATOM     11  C   UNL     1      22.151   1.912 103.485  1.00  0.00     0.012 C 
ATOM     12  C   UNL     1      21.493   3.803 105.030  1.00  0.00     0.012 C 
ENDBRANCH   5  10
TORSDOF 2
ENDMDL
MODEL 2
REMARK VINA RESULT:    -5.677      2.505      5.058
REMARK INTER + INTRA:          -6.303
REMARK INTER:                  -6.175
REMARK INTRA:                  -0.128
REMARK UNBOUND:                -0.128
REMARK SMILES Cc1ccc(C(C)C)cc1O
REMARK SMILES IDX 1 1 2 2 10 3 9 4 5 5 4 6 3 7 11 8 6 10 7 11 8 12
REMARK H PARENT 11 9
REMARK Flexibility Score: inf
ROOT
ATOM      1  C   UNL     1      19.388   1.619 105.988  1.00  0.00     0.048 C 
ATOM      2  C   UNL     1      20.356   2.479 105.223  1.00  0.00    -0.009 A 
ATOM      3  C   UNL     1      20.417   3.874 105.431  1.00  0.00     0.118 A 
ATOM      4  C   UNL     1      21.329   4.647 104.703  1.00  0.00     0.050 A 
ATOM      5  C   UNL     1      22.189   4.054 103.762  1.00  0.00    -0.042 A 
ATOM      6  C   UNL     1      22.122   2.667 103.561  1.00  0.00     0.004 A 
ATOM      7  C   UNL     1      21.215   1.889 104.283  1.00  0.00     0.007 A 
ENDROOT
BRANCH   3   8
ATOM      8  O   UNL     1      19.589   4.521 106.352  1.00  0.00    -0.508 OA
ATOM      9  H   UNL     1      19.857   5.369 106.833  1.00  0.00     0.293 HD
ENDBRANCH   3   8
BRANCH   5  10
ATOM     10  C   UNL     1      23.180   4.888 102.970  1.00  0.00     0.013 C 
ATOM     11  C   UNL     1      24.580   4.263 103.004  1.00  0.00     0.012 C 
ATOM     12  C   UNL     1      22.702   5.095 101.528  1.00  0.00     0.012 C 
ENDBRANCH   5  10
TORSDOF 2
ENDMDL
MODEL 3
REMARK VINA RESULT:    -4.888      3.446      4.649
REMARK INTER + INTRA:          -5.444
REMARK INTER:                  -5.346
REMARK INTRA:                  -0.098
REMARK UNBOUND:                -0.128
REMARK SMILES Cc1ccc(C(C)C)cc1O
REMARK SMILES IDX 1 1 2 2 10 3 9 4 5 5 4 6 3 7 11 8 6 10 7 11 8 12
REMARK H PARENT 11 9
REMARK Flexibility Score: inf
ROOT
ATOM      1  C   UNL     1      21.142   5.286 106.343  1.00  0.00     0.048 C 
ATOM      2  C   UNL     1      21.406   4.216 105.319  1.00  0.00    -0.009 A 
ATOM      3  C   UNL     1      20.778   2.954 105.403  1.00  0.00     0.118 A 
ATOM      4  C   UNL     1      21.045   1.979 104.435  1.00  0.00     0.050 A 
ATOM      5  C   UNL     1      21.934   2.237 103.375  1.00  0.00    -0.042 A 
ATOM      6  C   UNL     1      22.553   3.494 103.300  1.00  0.00     0.004 A 
ATOM      7  C   UNL     1      22.292   4.472 104.261  1.00  0.00     0.007 A 
ENDROOT
BRANCH   3   8
ATOM      8  O   UNL     1      19.887   2.638 106.431  1.00  0.00    -0.508 OA
ATOM      9  H   UNL     1      19.374   3.338 106.951  1.00  0.00     0.293 HD
ENDBRANCH   3   8
BRANCH   5  10
ATOM     10  C   UNL     1      22.226   1.182 102.323  1.00  0.00     0.013 C 
ATOM     11  C   UNL     1      22.946  -0.025 102.935  1.00  0.00     0.012 C 
ATOM     12  C   UNL     1      20.944   0.752 101.600  1.00  0.00     0.012 C 
ENDBRANCH   5  10
TORSDOF 2
ENDMDL
MODEL 4
REMARK VINA RESULT:    -4.885      1.844      2.706
REMARK INTER + INTRA:          -5.441
REMARK INTER:                  -5.313
REMARK INTRA:                  -0.128
REMARK UNBOUND:                -0.128
REMARK SMILES Cc1ccc(C(C)C)cc1O
REMARK SMILES IDX 1 1 2 2 10 3 9 4 5 5 4 6 3 7 11 8 6 10 7 11 8 12
REMARK H PARENT 11 9
REMARK Flexibility Score: inf
ROOT
ATOM      1  C   UNL     1      22.877   5.999 100.071  1.00  0.00     0.048 C 
ATOM      2  C   UNL     1      22.579   5.486 101.454  1.00  0.00    -0.009 A 
ATOM      3  C   UNL     1      23.581   4.874 102.238  1.00  0.00     0.118 A 
ATOM      4  C   UNL     1      23.271   4.407 103.521  1.00  0.00     0.050 A 
ATOM      5  C   UNL     1      21.971   4.537 104.043  1.00  0.00    -0.042 A 
ATOM      6  C   UNL     1      20.982   5.146 103.256  1.00  0.00     0.004 A 
ATOM      7  C   UNL     1      21.283   5.615 101.976  1.00  0.00     0.007 A 
ENDROOT
BRANCH   3   8
ATOM      8  O   UNL     1      24.889   4.716 101.776  1.00  0.00    -0.508 OA
ATOM      9  H   UNL     1      25.465   5.492 101.476  1.00  0.00     0.293 HD
ENDBRANCH   3   8
BRANCH   5  10
ATOM     10  C   UNL     1      21.631   4.033 105.434  1.00  0.00     0.013 C 
ATOM     11  C   UNL     1      21.398   5.198 106.403  1.00  0.00     0.012 C 
ATOM     12  C   UNL     1      20.421   3.092 105.401  1.00  0.00     0.012 C 
ENDBRANCH   5  10
TORSDOF 2
ENDMDL
MODEL 5
REMARK VINA RESULT:    -4.880      2.336      4.841
REMARK INTER + INTRA:          -5.436
REMARK INTER:                  -5.309
REMARK INTRA:                  -0.128
REMARK UNBOUND:                -0.128
REMARK SMILES Cc1ccc(C(C)C)cc1O
REMARK SMILES IDX 1 1 2 2 10 3 9 4 5 5 4 6 3 7 11 8 6 10 7 11 8 12
REMARK H PARENT 11 9
REMARK Flexibility Score: inf
ROOT
ATOM      1  C   UNL     1      20.281   2.886 106.053  1.00  0.00     0.048 C 
ATOM      2  C   UNL     1      20.945   3.417 104.812  1.00  0.00    -0.009 A 
ATOM      3  C   UNL     1      21.655   2.564 103.940  1.00  0.00     0.118 A 
ATOM      4  C   UNL     1      22.262   3.090 102.793  1.00  0.00     0.050 A 
ATOM      5  C   UNL     1      22.176   4.462 102.495  1.00  0.00    -0.042 A 
ATOM      6  C   UNL     1      21.468   5.303 103.368  1.00  0.00     0.004 A 
ATOM      7  C   UNL     1      20.860   4.786 104.513  1.00  0.00     0.007 A 
ENDROOT
BRANCH   3   8
ATOM      8  O   UNL     1      21.775   1.193 104.182  1.00  0.00    -0.508 OA
ATOM      9  H   UNL     1      21.727   0.498 103.449  1.00  0.00     0.293 HD
ENDBRANCH   3   8
BRANCH   5  10
ATOM     10  C   UNL     1      22.832   5.037 101.253  1.00  0.00     0.013 C 
ATOM     11  C   UNL     1      21.956   6.123 100.617  1.00  0.00     0.012 C 
ATOM     12  C   UNL     1      24.235   5.571 101.564  1.00  0.00     0.012 C 
ENDBRANCH   5  10
TORSDOF 2
ENDMDL
MODEL 6
REMARK VINA RESULT:    -4.578     10.390     10.742
REMARK INTER + INTRA:          -5.108
REMARK INTER:                  -4.981
REMARK INTRA:                  -0.126
REMARK UNBOUND:                -0.128
REMARK SMILES Cc1ccc(C(C)C)cc1O
REMARK SMILES IDX 1 1 2 2 10 3 9 4 5 5 4 6 3 7 11 8 6 10 7 11 8 12
REMARK H PARENT 11 9
REMARK Flexibility Score: inf
ROOT
ATOM      1  C   UNL     1      31.552   4.540  97.422  1.00  0.00     0.048 C 
ATOM      2  C   UNL     1      32.152   4.371  98.791  1.00  0.00    -0.009 A 
ATOM      3  C   UNL     1      32.488   3.094  99.290  1.00  0.00     0.118 A 
ATOM      4  C   UNL     1      33.045   2.971 100.568  1.00  0.00     0.050 A 
ATOM      5  C   UNL     1      33.276   4.104 101.368  1.00  0.00    -0.042 A 
ATOM      6  C   UNL     1      32.939   5.370 100.864  1.00  0.00     0.004 A 
ATOM      7  C   UNL     1      32.383   5.501  99.590  1.00  0.00     0.007 A 
ENDROOT
BRANCH   3   8
ATOM      8  O   UNL     1      32.283   1.931  98.543  1.00  0.00    -0.508 OA
ATOM      9  H   UNL     1      32.746   1.055  98.748  1.00  0.00     0.293 HD
ENDBRANCH   3   8
BRANCH   5  10
ATOM     10  C   UNL     1      33.880   3.976 102.754  1.00  0.00     0.013 C 
ATOM     11  C   UNL     1      33.416   5.117 103.667  1.00  0.00     0.012 C 
ATOM     12  C   UNL     1      33.562   2.609 103.372  1.00  0.00     0.012 C 
ENDBRANCH   5  10
TORSDOF 2
ENDMDL
MODEL 7
REMARK VINA RESULT:    -4.574     10.203     10.751
REMARK INTER + INTRA:          -5.103
REMARK INTER:                  -4.976
REMARK INTRA:                  -0.127
REMARK UNBOUND:                -0.128
REMARK SMILES Cc1ccc(C(C)C)cc1O
REMARK SMILES IDX 1 1 2 2 10 3 9 4 5 5 4 6 3 7 11 8 6 10 7 11 8 12
REMARK H PARENT 11 9
REMARK Flexibility Score: inf
ROOT
ATOM      1  C   UNL     1      31.500   4.875  97.622  1.00  0.00     0.048 C 
ATOM      2  C   UNL     1      32.164   4.401  98.885  1.00  0.00    -0.009 A 
ATOM      3  C   UNL     1      32.692   5.316  99.822  1.00  0.00     0.118 A 
ATOM      4  C   UNL     1      33.304   4.842 100.988  1.00  0.00     0.050 A 
ATOM      5  C   UNL     1      33.403   3.462 101.243  1.00  0.00    -0.042 A 
ATOM      6  C   UNL     1      32.875   2.560 100.307  1.00  0.00     0.004 A 
ATOM      7  C   UNL     1      32.263   3.024  99.141  1.00  0.00     0.007 A 
ENDROOT
BRANCH   3   8
ATOM      8  O   UNL     1      32.625   6.697  99.625  1.00  0.00    -0.508 OA
ATOM      9  H   UNL     1      31.753   7.210  99.609  1.00  0.00     0.293 HD
ENDBRANCH   3   8
BRANCH   5  10
ATOM     10  C   UNL     1      34.065   2.944 102.507  1.00  0.00     0.013 C 
ATOM     11  C   UNL     1      33.375   3.497 103.759  1.00  0.00     0.012 C 
ATOM     12  C   UNL     1      34.099   1.411 102.526  1.00  0.00     0.012 C 
ENDBRANCH   5  10
TORSDOF 2
ENDMDL
MODEL 8
REMARK VINA RESULT:    -4.462     11.655     12.209
REMARK INTER + INTRA:          -4.982
REMARK INTER:                  -4.856
REMARK INTRA:                  -0.126
REMARK UNBOUND:                -0.128
REMARK SMILES Cc1ccc(C(C)C)cc1O
REMARK SMILES IDX 1 1 2 2 10 3 9 4 5 5 4 6 3 7 11 8 6 10 7 11 8 12
REMARK H PARENT 11 9
REMARK Flexibility Score: inf
ROOT
ATOM      1  C   UNL     1      22.127  -5.636 107.957  1.00  0.00     0.048 C 
ATOM      2  C   UNL     1      22.445  -6.000 106.532  1.00  0.00    -0.009 A 
ATOM      3  C   UNL     1      21.425  -6.353 105.622  1.00  0.00     0.118 A 
ATOM      4  C   UNL     1      21.754  -6.687 104.304  1.00  0.00     0.050 A 
ATOM      5  C   UNL     1      23.092  -6.678 103.868  1.00  0.00    -0.042 A 
ATOM      6  C   UNL     1      24.099  -6.327 104.780  1.00  0.00     0.004 A 
ATOM      7  C   UNL     1      23.779  -5.992 106.097  1.00  0.00     0.007 A 
ENDROOT
BRANCH   3   8
ATOM      8  O   UNL     1      20.079  -6.379 105.994  1.00  0.00    -0.508 OA
ATOM      9  H   UNL     1      19.748  -6.050 106.891  1.00  0.00     0.293 HD
ENDBRANCH   3   8
BRANCH   5  10
ATOM     10  C   UNL     1      23.454  -7.039 102.439  1.00  0.00     0.013 C 
ATOM     11  C   UNL     1      22.309  -6.699 101.477  1.00  0.00     0.012 C 
ATOM     12  C   UNL     1      24.758  -6.358 102.009  1.00  0.00     0.012 C 
ENDBRANCH   5  10
TORSDOF 2
ENDMDL
MODEL 9
REMARK VINA RESULT:    -4.430     11.709     12.474
REMARK INTER + INTRA:          -4.946
REMARK INTER:                  -4.822
REMARK INTRA:                  -0.124
REMARK UNBOUND:                -0.128
REMARK SMILES Cc1ccc(C(C)C)cc1O
REMARK SMILES IDX 1 1 2 2 10 3 9 4 5 5 4 6 3 7 11 8 6 10 7 11 8 12
REMARK H PARENT 11 9
REMARK Flexibility Score: inf
ROOT
ATOM      1  C   UNL     1      22.587  -5.611 108.504  1.00  0.00     0.048 C 
ATOM      2  C   UNL     1      22.569  -6.004 107.052  1.00  0.00    -0.009 A 
ATOM      3  C   UNL     1      23.756  -6.362 106.376  1.00  0.00     0.118 A 
ATOM      4  C   UNL     1      23.705  -6.723 105.025  1.00  0.00     0.050 A 
ATOM      5  C   UNL     1      22.485  -6.734 104.325  1.00  0.00    -0.042 A 
ATOM      6  C   UNL     1      21.310  -6.377 105.005  1.00  0.00     0.004 A 
ATOM      7  C   UNL     1      21.352  -6.016 106.353  1.00  0.00     0.007 A 
ENDROOT
BRANCH   3   8
ATOM      8  O   UNL     1      24.997  -6.371 107.016  1.00  0.00    -0.508 OA
ATOM      9  H   UNL     1      25.689  -5.644 106.889  1.00  0.00     0.293 HD
ENDBRANCH   3   8
BRANCH   5  10
ATOM     10  C   UNL     1      22.425  -7.125 102.860  1.00  0.00     0.013 C 
ATOM     11  C   UNL     1      21.384  -6.287 102.106  1.00  0.00     0.012 C 
ATOM     12  C   UNL     1      23.805  -7.015 102.200  1.00  0.00     0.012 C 
ENDBRANCH   5  10
TORSDOF 2
ENDMDL
