MODEL 1
REMARK VINA RESULT:    -3.431      0.000      0.000
REMARK INTER + INTRA:          -5.304
REMARK INTER:                  -5.236
REMARK INTRA:                  -0.068
REMARK UNBOUND:                -0.068
REMARK SMILES CC1=CCC[C@H](C)C(=O)C[C@@H](C(C)C)C(=O)C1
REMARK SMILES IDX 8 1 9 2 6 3 7 4 5 5 4 6 3 7 2 8 1 9 10 11 11 12 15 13 16 14
REMARK SMILES IDX 17 15 12 17 13 18 14 19
REMARK H PARENT
REMARK Flexibility Score: 70.00
ROOT
ATOM      1  C   UNL     1      17.393  28.266  30.069  1.00  0.00     0.136 C 
ATOM      2  O   UNL     1      16.234  27.885  30.139  1.00  0.00    -0.299 OA
ENDROOT
BRANCH   1   3
ATOM      3  C   UNL     1      18.348  27.479  29.183  1.00  0.00     0.053 C 
ATOM      4  C   UNL     1      18.254  27.837  27.692  1.00  0.00     0.016 C 
BRANCH   3   5
ATOM      5  C   UNL     1      19.791  27.500  29.731  1.00  0.00     0.015 C 
BRANCH   5   6
ATOM      6  C   UNL     1      20.803  28.278  28.866  1.00  0.00     0.028 C 
BRANCH   6   7
ATOM      7  C   UNL     1      21.748  29.058  29.744  1.00  0.00    -0.028 C 
ATOM      8  C   UNL     1      21.609  30.370  30.046  1.00  0.00    -0.070 CG0
ATOM      9  C   UNL     1      22.574  30.975  31.035  1.00  0.00     0.039 C 
ATOM     10  G   UNL     1      20.560  31.259  29.396  1.00  0.00     0.000 G0
ENDBRANCH   6   7
ENDBRANCH   5   6
ENDBRANCH   3   5
ENDBRANCH   1   3
BRANCH   1  11
ATOM     11  C   UNL     1      17.803  29.498  30.855  1.00  0.00     0.087 C 
BRANCH  11  12
ATOM     12  C   UNL     1      18.011  30.798  30.017  1.00  0.00     0.066 C 
BRANCH  12  13
ATOM     13  C   UNL     1      19.338  31.498  30.289  1.00  0.00     0.140 C 
ATOM     14  O   UNL     1      19.427  32.319  31.190  1.00  0.00    -0.299 OA
BRANCH  13  15
ATOM     15  C   UNL     1      20.531  31.255  29.391  1.00  0.00     0.106 CG0
ATOM     16  G   UNL     1      21.589  30.377  30.041  1.00  0.00     0.000 G0
ENDBRANCH  13  15
ENDBRANCH  12  13
BRANCH  12  17
ATOM     17  C   UNL     1      16.811  31.802  30.026  1.00  0.00    -0.006 C 
ATOM     18  C   UNL     1      15.450  31.172  29.691  1.00  0.00     0.008 C 
ATOM     19  C   UNL     1      17.068  33.005  29.103  1.00  0.00     0.008 C 
ENDBRANCH  12  17
ENDBRANCH  11  12
ENDBRANCH   1  11
TORSDOF 1
ENDMDL
MODEL 2
REMARK VINA RESULT:    -3.409      1.914      4.113
REMARK INTER + INTRA:          -5.271
REMARK INTER:                  -4.995
REMARK INTRA:                  -0.276
REMARK UNBOUND:                -0.068
REMARK SMILES CC1=CCC[C@H](C)C(=O)C[C@@H](C(C)C)C(=O)C1
REMARK SMILES IDX 8 1 9 2 6 3 7 4 5 5 4 6 3 7 2 8 1 9 10 11 11 12 15 13 16 14
REMARK SMILES IDX 17 15 12 17 13 18 14 19
REMARK H PARENT
REMARK Flexibility Score: 70.00
ROOT
ATOM      1  C   UNL     1      18.150  29.738  29.170  1.00  0.00     0.136 C 
ATOM      2  O   UNL     1      17.117  29.087  29.215  1.00  0.00    -0.299 OA
ENDROOT
BRANCH   1   3
ATOM      3  C   UNL     1      18.175  31.082  29.883  1.00  0.00     0.053 C 
ATOM      4  C   UNL     1      17.150  32.093  29.346  1.00  0.00     0.016 C 
BRANCH   3   5
ATOM      5  C   UNL     1      18.134  30.921  31.418  1.00  0.00     0.015 C 
BRANCH   5   6
ATOM      6  C   UNL     1      19.314  30.133  32.021  1.00  0.00     0.028 C 
BRANCH   6   7
ATOM      7  C   UNL     1      20.611  30.855  31.760  1.00  0.00    -0.028 C 
ATOM      8  C   UNL     1      21.715  30.282  31.227  1.00  0.00    -0.070 CG0
ATOM      9  C   UNL     1      22.895  31.169  30.918  1.00  0.00     0.039 C 
ATOM     10  G   UNL     1      21.828  28.786  30.977  1.00  0.00     0.000 G0
ENDBRANCH   6   7
ENDBRANCH   5   6
ENDBRANCH   3   5
ENDBRANCH   1   3
BRANCH   1  11
ATOM     11  C   UNL     1      19.339  29.167  28.419  1.00  0.00     0.087 C 
BRANCH  11  12
ATOM     12  C   UNL     1      20.103  28.012  29.138  1.00  0.00     0.066 C 
BRANCH  12  13
ATOM     13  C   UNL     1      21.527  28.375  29.543  1.00  0.00     0.140 C 
ATOM     14  O   UNL     1      22.440  28.276  28.736  1.00  0.00    -0.299 OA
BRANCH  13  15
ATOM     15  C   UNL     1      21.841  28.772  30.968  1.00  0.00     0.106 CG0
ATOM     16  G   UNL     1      21.697  30.267  31.209  1.00  0.00     0.000 G0
ENDBRANCH  13  15
ENDBRANCH  12  13
BRANCH  12  17
ATOM     17  C   UNL     1      20.037  26.619  28.427  1.00  0.00    -0.006 C 
ATOM     18  C   UNL     1      18.647  26.241  27.892  1.00  0.00     0.008 C 
ATOM     19  C   UNL     1      20.570  25.493  29.330  1.00  0.00     0.008 C 
ENDBRANCH  12  17
ENDBRANCH  11  12
ENDBRANCH   1  11
TORSDOF 1
ENDMDL
MODEL 3
REMARK VINA RESULT:    -3.370      2.210      5.502
REMARK INTER + INTRA:          -5.211
REMARK INTER:                  -5.173
REMARK INTRA:                  -0.037
REMARK UNBOUND:                -0.068
REMARK SMILES CC1=CCC[C@H](C)C(=O)C[C@@H](C(C)C)C(=O)C1
REMARK SMILES IDX 8 1 9 2 6 3 7 4 5 5 4 6 3 7 2 8 1 9 10 11 11 12 15 13 16 14
REMARK SMILES IDX 17 15 12 17 13 18 14 19
REMARK H PARENT
REMARK Flexibility Score: 70.00
ROOT
ATOM      1  C   UNL     1      19.857  32.813  30.128  1.00  0.00     0.136 C 
ATOM      2  O   UNL     1      20.729  33.319  29.439  1.00  0.00    -0.299 OA
ENDROOT
BRANCH   1   3
ATOM      3  C   UNL     1      18.687  33.690  30.552  1.00  0.00     0.053 C 
ATOM      4  C   UNL     1      19.097  34.924  31.372  1.00  0.00     0.016 C 
BRANCH   3   5
ATOM      5  C   UNL     1      17.757  34.022  29.366  1.00  0.00     0.015 C 
BRANCH   5   6
ATOM      6  C   UNL     1      16.712  32.938  29.037  1.00  0.00     0.028 C 
BRANCH   6   7
ATOM      7  C   UNL     1      15.959  32.543  30.282  1.00  0.00    -0.028 C 
ATOM      8  C   UNL     1      15.924  31.290  30.792  1.00  0.00    -0.070 CG0
ATOM      9  C   UNL     1      15.224  31.082  32.112  1.00  0.00     0.039 C 
ATOM     10  G   UNL     1      16.514  30.089  30.070  1.00  0.00     0.000 G0
ENDBRANCH   6   7
ENDBRANCH   5   6
ENDBRANCH   3   5
ENDBRANCH   1   3
BRANCH   1  11
ATOM     11  C   UNL     1      19.987  31.350  30.509  1.00  0.00     0.087 C 
BRANCH  11  12
ATOM     12  C   UNL     1      19.105  30.356  29.691  1.00  0.00     0.066 C 
BRANCH  12  13
ATOM     13  C   UNL     1      17.934  29.780  30.480  1.00  0.00     0.140 C 
ATOM     14  O   UNL     1      18.138  29.012  31.409  1.00  0.00    -0.299 OA
BRANCH  13  15
ATOM     15  C   UNL     1      16.511  30.079  30.067  1.00  0.00     0.106 CG0
ATOM     16  G   UNL     1      15.930  31.289  30.782  1.00  0.00     0.000 G0
ENDBRANCH  13  15
ENDBRANCH  12  13
BRANCH  12  17
ATOM     17  C   UNL     1      19.888  29.245  28.917  1.00  0.00    -0.006 C 
ATOM     18  C   UNL     1      18.998  28.185  28.248  1.00  0.00     0.008 C 
ATOM     19  C   UNL     1      20.933  28.556  29.811  1.00  0.00     0.008 C 
ENDBRANCH  12  17
ENDBRANCH  11  12
ENDBRANCH   1  11
TORSDOF 1
ENDMDL
MODEL 4
REMARK VINA RESULT:    -3.340      9.238     11.957
REMARK INTER + INTRA:          -5.166
REMARK INTER:                  -5.123
REMARK INTRA:                  -0.043
REMARK UNBOUND:                -0.068
REMARK SMILES CC1=CCC[C@H](C)C(=O)C[C@@H](C(C)C)C(=O)C1
REMARK SMILES IDX 8 1 9 2 6 3 7 4 5 5 4 6 3 7 2 8 1 9 10 11 11 12 15 13 16 14
REMARK SMILES IDX 17 15 12 17 13 18 14 19
REMARK H PARENT
REMARK Flexibility Score: 70.00
ROOT
ATOM      1  C   UNL     1      30.479  31.345  28.363  1.00  0.00     0.136 C 
ATOM      2  O   UNL     1      29.701  31.708  27.493  1.00  0.00    -0.299 OA
ENDROOT
BRANCH   1   3
ATOM      3  C   UNL     1      31.960  31.626  28.155  1.00  0.00     0.053 C 
ATOM      4  C   UNL     1      32.517  31.085  26.828  1.00  0.00     0.016 C 
BRANCH   3   5
ATOM      5  C   UNL     1      32.307  33.109  28.408  1.00  0.00     0.015 C 
BRANCH   5   6
ATOM      6  C   UNL     1      32.904  33.408  29.798  1.00  0.00     0.028 C 
BRANCH   6   7
ATOM      7  C   UNL     1      31.926  34.203  30.625  1.00  0.00    -0.028 C 
ATOM      8  C   UNL     1      31.307  33.741  31.736  1.00  0.00    -0.070 CG0
ATOM      9  C   UNL     1      30.447  34.701  32.519  1.00  0.00     0.039 C 
ATOM     10  G   UNL     1      31.404  32.293  32.193  1.00  0.00     0.000 G0
ENDBRANCH   6   7
ENDBRANCH   5   6
ENDBRANCH   3   5
ENDBRANCH   1   3
BRANCH   1  11
ATOM     11  C   UNL     1      29.924  30.652  29.593  1.00  0.00     0.087 C 
BRANCH  11  12
ATOM     12  C   UNL     1      29.335  31.589  30.693  1.00  0.00     0.066 C 
BRANCH  12  13
ATOM     13  C   UNL     1      30.084  31.529  32.019  1.00  0.00     0.140 C 
ATOM     14  O   UNL     1      29.601  30.934  32.971  1.00  0.00    -0.299 OA
BRANCH  13  15
ATOM     15  C   UNL     1      31.385  32.278  32.199  1.00  0.00     0.106 CG0
ATOM     16  G   UNL     1      31.297  33.730  31.755  1.00  0.00     0.000 G0
ENDBRANCH  13  15
ENDBRANCH  12  13
BRANCH  12  17
ATOM     17  C   UNL     1      27.786  31.498  30.895  1.00  0.00    -0.006 C 
ATOM     18  C   UNL     1      27.004  31.064  29.645  1.00  0.00     0.008 C 
ATOM     19  C   UNL     1      27.204  32.813  31.441  1.00  0.00     0.008 C 
ENDBRANCH  12  17
ENDBRANCH  11  12
ENDBRANCH   1  11
TORSDOF 1
ENDMDL
MODEL 5
REMARK VINA RESULT:    -3.335      1.305      2.011
REMARK INTER + INTRA:          -5.157
REMARK INTER:                  -5.041
REMARK INTRA:                  -0.116
REMARK UNBOUND:                -0.068
REMARK SMILES CC1=CCC[C@H](C)C(=O)C[C@@H](C(C)C)C(=O)C1
REMARK SMILES IDX 8 1 9 2 6 3 7 4 5 5 4 6 3 7 2 8 1 9 10 11 11 12 15 13 16 14
REMARK SMILES IDX 17 15 12 17 13 18 14 19
REMARK H PARENT
REMARK Flexibility Score: 70.00
ROOT
ATOM      1  C   UNL     1      16.296  29.398  30.065  1.00  0.00     0.136 C 
ATOM      2  O   UNL     1      15.378  29.817  29.375  1.00  0.00    -0.299 OA
ENDROOT
BRANCH   1   3
ATOM      3  C   UNL     1      16.606  27.908  30.007  1.00  0.00     0.053 C 
ATOM      4  C   UNL     1      15.423  27.009  30.398  1.00  0.00     0.016 C 
BRANCH   3   5
ATOM      5  C   UNL     1      17.266  27.509  28.669  1.00  0.00     0.015 C 
BRANCH   5   6
ATOM      6  C   UNL     1      18.342  28.488  28.158  1.00  0.00     0.028 C 
BRANCH   6   7
ATOM      7  C   UNL     1      19.671  28.185  28.802  1.00  0.00    -0.028 C 
ATOM      8  C   UNL     1      20.499  29.117  29.326  1.00  0.00    -0.070 CG0
ATOM      9  C   UNL     1      21.739  28.640  30.041  1.00  0.00     0.039 C 
ATOM     10  G   UNL     1      20.257  30.611  29.180  1.00  0.00     0.000 G0
ENDBRANCH   6   7
ENDBRANCH   5   6
ENDBRANCH   3   5
ENDBRANCH   1   3
BRANCH   1  11
ATOM     11  C   UNL     1      17.071  30.381  30.922  1.00  0.00     0.087 C 
BRANCH  11  12
ATOM     12  C   UNL     1      17.947  31.413  30.147  1.00  0.00     0.066 C 
BRANCH  12  13
ATOM     13  C   UNL     1      19.447  31.198  30.319  1.00  0.00     0.140 C 
ATOM     14  O   UNL     1      20.007  31.562  31.343  1.00  0.00    -0.299 OA
BRANCH  13  15
ATOM     15  C   UNL     1      20.272  30.618  29.192  1.00  0.00     0.106 CG0
ATOM     16  G   UNL     1      20.491  29.119  29.331  1.00  0.00     0.000 G0
ENDBRANCH  13  15
ENDBRANCH  12  13
BRANCH  12  17
ATOM     17  C   UNL     1      17.548  32.913  30.342  1.00  0.00    -0.006 C 
ATOM     18  C   UNL     1      16.760  33.202  31.629  1.00  0.00     0.008 C 
ATOM     19  C   UNL     1      16.779  33.460  29.127  1.00  0.00     0.008 C 
ENDBRANCH  12  17
ENDBRANCH  11  12
ENDBRANCH   1  11
TORSDOF 1
ENDMDL
MODEL 6
REMARK VINA RESULT:    -3.328      2.081      4.525
REMARK INTER + INTRA:          -5.146
REMARK INTER:                  -5.482
REMARK INTRA:                   0.335
REMARK UNBOUND:                -0.068
REMARK SMILES CC1=CCC[C@H](C)C(=O)C[C@@H](C(C)C)C(=O)C1
REMARK SMILES IDX 8 1 9 2 6 3 7 4 5 5 4 6 3 7 2 8 1 9 10 11 11 12 15 13 16 14
REMARK SMILES IDX 17 15 12 17 13 18 14 19
REMARK H PARENT
REMARK Flexibility Score: 70.00
ROOT
ATOM      1  C   UNL     1      20.442  26.825  28.774  1.00  0.00     0.136 C 
ATOM      2  O   UNL     1      20.528  26.028  29.696  1.00  0.00    -0.299 OA
ENDROOT
BRANCH   1   3
ATOM      3  C   UNL     1      19.113  26.919  28.038  1.00  0.00     0.053 C 
ATOM      4  C   UNL     1      18.358  25.583  27.940  1.00  0.00     0.016 C 
BRANCH   3   5
ATOM      5  C   UNL     1      18.242  28.079  28.566  1.00  0.00     0.015 C 
BRANCH   5   6
ATOM      6  C   UNL     1      18.771  29.489  28.237  1.00  0.00     0.028 C 
BRANCH   6   7
ATOM      7  C   UNL     1      18.670  30.381  29.448  1.00  0.00    -0.028 C 
ATOM      8  C   UNL     1      19.729  30.921  30.093  1.00  0.00    -0.070 CG0
ATOM      9  C   UNL     1      19.456  31.888  31.218  1.00  0.00     0.039 C 
ATOM     10  G   UNL     1      21.169  30.556  29.765  1.00  0.00     0.000 G0
ENDBRANCH   6   7
ENDBRANCH   5   6
ENDBRANCH   3   5
ENDBRANCH   1   3
BRANCH   1  11
ATOM     11  C   UNL     1      21.652  27.672  28.428  1.00  0.00     0.087 C 
BRANCH  11  12
ATOM     12  C   UNL     1      22.434  28.265  29.642  1.00  0.00     0.066 C 
BRANCH  12  13
ATOM     13  C   UNL     1      21.645  29.300  30.436  1.00  0.00     0.140 C 
ATOM     14  O   UNL     1      21.323  29.071  31.593  1.00  0.00    -0.299 OA
BRANCH  13  15
ATOM     15  C   UNL     1      21.175  30.577  29.777  1.00  0.00     0.106 CG0
ATOM     16  G   UNL     1      19.723  30.903  30.092  1.00  0.00     0.000 G0
ENDBRANCH  13  15
ENDBRANCH  12  13
BRANCH  12  17
ATOM     17  C   UNL     1      23.887  28.754  29.330  1.00  0.00    -0.006 C 
ATOM     18  C   UNL     1      24.861  27.639  28.920  1.00  0.00     0.008 C 
ATOM     19  C   UNL     1      24.480  29.558  30.500  1.00  0.00     0.008 C 
ENDBRANCH  12  17
ENDBRANCH  11  12
ENDBRANCH   1  11
TORSDOF 1
ENDMDL
MODEL 7
REMARK VINA RESULT:    -3.286      2.187      2.731
REMARK INTER + INTRA:          -5.082
REMARK INTER:                  -5.101
REMARK INTRA:                   0.019
REMARK UNBOUND:                -0.068
REMARK SMILES CC1=CCC[C@H](C)C(=O)C[C@@H](C(C)C)C(=O)C1
REMARK SMILES IDX 8 1 9 2 6 3 7 4 5 5 4 6 3 7 2 8 1 9 10 11 11 12 15 13 16 14
REMARK SMILES IDX 17 15 12 17 13 18 14 19
REMARK H PARENT
REMARK Flexibility Score: 70.00
ROOT
ATOM      1  C   UNL     1      19.040  26.309  28.625  1.00  0.00     0.136 C 
ATOM      2  O   UNL     1      18.138  26.399  27.806  1.00  0.00    -0.299 OA
ENDROOT
BRANCH   1   3
ATOM      3  C   UNL     1      20.051  25.185  28.450  1.00  0.00     0.053 C 
ATOM      4  C   UNL     1      20.098  24.605  27.028  1.00  0.00     0.016 C 
BRANCH   3   5
ATOM      5  C   UNL     1      21.440  25.568  29.005  1.00  0.00     0.015 C 
BRANCH   5   6
ATOM      6  C   UNL     1      22.339  26.346  28.023  1.00  0.00     0.028 C 
BRANCH   6   7
ATOM      7  C   UNL     1      23.311  27.214  28.781  1.00  0.00    -0.028 C 
ATOM      8  C   UNL     1      23.079  28.500  29.131  1.00  0.00    -0.070 CG0
ATOM      9  C   UNL     1      24.103  29.196  29.992  1.00  0.00     0.039 C 
ATOM     10  G   UNL     1      21.862  29.278  28.654  1.00  0.00     0.000 G0
ENDBRANCH   6   7
ENDBRANCH   5   6
ENDBRANCH   3   5
ENDBRANCH   1   3
BRANCH   1  11
ATOM     11  C   UNL     1      19.102  27.323  29.753  1.00  0.00     0.087 C 
BRANCH  11  12
ATOM     12  C   UNL     1      19.355  28.802  29.322  1.00  0.00     0.066 C 
BRANCH  12  13
ATOM     13  C   UNL     1      20.744  29.318  29.682  1.00  0.00     0.140 C 
ATOM     14  O   UNL     1      20.944  29.835  30.771  1.00  0.00    -0.299 OA
BRANCH  13  15
ATOM     15  C   UNL     1      21.863  29.281  28.665  1.00  0.00     0.106 CG0
ATOM     16  G   UNL     1      23.073  28.496  29.148  1.00  0.00     0.000 G0
ENDBRANCH  13  15
ENDBRANCH  12  13
BRANCH  12  17
ATOM     17  C   UNL     1      18.235  29.818  29.721  1.00  0.00    -0.006 C 
ATOM     18  C   UNL     1      16.802  29.307  29.502  1.00  0.00     0.008 C 
ATOM     19  C   UNL     1      18.417  31.173  29.015  1.00  0.00     0.008 C 
ENDBRANCH  12  17
ENDBRANCH  11  12
ENDBRANCH   1  11
TORSDOF 1
ENDMDL
MODEL 8
REMARK VINA RESULT:    -3.202      2.587      4.667
REMARK INTER + INTRA:          -4.954
REMARK INTER:                  -4.847
REMARK INTRA:                  -0.108
REMARK UNBOUND:                -0.068
REMARK SMILES CC1=CCC[C@H](C)C(=O)C[C@@H](C(C)C)C(=O)C1
REMARK SMILES IDX 8 1 9 2 6 3 7 4 5 5 4 6 3 7 2 8 1 9 10 11 11 12 15 13 16 14
REMARK SMILES IDX 17 15 12 17 13 18 14 19
REMARK H PARENT
REMARK Flexibility Score: 70.00
ROOT
ATOM      1  C   UNL     1      17.469  26.093  27.745  1.00  0.00     0.136 C 
ATOM      2  O   UNL     1      17.988  24.999  27.580  1.00  0.00    -0.299 OA
ENDROOT
BRANCH   1   3
ATOM      3  C   UNL     1      16.015  26.128  28.197  1.00  0.00     0.053 C 
ATOM      4  C   UNL     1      15.124  25.081  27.512  1.00  0.00     0.016 C 
BRANCH   3   5
ATOM      5  C   UNL     1      15.890  26.131  29.736  1.00  0.00     0.015 C 
BRANCH   5   6
ATOM      6  C   UNL     1      15.196  27.373  30.329  1.00  0.00     0.028 C 
BRANCH   6   7
ATOM      7  C   UNL     1      16.114  28.069  31.301  1.00  0.00    -0.028 C 
ATOM      8  C   UNL     1      16.877  29.145  31.000  1.00  0.00    -0.070 CG0
ATOM      9  C   UNL     1      17.652  29.799  32.116  1.00  0.00     0.039 C 
ATOM     10  G   UNL     1      17.020  29.684  29.585  1.00  0.00     0.000 G0
ENDBRANCH   6   7
ENDBRANCH   5   6
ENDBRANCH   3   5
ENDBRANCH   1   3
BRANCH   1  11
ATOM     11  C   UNL     1      18.300  27.339  27.502  1.00  0.00     0.087 C 
BRANCH  11  12
ATOM     12  C   UNL     1      18.889  28.020  28.777  1.00  0.00     0.066 C 
BRANCH  12  13
ATOM     13  C   UNL     1      18.395  29.445  28.997  1.00  0.00     0.140 C 
ATOM     14  O   UNL     1      19.132  30.393  28.771  1.00  0.00    -0.299 OA
BRANCH  13  15
ATOM     15  C   UNL     1      17.024  29.699  29.583  1.00  0.00     0.106 CG0
ATOM     16  G   UNL     1      16.878  29.160  30.998  1.00  0.00     0.000 G0
ENDBRANCH  13  15
ENDBRANCH  12  13
BRANCH  12  17
ATOM     17  C   UNL     1      20.441  27.911  28.940  1.00  0.00    -0.006 C 
ATOM     18  C   UNL     1      21.068  26.679  28.267  1.00  0.00     0.008 C 
ATOM     19  C   UNL     1      20.864  27.968  30.418  1.00  0.00     0.008 C 
ENDBRANCH  12  17
ENDBRANCH  11  12
ENDBRANCH   1  11
TORSDOF 1
ENDMDL
MODEL 9
REMARK VINA RESULT:    -3.147      2.853      4.924
REMARK INTER + INTRA:          -4.871
REMARK INTER:                  -4.985
REMARK INTRA:                   0.113
REMARK UNBOUND:                -0.068
REMARK SMILES CC1=CCC[C@H](C)C(=O)C[C@@H](C(C)C)C(=O)C1
REMARK SMILES IDX 8 1 9 2 6 3 7 4 5 5 4 6 3 7 2 8 1 9 10 11 11 12 15 13 16 14
REMARK SMILES IDX 17 15 12 17 13 18 14 19
REMARK H PARENT
REMARK Flexibility Score: 70.00
ROOT
ATOM      1  C   UNL     1      20.518  27.045  28.403  1.00  0.00     0.136 C 
ATOM      2  O   UNL     1      21.721  27.056  28.614  1.00  0.00    -0.299 OA
ENDROOT
BRANCH   1   3
ATOM      3  C   UNL     1      19.897  25.755  27.887  1.00  0.00     0.053 C 
ATOM      4  C   UNL     1      20.874  24.569  27.838  1.00  0.00     0.016 C 
BRANCH   3   5
ATOM      5  C   UNL     1      18.568  25.428  28.602  1.00  0.00     0.015 C 
BRANCH   5   6
ATOM      6  C   UNL     1      17.300  25.893  27.859  1.00  0.00     0.028 C 
BRANCH   6   7
ATOM      7  C   UNL     1      16.184  26.147  28.841  1.00  0.00    -0.028 C 
ATOM      8  C   UNL     1      15.939  27.340  29.431  1.00  0.00    -0.070 CG0
ATOM      9  C   UNL     1      14.712  27.462  30.299  1.00  0.00     0.039 C 
ATOM     10  G   UNL     1      16.870  28.535  29.294  1.00  0.00     0.000 G0
ENDBRANCH   6   7
ENDBRANCH   5   6
ENDBRANCH   3   5
ENDBRANCH   1   3
BRANCH   1  11
ATOM     11  C   UNL     1      19.720  28.307  28.676  1.00  0.00     0.087 C 
BRANCH  11  12
ATOM     12  C   UNL     1      19.362  28.573  30.172  1.00  0.00     0.066 C 
BRANCH  12  13
ATOM     13  C   UNL     1      17.864  28.656  30.440  1.00  0.00     0.140 C 
ATOM     14  O   UNL     1      17.449  28.738  31.587  1.00  0.00    -0.299 OA
BRANCH  13  15
ATOM     15  C   UNL     1      16.874  28.546  29.302  1.00  0.00     0.106 CG0
ATOM     16  G   UNL     1      15.959  27.338  29.431  1.00  0.00     0.000 G0
ENDBRANCH  13  15
ENDBRANCH  12  13
BRANCH  12  17
ATOM     17  C   UNL     1      20.141  29.748  30.850  1.00  0.00    -0.006 C 
ATOM     18  C   UNL     1      20.388  30.960  29.938  1.00  0.00     0.008 C 
ATOM     19  C   UNL     1      21.474  29.273  31.455  1.00  0.00     0.008 C 
ENDBRANCH  12  17
ENDBRANCH  11  12
ENDBRANCH   1  11
TORSDOF 1
ENDMDL
