MODEL 1
REMARK VINA RESULT:    -5.181      0.000      0.000
REMARK INTER + INTRA:         -10.821
REMARK INTER:                  -9.119
REMARK INTRA:                  -1.703
REMARK UNBOUND:                -1.703
REMARK SMILES COc1cc(-c2[o+]c3cc(O)cc(O[C@@H]4O[C@H](CO)[C@@H](O)[C@@H](O)[C@H]4O)c3cc2O[C@@H]2O[C@@H](CO)[C@@H](O)[C@@H](O)[C@@H]2O)ccc1O
REMARK SMILES IDX 6 1 28 2 27 3 26 4 13 5 12 6 10 7 9 8 8 9 7 10 5 11 3 12
REMARK SMILES IDX 43 13 4 14 42 15 41 16 2 17 1 18 44 19 29 21 30 22 39 23
REMARK SMILES IDX 31 24 37 25 32 26 35 27 40 28 38 30 33 32 34 33 36 35 14 37
REMARK SMILES IDX 15 38 24 39 16 40 22 41 17 42 20 43 25 44 23 46 18 48 19 49
REMARK SMILES IDX 21 51 11 53
REMARK H PARENT 44 20 40 29 38 31 34 34 36 36 25 45 23 47 19 50 21 52 11 54
REMARK Flexibility Score: inf
ROOT
ATOM      1  C   UNL     1      10.579  -0.545   2.856  1.00  0.00     0.402 A 
ATOM      2  C   UNL     1      11.943  -0.395   2.441  1.00  0.00     0.229 A 
ATOM      3  C   UNL     1      12.186  -0.227   1.074  1.00  0.00     0.079 A 
ATOM      4  C   UNL     1      11.136  -0.238   0.158  1.00  0.00     0.126 A 
ATOM      5  C   UNL     1      11.372  -0.143  -1.224  1.00  0.00     0.143 A 
ATOM      6  C   UNL     1      10.289  -0.195  -2.108  1.00  0.00     0.094 A 
ATOM      7  C   UNL     1       8.973  -0.299  -1.618  1.00  0.00     0.128 A 
ATOM      8  C   UNL     1       8.744  -0.399  -0.244  1.00  0.00     0.162 A 
ATOM      9  C   UNL     1       9.825  -0.395   0.647  1.00  0.00     0.368 A 
ATOM     10  O   UNL     1       9.598  -0.526   1.954  1.00  0.00    -0.202 OA
ENDROOT
BRANCH   1  11
ATOM     11  C   UNL     1      10.185  -0.711   4.267  1.00  0.00     0.087 A 
ATOM     12  C   UNL     1      10.810  -0.988   6.616  1.00  0.00     0.161 A 
ATOM     13  C   UNL     1       9.454  -0.988   6.979  1.00  0.00     0.157 A 
ATOM     14  C   UNL     1      11.165  -0.882   5.253  1.00  0.00     0.068 A 
ATOM     15  C   UNL     1       8.471  -0.881   5.981  1.00  0.00     0.051 A 
ATOM     16  C   UNL     1       8.843  -0.751   4.633  1.00  0.00     0.022 A 
BRANCH  12  17
ATOM     17  O   UNL     1      11.761  -1.125   7.627  1.00  0.00    -0.493 OA
ATOM     18  C   UNL     1      12.000  -0.173   8.671  1.00  0.00     0.278 C 
ENDBRANCH  12  17
BRANCH  13  19
ATOM     19  O   UNL     1       9.107  -1.107   8.323  1.00  0.00    -0.504 OA
ATOM     20  H   UNL     1       9.160  -0.338   8.970  1.00  0.00     0.293 HD
ENDBRANCH  13  19
ENDBRANCH   1  11
BRANCH   2  21
ATOM     21  O   UNL     1      13.086  -0.365   3.273  1.00  0.00    -0.452 OA
BRANCH  21  22
ATOM     22  C   UNL     1      14.308   0.360   3.113  1.00  0.00     0.339 C 
ATOM     23  C   UNL     1      14.132   1.902   3.202  1.00  0.00     0.214 C 
ATOM     24  O   UNL     1      15.249  -0.102   4.074  1.00  0.00    -0.332 OA
ATOM     25  C   UNL     1      14.785   2.475   4.474  1.00  0.00     0.180 C 
ATOM     26  C   UNL     1      14.808   0.114   5.423  1.00  0.00     0.179 C 
ATOM     27  C   UNL     1      14.422   1.598   5.675  1.00  0.00     0.177 C 
BRANCH  23  28
ATOM     28  O   UNL     1      12.764   2.241   3.179  1.00  0.00    -0.384 OA
ATOM     29  H   UNL     1      12.575   2.588   2.264  1.00  0.00     0.211 HD
ENDBRANCH  23  28
BRANCH  25  30
ATOM     30  O   UNL     1      16.172   2.530   4.298  1.00  0.00    -0.387 OA
ATOM     31  H   UNL     1      16.399   3.463   4.025  1.00  0.00     0.211 HD
ENDBRANCH  25  30
BRANCH  26  32
ATOM     32  C   UNL     1      15.910  -0.473   6.338  1.00  0.00     0.191 C 
BRANCH  32  33
ATOM     33  O   UNL     1      17.184   0.080   6.159  1.00  0.00    -0.394 OA
ATOM     34  H   UNL     1      17.359   0.730   6.902  1.00  0.00     0.210 HD
ENDBRANCH  32  33
ENDBRANCH  26  32
BRANCH  27  35
ATOM     35  O   UNL     1      15.004   2.135   6.839  1.00  0.00    -0.387 OA
ATOM     36  H   UNL     1      14.291   2.173   7.538  1.00  0.00     0.211 HD
ENDBRANCH  27  35
ENDBRANCH  21  22
ENDBRANCH   2  21
BRANCH   5  37
ATOM     37  O   UNL     1      12.656   0.071  -1.706  1.00  0.00    -0.461 OA
BRANCH  37  38
ATOM     38  C   UNL     1      13.070   1.332  -2.237  1.00  0.00     0.339 C 
ATOM     39  C   UNL     1      12.794   2.466  -1.218  1.00  0.00     0.214 C 
ATOM     40  O   UNL     1      14.428   1.245  -2.668  1.00  0.00    -0.332 OA
ATOM     41  C   UNL     1      13.973   3.445  -1.152  1.00  0.00     0.180 C 
ATOM     42  C   UNL     1      15.417   1.390  -1.640  1.00  0.00     0.179 C 
ATOM     43  C   UNL     1      15.231   2.649  -0.749  1.00  0.00     0.177 C 
BRANCH  39  44
ATOM     44  O   UNL     1      11.602   3.156  -1.514  1.00  0.00    -0.384 OA
ATOM     45  H   UNL     1      11.812   4.122  -1.512  1.00  0.00     0.211 HD
ENDBRANCH  39  44
BRANCH  41  46
ATOM     46  O   UNL     1      14.178   4.065  -2.411  1.00  0.00    -0.387 OA
ATOM     47  H   UNL     1      13.289   4.180  -2.841  1.00  0.00     0.211 HD
ENDBRANCH  41  46
BRANCH  42  48
ATOM     48  C   UNL     1      15.575   0.103  -0.827  1.00  0.00     0.191 C 
BRANCH  48  49
ATOM     49  O   UNL     1      15.382  -1.001  -1.663  1.00  0.00    -0.394 OA
ATOM     50  H   UNL     1      14.498  -1.402  -1.420  1.00  0.00     0.210 HD
ENDBRANCH  48  49
ENDBRANCH  42  48
BRANCH  43  51
ATOM     51  O   UNL     1      16.370   3.459  -0.782  1.00  0.00    -0.387 OA
ATOM     52  H   UNL     1      16.524   3.822   0.132  1.00  0.00     0.211 HD
ENDBRANCH  43  51
ENDBRANCH  37  38
ENDBRANCH   5  37
BRANCH   7  53
ATOM     53  O   UNL     1       7.875  -0.324  -2.498  1.00  0.00    -0.507 OA
ATOM     54  H   UNL     1       6.928  -0.215  -2.149  1.00  0.00     0.293 HD
ENDBRANCH   7  53
TORSDOF 18
ENDMDL
MODEL 2
REMARK VINA RESULT:    -4.473      2.046      6.212
REMARK INTER + INTRA:          -9.576
REMARK INTER:                  -8.592
REMARK INTRA:                  -0.983
REMARK UNBOUND:                -1.703
REMARK SMILES COc1cc(-c2[o+]c3cc(O)cc(O[C@@H]4O[C@H](CO)[C@@H](O)[C@@H](O)[C@H]4O)c3cc2O[C@@H]2O[C@@H](CO)[C@@H](O)[C@@H](O)[C@@H]2O)ccc1O
REMARK SMILES IDX 6 1 28 2 27 3 26 4 13 5 12 6 10 7 9 8 8 9 7 10 5 11 3 12
REMARK SMILES IDX 43 13 4 14 42 15 41 16 2 17 1 18 44 19 29 21 30 22 39 23
REMARK SMILES IDX 31 24 37 25 32 26 35 27 40 28 38 30 33 32 34 33 36 35 14 37
REMARK SMILES IDX 15 38 24 39 16 40 22 41 17 42 20 43 25 44 23 46 18 48 19 49
REMARK SMILES IDX 21 51 11 53
REMARK H PARENT 44 20 40 29 38 31 34 34 36 36 25 45 23 47 19 50 21 52 11 54
REMARK Flexibility Score: inf
ROOT
ATOM      1  C   UNL     1      13.248   0.292   4.523  1.00  0.00     0.402 A 
ATOM      2  C   UNL     1      12.839   0.835   3.262  1.00  0.00     0.229 A 
ATOM      3  C   UNL     1      11.466   0.891   3.000  1.00  0.00     0.079 A 
ATOM      4  C   UNL     1      10.544   0.405   3.925  1.00  0.00     0.126 A 
ATOM      5  C   UNL     1       9.167   0.389   3.644  1.00  0.00     0.143 A 
ATOM      6  C   UNL     1       8.283  -0.142   4.589  1.00  0.00     0.094 A 
ATOM      7  C   UNL     1       8.761  -0.616   5.826  1.00  0.00     0.128 A 
ATOM      8  C   UNL     1      10.130  -0.603   6.098  1.00  0.00     0.162 A 
ATOM      9  C   UNL     1      11.029  -0.116   5.139  1.00  0.00     0.368 A 
ATOM     10  O   UNL     1      12.336  -0.140   5.395  1.00  0.00    -0.202 OA
ENDROOT
BRANCH   1  11
ATOM     11  C   UNL     1      14.662   0.193   4.932  1.00  0.00     0.087 A 
ATOM     12  C   UNL     1      16.706   1.267   5.738  1.00  0.00     0.161 A 
ATOM     13  C   UNL     1      17.356   0.022   5.755  1.00  0.00     0.157 A 
ATOM     14  C   UNL     1      15.369   1.347   5.292  1.00  0.00     0.068 A 
ATOM     15  C   UNL     1      16.663  -1.125   5.331  1.00  0.00     0.051 A 
ATOM     16  C   UNL     1      15.325  -1.030   4.915  1.00  0.00     0.022 A 
BRANCH  12  17
ATOM     17  O   UNL     1      17.430   2.390   6.138  1.00  0.00    -0.493 OA
ATOM     18  C   UNL     1      17.436   3.652   5.461  1.00  0.00     0.278 C 
ENDBRANCH  12  17
BRANCH  13  19
ATOM     19  O   UNL     1      18.680  -0.052   6.181  1.00  0.00    -0.504 OA
ATOM     20  H   UNL     1      19.446   0.330   5.651  1.00  0.00     0.293 HD
ENDBRANCH  13  19
ENDBRANCH   1  11
BRANCH   2  21
ATOM     21  O   UNL     1      13.676   1.359   2.250  1.00  0.00    -0.452 OA
BRANCH  21  22
ATOM     22  C   UNL     1      13.441   2.440   1.344  1.00  0.00     0.339 C 
ATOM     23  C   UNL     1      14.527   3.550   1.406  1.00  0.00     0.214 C 
ATOM     24  O   UNL     1      13.316   1.920   0.027  1.00  0.00    -0.332 OA
ATOM     25  C   UNL     1      15.371   3.589   0.119  1.00  0.00     0.180 C 
ATOM     26  C   UNL     1      14.509   1.255  -0.417  1.00  0.00     0.179 C 
ATOM     27  C   UNL     1      15.762   2.164  -0.281  1.00  0.00     0.177 C 
BRANCH  23  28
ATOM     28  O   UNL     1      15.370   3.350   2.518  1.00  0.00    -0.384 OA
ATOM     29  H   UNL     1      14.795   2.982   3.244  1.00  0.00     0.211 HD
ENDBRANCH  23  28
BRANCH  25  30
ATOM     30  O   UNL     1      14.636   4.208  -0.899  1.00  0.00    -0.387 OA
ATOM     31  H   UNL     1      13.919   4.747  -0.460  1.00  0.00     0.211 HD
ENDBRANCH  25  30
BRANCH  26  32
ATOM     32  C   UNL     1      14.203   0.717  -1.835  1.00  0.00     0.191 C 
BRANCH  32  33
ATOM     33  O   UNL     1      12.843   0.626  -2.153  1.00  0.00    -0.394 OA
ATOM     34  H   UNL     1      12.514   1.534  -2.425  1.00  0.00     0.210 HD
ENDBRANCH  32  33
ENDBRANCH  26  32
BRANCH  27  35
ATOM     35  O   UNL     1      16.550   2.204  -1.447  1.00  0.00    -0.387 OA
ATOM     36  H   UNL     1      17.475   2.464  -1.171  1.00  0.00     0.211 HD
ENDBRANCH  27  35
ENDBRANCH  21  22
ENDBRANCH   2  21
BRANCH   5  37
ATOM     37  O   UNL     1       8.680   0.955   2.474  1.00  0.00    -0.461 OA
BRANCH  37  38
ATOM     38  C   UNL     1       9.317   0.760   1.210  1.00  0.00     0.339 C 
ATOM     39  C   UNL     1       8.260   0.606   0.088  1.00  0.00     0.214 C 
ATOM     40  O   UNL     1      10.266   1.803   0.987  1.00  0.00    -0.332 OA
ATOM     41  C   UNL     1       8.668   1.394  -1.163  1.00  0.00     0.180 C 
ATOM     42  C   UNL     1       9.728   3.035   0.489  1.00  0.00     0.179 C 
ATOM     43  C   UNL     1       8.823   2.876  -0.764  1.00  0.00     0.177 C 
BRANCH  39  44
ATOM     44  O   UNL     1       8.036  -0.746  -0.238  1.00  0.00    -0.384 OA
ATOM     45  H   UNL     1       7.065  -0.912  -0.152  1.00  0.00     0.211 HD
ENDBRANCH  39  44
BRANCH  41  46
ATOM     46  O   UNL     1       9.894   0.905  -1.683  1.00  0.00    -0.387 OA
ATOM     47  H   UNL     1       9.691   0.409  -2.521  1.00  0.00     0.211 HD
ENDBRANCH  41  46
BRANCH  42  48
ATOM     48  C   UNL     1       9.067   3.851   1.601  1.00  0.00     0.191 C 
BRANCH  48  49
ATOM     49  O   UNL     1       8.074   4.669   1.050  1.00  0.00    -0.394 OA
ATOM     50  H   UNL     1       8.503   5.193   0.314  1.00  0.00     0.210 HD
ENDBRANCH  48  49
ENDBRANCH  42  48
BRANCH  43  51
ATOM     51  O   UNL     1       9.307   3.636  -1.832  1.00  0.00    -0.387 OA
ATOM     52  H   UNL     1       8.628   4.330  -2.057  1.00  0.00     0.211 HD
ENDBRANCH  43  51
ENDBRANCH  37  38
ENDBRANCH   5  37
BRANCH   7  53
ATOM     53  O   UNL     1       7.876  -1.125   6.794  1.00  0.00    -0.507 OA
ATOM     54  H   UNL     1       6.973  -1.503   6.524  1.00  0.00     0.293 HD
ENDBRANCH   7  53
TORSDOF 18
ENDMDL
MODEL 3
REMARK VINA RESULT:    -4.414      1.960      6.028
REMARK INTER + INTRA:          -9.471
REMARK INTER:                  -8.945
REMARK INTRA:                  -0.526
REMARK UNBOUND:                -1.703
REMARK SMILES COc1cc(-c2[o+]c3cc(O)cc(O[C@@H]4O[C@H](CO)[C@@H](O)[C@@H](O)[C@H]4O)c3cc2O[C@@H]2O[C@@H](CO)[C@@H](O)[C@@H](O)[C@@H]2O)ccc1O
REMARK SMILES IDX 6 1 28 2 27 3 26 4 13 5 12 6 10 7 9 8 8 9 7 10 5 11 3 12
REMARK SMILES IDX 43 13 4 14 42 15 41 16 2 17 1 18 44 19 29 21 30 22 39 23
REMARK SMILES IDX 31 24 37 25 32 26 35 27 40 28 38 30 33 32 34 33 36 35 14 37
REMARK SMILES IDX 15 38 24 39 16 40 22 41 17 42 20 43 25 44 23 46 18 48 19 49
REMARK SMILES IDX 21 51 11 53
REMARK H PARENT 44 20 40 29 38 31 34 34 36 36 25 45 23 47 19 50 21 52 11 54
REMARK Flexibility Score: inf
ROOT
ATOM      1  C   UNL     1      13.792   0.425   4.668  1.00  0.00     0.402 A 
ATOM      2  C   UNL     1      13.581   0.487   3.252  1.00  0.00     0.229 A 
ATOM      3  C   UNL     1      12.289   0.230   2.781  1.00  0.00     0.079 A 
ATOM      4  C   UNL     1      11.263  -0.102   3.662  1.00  0.00     0.126 A 
ATOM      5  C   UNL     1       9.980  -0.434   3.197  1.00  0.00     0.143 A 
ATOM      6  C   UNL     1       8.991  -0.796   4.118  1.00  0.00     0.094 A 
ATOM      7  C   UNL     1       9.265  -0.789   5.499  1.00  0.00     0.128 A 
ATOM      8  C   UNL     1      10.544  -0.464   5.957  1.00  0.00     0.162 A 
ATOM      9  C   UNL     1      11.554  -0.145   5.039  1.00  0.00     0.368 A 
ATOM     10  O   UNL     1      12.780   0.129   5.484  1.00  0.00    -0.202 OA
ENDROOT
BRANCH   1  11
ATOM     11  C   UNL     1      15.099   0.694   5.296  1.00  0.00     0.087 A 
ATOM     12  C   UNL     1      17.298  -0.099   6.015  1.00  0.00     0.161 A 
ATOM     13  C   UNL     1      17.622   1.194   6.457  1.00  0.00     0.157 A 
ATOM     14  C   UNL     1      16.021  -0.346   5.466  1.00  0.00     0.068 A 
ATOM     15  C   UNL     1      16.671   2.222   6.343  1.00  0.00     0.051 A 
ATOM     16  C   UNL     1      15.414   1.963   5.772  1.00  0.00     0.022 A 
BRANCH  12  17
ATOM     17  O   UNL     1      18.254  -1.103   6.168  1.00  0.00    -0.493 OA
ATOM     18  C   UNL     1      19.642  -0.979   5.841  1.00  0.00     0.278 C 
ENDBRANCH  12  17
BRANCH  13  19
ATOM     19  O   UNL     1      18.877   1.432   7.012  1.00  0.00    -0.504 OA
ATOM     20  H   UNL     1      19.052   2.178   7.666  1.00  0.00     0.293 HD
ENDBRANCH  13  19
ENDBRANCH   1  11
BRANCH   2  21
ATOM     21  O   UNL     1      14.538   0.815   2.263  1.00  0.00    -0.452 OA
BRANCH  21  22
ATOM     22  C   UNL     1      15.256   2.035   2.062  1.00  0.00     0.339 C 
ATOM     23  C   UNL     1      15.760   2.227   0.604  1.00  0.00     0.214 C 
ATOM     24  O   UNL     1      14.437   3.125   2.467  1.00  0.00    -0.332 OA
ATOM     25  C   UNL     1      15.016   3.373  -0.107  1.00  0.00     0.180 C 
ATOM     26  C   UNL     1      13.227   3.218   1.697  1.00  0.00     0.179 C 
ATOM     27  C   UNL     1      13.515   3.259   0.171  1.00  0.00     0.177 C 
BRANCH  23  28
ATOM     28  O   UNL     1      15.600   1.033  -0.130  1.00  0.00    -0.384 OA
ATOM     29  H   UNL     1      15.166   1.288  -0.991  1.00  0.00     0.211 HD
ENDBRANCH  23  28
BRANCH  25  30
ATOM     30  O   UNL     1      15.516   4.600   0.347  1.00  0.00    -0.387 OA
ATOM     31  H   UNL     1      15.401   5.258  -0.394  1.00  0.00     0.211 HD
ENDBRANCH  25  30
BRANCH  26  32
ATOM     32  C   UNL     1      12.436   4.415   2.278  1.00  0.00     0.191 C 
BRANCH  32  33
ATOM     33  O   UNL     1      11.204   4.665   1.663  1.00  0.00    -0.394 OA
ATOM     34  H   UNL     1      11.355   5.268   0.876  1.00  0.00     0.210 HD
ENDBRANCH  32  33
ENDBRANCH  26  32
BRANCH  27  35
ATOM     35  O   UNL     1      12.837   4.297  -0.496  1.00  0.00    -0.387 OA
ATOM     36  H   UNL     1      12.971   4.158  -1.477  1.00  0.00     0.211 HD
ENDBRANCH  27  35
ENDBRANCH  21  22
ENDBRANCH   2  21
BRANCH   5  37
ATOM     37  O   UNL     1       9.673  -0.335   1.847  1.00  0.00    -0.461 OA
BRANCH  37  38
ATOM     38  C   UNL     1      10.509   0.367   0.924  1.00  0.00     0.339 C 
ATOM     39  C   UNL     1      10.289  -0.159  -0.516  1.00  0.00     0.214 C 
ATOM     40  O   UNL     1      10.311   1.773   1.076  1.00  0.00    -0.332 OA
ATOM     41  C   UNL     1      10.227   0.999  -1.520  1.00  0.00     0.180 C 
ATOM     42  C   UNL     1       9.168   2.314   0.401  1.00  0.00     0.179 C 
ATOM     43  C   UNL     1       9.074   1.932  -1.101  1.00  0.00     0.177 C 
BRANCH  39  44
ATOM     44  O   UNL     1      11.284  -1.082  -0.894  1.00  0.00    -0.384 OA
ATOM     45  H   UNL     1      11.766  -1.347  -0.072  1.00  0.00     0.211 HD
ENDBRANCH  39  44
BRANCH  41  46
ATOM     46  O   UNL     1      11.450   1.718  -1.527  1.00  0.00    -0.387 OA
ATOM     47  H   UNL     1      11.905   1.533  -2.392  1.00  0.00     0.211 HD
ENDBRANCH  41  46
BRANCH  42  48
ATOM     48  C   UNL     1       7.875   2.033   1.170  1.00  0.00     0.191 C 
BRANCH  48  49
ATOM     49  O   UNL     1       7.957   2.607   2.443  1.00  0.00    -0.394 OA
ATOM     50  H   UNL     1       7.130   2.340   2.938  1.00  0.00     0.210 HD
ENDBRANCH  48  49
ENDBRANCH  42  48
BRANCH  43  51
ATOM     51  O   UNL     1       9.032   3.073  -1.907  1.00  0.00    -0.387 OA
ATOM     52  H   UNL     1       8.536   2.851  -2.742  1.00  0.00     0.211 HD
ENDBRANCH  43  51
ENDBRANCH  37  38
ENDBRANCH   5  37
BRANCH   7  53
ATOM     53  O   UNL     1       8.269  -1.124   6.434  1.00  0.00    -0.507 OA
ATOM     54  H   UNL     1       7.835  -0.409   7.009  1.00  0.00     0.293 HD
ENDBRANCH   7  53
TORSDOF 18
ENDMDL
MODEL 4
REMARK VINA RESULT:    -3.750      2.321      8.139
REMARK INTER + INTRA:          -8.303
REMARK INTER:                  -8.825
REMARK INTRA:                   0.522
REMARK UNBOUND:                -1.703
REMARK SMILES COc1cc(-c2[o+]c3cc(O)cc(O[C@@H]4O[C@H](CO)[C@@H](O)[C@@H](O)[C@H]4O)c3cc2O[C@@H]2O[C@@H](CO)[C@@H](O)[C@@H](O)[C@@H]2O)ccc1O
REMARK SMILES IDX 6 1 28 2 27 3 26 4 13 5 12 6 10 7 9 8 8 9 7 10 5 11 3 12
REMARK SMILES IDX 43 13 4 14 42 15 41 16 2 17 1 18 44 19 29 21 30 22 39 23
REMARK SMILES IDX 31 24 37 25 32 26 35 27 40 28 38 30 33 32 34 33 36 35 14 37
REMARK SMILES IDX 15 38 24 39 16 40 22 41 17 42 20 43 25 44 23 46 18 48 19 49
REMARK SMILES IDX 21 51 11 53
REMARK H PARENT 44 20 40 29 38 31 34 34 36 36 25 45 23 47 19 50 21 52 11 54
REMARK Flexibility Score: inf
ROOT
ATOM      1  C   UNL     1      12.515   1.723   2.203  1.00  0.00     0.402 A 
ATOM      2  C   UNL     1      13.933   1.813   2.018  1.00  0.00     0.229 A 
ATOM      3  C   UNL     1      14.749   1.241   3.000  1.00  0.00     0.079 A 
ATOM      4  C   UNL     1      14.192   0.637   4.125  1.00  0.00     0.126 A 
ATOM      5  C   UNL     1      14.999   0.124   5.153  1.00  0.00     0.143 A 
ATOM      6  C   UNL     1      14.394  -0.441   6.281  1.00  0.00     0.094 A 
ATOM      7  C   UNL     1      12.992  -0.532   6.367  1.00  0.00     0.128 A 
ATOM      8  C   UNL     1      12.192  -0.015   5.345  1.00  0.00     0.162 A 
ATOM      9  C   UNL     1      12.788   0.594   4.233  1.00  0.00     0.368 A 
ATOM     10  O   UNL     1      12.016   1.115   3.280  1.00  0.00    -0.202 OA
ENDROOT
BRANCH   1  11
ATOM     11  C   UNL     1      11.545   2.267   1.234  1.00  0.00     0.087 A 
ATOM     12  C   UNL     1      10.399   4.188   0.245  1.00  0.00     0.161 A 
ATOM     13  C   UNL     1       9.722   3.332  -0.639  1.00  0.00     0.157 A 
ATOM     14  C   UNL     1      11.283   3.642   1.201  1.00  0.00     0.068 A 
ATOM     15  C   UNL     1       9.938   1.946  -0.560  1.00  0.00     0.051 A 
ATOM     16  C   UNL     1      10.841   1.423   0.380  1.00  0.00     0.022 A 
BRANCH  12  17
ATOM     17  O   UNL     1      10.141   5.555   0.161  1.00  0.00    -0.493 OA
ATOM     18  C   UNL     1       9.172   6.264   0.943  1.00  0.00     0.278 C 
ENDBRANCH  12  17
BRANCH  13  19
ATOM     19  O   UNL     1       8.839   3.872  -1.571  1.00  0.00    -0.504 OA
ATOM     20  H   UNL     1       9.095   4.619  -2.196  1.00  0.00     0.293 HD
ENDBRANCH  13  19
ENDBRANCH   1  11
BRANCH   2  21
ATOM     21  O   UNL     1      14.612   2.395   0.922  1.00  0.00    -0.452 OA
BRANCH  21  22
ATOM     22  C   UNL     1      15.306   1.763  -0.157  1.00  0.00     0.339 C 
ATOM     23  C   UNL     1      14.682   0.406  -0.588  1.00  0.00     0.214 C 
ATOM     24  O   UNL     1      15.375   2.665  -1.253  1.00  0.00    -0.332 OA
ATOM     25  C   UNL     1      14.044   0.495  -1.987  1.00  0.00     0.180 C 
ATOM     26  C   UNL     1      14.076   3.029  -1.748  1.00  0.00     0.179 C 
ATOM     27  C   UNL     1      13.218   1.780  -2.092  1.00  0.00     0.177 C 
BRANCH  23  28
ATOM     28  O   UNL     1      13.713  -0.007   0.349  1.00  0.00    -0.384 OA
ATOM     29  H   UNL     1      13.355   0.823   0.768  1.00  0.00     0.211 HD
ENDBRANCH  23  28
BRANCH  25  30
ATOM     30  O   UNL     1      15.051   0.469  -2.958  1.00  0.00    -0.387 OA
ATOM     31  H   UNL     1      15.909   0.694  -2.500  1.00  0.00     0.211 HD
ENDBRANCH  25  30
BRANCH  26  32
ATOM     32  C   UNL     1      14.317   4.034  -2.900  1.00  0.00     0.191 C 
BRANCH  32  33
ATOM     33  O   UNL     1      13.157   4.575  -3.466  1.00  0.00    -0.394 OA
ATOM     34  H   UNL     1      12.999   4.137  -4.354  1.00  0.00     0.210 HD
ENDBRANCH  32  33
ENDBRANCH  26  32
BRANCH  27  35
ATOM     35  O   UNL     1      12.620   1.848  -3.365  1.00  0.00    -0.387 OA
ATOM     36  H   UNL     1      13.230   2.379  -3.951  1.00  0.00     0.211 HD
ENDBRANCH  27  35
ENDBRANCH  21  22
ENDBRANCH   2  21
BRANCH   5  37
ATOM     37  O   UNL     1      16.381   0.111   5.024  1.00  0.00    -0.461 OA
BRANCH  37  38
ATOM     38  C   UNL     1      17.236  -0.438   6.030  1.00  0.00     0.339 C 
ATOM     39  C   UNL     1      18.714  -0.071   5.746  1.00  0.00     0.214 C 
ATOM     40  O   UNL     1      16.767  -0.046   7.320  1.00  0.00    -0.332 OA
ATOM     41  C   UNL     1      19.434   0.341   7.036  1.00  0.00     0.180 C 
ATOM     42  C   UNL     1      17.158   1.265   7.750  1.00  0.00     0.179 C 
ATOM     43  C   UNL     1      18.682   1.544   7.640  1.00  0.00     0.177 C 
BRANCH  39  44
ATOM     44  O   UNL     1      19.403  -1.124   5.115  1.00  0.00    -0.384 OA
ATOM     45  H   UNL     1      18.847  -1.937   5.208  1.00  0.00     0.211 HD
ENDBRANCH  39  44
BRANCH  41  46
ATOM     46  O   UNL     1      19.448  -0.733   7.964  1.00  0.00    -0.387 OA
ATOM     47  H   UNL     1      20.395  -1.008   8.095  1.00  0.00     0.211 HD
ENDBRANCH  41  46
BRANCH  42  48
ATOM     48  C   UNL     1      16.305   2.351   7.091  1.00  0.00     0.191 C 
BRANCH  48  49
ATOM     49  O   UNL     1      16.957   2.824   5.947  1.00  0.00    -0.394 OA
ATOM     50  H   UNL     1      17.890   3.062   6.220  1.00  0.00     0.210 HD
ENDBRANCH  48  49
ENDBRANCH  42  48
BRANCH  43  51
ATOM     51  O   UNL     1      19.217   1.900   8.881  1.00  0.00    -0.387 OA
ATOM     52  H   UNL     1      19.674   1.104   9.267  1.00  0.00     0.211 HD
ENDBRANCH  43  51
ENDBRANCH  37  38
ENDBRANCH   5  37
BRANCH   7  53
ATOM     53  O   UNL     1      12.375  -1.124   7.485  1.00  0.00    -0.507 OA
ATOM     54  H   UNL     1      11.448  -0.833   7.781  1.00  0.00     0.293 HD
ENDBRANCH   7  53
TORSDOF 18
ENDMDL
MODEL 5
REMARK VINA RESULT:    -3.299      1.981      7.617
REMARK INTER + INTRA:          -7.509
REMARK INTER:                  -7.978
REMARK INTRA:                   0.469
REMARK UNBOUND:                -1.703
REMARK SMILES COc1cc(-c2[o+]c3cc(O)cc(O[C@@H]4O[C@H](CO)[C@@H](O)[C@@H](O)[C@H]4O)c3cc2O[C@@H]2O[C@@H](CO)[C@@H](O)[C@@H](O)[C@@H]2O)ccc1O
REMARK SMILES IDX 6 1 28 2 27 3 26 4 13 5 12 6 10 7 9 8 8 9 7 10 5 11 3 12
REMARK SMILES IDX 43 13 4 14 42 15 41 16 2 17 1 18 44 19 29 21 30 22 39 23
REMARK SMILES IDX 31 24 37 25 32 26 35 27 40 28 38 30 33 32 34 33 36 35 14 37
REMARK SMILES IDX 15 38 24 39 16 40 22 41 17 42 20 43 25 44 23 46 18 48 19 49
REMARK SMILES IDX 21 51 11 53
REMARK H PARENT 44 20 40 29 38 31 34 34 36 36 25 45 23 47 19 50 21 52 11 54
REMARK Flexibility Score: inf
ROOT
ATOM      1  C   UNL     1      12.010   0.046   2.255  1.00  0.00     0.402 A 
ATOM      2  C   UNL     1      13.404   0.200   1.961  1.00  0.00     0.229 A 
ATOM      3  C   UNL     1      14.296   0.178   3.039  1.00  0.00     0.079 A 
ATOM      4  C   UNL     1      13.830   0.044   4.345  1.00  0.00     0.126 A 
ATOM      5  C   UNL     1      14.707   0.094   5.442  1.00  0.00     0.143 A 
ATOM      6  C   UNL     1      14.189  -0.010   6.737  1.00  0.00     0.094 A 
ATOM      7  C   UNL     1      12.809  -0.205   6.940  1.00  0.00     0.128 A 
ATOM      8  C   UNL     1      11.941  -0.248   5.848  1.00  0.00     0.162 A 
ATOM      9  C   UNL     1      12.444  -0.098   4.548  1.00  0.00     0.368 A 
ATOM     10  O   UNL     1      11.603  -0.106   3.515  1.00  0.00    -0.202 OA
ENDROOT
BRANCH   1  11
ATOM     11  C   UNL     1      10.969   0.032   1.210  1.00  0.00     0.087 A 
ATOM     12  C   UNL     1       9.218   1.192  -0.043  1.00  0.00     0.161 A 
ATOM     13  C   UNL     1       8.999   0.038  -0.811  1.00  0.00     0.157 A 
ATOM     14  C   UNL     1      10.183   1.168   0.988  1.00  0.00     0.068 A 
ATOM     15  C   UNL     1       9.746  -1.122  -0.543  1.00  0.00     0.051 A 
ATOM     16  C   UNL     1      10.718  -1.120   0.470  1.00  0.00     0.022 A 
BRANCH  12  17
ATOM     17  O   UNL     1       8.442   2.318  -0.314  1.00  0.00    -0.493 OA
ATOM     18  C   UNL     1       8.724   3.646   0.141  1.00  0.00     0.278 C 
ENDBRANCH  12  17
BRANCH  13  19
ATOM     19  O   UNL     1       8.037   0.059  -1.818  1.00  0.00    -0.504 OA
ATOM     20  H   UNL     1       8.262  -0.070  -2.791  1.00  0.00     0.293 HD
ENDBRANCH  13  19
ENDBRANCH   1  11
BRANCH   2  21
ATOM     21  O   UNL     1      13.994   0.340   0.683  1.00  0.00    -0.452 OA
BRANCH  21  22
ATOM     22  C   UNL     1      13.656   1.231  -0.382  1.00  0.00     0.339 C 
ATOM     23  C   UNL     1      13.367   2.684   0.092  1.00  0.00     0.214 C 
ATOM     24  O   UNL     1      14.695   1.207  -1.352  1.00  0.00    -0.332 OA
ATOM     25  C   UNL     1      14.458   3.662  -0.383  1.00  0.00     0.180 C 
ATOM     26  C   UNL     1      15.954   1.649  -0.820  1.00  0.00     0.179 C 
ATOM     27  C   UNL     1      15.838   3.044  -0.145  1.00  0.00     0.177 C 
BRANCH  23  28
ATOM     28  O   UNL     1      13.270   2.731   1.498  1.00  0.00    -0.384 OA
ATOM     29  H   UNL     1      12.958   1.830   1.789  1.00  0.00     0.211 HD
ENDBRANCH  23  28
BRANCH  25  30
ATOM     30  O   UNL     1      14.266   3.946  -1.740  1.00  0.00    -0.387 OA
ATOM     31  H   UNL     1      15.033   4.512  -2.035  1.00  0.00     0.211 HD
ENDBRANCH  25  30
BRANCH  26  32
ATOM     32  C   UNL     1      16.978   1.529  -1.974  1.00  0.00     0.191 C 
BRANCH  32  33
ATOM     33  O   UNL     1      18.282   1.920  -1.651  1.00  0.00    -0.394 OA
ATOM     34  H   UNL     1      18.784   2.096  -2.501  1.00  0.00     0.210 HD
ENDBRANCH  32  33
ENDBRANCH  26  32
BRANCH  27  35
ATOM     35  O   UNL     1      16.833   3.949  -0.562  1.00  0.00    -0.387 OA
ATOM     36  H   UNL     1      16.549   4.316  -1.447  1.00  0.00     0.211 HD
ENDBRANCH  27  35
ENDBRANCH  21  22
ENDBRANCH   2  21
BRANCH   5  37
ATOM     37  O   UNL     1      16.079   0.173   5.244  1.00  0.00    -0.461 OA
BRANCH  37  38
ATOM     38  C   UNL     1      17.016  -0.389   6.166  1.00  0.00     0.339 C 
ATOM     39  C   UNL     1      18.466  -0.054   5.738  1.00  0.00     0.214 C 
ATOM     40  O   UNL     1      16.683   0.021   7.493  1.00  0.00    -0.332 OA
ATOM     41  C   UNL     1      19.317   0.349   6.948  1.00  0.00     0.180 C 
ATOM     42  C   UNL     1      17.140   1.325   7.873  1.00  0.00     0.179 C 
ATOM     43  C   UNL     1      18.652   1.571   7.614  1.00  0.00     0.177 C 
BRANCH  39  44
ATOM     44  O   UNL     1      19.069  -1.125   5.050  1.00  0.00    -0.384 OA
ATOM     45  H   UNL     1      18.378  -1.527   4.467  1.00  0.00     0.211 HD
ENDBRANCH  39  44
BRANCH  41  46
ATOM     46  O   UNL     1      19.400  -0.720   7.878  1.00  0.00    -0.387 OA
ATOM     47  H   UNL     1      20.342  -1.038   7.892  1.00  0.00     0.211 HD
ENDBRANCH  41  46
BRANCH  42  48
ATOM     48  C   UNL     1      16.250   2.425   7.292  1.00  0.00     0.191 C 
BRANCH  48  49
ATOM     49  O   UNL     1      16.665   2.719   5.989  1.00  0.00    -0.394 OA
ATOM     50  H   UNL     1      15.840   2.787   5.427  1.00  0.00     0.210 HD
ENDBRANCH  48  49
ENDBRANCH  42  48
BRANCH  43  51
ATOM     51  O   UNL     1      19.313   1.922   8.794  1.00  0.00    -0.387 OA
ATOM     52  H   UNL     1      19.155   1.207   9.468  1.00  0.00     0.211 HD
ENDBRANCH  43  51
ENDBRANCH  37  38
ENDBRANCH   5  37
BRANCH   7  53
ATOM     53  O   UNL     1      12.283  -0.338   8.238  1.00  0.00    -0.507 OA
ATOM     54  H   UNL     1      12.736   0.107   9.030  1.00  0.00     0.293 HD
ENDBRANCH   7  53
TORSDOF 18
ENDMDL
MODEL 6
REMARK VINA RESULT:    -2.723     15.600     19.850
REMARK INTER + INTRA:          -6.496
REMARK INTER:                  -6.176
REMARK INTRA:                  -0.320
REMARK UNBOUND:                -1.703
REMARK SMILES COc1cc(-c2[o+]c3cc(O)cc(O[C@@H]4O[C@H](CO)[C@@H](O)[C@@H](O)[C@H]4O)c3cc2O[C@@H]2O[C@@H](CO)[C@@H](O)[C@@H](O)[C@@H]2O)ccc1O
REMARK SMILES IDX 6 1 28 2 27 3 26 4 13 5 12 6 10 7 9 8 8 9 7 10 5 11 3 12
REMARK SMILES IDX 43 13 4 14 42 15 41 16 2 17 1 18 44 19 29 21 30 22 39 23
REMARK SMILES IDX 31 24 37 25 32 26 35 27 40 28 38 30 33 32 34 33 36 35 14 37
REMARK SMILES IDX 15 38 24 39 16 40 22 41 17 42 20 43 25 44 23 46 18 48 19 49
REMARK SMILES IDX 21 51 11 53
REMARK H PARENT 44 20 40 29 38 31 34 34 36 36 25 45 23 47 19 50 21 52 11 54
REMARK Flexibility Score: inf
ROOT
ATOM      1  C   UNL     1      26.865  12.663  10.484  1.00  0.00     0.402 A 
ATOM      2  C   UNL     1      26.609  12.738   9.076  1.00  0.00     0.229 A 
ATOM      3  C   UNL     1      26.690  11.550   8.342  1.00  0.00     0.079 A 
ATOM      4  C   UNL     1      27.037  10.352   8.962  1.00  0.00     0.126 A 
ATOM      5  C   UNL     1      27.192   9.166   8.226  1.00  0.00     0.143 A 
ATOM      6  C   UNL     1      27.577   7.995   8.887  1.00  0.00     0.094 A 
ATOM      7  C   UNL     1      27.766   7.994  10.283  1.00  0.00     0.128 A 
ATOM      8  C   UNL     1      27.616   9.176  11.011  1.00  0.00     0.162 A 
ATOM      9  C   UNL     1      27.276  10.365  10.350  1.00  0.00     0.368 A 
ATOM     10  O   UNL     1      27.169  11.494  11.048  1.00  0.00    -0.202 OA
ENDROOT
BRANCH   1  11
ATOM     11  C   UNL     1      26.794  13.837  11.374  1.00  0.00     0.087 A 
ATOM     12  C   UNL     1      25.600  15.130  13.072  1.00  0.00     0.161 A 
ATOM     13  C   UNL     1      26.655  16.054  13.114  1.00  0.00     0.157 A 
ATOM     14  C   UNL     1      25.663  14.042  12.174  1.00  0.00     0.068 A 
ATOM     15  C   UNL     1      27.760  15.880  12.264  1.00  0.00     0.051 A 
ATOM     16  C   UNL     1      27.818  14.779  11.394  1.00  0.00     0.022 A 
BRANCH  12  17
ATOM     17  O   UNL     1      24.505  15.346  13.908  1.00  0.00    -0.493 OA
ATOM     18  C   UNL     1      23.937  14.374  14.794  1.00  0.00     0.278 C 
ENDBRANCH  12  17
BRANCH  13  19
ATOM     19  O   UNL     1      26.584  17.134  13.991  1.00  0.00    -0.504 OA
ATOM     20  H   UNL     1      27.398  17.548  14.414  1.00  0.00     0.293 HD
ENDBRANCH  13  19
ENDBRANCH   1  11
BRANCH   2  21
ATOM     21  O   UNL     1      26.247  13.889   8.337  1.00  0.00    -0.452 OA
BRANCH  21  22
ATOM     22  C   UNL     1      26.208  14.086   6.922  1.00  0.00     0.339 C 
ATOM     23  C   UNL     1      24.784  13.942   6.313  1.00  0.00     0.214 C 
ATOM     24  O   UNL     1      26.767  15.356   6.616  1.00  0.00    -0.332 OA
ATOM     25  C   UNL     1      24.246  15.292   5.803  1.00  0.00     0.180 C 
ATOM     26  C   UNL     1      26.032  16.438   7.210  1.00  0.00     0.179 C 
ATOM     27  C   UNL     1      24.522  16.379   6.845  1.00  0.00     0.177 C 
BRANCH  23  28
ATOM     28  O   UNL     1      23.895  13.409   7.269  1.00  0.00    -0.384 OA
ATOM     29  H   UNL     1      22.977  13.653   6.966  1.00  0.00     0.211 HD
ENDBRANCH  23  28
BRANCH  25  30
ATOM     30  O   UNL     1      24.859  15.603   4.584  1.00  0.00    -0.387 OA
ATOM     31  H   UNL     1      25.802  15.861   4.784  1.00  0.00     0.211 HD
ENDBRANCH  25  30
BRANCH  26  32
ATOM     32  C   UNL     1      26.781  17.735   6.822  1.00  0.00     0.191 C 
BRANCH  32  33
ATOM     33  O   UNL     1      26.650  18.116   5.481  1.00  0.00    -0.394 OA
ATOM     34  H   UNL     1      27.540  18.438   5.150  1.00  0.00     0.210 HD
ENDBRANCH  32  33
ENDBRANCH  26  32
BRANCH  27  35
ATOM     35  O   UNL     1      24.012  17.608   6.384  1.00  0.00    -0.387 OA
ATOM     36  H   UNL     1      24.334  18.317   7.011  1.00  0.00     0.211 HD
ENDBRANCH  27  35
ENDBRANCH  21  22
ENDBRANCH   2  21
BRANCH   5  37
ATOM     37  O   UNL     1      26.900   9.136   6.869  1.00  0.00    -0.461 OA
BRANCH  37  38
ATOM     38  C   UNL     1      26.510   7.934   6.200  1.00  0.00     0.339 C 
ATOM     39  C   UNL     1      25.981   6.893   7.219  1.00  0.00     0.214 C 
ATOM     40  O   UNL     1      25.595   8.249   5.150  1.00  0.00    -0.332 OA
ATOM     41  C   UNL     1      24.724   6.194   6.686  1.00  0.00     0.180 C 
ATOM     42  C   UNL     1      24.231   8.431   5.549  1.00  0.00     0.179 C 
ATOM     43  C   UNL     1      23.658   7.273   6.411  1.00  0.00     0.177 C 
BRANCH  39  44
ATOM     44  O   UNL     1      26.965   5.944   7.554  1.00  0.00    -0.384 OA
ATOM     45  H   UNL     1      27.839   6.406   7.537  1.00  0.00     0.211 HD
ENDBRANCH  39  44
BRANCH  41  46
ATOM     46  O   UNL     1      25.015   5.488   5.491  1.00  0.00    -0.387 OA
ATOM     47  H   UNL     1      25.333   4.580   5.744  1.00  0.00     0.211 HD
ENDBRANCH  41  46
BRANCH  42  48
ATOM     48  C   UNL     1      24.008   9.808   6.178  1.00  0.00     0.191 C 
BRANCH  48  49
ATOM     49  O   UNL     1      23.187  10.573   5.342  1.00  0.00    -0.394 OA
ATOM     50  H   UNL     1      22.377  10.021   5.143  1.00  0.00     0.210 HD
ENDBRANCH  48  49
ENDBRANCH  42  48
BRANCH  43  51
ATOM     51  O   UNL     1      22.523   6.717   5.814  1.00  0.00    -0.387 OA
ATOM     52  H   UNL     1      22.235   5.933   6.355  1.00  0.00     0.211 HD
ENDBRANCH  43  51
ENDBRANCH  37  38
ENDBRANCH   5  37
BRANCH   7  53
ATOM     53  O   UNL     1      28.125   6.814  10.961  1.00  0.00    -0.507 OA
ATOM     54  H   UNL     1      27.543   6.447  11.708  1.00  0.00     0.293 HD
ENDBRANCH   7  53
TORSDOF 18
ENDMDL
