MODEL 1
REMARK VINA RESULT:    -4.960      0.000      0.000
REMARK INTER + INTRA:          -5.344
REMARK INTER:                  -5.250
REMARK INTRA:                  -0.095
REMARK UNBOUND:                -0.095
REMARK SMILES C=C(C)[C@@H]1CC=C(C)C(=O)C1
REMARK SMILES IDX 8 1 7 2 6 3 5 4 4 5 11 6 9 7 10 8 2 9 1 10 3 11
REMARK H PARENT
REMARK Flexibility Score: inf
ROOT
ATOM      1  C   UNL     1     136.844 181.115 188.137  1.00  0.00     0.048 C 
ATOM      2  C   UNL     1     136.661 182.429 188.846  1.00  0.00    -0.012 C 
ATOM      3  C   UNL     1     137.609 182.883 189.685  1.00  0.00    -0.019 C 
ATOM      4  C   UNL     1     137.508 184.227 190.354  1.00  0.00     0.036 C 
ATOM      5  C   UNL     1     136.037 184.620 190.596  1.00  0.00     0.025 C 
ATOM      6  C   UNL     1     135.245 184.564 189.275  1.00  0.00     0.089 C 
ATOM      7  C   UNL     1     135.441 183.236 188.595  1.00  0.00     0.158 C 
ATOM      8  O   UNL     1     134.575 182.834 187.771  1.00  0.00    -0.295 OA
ENDROOT
BRANCH   5   9
ATOM      9  C   UNL     1     135.921 185.985 191.262  1.00  0.00    -0.077 C 
ATOM     10  C   UNL     1     136.854 186.935 191.078  1.00  0.00     0.008 C 
ATOM     11  C   UNL     1     134.742 186.295 192.149  1.00  0.00     0.039 C 
ENDBRANCH   5   9
TORSDOF 1
ENDMDL
MODEL 2
REMARK VINA RESULT:    -4.873      1.536      2.057
REMARK INTER + INTRA:          -5.253
REMARK INTER:                  -5.165
REMARK INTRA:                  -0.088
REMARK UNBOUND:                -0.095
REMARK SMILES C=C(C)[C@@H]1CC=C(C)C(=O)C1
REMARK SMILES IDX 8 1 7 2 6 3 5 4 4 5 11 6 9 7 10 8 2 9 1 10 3 11
REMARK H PARENT
REMARK Flexibility Score: inf
ROOT
ATOM      1  C   UNL     1     134.910 181.517 187.138  1.00  0.00     0.048 C 
ATOM      2  C   UNL     1     135.667 182.374 188.115  1.00  0.00    -0.012 C 
ATOM      3  C   UNL     1     136.888 182.000 188.538  1.00  0.00    -0.019 C 
ATOM      4  C   UNL     1     137.716 182.862 189.453  1.00  0.00     0.036 C 
ATOM      5  C   UNL     1     136.822 183.708 190.382  1.00  0.00     0.025 C 
ATOM      6  C   UNL     1     135.818 184.532 189.553  1.00  0.00     0.089 C 
ATOM      7  C   UNL     1     135.072 183.647 188.592  1.00  0.00     0.158 C 
ATOM      8  O   UNL     1     133.949 184.021 188.158  1.00  0.00    -0.295 OA
ENDROOT
BRANCH   5   9
ATOM      9  C   UNL     1     137.649 184.595 191.304  1.00  0.00    -0.077 C 
ATOM     10  C   UNL     1     137.677 184.389 192.632  1.00  0.00     0.008 C 
ATOM     11  C   UNL     1     138.458 185.732 190.734  1.00  0.00     0.039 C 
ENDBRANCH   5   9
TORSDOF 1
ENDMDL
MODEL 3
REMARK VINA RESULT:    -4.805      1.731      4.846
REMARK INTER + INTRA:          -5.181
REMARK INTER:                  -5.083
REMARK INTRA:                  -0.098
REMARK UNBOUND:                -0.095
REMARK SMILES C=C(C)[C@@H]1CC=C(C)C(=O)C1
REMARK SMILES IDX 8 1 7 2 6 3 5 4 4 5 11 6 9 7 10 8 2 9 1 10 3 11
REMARK H PARENT
REMARK Flexibility Score: inf
ROOT
ATOM      1  C   UNL     1     135.804 185.932 191.254  1.00  0.00     0.048 C 
ATOM      2  C   UNL     1     136.077 184.784 190.321  1.00  0.00    -0.012 C 
ATOM      3  C   UNL     1     135.150 184.408 189.422  1.00  0.00    -0.019 C 
ATOM      4  C   UNL     1     135.408 183.319 188.416  1.00  0.00     0.036 C 
ATOM      5  C   UNL     1     136.389 182.267 188.971  1.00  0.00     0.025 C 
ATOM      6  C   UNL     1     137.689 182.946 189.443  1.00  0.00     0.089 C 
ATOM      7  C   UNL     1     137.384 184.084 190.380  1.00  0.00     0.158 C 
ATOM      8  O   UNL     1     138.271 184.467 191.190  1.00  0.00    -0.295 OA
ENDROOT
BRANCH   5   9
ATOM      9  C   UNL     1     136.668 181.166 187.957  1.00  0.00    -0.077 C 
ATOM     10  C   UNL     1     137.697 180.315 188.113  1.00  0.00     0.008 C 
ATOM     11  C   UNL     1     135.782 181.011 186.747  1.00  0.00     0.039 C 
ENDBRANCH   5   9
TORSDOF 1
ENDMDL
MODEL 4
REMARK VINA RESULT:    -4.805      0.538      1.167
REMARK INTER + INTRA:          -5.181
REMARK INTER:                  -5.087
REMARK INTRA:                  -0.094
REMARK UNBOUND:                -0.095
REMARK SMILES C=C(C)[C@@H]1CC=C(C)C(=O)C1
REMARK SMILES IDX 8 1 7 2 6 3 5 4 4 5 11 6 9 7 10 8 2 9 1 10 3 11
REMARK H PARENT
REMARK Flexibility Score: inf
ROOT
ATOM      1  C   UNL     1     136.373 180.908 187.899  1.00  0.00     0.048 C 
ATOM      2  C   UNL     1     136.451 182.223 188.626  1.00  0.00    -0.012 C 
ATOM      3  C   UNL     1     137.540 182.528 189.355  1.00  0.00    -0.019 C 
ATOM      4  C   UNL     1     137.698 183.862 190.034  1.00  0.00     0.036 C 
ATOM      5  C   UNL     1     136.331 184.448 190.439  1.00  0.00     0.025 C 
ATOM      6  C   UNL     1     135.398 184.522 189.215  1.00  0.00     0.089 C 
ATOM      7  C   UNL     1     135.334 183.192 188.514  1.00  0.00     0.158 C 
ATOM      8  O   UNL     1     134.335 182.926 187.792  1.00  0.00    -0.295 OA
ENDROOT
BRANCH   5   9
ATOM      9  C   UNL     1     136.478 185.804 191.116  1.00  0.00    -0.077 C 
ATOM     10  C   UNL     1     135.477 186.336 191.840  1.00  0.00     0.008 C 
ATOM     11  C   UNL     1     137.763 186.580 190.984  1.00  0.00     0.039 C 
ENDBRANCH   5   9
TORSDOF 1
ENDMDL
MODEL 5
REMARK VINA RESULT:    -4.790      1.599      2.562
REMARK INTER + INTRA:          -5.165
REMARK INTER:                  -5.071
REMARK INTRA:                  -0.094
REMARK UNBOUND:                -0.095
REMARK SMILES C=C(C)[C@@H]1CC=C(C)C(=O)C1
REMARK SMILES IDX 8 1 7 2 6 3 5 4 4 5 11 6 9 7 10 8 2 9 1 10 3 11
REMARK H PARENT
REMARK Flexibility Score: inf
ROOT
ATOM      1  C   UNL     1     134.676 182.200 187.029  1.00  0.00     0.048 C 
ATOM      2  C   UNL     1     135.398 182.850 188.176  1.00  0.00    -0.012 C 
ATOM      3  C   UNL     1     134.946 184.007 188.692  1.00  0.00    -0.019 C 
ATOM      4  C   UNL     1     135.588 184.653 189.891  1.00  0.00     0.036 C 
ATOM      5  C   UNL     1     137.096 184.338 189.953  1.00  0.00     0.025 C 
ATOM      6  C   UNL     1     137.326 182.815 189.917  1.00  0.00     0.089 C 
ATOM      7  C   UNL     1     136.598 182.196 188.755  1.00  0.00     0.158 C 
ATOM      8  O   UNL     1     136.994 181.087 188.303  1.00  0.00    -0.295 OA
ENDROOT
BRANCH   5   9
ATOM      9  C   UNL     1     137.754 184.977 191.169  1.00  0.00    -0.077 C 
ATOM     10  C   UNL     1     137.723 184.382 192.374  1.00  0.00     0.008 C 
ATOM     11  C   UNL     1     138.460 186.302 191.037  1.00  0.00     0.039 C 
ENDBRANCH   5   9
TORSDOF 1
ENDMDL
MODEL 6
REMARK VINA RESULT:    -4.755      2.071      4.390
REMARK INTER + INTRA:          -5.128
REMARK INTER:                  -5.032
REMARK INTRA:                  -0.096
REMARK UNBOUND:                -0.095
REMARK SMILES C=C(C)[C@@H]1CC=C(C)C(=O)C1
REMARK SMILES IDX 8 1 7 2 6 3 5 4 4 5 11 6 9 7 10 8 2 9 1 10 3 11
REMARK H PARENT
REMARK Flexibility Score: inf
ROOT
ATOM      1  C   UNL     1     137.168 186.633 193.123  1.00  0.00     0.048 C 
ATOM      2  C   UNL     1     136.676 185.721 192.033  1.00  0.00    -0.012 C 
ATOM      3  C   UNL     1     137.545 184.965 191.340  1.00  0.00    -0.019 C 
ATOM      4  C   UNL     1     137.093 183.979 190.296  1.00  0.00     0.036 C 
ATOM      5  C   UNL     1     135.791 184.446 189.616  1.00  0.00     0.025 C 
ATOM      6  C   UNL     1     134.703 184.719 190.673  1.00  0.00     0.089 C 
ATOM      7  C   UNL     1     135.222 185.640 191.743  1.00  0.00     0.158 C 
ATOM      8  O   UNL     1     134.403 186.312 192.425  1.00  0.00    -0.295 OA
ENDROOT
BRANCH   5   9
ATOM      9  C   UNL     1     135.316 183.450 188.566  1.00  0.00    -0.077 C 
ATOM     10  C   UNL     1     134.219 183.684 187.826  1.00  0.00     0.008 C 
ATOM     11  C   UNL     1     136.079 182.170 188.338  1.00  0.00     0.039 C 
ENDBRANCH   5   9
TORSDOF 1
ENDMDL
MODEL 7
REMARK VINA RESULT:    -4.739      1.954      4.115
REMARK INTER + INTRA:          -5.111
REMARK INTER:                  -5.015
REMARK INTRA:                  -0.096
REMARK UNBOUND:                -0.095
REMARK SMILES C=C(C)[C@@H]1CC=C(C)C(=O)C1
REMARK SMILES IDX 8 1 7 2 6 3 5 4 4 5 11 6 9 7 10 8 2 9 1 10 3 11
REMARK H PARENT
REMARK Flexibility Score: inf
ROOT
ATOM      1  C   UNL     1     137.952 184.799 191.790  1.00  0.00     0.048 C 
ATOM      2  C   UNL     1     137.009 184.237 190.762  1.00  0.00    -0.012 C 
ATOM      3  C   UNL     1     137.427 183.284 189.910  1.00  0.00    -0.019 C 
ATOM      4  C   UNL     1     136.499 182.635 188.918  1.00  0.00     0.036 C 
ATOM      5  C   UNL     1     135.388 183.608 188.475  1.00  0.00     0.025 C 
ATOM      6  C   UNL     1     134.639 184.159 189.703  1.00  0.00     0.089 C 
ATOM      7  C   UNL     1     135.607 184.721 190.708  1.00  0.00     0.158 C 
ATOM      8  O   UNL     1     135.202 185.579 191.538  1.00  0.00    -0.295 OA
ENDROOT
BRANCH   5   9
ATOM      9  C   UNL     1     134.435 182.959 187.480  1.00  0.00    -0.077 C 
ATOM     10  C   UNL     1     134.654 181.720 187.008  1.00  0.00     0.008 C 
ATOM     11  C   UNL     1     133.216 183.707 187.004  1.00  0.00     0.039 C 
ENDBRANCH   5   9
TORSDOF 1
ENDMDL
MODEL 8
REMARK VINA RESULT:    -4.380      2.748      4.487
REMARK INTER + INTRA:          -4.731
REMARK INTER:                  -4.643
REMARK INTRA:                  -0.088
REMARK UNBOUND:                -0.095
REMARK SMILES C=C(C)[C@@H]1CC=C(C)C(=O)C1
REMARK SMILES IDX 8 1 7 2 6 3 5 4 4 5 11 6 9 7 10 8 2 9 1 10 3 11
REMARK H PARENT
REMARK Flexibility Score: inf
ROOT
ATOM      1  C   UNL     1     138.107 184.584 194.245  1.00  0.00     0.048 C 
ATOM      2  C   UNL     1     137.459 184.271 192.924  1.00  0.00    -0.012 C 
ATOM      3  C   UNL     1     136.624 183.223 192.812  1.00  0.00    -0.019 C 
ATOM      4  C   UNL     1     135.890 182.918 191.533  1.00  0.00     0.036 C 
ATOM      5  C   UNL     1     136.703 183.370 190.303  1.00  0.00     0.025 C 
ATOM      6  C   UNL     1     137.072 184.861 190.424  1.00  0.00     0.089 C 
ATOM      7  C   UNL     1     137.724 185.140 191.751  1.00  0.00     0.158 C 
ATOM      8  O   UNL     1     138.469 186.151 191.868  1.00  0.00    -0.295 OA
ENDROOT
BRANCH   5   9
ATOM      9  C   UNL     1     135.965 183.078 189.003  1.00  0.00    -0.077 C 
ATOM     10  C   UNL     1     136.251 181.991 188.266  1.00  0.00     0.008 C 
ATOM     11  C   UNL     1     134.890 184.015 188.517  1.00  0.00     0.039 C 
ENDBRANCH   5   9
TORSDOF 1
ENDMDL
MODEL 9
REMARK VINA RESULT:    -4.359      2.067      3.526
REMARK INTER + INTRA:          -4.708
REMARK INTER:                  -4.615
REMARK INTRA:                  -0.093
REMARK UNBOUND:                -0.095
REMARK SMILES C=C(C)[C@@H]1CC=C(C)C(=O)C1
REMARK SMILES IDX 8 1 7 2 6 3 5 4 4 5 11 6 9 7 10 8 2 9 1 10 3 11
REMARK H PARENT
REMARK Flexibility Score: inf
ROOT
ATOM      1  C   UNL     1     133.419 182.621 185.235  1.00  0.00     0.048 C 
ATOM      2  C   UNL     1     134.133 182.740 186.553  1.00  0.00    -0.012 C 
ATOM      3  C   UNL     1     133.768 183.685 187.437  1.00  0.00    -0.019 C 
ATOM      4  C   UNL     1     134.398 183.792 188.800  1.00  0.00     0.036 C 
ATOM      5  C   UNL     1     135.861 183.305 188.778  1.00  0.00     0.025 C 
ATOM      6  C   UNL     1     135.940 181.876 188.207  1.00  0.00     0.089 C 
ATOM      7  C   UNL     1     135.225 181.792 186.886  1.00  0.00     0.158 C 
ATOM      8  O   UNL     1     135.535 180.875 186.077  1.00  0.00    -0.295 OA
ENDROOT
BRANCH   5   9
ATOM      9  C   UNL     1     136.506 183.396 190.154  1.00  0.00    -0.077 C 
ATOM     10  C   UNL     1     135.955 182.800 191.226  1.00  0.00     0.008 C 
ATOM     11  C   UNL     1     137.788 184.167 190.338  1.00  0.00     0.039 C 
ENDBRANCH   5   9
TORSDOF 1
ENDMDL
