MODEL 1
REMARK VINA RESULT:    -6.225      0.000      0.000
REMARK INTER + INTRA:          -7.831
REMARK INTER:                  -7.499
REMARK INTRA:                  -0.332
REMARK UNBOUND:                -0.332
REMARK SMILES O=c1c(O)c(-c2ccc(O)c(O)c2)oc2cc(O)cc(O)c12
REMARK SMILES IDX 5 1 3 2 2 3 1 4 22 5 20 6 19 7 17 8 16 9 15 10 14 11 6 12
REMARK SMILES IDX 7 13 8 14 9 15 13 16 11 17 10 18 12 20 4 22 21 24 18 26
REMARK H PARENT 10 19 12 21 4 23 21 25 18 27
REMARK Flexibility Score: inf
ROOT
ATOM      1  C   UNL     1      -0.774  26.060  -8.286  1.00  0.00     0.180 A 
ATOM      2  C   UNL     1      -0.618  24.858  -9.003  1.00  0.00     0.208 A 
ATOM      3  C   UNL     1       0.488  24.041  -8.723  1.00  0.00     0.238 A 
ATOM      4  O   UNL     1       0.643  22.967  -9.366  1.00  0.00    -0.285 OA
ATOM      5  C   UNL     1       1.404  24.425  -7.722  1.00  0.00     0.111 A 
ATOM      6  C   UNL     1       2.540  23.656  -7.377  1.00  0.00     0.134 A 
ATOM      7  C   UNL     1       3.401  24.102  -6.363  1.00  0.00     0.093 A 
ATOM      8  C   UNL     1       3.145  25.302  -5.687  1.00  0.00     0.123 A 
ATOM      9  C   UNL     1       2.025  26.063  -6.025  1.00  0.00     0.094 A 
ATOM     10  C   UNL     1       1.157  25.637  -7.035  1.00  0.00     0.146 A 
ATOM     11  O   UNL     1       0.102  26.383  -7.339  1.00  0.00    -0.452 OA
ENDROOT
BRANCH   1  12
ATOM     12  C   UNL     1      -1.903  26.985  -8.537  1.00  0.00     0.025 A 
ATOM     13  C   UNL     1      -3.072  26.874  -7.766  1.00  0.00     0.016 A 
ATOM     14  C   UNL     1      -4.141  27.749  -7.972  1.00  0.00     0.051 A 
ATOM     15  C   UNL     1      -4.052  28.757  -8.940  1.00  0.00     0.157 A 
ATOM     16  C   UNL     1      -1.810  28.013  -9.493  1.00  0.00     0.062 A 
ATOM     17  C   UNL     1      -2.883  28.892  -9.699  1.00  0.00     0.158 A 
BRANCH  15  18
ATOM     18  O   UNL     1      -5.117  29.631  -9.149  1.00  0.00    -0.504 OA
ATOM     19  H   UNL     1      -4.981  30.542  -9.573  1.00  0.00     0.293 HD
ENDBRANCH  15  18
BRANCH  17  20
ATOM     20  O   UNL     1      -2.792  29.905 -10.652  1.00  0.00    -0.504 OA
ATOM     21  H   UNL     1      -2.574  30.860 -10.391  1.00  0.00     0.293 HD
ENDBRANCH  17  20
ENDBRANCH   1  12
BRANCH   2  22
ATOM     22  O   UNL     1      -1.567  24.476  -9.954  1.00  0.00    -0.502 OA
ATOM     23  H   UNL     1      -1.338  24.365 -10.935  1.00  0.00     0.293 HD
ENDBRANCH   2  22
BRANCH   6  24
ATOM     24  O   UNL     1       2.822  22.456  -8.032  1.00  0.00    -0.507 OA
ATOM     25  H   UNL     1       3.385  21.732  -7.599  1.00  0.00     0.293 HD
ENDBRANCH   6  24
BRANCH   8  26
ATOM     26  O   UNL     1       3.997  25.745  -4.680  1.00  0.00    -0.508 OA
ATOM     27  H   UNL     1       3.929  25.390  -3.732  1.00  0.00     0.293 HD
ENDBRANCH   8  26
TORSDOF 6
ENDMDL
MODEL 2
REMARK VINA RESULT:    -6.177      1.452      2.977
REMARK INTER + INTRA:          -7.773
REMARK INTER:                  -7.544
REMARK INTRA:                  -0.229
REMARK UNBOUND:                -0.332
REMARK SMILES O=c1c(O)c(-c2ccc(O)c(O)c2)oc2cc(O)cc(O)c12
REMARK SMILES IDX 5 1 3 2 2 3 1 4 22 5 20 6 19 7 17 8 16 9 15 10 14 11 6 12
REMARK SMILES IDX 7 13 8 14 9 15 13 16 11 17 10 18 12 20 4 22 21 24 18 26
REMARK H PARENT 10 19 12 21 4 23 21 25 18 27
REMARK Flexibility Score: inf
ROOT
ATOM      1  C   UNL     1      -1.153  26.836  -8.257  1.00  0.00     0.180 A 
ATOM      2  C   UNL     1      -0.375  27.110  -7.116  1.00  0.00     0.208 A 
ATOM      3  C   UNL     1       0.799  26.373  -6.902  1.00  0.00     0.238 A 
ATOM      4  O   UNL     1       1.499  26.603  -5.879  1.00  0.00    -0.285 OA
ATOM      5  C   UNL     1       1.187  25.392  -7.839  1.00  0.00     0.111 A 
ATOM      6  C   UNL     1       2.358  24.610  -7.701  1.00  0.00     0.134 A 
ATOM      7  C   UNL     1       2.679  23.659  -8.681  1.00  0.00     0.093 A 
ATOM      8  C   UNL     1       1.853  23.478  -9.797  1.00  0.00     0.123 A 
ATOM      9  C   UNL     1       0.698  24.248  -9.937  1.00  0.00     0.094 A 
ATOM     10  C   UNL     1       0.358  25.199  -8.970  1.00  0.00     0.146 A 
ATOM     11  O   UNL     1      -0.749  25.914  -9.126  1.00  0.00    -0.452 OA
ENDROOT
BRANCH   1  12
ATOM     12  C   UNL     1      -2.415  27.557  -8.541  1.00  0.00     0.025 A 
ATOM     13  C   UNL     1      -3.543  27.317  -7.740  1.00  0.00     0.016 A 
ATOM     14  C   UNL     1      -4.738  28.001  -7.978  1.00  0.00     0.051 A 
ATOM     15  C   UNL     1      -4.818  28.945  -9.009  1.00  0.00     0.157 A 
ATOM     16  C   UNL     1      -2.494  28.522  -9.562  1.00  0.00     0.062 A 
ATOM     17  C   UNL     1      -3.694  29.209  -9.800  1.00  0.00     0.158 A 
BRANCH  15  18
ATOM     18  O   UNL     1      -6.009  29.629  -9.249  1.00  0.00    -0.504 OA
ATOM     19  H   UNL     1      -6.143  30.586  -8.943  1.00  0.00     0.293 HD
ENDBRANCH  15  18
BRANCH  17  20
ATOM     20  O   UNL     1      -3.772  30.160 -10.816  1.00  0.00    -0.504 OA
ATOM     21  H   UNL     1      -4.573  30.775 -10.906  1.00  0.00     0.293 HD
ENDBRANCH  17  20
ENDBRANCH   1  12
BRANCH   2  22
ATOM     22  O   UNL     1      -0.755  28.121  -6.230  1.00  0.00    -0.502 OA
ATOM     23  H   UNL     1      -1.300  28.923  -6.523  1.00  0.00     0.293 HD
ENDBRANCH   2  22
BRANCH   6  24
ATOM     24  O   UNL     1       3.201  24.767  -6.600  1.00  0.00    -0.507 OA
ATOM     25  H   UNL     1       2.846  24.758  -5.651  1.00  0.00     0.293 HD
ENDBRANCH   6  24
BRANCH   8  26
ATOM     26  O   UNL     1       2.172  22.536 -10.771  1.00  0.00    -0.508 OA
ATOM     27  H   UNL     1       2.793  21.759 -10.575  1.00  0.00     0.293 HD
ENDBRANCH   8  26
TORSDOF 6
ENDMDL
MODEL 3
REMARK VINA RESULT:    -6.115      1.647      3.680
REMARK INTER + INTRA:          -7.698
REMARK INTER:                  -7.370
REMARK INTRA:                  -0.328
REMARK UNBOUND:                -0.332
REMARK SMILES O=c1c(O)c(-c2ccc(O)c(O)c2)oc2cc(O)cc(O)c12
REMARK SMILES IDX 5 1 3 2 2 3 1 4 22 5 20 6 19 7 17 8 16 9 15 10 14 11 6 12
REMARK SMILES IDX 7 13 8 14 9 15 13 16 11 17 10 18 12 20 4 22 21 24 18 26
REMARK H PARENT 10 19 12 21 4 23 21 25 18 27
REMARK Flexibility Score: inf
ROOT
ATOM      1  C   UNL     1      -2.050  27.640  -8.276  1.00  0.00     0.180 A 
ATOM      2  C   UNL     1      -1.241  28.204  -7.270  1.00  0.00     0.208 A 
ATOM      3  C   UNL     1      -0.146  27.470  -6.790  1.00  0.00     0.238 A 
ATOM      4  O   UNL     1       0.579  27.960  -5.882  1.00  0.00    -0.285 OA
ATOM      5  C   UNL     1       0.136  26.200  -7.336  1.00  0.00     0.111 A 
ATOM      6  C   UNL     1       1.223  25.399  -6.911  1.00  0.00     0.134 A 
ATOM      7  C   UNL     1       1.442  24.149  -7.509  1.00  0.00     0.093 A 
ATOM      8  C   UNL     1       0.595  23.687  -8.525  1.00  0.00     0.123 A 
ATOM      9  C   UNL     1      -0.478  24.474  -8.946  1.00  0.00     0.094 A 
ATOM     10  C   UNL     1      -0.714  25.721  -8.360  1.00  0.00     0.146 A 
ATOM     11  O   UNL     1      -1.745  26.446  -8.777  1.00  0.00    -0.452 OA
ENDROOT
BRANCH   1  12
ATOM     12  C   UNL     1      -3.234  28.343  -8.820  1.00  0.00     0.025 A 
ATOM     13  C   UNL     1      -3.123  29.052 -10.028  1.00  0.00     0.016 A 
ATOM     14  C   UNL     1      -4.232  29.706 -10.569  1.00  0.00     0.051 A 
ATOM     15  C   UNL     1      -5.472  29.648  -9.920  1.00  0.00     0.157 A 
ATOM     16  C   UNL     1      -4.486  28.271  -8.183  1.00  0.00     0.062 A 
ATOM     17  C   UNL     1      -5.600  28.926  -8.727  1.00  0.00     0.158 A 
BRANCH  15  18
ATOM     18  O   UNL     1      -6.581  30.300 -10.457  1.00  0.00    -0.504 OA
ATOM     19  H   UNL     1      -7.048  31.050  -9.959  1.00  0.00     0.293 HD
ENDBRANCH  15  18
BRANCH  17  20
ATOM     20  O   UNL     1      -6.838  28.859  -8.091  1.00  0.00    -0.504 OA
ATOM     21  H   UNL     1      -7.078  28.089  -7.477  1.00  0.00     0.293 HD
ENDBRANCH  17  20
ENDBRANCH   1  12
BRANCH   2  22
ATOM     22  O   UNL     1      -1.513  29.484  -6.782  1.00  0.00    -0.502 OA
ATOM     23  H   UNL     1      -2.392  29.721  -6.339  1.00  0.00     0.293 HD
ENDBRANCH   2  22
BRANCH   6  24
ATOM     24  O   UNL     1       2.084  25.833  -5.902  1.00  0.00    -0.507 OA
ATOM     25  H   UNL     1       3.022  26.158  -6.106  1.00  0.00     0.293 HD
ENDBRANCH   6  24
BRANCH   8  26
ATOM     26  O   UNL     1       0.812  22.447  -9.120  1.00  0.00    -0.508 OA
ATOM     27  H   UNL     1       0.222  21.649  -8.913  1.00  0.00     0.293 HD
ENDBRANCH   8  26
TORSDOF 6
ENDMDL
MODEL 4
REMARK VINA RESULT:    -5.951      2.265      6.409
REMARK INTER + INTRA:          -7.501
REMARK INTER:                  -7.512
REMARK INTRA:                   0.011
REMARK UNBOUND:                -0.332
REMARK SMILES O=c1c(O)c(-c2ccc(O)c(O)c2)oc2cc(O)cc(O)c12
REMARK SMILES IDX 5 1 3 2 2 3 1 4 22 5 20 6 19 7 17 8 16 9 15 10 14 11 6 12
REMARK SMILES IDX 7 13 8 14 9 15 13 16 11 17 10 18 12 20 4 22 21 24 18 26
REMARK H PARENT 10 19 12 21 4 23 21 25 18 27
REMARK Flexibility Score: inf
ROOT
ATOM      1  C   UNL     1      -0.105  26.138  -8.036  1.00  0.00     0.180 A 
ATOM      2  C   UNL     1      -1.289  26.088  -8.797  1.00  0.00     0.208 A 
ATOM      3  C   UNL     1      -2.255  27.090  -8.615  1.00  0.00     0.238 A 
ATOM      4  O   UNL     1      -3.323  27.050  -9.284  1.00  0.00    -0.285 OA
ATOM      5  C   UNL     1      -2.014  28.131  -7.695  1.00  0.00     0.111 A 
ATOM      6  C   UNL     1      -2.933  29.181  -7.456  1.00  0.00     0.134 A 
ATOM      7  C   UNL     1      -2.616  30.186  -6.530  1.00  0.00     0.093 A 
ATOM      8  C   UNL     1      -1.397  30.162  -5.841  1.00  0.00     0.123 A 
ATOM      9  C   UNL     1      -0.489  29.129  -6.073  1.00  0.00     0.094 A 
ATOM     10  C   UNL     1      -0.787  28.116  -6.991  1.00  0.00     0.146 A 
ATOM     11  O   UNL     1       0.094  27.143  -7.188  1.00  0.00    -0.452 OA
ENDROOT
BRANCH   1  12
ATOM     12  C   UNL     1       0.951  25.107  -8.157  1.00  0.00     0.025 A 
ATOM     13  C   UNL     1       1.416  24.456  -7.003  1.00  0.00     0.016 A 
ATOM     14  C   UNL     1       2.398  23.466  -7.096  1.00  0.00     0.051 A 
ATOM     15  C   UNL     1       2.918  23.103  -8.344  1.00  0.00     0.157 A 
ATOM     16  C   UNL     1       1.462  24.724  -9.411  1.00  0.00     0.062 A 
ATOM     17  C   UNL     1       2.447  23.730  -9.504  1.00  0.00     0.158 A 
BRANCH  15  18
ATOM     18  O   UNL     1       3.899  22.117  -8.440  1.00  0.00    -0.504 OA
ATOM     19  H   UNL     1       4.561  21.952  -7.690  1.00  0.00     0.293 HD
ENDBRANCH  15  18
BRANCH  17  20
ATOM     20  O   UNL     1       2.957  23.356 -10.746  1.00  0.00    -0.504 OA
ATOM     21  H   UNL     1       3.803  23.770 -11.118  1.00  0.00     0.293 HD
ENDBRANCH  17  20
ENDBRANCH   1  12
BRANCH   2  22
ATOM     22  O   UNL     1      -1.481  25.073  -9.738  1.00  0.00    -0.502 OA
ATOM     23  H   UNL     1      -2.101  25.180 -10.532  1.00  0.00     0.293 HD
ENDBRANCH   2  22
BRANCH   6  24
ATOM     24  O   UNL     1      -4.155  29.233  -8.128  1.00  0.00    -0.507 OA
ATOM     25  H   UNL     1      -4.205  29.316  -9.137  1.00  0.00     0.293 HD
ENDBRANCH   6  24
BRANCH   8  26
ATOM     26  O   UNL     1      -1.081  31.159  -4.922  1.00  0.00    -0.508 OA
ATOM     27  H   UNL     1      -0.262  31.094  -4.328  1.00  0.00     0.293 HD
ENDBRANCH   8  26
TORSDOF 6
ENDMDL
MODEL 5
REMARK VINA RESULT:    -5.882      2.390      7.062
REMARK INTER + INTRA:          -7.418
REMARK INTER:                  -7.258
REMARK INTRA:                  -0.160
REMARK UNBOUND:                -0.332
REMARK SMILES O=c1c(O)c(-c2ccc(O)c(O)c2)oc2cc(O)cc(O)c12
REMARK SMILES IDX 5 1 3 2 2 3 1 4 22 5 20 6 19 7 17 8 16 9 15 10 14 11 6 12
REMARK SMILES IDX 7 13 8 14 9 15 13 16 11 17 10 18 12 20 4 22 21 24 18 26
REMARK H PARENT 10 19 12 21 4 23 21 25 18 27
REMARK Flexibility Score: inf
ROOT
ATOM      1  C   UNL     1       2.112  23.952  -8.541  1.00  0.00     0.180 A 
ATOM      2  C   UNL     1       1.006  23.664  -9.363  1.00  0.00     0.208 A 
ATOM      3  C   UNL     1      -0.124  24.495  -9.296  1.00  0.00     0.238 A 
ATOM      4  O   UNL     1      -1.124  24.241 -10.021  1.00  0.00    -0.285 OA
ATOM      5  C   UNL     1      -0.120  25.607  -8.429  1.00  0.00     0.111 A 
ATOM      6  C   UNL     1      -1.216  26.495  -8.306  1.00  0.00     0.134 A 
ATOM      7  C   UNL     1      -1.133  27.584  -7.426  1.00  0.00     0.093 A 
ATOM      8  C   UNL     1       0.025  27.802  -6.669  1.00  0.00     0.123 A 
ATOM      9  C   UNL     1       1.107  26.929  -6.787  1.00  0.00     0.094 A 
ATOM     10  C   UNL     1       1.043  25.836  -7.657  1.00  0.00     0.146 A 
ATOM     11  O   UNL     1       2.085  25.018  -7.745  1.00  0.00    -0.452 OA
ENDROOT
BRANCH   1  12
ATOM     12  C   UNL     1       3.331  23.112  -8.539  1.00  0.00     0.025 A 
ATOM     13  C   UNL     1       3.658  22.370  -7.392  1.00  0.00     0.016 A 
ATOM     14  C   UNL     1       4.792  21.555  -7.376  1.00  0.00     0.051 A 
ATOM     15  C   UNL     1       5.608  21.459  -8.510  1.00  0.00     0.157 A 
ATOM     16  C   UNL     1       4.143  22.995  -9.683  1.00  0.00     0.062 A 
ATOM     17  C   UNL     1       5.281  22.177  -9.666  1.00  0.00     0.158 A 
BRANCH  15  18
ATOM     18  O   UNL     1       6.742  20.647  -8.496  1.00  0.00    -0.504 OA
ATOM     19  H   UNL     1       7.467  20.737  -9.199  1.00  0.00     0.293 HD
ENDBRANCH  15  18
BRANCH  17  20
ATOM     20  O   UNL     1       6.088  22.067 -10.798  1.00  0.00    -0.504 OA
ATOM     21  H   UNL     1       6.631  22.851 -11.140  1.00  0.00     0.293 HD
ENDBRANCH  17  20
ENDBRANCH   1  12
BRANCH   2  22
ATOM     22  O   UNL     1       1.048  22.586 -10.250  1.00  0.00    -0.502 OA
ATOM     23  H   UNL     1       0.382  22.479 -11.006  1.00  0.00     0.293 HD
ENDBRANCH   2  22
BRANCH   6  24
ATOM     24  O   UNL     1      -2.382  26.305  -9.048  1.00  0.00    -0.507 OA
ATOM     25  H   UNL     1      -3.028  27.064  -9.230  1.00  0.00     0.293 HD
ENDBRANCH   6  24
BRANCH   8  26
ATOM     26  O   UNL     1       0.109  28.884  -5.796  1.00  0.00    -0.508 OA
ATOM     27  H   UNL     1      -0.680  29.501  -5.637  1.00  0.00     0.293 HD
ENDBRANCH   8  26
TORSDOF 6
ENDMDL
MODEL 6
REMARK VINA RESULT:    -5.787      2.487      2.948
REMARK INTER + INTRA:          -7.304
REMARK INTER:                  -7.027
REMARK INTRA:                  -0.277
REMARK UNBOUND:                -0.332
REMARK SMILES O=c1c(O)c(-c2ccc(O)c(O)c2)oc2cc(O)cc(O)c12
REMARK SMILES IDX 5 1 3 2 2 3 1 4 22 5 20 6 19 7 17 8 16 9 15 10 14 11 6 12
REMARK SMILES IDX 7 13 8 14 9 15 13 16 11 17 10 18 12 20 4 22 21 24 18 26
REMARK H PARENT 10 19 12 21 4 23 21 25 18 27
REMARK Flexibility Score: inf
ROOT
ATOM      1  C   UNL     1      -0.197  27.127  -7.647  1.00  0.00     0.180 A 
ATOM      2  C   UNL     1      -0.939  26.275  -8.488  1.00  0.00     0.208 A 
ATOM      3  C   UNL     1      -0.448  24.987  -8.752  1.00  0.00     0.238 A 
ATOM      4  O   UNL     1      -1.100  24.219  -9.512  1.00  0.00    -0.285 OA
ATOM      5  C   UNL     1       0.759  24.566  -8.158  1.00  0.00     0.111 A 
ATOM      6  C   UNL     1       1.319  23.283  -8.368  1.00  0.00     0.134 A 
ATOM      7  C   UNL     1       2.521  22.936  -7.734  1.00  0.00     0.093 A 
ATOM      8  C   UNL     1       3.171  23.846  -6.892  1.00  0.00     0.123 A 
ATOM      9  C   UNL     1       2.623  25.112  -6.682  1.00  0.00     0.094 A 
ATOM     10  C   UNL     1       1.427  25.478  -7.307  1.00  0.00     0.146 A 
ATOM     11  O   UNL     1       0.931  26.691  -7.093  1.00  0.00    -0.452 OA
ENDROOT
BRANCH   1  12
ATOM     12  C   UNL     1      -0.638  28.506  -7.337  1.00  0.00     0.025 A 
ATOM     13  C   UNL     1      -0.480  29.516  -8.301  1.00  0.00     0.016 A 
ATOM     14  C   UNL     1      -0.907  30.819  -8.038  1.00  0.00     0.051 A 
ATOM     15  C   UNL     1      -1.513  31.129  -6.814  1.00  0.00     0.157 A 
ATOM     16  C   UNL     1      -1.267  28.819  -6.118  1.00  0.00     0.062 A 
ATOM     17  C   UNL     1      -1.696  30.127  -5.854  1.00  0.00     0.158 A 
BRANCH  15  18
ATOM     18  O   UNL     1      -1.939  32.429  -6.547  1.00  0.00    -0.504 OA
ATOM     19  H   UNL     1      -2.885  32.625  -6.240  1.00  0.00     0.293 HD
ENDBRANCH  15  18
BRANCH  17  20
ATOM     20  O   UNL     1      -2.312  30.436  -4.642  1.00  0.00    -0.504 OA
ATOM     21  H   UNL     1      -2.605  29.712  -3.996  1.00  0.00     0.293 HD
ENDBRANCH  17  20
ENDBRANCH   1  12
BRANCH   2  22
ATOM     22  O   UNL     1      -2.158  26.699  -9.024  1.00  0.00    -0.502 OA
ATOM     23  H   UNL     1      -2.269  26.930 -10.004  1.00  0.00     0.293 HD
ENDBRANCH   2  22
BRANCH   6  24
ATOM     24  O   UNL     1       0.693  22.354  -9.201  1.00  0.00    -0.507 OA
ATOM     25  H   UNL     1       0.820  21.356  -9.076  1.00  0.00     0.293 HD
ENDBRANCH   6  24
BRANCH   8  26
ATOM     26  O   UNL     1       4.364  23.502  -6.261  1.00  0.00    -0.508 OA
ATOM     27  H   UNL     1       4.581  23.824  -5.324  1.00  0.00     0.293 HD
ENDBRANCH   8  26
TORSDOF 6
ENDMDL
MODEL 7
REMARK VINA RESULT:    -5.771      2.690      4.221
REMARK INTER + INTRA:          -7.284
REMARK INTER:                  -6.952
REMARK INTRA:                  -0.332
REMARK UNBOUND:                -0.332
REMARK SMILES O=c1c(O)c(-c2ccc(O)c(O)c2)oc2cc(O)cc(O)c12
REMARK SMILES IDX 5 1 3 2 2 3 1 4 22 5 20 6 19 7 17 8 16 9 15 10 14 11 6 12
REMARK SMILES IDX 7 13 8 14 9 15 13 16 11 17 10 18 12 20 4 22 21 24 18 26
REMARK H PARENT 10 19 12 21 4 23 21 25 18 27
REMARK Flexibility Score: inf
ROOT
ATOM      1  C   UNL     1       0.318  27.115  -7.937  1.00  0.00     0.180 A 
ATOM      2  C   UNL     1       1.669  26.786  -7.711  1.00  0.00     0.208 A 
ATOM      3  C   UNL     1       2.133  25.520  -8.100  1.00  0.00     0.238 A 
ATOM      4  O   UNL     1       3.338  25.211  -7.894  1.00  0.00    -0.285 OA
ATOM      5  C   UNL     1       1.248  24.615  -8.723  1.00  0.00     0.111 A 
ATOM      6  C   UNL     1       1.638  23.323  -9.149  1.00  0.00     0.134 A 
ATOM      7  C   UNL     1       0.701  22.483  -9.770  1.00  0.00     0.093 A 
ATOM      8  C   UNL     1      -0.616  22.913  -9.974  1.00  0.00     0.123 A 
ATOM      9  C   UNL     1      -1.004  24.187  -9.556  1.00  0.00     0.094 A 
ATOM     10  C   UNL     1      -0.085  25.038  -8.933  1.00  0.00     0.146 A 
ATOM     11  O   UNL     1      -0.483  26.242  -8.541  1.00  0.00    -0.452 OA
ENDROOT
BRANCH   1  12
ATOM     12  C   UNL     1      -0.250  28.423  -7.538  1.00  0.00     0.025 A 
ATOM     13  C   UNL     1      -0.257  29.484  -8.458  1.00  0.00     0.016 A 
ATOM     14  C   UNL     1      -0.807  30.720  -8.110  1.00  0.00     0.051 A 
ATOM     15  C   UNL     1      -1.371  30.909  -6.842  1.00  0.00     0.157 A 
ATOM     16  C   UNL     1      -0.838  28.612  -6.273  1.00  0.00     0.062 A 
ATOM     17  C   UNL     1      -1.390  29.852  -5.924  1.00  0.00     0.158 A 
BRANCH  15  18
ATOM     18  O   UNL     1      -1.919  32.141  -6.491  1.00  0.00    -0.504 OA
ATOM     19  H   UNL     1      -1.358  32.870  -6.064  1.00  0.00     0.293 HD
ENDBRANCH  15  18
BRANCH  17  20
ATOM     20  O   UNL     1      -1.965  30.040  -4.668  1.00  0.00    -0.504 OA
ATOM     21  H   UNL     1      -1.959  30.945  -4.212  1.00  0.00     0.293 HD
ENDBRANCH  17  20
ENDBRANCH   1  12
BRANCH   2  22
ATOM     22  O   UNL     1       2.536  27.719  -7.137  1.00  0.00    -0.502 OA
ATOM     23  H   UNL     1       3.542  27.666  -7.248  1.00  0.00     0.293 HD
ENDBRANCH   2  22
BRANCH   6  24
ATOM     24  O   UNL     1       2.943  22.866  -8.960  1.00  0.00    -0.507 OA
ATOM     25  H   UNL     1       3.743  23.477  -9.078  1.00  0.00     0.293 HD
ENDBRANCH   6  24
BRANCH   8  26
ATOM     26  O   UNL     1      -1.547  22.081 -10.591  1.00  0.00    -0.508 OA
ATOM     27  H   UNL     1      -1.862  21.222 -10.155  1.00  0.00     0.293 HD
ENDBRANCH   8  26
TORSDOF 6
ENDMDL
MODEL 8
REMARK VINA RESULT:    -5.739      1.519      1.852
REMARK INTER + INTRA:          -7.246
REMARK INTER:                  -6.914
REMARK INTRA:                  -0.332
REMARK UNBOUND:                -0.332
REMARK SMILES O=c1c(O)c(-c2ccc(O)c(O)c2)oc2cc(O)cc(O)c12
REMARK SMILES IDX 5 1 3 2 2 3 1 4 22 5 20 6 19 7 17 8 16 9 15 10 14 11 6 12
REMARK SMILES IDX 7 13 8 14 9 15 13 16 11 17 10 18 12 20 4 22 21 24 18 26
REMARK H PARENT 10 19 12 21 4 23 21 25 18 27
REMARK Flexibility Score: inf
ROOT
ATOM      1  C   UNL     1      -1.507  27.316  -8.082  1.00  0.00     0.180 A 
ATOM      2  C   UNL     1      -1.041  26.093  -8.604  1.00  0.00     0.208 A 
ATOM      3  C   UNL     1       0.166  25.566  -8.120  1.00  0.00     0.238 A 
ATOM      4  O   UNL     1       0.598  24.477  -8.587  1.00  0.00    -0.285 OA
ATOM      5  C   UNL     1       0.873  26.254  -7.112  1.00  0.00     0.111 A 
ATOM      6  C   UNL     1       2.094  25.787  -6.568  1.00  0.00     0.134 A 
ATOM      7  C   UNL     1       2.734  26.526  -5.561  1.00  0.00     0.093 A 
ATOM      8  C   UNL     1       2.175  27.720  -5.088  1.00  0.00     0.123 A 
ATOM      9  C   UNL     1       0.972  28.183  -5.623  1.00  0.00     0.094 A 
ATOM     10  C   UNL     1       0.320  27.463  -6.629  1.00  0.00     0.146 A 
ATOM     11  O   UNL     1      -0.820  27.930  -7.122  1.00  0.00    -0.452 OA
ENDROOT
BRANCH   1  12
ATOM     12  C   UNL     1      -2.760  27.946  -8.555  1.00  0.00     0.025 A 
ATOM     13  C   UNL     1      -3.950  27.742  -7.837  1.00  0.00     0.016 A 
ATOM     14  C   UNL     1      -5.140  28.344  -8.254  1.00  0.00     0.051 A 
ATOM     15  C   UNL     1      -5.155  29.170  -9.385  1.00  0.00     0.157 A 
ATOM     16  C   UNL     1      -2.776  28.794  -9.678  1.00  0.00     0.062 A 
ATOM     17  C   UNL     1      -3.970  29.399 -10.096  1.00  0.00     0.158 A 
BRANCH  15  18
ATOM     18  O   UNL     1      -6.340  29.771  -9.804  1.00  0.00    -0.504 OA
ATOM     19  H   UNL     1      -6.500  30.008 -10.777  1.00  0.00     0.293 HD
ENDBRANCH  15  18
BRANCH  17  20
ATOM     20  O   UNL     1      -3.986  30.233 -11.212  1.00  0.00    -0.504 OA
ATOM     21  H   UNL     1      -3.746  31.215 -11.144  1.00  0.00     0.293 HD
ENDBRANCH  17  20
ENDBRANCH   1  12
BRANCH   2  22
ATOM     22  O   UNL     1      -1.787  25.407  -9.565  1.00  0.00    -0.502 OA
ATOM     23  H   UNL     1      -1.969  25.789 -10.485  1.00  0.00     0.293 HD
ENDBRANCH   2  22
BRANCH   6  24
ATOM     24  O   UNL     1       2.675  24.601  -7.018  1.00  0.00    -0.507 OA
ATOM     25  H   UNL     1       2.233  23.701  -6.867  1.00  0.00     0.293 HD
ENDBRANCH   6  24
BRANCH   8  26
ATOM     26  O   UNL     1       2.809  28.453  -4.088  1.00  0.00    -0.508 OA
ATOM     27  H   UNL     1       3.484  28.025  -3.464  1.00  0.00     0.293 HD
ENDBRANCH   8  26
TORSDOF 6
ENDMDL
MODEL 9
REMARK VINA RESULT:    -5.596      1.926      7.205
REMARK INTER + INTRA:          -7.073
REMARK INTER:                  -6.869
REMARK INTRA:                  -0.204
REMARK UNBOUND:                -0.332
REMARK SMILES O=c1c(O)c(-c2ccc(O)c(O)c2)oc2cc(O)cc(O)c12
REMARK SMILES IDX 5 1 3 2 2 3 1 4 22 5 20 6 19 7 17 8 16 9 15 10 14 11 6 12
REMARK SMILES IDX 7 13 8 14 9 15 13 16 11 17 10 18 12 20 4 22 21 24 18 26
REMARK H PARENT 10 19 12 21 4 23 21 25 18 27
REMARK Flexibility Score: inf
ROOT
ATOM      1  C   UNL     1      -1.556  27.510  -8.507  1.00  0.00     0.180 A 
ATOM      2  C   UNL     1      -2.944  27.437  -8.276  1.00  0.00     0.208 A 
ATOM      3  C   UNL     1      -3.791  28.338  -8.939  1.00  0.00     0.238 A 
ATOM      4  O   UNL     1      -5.034  28.287  -8.732  1.00  0.00    -0.285 OA
ATOM      5  C   UNL     1      -3.243  29.279  -9.835  1.00  0.00     0.111 A 
ATOM      6  C   UNL     1      -4.027  30.218 -10.546  1.00  0.00     0.134 A 
ATOM      7  C   UNL     1      -3.408  31.118 -11.426  1.00  0.00     0.093 A 
ATOM      8  C   UNL     1      -2.020  31.095 -11.609  1.00  0.00     0.123 A 
ATOM      9  C   UNL     1      -1.243  30.171 -10.909  1.00  0.00     0.094 A 
ATOM     10  C   UNL     1      -1.841  29.267 -10.026  1.00  0.00     0.146 A 
ATOM     11  O   UNL     1      -1.077  28.403  -9.369  1.00  0.00    -0.452 OA
ENDROOT
BRANCH   1  12
ATOM     12  C   UNL     1      -0.597  26.609  -7.830  1.00  0.00     0.025 A 
ATOM     13  C   UNL     1      -0.562  25.249  -8.180  1.00  0.00     0.016 A 
ATOM     14  C   UNL     1       0.349  24.384  -7.569  1.00  0.00     0.051 A 
ATOM     15  C   UNL     1       1.248  24.869  -6.611  1.00  0.00     0.157 A 
ATOM     16  C   UNL     1       0.323  27.095  -6.883  1.00  0.00     0.062 A 
ATOM     17  C   UNL     1       1.238  26.226  -6.270  1.00  0.00     0.158 A 
BRANCH  15  18
ATOM     18  O   UNL     1       2.158  24.008  -5.998  1.00  0.00    -0.504 OA
ATOM     19  H   UNL     1       2.690  23.331  -6.532  1.00  0.00     0.293 HD
ENDBRANCH  15  18
BRANCH  17  20
ATOM     20  O   UNL     1       2.144  26.708  -5.327  1.00  0.00    -0.504 OA
ATOM     21  H   UNL     1       2.850  26.109  -4.915  1.00  0.00     0.293 HD
ENDBRANCH  17  20
ENDBRANCH   1  12
BRANCH   2  22
ATOM     22  O   UNL     1      -3.466  26.462  -7.422  1.00  0.00    -0.502 OA
ATOM     23  H   UNL     1      -4.411  26.507  -7.060  1.00  0.00     0.293 HD
ENDBRANCH   2  22
BRANCH   6  24
ATOM     24  O   UNL     1      -5.413  30.265 -10.386  1.00  0.00    -0.507 OA
ATOM     25  H   UNL     1      -5.894  29.661  -9.729  1.00  0.00     0.293 HD
ENDBRANCH   6  24
BRANCH   8  26
ATOM     26  O   UNL     1      -1.404  31.987 -12.483  1.00  0.00    -0.508 OA
ATOM     27  H   UNL     1      -0.535  32.452 -12.242  1.00  0.00     0.293 HD
ENDBRANCH   8  26
TORSDOF 6
ENDMDL
