MODEL 1
REMARK VINA RESULT:    -3.349      0.000      0.000
REMARK INTER + INTRA:          -4.864
REMARK INTER:                  -5.111
REMARK INTRA:                   0.247
REMARK UNBOUND:                 0.247
REMARK SMILES CC1=CCC[C@H](C)C(=O)C[C@@H](C(C)C)C(=O)C1
REMARK SMILES IDX 8 1 9 2 6 3 7 4 5 5 4 6 3 7 2 8 1 9 10 11 11 12 15 13 16 14
REMARK SMILES IDX 17 15 12 17 13 18 14 19
REMARK H PARENT
REMARK Flexibility Score: 70.00
ROOT
ATOM      1  C   UNL     1      10.790  12.765  48.576  1.00  0.00     0.136 C 
ATOM      2  O   UNL     1      11.504  13.296  47.737  1.00  0.00    -0.299 OA
ENDROOT
BRANCH   1   3
ATOM      3  C   UNL     1       9.308  13.094  48.624  1.00  0.00     0.053 C 
ATOM      4  C   UNL     1       8.896  13.951  47.417  1.00  0.00     0.016 C 
BRANCH   3   5
ATOM      5  C   UNL     1       8.471  11.792  48.692  1.00  0.00     0.015 C 
BRANCH   5   6
ATOM      6  C   UNL     1       8.846  10.797  47.578  1.00  0.00     0.028 C 
BRANCH   6   7
ATOM      7  C   UNL     1       8.550   9.378  47.990  1.00  0.00    -0.028 C 
ATOM      8  C   UNL     1       9.471   8.390  48.067  1.00  0.00    -0.070 CG0
ATOM      9  C   UNL     1       9.000   7.008  48.445  1.00  0.00     0.039 C 
ATOM     10  G   UNL     1      10.950   8.611  47.794  1.00  0.00     0.000 G0
ENDBRANCH   6   7
ENDBRANCH   5   6
ENDBRANCH   3   5
ENDBRANCH   1   3
BRANCH   1  11
ATOM     11  C   UNL     1      11.403  11.767  49.531  1.00  0.00     0.087 C 
BRANCH  11  12
ATOM     12  C   UNL     1      12.251  10.702  48.788  1.00  0.00     0.066 C 
BRANCH  12  13
ATOM     13  C   UNL     1      11.675   9.298  48.927  1.00  0.00     0.140 C 
ATOM     14  O   UNL     1      11.726   8.754  50.021  1.00  0.00    -0.299 OA
BRANCH  13  15
ATOM     15  C   UNL     1      10.956   8.595  47.800  1.00  0.00     0.106 CG0
ATOM     16  G   UNL     1       9.476   8.403  48.089  1.00  0.00     0.000 G0
ENDBRANCH  13  15
ENDBRANCH  12  13
BRANCH  12  17
ATOM     17  C   UNL     1      13.781  10.752  49.115  1.00  0.00    -0.006 C 
ATOM     18  C   UNL     1      14.484  12.060  48.710  1.00  0.00     0.008 C 
ATOM     19  C   UNL     1      14.524   9.560  48.486  1.00  0.00     0.008 C 
ENDBRANCH  12  17
ENDBRANCH  11  12
ENDBRANCH   1  11
TORSDOF 1
ENDMDL
MODEL 2
REMARK VINA RESULT:    -3.313     14.429     16.271
REMARK INTER + INTRA:          -4.810
REMARK INTER:                  -4.701
REMARK INTRA:                  -0.108
REMARK UNBOUND:                 0.247
REMARK SMILES CC1=CCC[C@H](C)C(=O)C[C@@H](C(C)C)C(=O)C1
REMARK SMILES IDX 8 1 9 2 6 3 7 4 5 5 4 6 3 7 2 8 1 9 10 11 11 12 15 13 16 14
REMARK SMILES IDX 17 15 12 17 13 18 14 19
REMARK H PARENT
REMARK Flexibility Score: 70.00
ROOT
ATOM      1  C   UNL     1      14.161  23.460  36.813  1.00  0.00     0.136 C 
ATOM      2  O   UNL     1      13.406  24.412  36.951  1.00  0.00    -0.299 OA
ENDROOT
BRANCH   1   3
ATOM      3  C   UNL     1      15.633  23.700  36.526  1.00  0.00     0.053 C 
ATOM      4  C   UNL     1      16.346  24.284  37.756  1.00  0.00     0.016 C 
BRANCH   3   5
ATOM      5  C   UNL     1      16.312  22.387  36.064  1.00  0.00     0.015 C 
BRANCH   5   6
ATOM      6  C   UNL     1      17.448  21.951  37.008  1.00  0.00     0.028 C 
BRANCH   6   7
ATOM      7  C   UNL     1      17.553  20.450  37.082  1.00  0.00    -0.028 C 
ATOM      8  C   UNL     1      16.917  19.676  37.992  1.00  0.00    -0.070 CG0
ATOM      9  C   UNL     1      17.170  18.191  37.962  1.00  0.00     0.039 C 
ATOM     10  G   UNL     1      15.962  20.237  39.034  1.00  0.00     0.000 G0
ENDBRANCH   6   7
ENDBRANCH   5   6
ENDBRANCH   3   5
ENDBRANCH   1   3
BRANCH   1  11
ATOM     11  C   UNL     1      13.610  22.061  36.964  1.00  0.00     0.087 C 
BRANCH  11  12
ATOM     12  C   UNL     1      13.706  21.557  38.427  1.00  0.00     0.066 C 
BRANCH  12  13
ATOM     13  C   UNL     1      14.509  20.268  38.548  1.00  0.00     0.140 C 
ATOM     14  O   UNL     1      14.004  19.227  38.150  1.00  0.00    -0.299 OA
BRANCH  13  15
ATOM     15  C   UNL     1      15.936  20.238  39.042  1.00  0.00     0.106 CG0
ATOM     16  G   UNL     1      16.894  19.662  38.010  1.00  0.00     0.000 G0
ENDBRANCH  13  15
ENDBRANCH  12  13
BRANCH  12  17
ATOM     17  C   UNL     1      12.331  21.472  39.172  1.00  0.00    -0.006 C 
ATOM     18  C   UNL     1      11.104  21.372  38.248  1.00  0.00     0.008 C 
ATOM     19  C   UNL     1      12.147  22.658  40.136  1.00  0.00     0.008 C 
ENDBRANCH  12  17
ENDBRANCH  11  12
ENDBRANCH   1  11
TORSDOF 1
ENDMDL
MODEL 3
REMARK VINA RESULT:    -3.311     13.859     15.573
REMARK INTER + INTRA:          -4.807
REMARK INTER:                  -4.783
REMARK INTRA:                  -0.024
REMARK UNBOUND:                 0.247
REMARK SMILES CC1=CCC[C@H](C)C(=O)C[C@@H](C(C)C)C(=O)C1
REMARK SMILES IDX 8 1 9 2 6 3 7 4 5 5 4 6 3 7 2 8 1 9 10 11 11 12 15 13 16 14
REMARK SMILES IDX 17 15 12 17 13 18 14 19
REMARK H PARENT
REMARK Flexibility Score: 70.00
ROOT
ATOM      1  C   UNL     1      15.767  22.389  37.082  1.00  0.00     0.136 C 
ATOM      2  O   UNL     1      15.351  22.754  35.992  1.00  0.00    -0.299 OA
ENDROOT
BRANCH   1   3
ATOM      3  C   UNL     1      14.801  22.227  38.243  1.00  0.00     0.053 C 
ATOM      4  C   UNL     1      14.396  23.594  38.817  1.00  0.00     0.016 C 
BRANCH   3   5
ATOM      5  C   UNL     1      13.555  21.422  37.796  1.00  0.00     0.015 C 
BRANCH   5   6
ATOM      6  C   UNL     1      13.688  19.919  38.108  1.00  0.00     0.028 C 
BRANCH   6   7
ATOM      7  C   UNL     1      14.248  19.695  39.489  1.00  0.00    -0.028 C 
ATOM      8  C   UNL     1      15.462  19.157  39.749  1.00  0.00    -0.070 CG0
ATOM      9  C   UNL     1      15.853  18.951  41.191  1.00  0.00     0.039 C 
ATOM     10  G   UNL     1      16.444  18.757  38.660  1.00  0.00     0.000 G0
ENDBRANCH   6   7
ENDBRANCH   5   6
ENDBRANCH   3   5
ENDBRANCH   1   3
BRANCH   1  11
ATOM     11  C   UNL     1      17.238  22.079  37.237  1.00  0.00     0.087 C 
BRANCH  11  12
ATOM     12  C   UNL     1      17.532  20.567  37.051  1.00  0.00     0.066 C 
BRANCH  12  13
ATOM     13  C   UNL     1      17.492  19.800  38.366  1.00  0.00     0.140 C 
ATOM     14  O   UNL     1      18.281  20.113  39.247  1.00  0.00    -0.299 OA
BRANCH  13  15
ATOM     15  C   UNL     1      16.457  18.740  38.663  1.00  0.00     0.106 CG0
ATOM     16  G   UNL     1      15.473  19.178  39.736  1.00  0.00     0.000 G0
ENDBRANCH  13  15
ENDBRANCH  12  13
BRANCH  12  17
ATOM     17  C   UNL     1      18.823  20.259  36.221  1.00  0.00    -0.006 C 
ATOM     18  C   UNL     1      18.964  21.074  34.923  1.00  0.00     0.008 C 
ATOM     19  C   UNL     1      18.930  18.759  35.895  1.00  0.00     0.008 C 
ENDBRANCH  12  17
ENDBRANCH  11  12
ENDBRANCH   1  11
TORSDOF 1
ENDMDL
MODEL 4
REMARK VINA RESULT:    -3.218     13.420     15.581
REMARK INTER + INTRA:          -4.664
REMARK INTER:                  -4.450
REMARK INTRA:                  -0.214
REMARK UNBOUND:                 0.247
REMARK SMILES CC1=CCC[C@H](C)C(=O)C[C@@H](C(C)C)C(=O)C1
REMARK SMILES IDX 8 1 9 2 6 3 7 4 5 5 4 6 3 7 2 8 1 9 10 11 11 12 15 13 16 14
REMARK SMILES IDX 17 15 12 17 13 18 14 19
REMARK H PARENT
REMARK Flexibility Score: 70.00
ROOT
ATOM      1  C   UNL     1      12.698  24.231  37.665  1.00  0.00     0.136 C 
ATOM      2  O   UNL     1      12.716  24.806  36.585  1.00  0.00    -0.299 OA
ENDROOT
BRANCH   1   3
ATOM      3  C   UNL     1      11.392  23.672  38.201  1.00  0.00     0.053 C 
ATOM      4  C   UNL     1      10.319  24.769  38.291  1.00  0.00     0.016 C 
BRANCH   3   5
ATOM      5  C   UNL     1      10.910  22.495  37.318  1.00  0.00     0.015 C 
BRANCH   5   6
ATOM      6  C   UNL     1      11.120  21.129  37.998  1.00  0.00     0.028 C 
BRANCH   6   7
ATOM      7  C   UNL     1      11.015  21.242  39.497  1.00  0.00    -0.028 C 
ATOM      8  C   UNL     1      12.034  21.023  40.360  1.00  0.00    -0.070 CG0
ATOM      9  C   UNL     1      11.748  21.128  41.837  1.00  0.00     0.039 C 
ATOM     10  G   UNL     1      13.445  20.683  39.909  1.00  0.00     0.000 G0
ENDBRANCH   6   7
ENDBRANCH   5   6
ENDBRANCH   3   5
ENDBRANCH   1   3
BRANCH   1  11
ATOM     11  C   UNL     1      13.993  24.068  38.427  1.00  0.00     0.087 C 
BRANCH  11  12
ATOM     12  C   UNL     1      14.503  22.604  38.391  1.00  0.00     0.066 C 
BRANCH  12  13
ATOM     13  C   UNL     1      14.331  21.894  39.728  1.00  0.00     0.140 C 
ATOM     14  O   UNL     1      14.857  22.382  40.719  1.00  0.00    -0.299 OA
BRANCH  13  15
ATOM     15  C   UNL     1      13.457  20.673  39.898  1.00  0.00     0.106 CG0
ATOM     16  G   UNL     1      12.052  21.028  40.356  1.00  0.00     0.000 G0
ENDBRANCH  13  15
ENDBRANCH  12  13
BRANCH  12  17
ATOM     17  C   UNL     1      15.949  22.439  37.812  1.00  0.00    -0.006 C 
ATOM     18  C   UNL     1      16.264  23.336  36.602  1.00  0.00     0.008 C 
ATOM     19  C   UNL     1      16.237  20.972  37.447  1.00  0.00     0.008 C 
ENDBRANCH  12  17
ENDBRANCH  11  12
ENDBRANCH   1  11
TORSDOF 1
ENDMDL
MODEL 5
REMARK VINA RESULT:    -3.216      1.669      4.096
REMARK INTER + INTRA:          -4.662
REMARK INTER:                  -4.441
REMARK INTRA:                  -0.221
REMARK UNBOUND:                 0.247
REMARK SMILES CC1=CCC[C@H](C)C(=O)C[C@@H](C(C)C)C(=O)C1
REMARK SMILES IDX 8 1 9 2 6 3 7 4 5 5 4 6 3 7 2 8 1 9 10 11 11 12 15 13 16 14
REMARK SMILES IDX 17 15 12 17 13 18 14 19
REMARK H PARENT
REMARK Flexibility Score: 70.00
ROOT
ATOM      1  C   UNL     1      10.075  12.353  47.524  1.00  0.00     0.136 C 
ATOM      2  O   UNL     1       9.301  12.723  48.396  1.00  0.00    -0.299 OA
ENDROOT
BRANCH   1   3
ATOM      3  C   UNL     1      11.261  13.225  47.149  1.00  0.00     0.053 C 
ATOM      4  C   UNL     1      10.818  14.672  46.882  1.00  0.00     0.016 C 
BRANCH   3   5
ATOM      5  C   UNL     1      12.340  13.170  48.259  1.00  0.00     0.015 C 
BRANCH   5   6
ATOM      6  C   UNL     1      13.216  11.907  48.161  1.00  0.00     0.028 C 
BRANCH   6   7
ATOM      7  C   UNL     1      13.051  11.030  49.375  1.00  0.00    -0.028 C 
ATOM      8  C   UNL     1      12.403   9.841  49.384  1.00  0.00    -0.070 CG0
ATOM      9  C   UNL     1      12.281   9.110  50.697  1.00  0.00     0.039 C 
ATOM     10  G   UNL     1      11.802   9.214  48.137  1.00  0.00     0.000 G0
ENDBRANCH   6   7
ENDBRANCH   5   6
ENDBRANCH   3   5
ENDBRANCH   1   3
BRANCH   1  11
ATOM     11  C   UNL     1       9.843  11.015  46.860  1.00  0.00     0.087 C 
BRANCH  11  12
ATOM     12  C   UNL     1       9.280   9.967  47.854  1.00  0.00     0.066 C 
BRANCH  12  13
ATOM     13  C   UNL     1      10.322   8.936  48.266  1.00  0.00     0.140 C 
ATOM     14  O   UNL     1       9.938   7.835  48.636  1.00  0.00    -0.299 OA
BRANCH  13  15
ATOM     15  C   UNL     1      11.808   9.181  48.141  1.00  0.00     0.106 CG0
ATOM     16  G   UNL     1      12.392   9.839  49.381  1.00  0.00     0.000 G0
ENDBRANCH  13  15
ENDBRANCH  12  13
BRANCH  12  17
ATOM     17  C   UNL     1       7.935   9.305  47.400  1.00  0.00    -0.006 C 
ATOM     18  C   UNL     1       7.939   8.763  45.960  1.00  0.00     0.008 C 
ATOM     19  C   UNL     1       6.752  10.273  47.577  1.00  0.00     0.008 C 
ENDBRANCH  12  17
ENDBRANCH  11  12
ENDBRANCH   1  11
TORSDOF 1
ENDMDL
MODEL 6
REMARK VINA RESULT:    -3.165     14.611     16.812
REMARK INTER + INTRA:          -4.584
REMARK INTER:                  -4.407
REMARK INTRA:                  -0.177
REMARK UNBOUND:                 0.247
REMARK SMILES CC1=CCC[C@H](C)C(=O)C[C@@H](C(C)C)C(=O)C1
REMARK SMILES IDX 8 1 9 2 6 3 7 4 5 5 4 6 3 7 2 8 1 9 10 11 11 12 15 13 16 14
REMARK SMILES IDX 17 15 12 17 13 18 14 19
REMARK H PARENT
REMARK Flexibility Score: 70.00
ROOT
ATOM      1  C   UNL     1      13.918  22.734  40.495  1.00  0.00     0.136 C 
ATOM      2  O   UNL     1      13.345  22.464  41.541  1.00  0.00    -0.299 OA
ENDROOT
BRANCH   1   3
ATOM      3  C   UNL     1      15.157  21.954  40.090  1.00  0.00     0.053 C 
ATOM      4  C   UNL     1      16.182  21.918  41.234  1.00  0.00     0.016 C 
BRANCH   3   5
ATOM      5  C   UNL     1      14.769  20.521  39.647  1.00  0.00     0.015 C 
BRANCH   5   6
ATOM      6  C   UNL     1      14.685  20.386  38.115  1.00  0.00     0.028 C 
BRANCH   6   7
ATOM      7  C   UNL     1      15.753  21.203  37.434  1.00  0.00    -0.028 C 
ATOM      8  C   UNL     1      15.515  22.185  36.533  1.00  0.00    -0.070 CG0
ATOM      9  C   UNL     1      16.699  22.873  35.904  1.00  0.00     0.039 C 
ATOM     10  G   UNL     1      14.115  22.623  36.134  1.00  0.00     0.000 G0
ENDBRANCH   6   7
ENDBRANCH   5   6
ENDBRANCH   3   5
ENDBRANCH   1   3
BRANCH   1  11
ATOM     11  C   UNL     1      13.354  23.824  39.613  1.00  0.00     0.087 C 
BRANCH  11  12
ATOM     12  C   UNL     1      12.734  23.251  38.311  1.00  0.00     0.066 C 
BRANCH  12  13
ATOM     13  C   UNL     1      13.519  23.649  37.068  1.00  0.00     0.140 C 
ATOM     14  O   UNL     1      13.749  24.835  36.880  1.00  0.00    -0.299 OA
BRANCH  13  15
ATOM     15  C   UNL     1      14.110  22.636  36.116  1.00  0.00     0.106 CG0
ATOM     16  G   UNL     1      15.500  22.188  36.537  1.00  0.00     0.000 G0
ENDBRANCH  13  15
ENDBRANCH  12  13
BRANCH  12  17
ATOM     17  C   UNL     1      11.199  23.518  38.156  1.00  0.00    -0.006 C 
ATOM     18  C   UNL     1      10.685  24.766  38.897  1.00  0.00     0.008 C 
ATOM     19  C   UNL     1      10.375  22.294  38.591  1.00  0.00     0.008 C 
ENDBRANCH  12  17
ENDBRANCH  11  12
ENDBRANCH   1  11
TORSDOF 1
ENDMDL
MODEL 7
REMARK VINA RESULT:    -3.094     13.939     16.347
REMARK INTER + INTRA:          -4.476
REMARK INTER:                  -4.456
REMARK INTRA:                  -0.019
REMARK UNBOUND:                 0.247
REMARK SMILES CC1=CCC[C@H](C)C(=O)C[C@@H](C(C)C)C(=O)C1
REMARK SMILES IDX 8 1 9 2 6 3 7 4 5 5 4 6 3 7 2 8 1 9 10 11 11 12 15 13 16 14
REMARK SMILES IDX 17 15 12 17 13 18 14 19
REMARK H PARENT
REMARK Flexibility Score: 70.00
ROOT
ATOM      1  C   UNL     1      14.224  20.908  39.113  1.00  0.00     0.136 C 
ATOM      2  O   UNL     1      15.213  20.374  39.596  1.00  0.00    -0.299 OA
ENDROOT
BRANCH   1   3
ATOM      3  C   UNL     1      13.022  21.204  39.993  1.00  0.00     0.053 C 
ATOM      4  C   UNL     1      12.779  20.065  40.995  1.00  0.00     0.016 C 
BRANCH   3   5
ATOM      5  C   UNL     1      13.213  22.556  40.726  1.00  0.00     0.015 C 
BRANCH   5   6
ATOM      6  C   UNL     1      12.126  23.581  40.352  1.00  0.00     0.028 C 
BRANCH   6   7
ATOM      7  C   UNL     1      10.971  22.922  39.644  1.00  0.00    -0.028 C 
ATOM      8  C   UNL     1      10.691  23.066  38.328  1.00  0.00    -0.070 CG0
ATOM      9  C   UNL     1       9.465  22.378  37.784  1.00  0.00     0.039 C 
ATOM     10  G   UNL     1      11.554  23.883  37.380  1.00  0.00     0.000 G0
ENDBRANCH   6   7
ENDBRANCH   5   6
ENDBRANCH   3   5
ENDBRANCH   1   3
BRANCH   1  11
ATOM     11  C   UNL     1      14.238  21.288  37.651  1.00  0.00     0.087 C 
BRANCH  11  12
ATOM     12  C   UNL     1      13.990  22.805  37.445  1.00  0.00     0.066 C 
BRANCH  12  13
ATOM     13  C   UNL     1      12.668  23.089  36.744  1.00  0.00     0.140 C 
ATOM     14  O   UNL     1      12.466  22.577  35.652  1.00  0.00    -0.299 OA
BRANCH  13  15
ATOM     15  C   UNL     1      11.559  23.891  37.384  1.00  0.00     0.106 CG0
ATOM     16  G   UNL     1      10.710  23.054  38.327  1.00  0.00     0.000 G0
ENDBRANCH  13  15
ENDBRANCH  12  13
BRANCH  12  17
ATOM     17  C   UNL     1      15.187  23.571  36.790  1.00  0.00    -0.006 C 
ATOM     18  C   UNL     1      16.146  22.688  35.972  1.00  0.00     0.008 C 
ATOM     19  C   UNL     1      15.991  24.353  37.844  1.00  0.00     0.008 C 
ENDBRANCH  12  17
ENDBRANCH  11  12
ENDBRANCH   1  11
TORSDOF 1
ENDMDL
MODEL 8
REMARK VINA RESULT:    -3.004     15.099     17.971
REMARK INTER + INTRA:          -4.338
REMARK INTER:                  -4.456
REMARK INTRA:                   0.118
REMARK UNBOUND:                 0.247
REMARK SMILES CC1=CCC[C@H](C)C(=O)C[C@@H](C(C)C)C(=O)C1
REMARK SMILES IDX 8 1 9 2 6 3 7 4 5 5 4 6 3 7 2 8 1 9 10 11 11 12 15 13 16 14
REMARK SMILES IDX 17 15 12 17 13 18 14 19
REMARK H PARENT
REMARK Flexibility Score: 70.00
ROOT
ATOM      1  C   UNL     1       2.109  23.250  38.357  1.00  0.00     0.136 C 
ATOM      2  O   UNL     1       1.935  24.422  38.056  1.00  0.00    -0.299 OA
ENDROOT
BRANCH   1   3
ATOM      3  C   UNL     1       1.081  22.207  37.954  1.00  0.00     0.053 C 
ATOM      4  C   UNL     1       1.482  20.813  38.464  1.00  0.00     0.016 C 
BRANCH   3   5
ATOM      5  C   UNL     1      -0.322  22.606  38.475  1.00  0.00     0.015 C 
BRANCH   5   6
ATOM      6  C   UNL     1      -0.373  22.689  40.012  1.00  0.00     0.028 C 
BRANCH   6   7
ATOM      7  C   UNL     1      -0.518  24.115  40.479  1.00  0.00    -0.028 C 
ATOM      8  C   UNL     1       0.238  24.692  41.441  1.00  0.00    -0.070 CG0
ATOM      9  C   UNL     1      -0.071  26.116  41.828  1.00  0.00     0.039 C 
ATOM     10  G   UNL     1       1.381  23.974  42.140  1.00  0.00     0.000 G0
ENDBRANCH   6   7
ENDBRANCH   5   6
ENDBRANCH   3   5
ENDBRANCH   1   3
BRANCH   1  11
ATOM     11  C   UNL     1       3.366  22.865  39.102  1.00  0.00     0.087 C 
BRANCH  11  12
ATOM     12  C   UNL     1       3.098  22.648  40.614  1.00  0.00     0.066 C 
BRANCH  12  13
ATOM     13  C   UNL     1       2.636  23.921  41.312  1.00  0.00     0.140 C 
ATOM     14  O   UNL     1       3.265  24.952  41.119  1.00  0.00    -0.299 OA
BRANCH  13  15
ATOM     15  C   UNL     1       1.379  23.984  42.147  1.00  0.00     0.106 CG0
ATOM     16  G   UNL     1       0.242  24.693  41.429  1.00  0.00     0.000 G0
ENDBRANCH  13  15
ENDBRANCH  12  13
BRANCH  12  17
ATOM     17  C   UNL     1       4.265  21.939  41.381  1.00  0.00    -0.006 C 
ATOM     18  C   UNL     1       5.620  21.958  40.651  1.00  0.00     0.008 C 
ATOM     19  C   UNL     1       3.897  20.487  41.735  1.00  0.00     0.008 C 
ENDBRANCH  12  17
ENDBRANCH  11  12
ENDBRANCH   1  11
TORSDOF 1
ENDMDL
MODEL 9
REMARK VINA RESULT:    -2.916     14.058     16.253
REMARK INTER + INTRA:          -4.203
REMARK INTER:                  -4.163
REMARK INTRA:                  -0.040
REMARK UNBOUND:                 0.247
REMARK SMILES CC1=CCC[C@H](C)C(=O)C[C@@H](C(C)C)C(=O)C1
REMARK SMILES IDX 8 1 9 2 6 3 7 4 5 5 4 6 3 7 2 8 1 9 10 11 11 12 15 13 16 14
REMARK SMILES IDX 17 15 12 17 13 18 14 19
REMARK H PARENT
REMARK Flexibility Score: 70.00
ROOT
ATOM      1  C   UNL     1      15.863  22.551  37.206  1.00  0.00     0.136 C 
ATOM      2  O   UNL     1      16.209  23.635  37.655  1.00  0.00    -0.299 OA
ENDROOT
BRANCH   1   3
ATOM      3  C   UNL     1      16.884  21.657  36.524  1.00  0.00     0.053 C 
ATOM      4  C   UNL     1      17.625  22.415  35.412  1.00  0.00     0.016 C 
BRANCH   3   5
ATOM      5  C   UNL     1      17.879  21.087  37.565  1.00  0.00     0.015 C 
BRANCH   5   6
ATOM      6  C   UNL     1      17.208  20.091  38.530  1.00  0.00     0.028 C 
BRANCH   6   7
ATOM      7  C   UNL     1      17.115  20.658  39.924  1.00  0.00    -0.028 C 
ATOM      8  C   UNL     1      15.957  20.960  40.557  1.00  0.00    -0.070 CG0
ATOM      9  C   UNL     1      16.040  21.570  41.933  1.00  0.00     0.039 C 
ATOM     10  G   UNL     1      14.588  20.710  39.946  1.00  0.00     0.000 G0
ENDBRANCH   6   7
ENDBRANCH   5   6
ENDBRANCH   3   5
ENDBRANCH   1   3
BRANCH   1  11
ATOM     11  C   UNL     1      14.425  22.118  37.369  1.00  0.00     0.087 C 
BRANCH  11  12
ATOM     12  C   UNL     1      13.741  22.823  38.569  1.00  0.00     0.066 C 
BRANCH  12  13
ATOM     13  C   UNL     1      13.765  21.975  39.834  1.00  0.00     0.140 C 
ATOM     14  O   UNL     1      13.029  22.288  40.759  1.00  0.00    -0.299 OA
BRANCH  13  15
ATOM     15  C   UNL     1      14.582  20.710  39.954  1.00  0.00     0.106 CG0
ATOM     16  G   UNL     1      15.958  20.965  40.548  1.00  0.00     0.000 G0
ENDBRANCH  13  15
ENDBRANCH  12  13
BRANCH  12  17
ATOM     17  C   UNL     1      12.315  23.388  38.258  1.00  0.00    -0.006 C 
ATOM     18  C   UNL     1      11.292  22.334  37.797  1.00  0.00     0.008 C 
ATOM     19  C   UNL     1      12.380  24.523  37.220  1.00  0.00     0.008 C 
ENDBRANCH  12  17
ENDBRANCH  11  12
ENDBRANCH   1  11
TORSDOF 1
ENDMDL
