MODEL 1
REMARK VINA RESULT:    -6.222      0.000      0.000
REMARK INTER + INTRA:          -7.392
REMARK INTER:                  -7.132
REMARK INTRA:                  -0.261
REMARK UNBOUND:                -0.261
REMARK SMILES O=c1c(-c2ccc(O)cc2)coc2c(O)c(O)ccc12
REMARK SMILES IDX 3 1 11 2 12 3 13 4 20 5 2 6 1 7 19 8 18 9 16 10 14 11 4 12
REMARK SMILES IDX 5 13 6 14 7 15 10 16 9 17 8 18 15 20 17 22
REMARK H PARENT 8 19 15 21 17 23
REMARK Flexibility Score: inf
ROOT
ATOM      1  C   UNL     1      80.249  64.206 256.221  1.00  0.00     0.065 A 
ATOM      2  C   UNL     1      80.524  65.453 255.638  1.00  0.00     0.208 A 
ATOM      3  O   UNL     1      80.214  66.582 256.263  1.00  0.00    -0.459 OA
ATOM      4  C   UNL     1      79.635  66.609 257.459  1.00  0.00     0.183 A 
ATOM      5  C   UNL     1      79.325  65.401 258.124  1.00  0.00     0.069 A 
ATOM      6  C   UNL     1      79.645  64.187 257.493  1.00  0.00     0.200 A 
ATOM      7  O   UNL     1      79.412  63.088 258.069  1.00  0.00    -0.288 OA
ATOM      8  C   UNL     1      78.717  65.445 259.391  1.00  0.00     0.020 A 
ATOM      9  C   UNL     1      78.418  66.673 259.985  1.00  0.00     0.051 A 
ATOM     10  C   UNL     1      78.722  67.871 259.326  1.00  0.00     0.161 A 
ATOM     11  C   UNL     1      79.331  67.843 258.064  1.00  0.00     0.201 A 
ENDROOT
BRANCH   1  12
ATOM     12  C   UNL     1      80.598  62.957 255.499  1.00  0.00    -0.011 A 
ATOM     13  C   UNL     1      79.622  62.247 254.779  1.00  0.00     0.013 A 
ATOM     14  C   UNL     1      79.959  61.076 254.093  1.00  0.00     0.047 A 
ATOM     15  C   UNL     1      81.274  60.603 254.113  1.00  0.00     0.115 A 
ATOM     16  C   UNL     1      81.921  62.479 255.509  1.00  0.00     0.013 A 
ATOM     17  C   UNL     1      82.256  61.308 254.822  1.00  0.00     0.047 A 
BRANCH  15  18
ATOM     18  O   UNL     1      81.596  59.434 253.426  1.00  0.00    -0.508 OA
ATOM     19  H   UNL     1      81.339  59.303 252.455  1.00  0.00     0.293 HD
ENDBRANCH  15  18
ENDBRANCH   1  12
BRANCH  11  20
ATOM     20  O   UNL     1      79.626  69.047 257.425  1.00  0.00    -0.502 OA
ATOM     21  H   UNL     1      78.955  69.522 256.833  1.00  0.00     0.293 HD
ENDBRANCH  11  20
BRANCH  10  22
ATOM     22  O   UNL     1      78.424  69.095 259.920  1.00  0.00    -0.504 OA
ATOM     23  H   UNL     1      77.741  69.172 260.665  1.00  0.00     0.293 HD
ENDBRANCH  10  22
TORSDOF 4
ENDMDL
MODEL 2
REMARK VINA RESULT:    -6.118      1.179      2.461
REMARK INTER + INTRA:          -7.273
REMARK INTER:                  -6.997
REMARK INTRA:                  -0.275
REMARK UNBOUND:                -0.261
REMARK SMILES O=c1c(-c2ccc(O)cc2)coc2c(O)c(O)ccc12
REMARK SMILES IDX 3 1 11 2 12 3 13 4 20 5 2 6 1 7 19 8 18 9 16 10 14 11 4 12
REMARK SMILES IDX 5 13 6 14 7 15 10 16 9 17 8 18 15 20 17 22
REMARK H PARENT 8 19 15 21 17 23
REMARK Flexibility Score: inf
ROOT
ATOM      1  C   UNL     1      79.911  64.482 256.666  1.00  0.00     0.065 A 
ATOM      2  C   UNL     1      79.388  64.346 257.962  1.00  0.00     0.208 A 
ATOM      3  O   UNL     1      79.117  65.412 258.704  1.00  0.00    -0.459 OA
ATOM      4  C   UNL     1      79.316  66.656 258.280  1.00  0.00     0.183 A 
ATOM      5  C   UNL     1      79.835  66.889 256.986  1.00  0.00     0.069 A 
ATOM      6  C   UNL     1      80.128  65.782 256.171  1.00  0.00     0.200 A 
ATOM      7  O   UNL     1      80.564  65.951 254.998  1.00  0.00    -0.288 OA
ATOM      8  C   UNL     1      80.036  68.210 256.549  1.00  0.00     0.020 A 
ATOM      9  C   UNL     1      79.729  69.283 257.389  1.00  0.00     0.051 A 
ATOM     10  C   UNL     1      79.216  69.053 258.672  1.00  0.00     0.161 A 
ATOM     11  C   UNL     1      79.008  67.742 259.120  1.00  0.00     0.201 A 
ENDROOT
BRANCH   1  12
ATOM     12  C   UNL     1      80.214  63.273 255.858  1.00  0.00    -0.011 A 
ATOM     13  C   UNL     1      81.514  62.740 255.825  1.00  0.00     0.013 A 
ATOM     14  C   UNL     1      81.790  61.596 255.070  1.00  0.00     0.047 A 
ATOM     15  C   UNL     1      80.773  60.969 254.344  1.00  0.00     0.115 A 
ATOM     16  C   UNL     1      79.193  62.634 255.131  1.00  0.00     0.013 A 
ATOM     17  C   UNL     1      79.473  61.490 254.377  1.00  0.00     0.047 A 
BRANCH  15  18
ATOM     18  O   UNL     1      81.063  59.830 253.594  1.00  0.00    -0.508 OA
ATOM     19  H   UNL     1      81.402  59.896 252.642  1.00  0.00     0.293 HD
ENDBRANCH  15  18
ENDBRANCH   1  12
BRANCH  11  20
ATOM     20  O   UNL     1      78.496  67.535 260.402  1.00  0.00    -0.502 OA
ATOM     21  H   UNL     1      78.360  66.607 260.784  1.00  0.00     0.293 HD
ENDBRANCH  11  20
BRANCH  10  22
ATOM     22  O   UNL     1      78.910  70.125 259.508  1.00  0.00    -0.504 OA
ATOM     23  H   UNL     1      79.540  70.911 259.617  1.00  0.00     0.293 HD
ENDBRANCH  10  22
TORSDOF 4
ENDMDL
MODEL 3
REMARK VINA RESULT:    -5.924      1.335      2.662
REMARK INTER + INTRA:          -7.050
REMARK INTER:                  -6.767
REMARK INTRA:                  -0.283
REMARK UNBOUND:                -0.261
REMARK SMILES O=c1c(-c2ccc(O)cc2)coc2c(O)c(O)ccc12
REMARK SMILES IDX 3 1 11 2 12 3 13 4 20 5 2 6 1 7 19 8 18 9 16 10 14 11 4 12
REMARK SMILES IDX 5 13 6 14 7 15 10 16 9 17 8 18 15 20 17 22
REMARK H PARENT 8 19 15 21 17 23
REMARK Flexibility Score: inf
ROOT
ATOM      1  C   UNL     1      80.720  63.013 256.152  1.00  0.00     0.065 A 
ATOM      2  C   UNL     1      80.025  62.632 257.310  1.00  0.00     0.208 A 
ATOM      3  O   UNL     1      79.459  63.540 258.097  1.00  0.00    -0.459 OA
ATOM      4  C   UNL     1      79.510  64.844 257.846  1.00  0.00     0.183 A 
ATOM      5  C   UNL     1      80.185  65.320 256.698  1.00  0.00     0.069 A 
ATOM      6  C   UNL     1      80.790  64.385 255.841  1.00  0.00     0.200 A 
ATOM      7  O   UNL     1      81.375  64.769 254.790  1.00  0.00    -0.288 OA
ATOM      8  C   UNL     1      80.227  66.702 256.442  1.00  0.00     0.020 A 
ATOM      9  C   UNL     1      79.609  67.597 257.319  1.00  0.00     0.051 A 
ATOM     10  C   UNL     1      78.942  67.128 258.458  1.00  0.00     0.161 A 
ATOM     11  C   UNL     1      78.890  65.752 258.723  1.00  0.00     0.201 A 
ENDROOT
BRANCH   1  12
ATOM     12  C   UNL     1      81.351  61.980 255.292  1.00  0.00    -0.011 A 
ATOM     13  C   UNL     1      82.664  61.544 255.540  1.00  0.00     0.013 A 
ATOM     14  C   UNL     1      83.248  60.563 254.733  1.00  0.00     0.047 A 
ATOM     15  C   UNL     1      82.529  60.004 253.673  1.00  0.00     0.115 A 
ATOM     16  C   UNL     1      80.630  61.407 254.228  1.00  0.00     0.013 A 
ATOM     17  C   UNL     1      81.218  60.427 253.423  1.00  0.00     0.047 A 
BRANCH  15  18
ATOM     18  O   UNL     1      83.125  59.028 252.876  1.00  0.00    -0.508 OA
ATOM     19  H   UNL     1      82.678  58.135 252.710  1.00  0.00     0.293 HD
ENDBRANCH  15  18
ENDBRANCH   1  12
BRANCH  11  20
ATOM     20  O   UNL     1      78.220  65.306 259.863  1.00  0.00    -0.502 OA
ATOM     21  H   UNL     1      77.311  65.667 260.129  1.00  0.00     0.293 HD
ENDBRANCH  11  20
BRANCH  10  22
ATOM     22  O   UNL     1      78.327  68.022 259.330  1.00  0.00    -0.504 OA
ATOM     23  H   UNL     1      77.359  68.300 259.210  1.00  0.00     0.293 HD
ENDBRANCH  10  22
TORSDOF 4
ENDMDL
MODEL 4
REMARK VINA RESULT:    -5.866      9.522     11.430
REMARK INTER + INTRA:          -6.984
REMARK INTER:                  -6.775
REMARK INTRA:                  -0.209
REMARK UNBOUND:                -0.261
REMARK SMILES O=c1c(-c2ccc(O)cc2)coc2c(O)c(O)ccc12
REMARK SMILES IDX 3 1 11 2 12 3 13 4 20 5 2 6 1 7 19 8 18 9 16 10 14 11 4 12
REMARK SMILES IDX 5 13 6 14 7 15 10 16 9 17 8 18 15 20 17 22
REMARK H PARENT 8 19 15 21 17 23
REMARK Flexibility Score: inf
ROOT
ATOM      1  C   UNL     1      79.361  54.033 258.125  1.00  0.00     0.065 A 
ATOM      2  C   UNL     1      79.980  54.420 259.324  1.00  0.00     0.208 A 
ATOM      3  O   UNL     1      81.135  55.075 259.316  1.00  0.00    -0.459 OA
ATOM      4  C   UNL     1      81.771  55.403 258.196  1.00  0.00     0.183 A 
ATOM      5  C   UNL     1      81.220  55.058 256.941  1.00  0.00     0.069 A 
ATOM      6  C   UNL     1      79.995  54.369 256.913  1.00  0.00     0.200 A 
ATOM      7  O   UNL     1      79.457  54.071 255.810  1.00  0.00    -0.288 OA
ATOM      8  C   UNL     1      81.901  55.415 255.764  1.00  0.00     0.020 A 
ATOM      9  C   UNL     1      83.115  56.102 255.837  1.00  0.00     0.051 A 
ATOM     10  C   UNL     1      83.663  56.443 257.080  1.00  0.00     0.161 A 
ATOM     11  C   UNL     1      82.993  56.096 258.261  1.00  0.00     0.201 A 
ENDROOT
BRANCH   1  12
ATOM     12  C   UNL     1      78.074  53.295 258.159  1.00  0.00    -0.011 A 
ATOM     13  C   UNL     1      78.025  51.922 257.858  1.00  0.00     0.013 A 
ATOM     14  C   UNL     1      76.811  51.231 257.902  1.00  0.00     0.047 A 
ATOM     15  C   UNL     1      75.633  51.898 258.251  1.00  0.00     0.115 A 
ATOM     16  C   UNL     1      76.886  53.958 258.516  1.00  0.00     0.013 A 
ATOM     17  C   UNL     1      75.673  53.264 258.559  1.00  0.00     0.047 A 
BRANCH  15  18
ATOM     18  O   UNL     1      74.429  51.196 258.289  1.00  0.00    -0.508 OA
ATOM     19  H   UNL     1      73.672  51.411 257.653  1.00  0.00     0.293 HD
ENDBRANCH  15  18
ENDBRANCH   1  12
BRANCH  11  20
ATOM     20  O   UNL     1      83.557  56.445 259.489  1.00  0.00    -0.502 OA
ATOM     21  H   UNL     1      84.538  56.681 259.584  1.00  0.00     0.293 HD
ENDBRANCH  11  20
BRANCH  10  22
ATOM     22  O   UNL     1      84.874  57.129 257.150  1.00  0.00    -0.504 OA
ATOM     23  H   UNL     1      85.177  57.586 258.003  1.00  0.00     0.293 HD
ENDBRANCH  10  22
TORSDOF 4
ENDMDL
MODEL 5
REMARK VINA RESULT:    -5.798      9.552     10.291
REMARK INTER + INTRA:          -6.906
REMARK INTER:                  -7.289
REMARK INTRA:                   0.382
REMARK UNBOUND:                -0.261
REMARK SMILES O=c1c(-c2ccc(O)cc2)coc2c(O)c(O)ccc12
REMARK SMILES IDX 3 1 11 2 12 3 13 4 20 5 2 6 1 7 19 8 18 9 16 10 14 11 4 12
REMARK SMILES IDX 5 13 6 14 7 15 10 16 9 17 8 18 15 20 17 22
REMARK H PARENT 8 19 15 21 17 23
REMARK Flexibility Score: inf
ROOT
ATOM      1  C   UNL     1      82.740  55.875 257.033  1.00  0.00     0.065 A 
ATOM      2  C   UNL     1      83.020  55.759 258.403  1.00  0.00     0.208 A 
ATOM      3  O   UNL     1      82.103  55.309 259.252  1.00  0.00    -0.459 OA
ATOM      4  C   UNL     1      80.884  54.943 258.869  1.00  0.00     0.183 A 
ATOM      5  C   UNL     1      80.515  55.021 257.507  1.00  0.00     0.069 A 
ATOM      6  C   UNL     1      81.463  55.489 256.581  1.00  0.00     0.200 A 
ATOM      7  O   UNL     1      81.181  55.543 255.351  1.00  0.00    -0.288 OA
ATOM      8  C   UNL     1      79.223  54.626 257.116  1.00  0.00     0.020 A 
ATOM      9  C   UNL     1      78.312  54.165 258.068  1.00  0.00     0.051 A 
ATOM     10  C   UNL     1      78.675  54.089 259.419  1.00  0.00     0.161 A 
ATOM     11  C   UNL     1      79.960  54.476 259.822  1.00  0.00     0.201 A 
ENDROOT
BRANCH   1  12
ATOM     12  C   UNL     1      83.779  56.389 256.105  1.00  0.00    -0.011 A 
ATOM     13  C   UNL     1      83.790  56.002 254.754  1.00  0.00     0.013 A 
ATOM     14  C   UNL     1      84.765  56.497 253.883  1.00  0.00     0.047 A 
ATOM     15  C   UNL     1      85.738  57.386 254.349  1.00  0.00     0.115 A 
ATOM     16  C   UNL     1      84.756  57.290 256.565  1.00  0.00     0.013 A 
ATOM     17  C   UNL     1      85.731  57.783 255.692  1.00  0.00     0.047 A 
BRANCH  15  18
ATOM     18  O   UNL     1      86.705  57.871 253.470  1.00  0.00    -0.508 OA
ATOM     19  H   UNL     1      86.463  58.184 252.538  1.00  0.00     0.293 HD
ENDBRANCH  15  18
ENDBRANCH   1  12
BRANCH  11  20
ATOM     20  O   UNL     1      80.301  54.392 261.172  1.00  0.00    -0.502 OA
ATOM     21  H   UNL     1      80.984  53.726 261.515  1.00  0.00     0.293 HD
ENDBRANCH  11  20
BRANCH  10  22
ATOM     22  O   UNL     1      77.764  53.627 260.366  1.00  0.00    -0.504 OA
ATOM     23  H   UNL     1      77.699  52.645 260.606  1.00  0.00     0.293 HD
ENDBRANCH  10  22
TORSDOF 4
ENDMDL
MODEL 6
REMARK VINA RESULT:    -5.531     10.271     11.984
REMARK INTER + INTRA:          -6.599
REMARK INTER:                  -6.320
REMARK INTRA:                  -0.279
REMARK UNBOUND:                -0.261
REMARK SMILES O=c1c(-c2ccc(O)cc2)coc2c(O)c(O)ccc12
REMARK SMILES IDX 3 1 11 2 12 3 13 4 20 5 2 6 1 7 19 8 18 9 16 10 14 11 4 12
REMARK SMILES IDX 5 13 6 14 7 15 10 16 9 17 8 18 15 20 17 22
REMARK H PARENT 8 19 15 21 17 23
REMARK Flexibility Score: inf
ROOT
ATOM      1  C   UNL     1      77.010  53.790 257.941  1.00  0.00     0.065 A 
ATOM      2  C   UNL     1      77.260  53.572 259.305  1.00  0.00     0.208 A 
ATOM      3  O   UNL     1      78.455  53.819 259.829  1.00  0.00    -0.459 OA
ATOM      4  C   UNL     1      79.475  54.282 259.113  1.00  0.00     0.183 A 
ATOM      5  C   UNL     1      79.314  54.536 257.731  1.00  0.00     0.069 A 
ATOM      6  C   UNL     1      78.059  54.290 257.146  1.00  0.00     0.200 A 
ATOM      7  O   UNL     1      77.869  54.534 255.922  1.00  0.00    -0.288 OA
ATOM      8  C   UNL     1      80.400  55.030 256.987  1.00  0.00     0.020 A 
ATOM      9  C   UNL     1      81.628  55.263 257.609  1.00  0.00     0.051 A 
ATOM     10  C   UNL     1      81.790  55.010 258.977  1.00  0.00     0.161 A 
ATOM     11  C   UNL     1      80.715  54.520 259.732  1.00  0.00     0.201 A 
ENDROOT
BRANCH   1  12
ATOM     12  C   UNL     1      75.668  53.499 257.377  1.00  0.00    -0.011 A 
ATOM     13  C   UNL     1      74.654  54.472 257.397  1.00  0.00     0.013 A 
ATOM     14  C   UNL     1      73.396  54.195 256.856  1.00  0.00     0.047 A 
ATOM     15  C   UNL     1      73.135  52.946 256.285  1.00  0.00     0.115 A 
ATOM     16  C   UNL     1      75.401  52.246 256.794  1.00  0.00     0.013 A 
ATOM     17  C   UNL     1      74.142  51.972 256.254  1.00  0.00     0.047 A 
BRANCH  15  18
ATOM     18  O   UNL     1      71.875  52.682 255.750  1.00  0.00    -0.508 OA
ATOM     19  H   UNL     1      71.334  53.405 255.291  1.00  0.00     0.293 HD
ENDBRANCH  15  18
ENDBRANCH   1  12
BRANCH  11  20
ATOM     20  O   UNL     1      80.897  54.275 261.093  1.00  0.00    -0.502 OA
ATOM     21  H   UNL     1      80.685  54.971 261.798  1.00  0.00     0.293 HD
ENDBRANCH  11  20
BRANCH  10  22
ATOM     22  O   UNL     1      83.016  55.244 259.595  1.00  0.00    -0.504 OA
ATOM     23  H   UNL     1      83.347  56.184 259.780  1.00  0.00     0.293 HD
ENDBRANCH  10  22
TORSDOF 4
ENDMDL
MODEL 7
REMARK VINA RESULT:    -5.408      9.505     12.194
REMARK INTER + INTRA:          -6.459
REMARK INTER:                  -6.547
REMARK INTRA:                   0.088
REMARK UNBOUND:                -0.261
REMARK SMILES O=c1c(-c2ccc(O)cc2)coc2c(O)c(O)ccc12
REMARK SMILES IDX 3 1 11 2 12 3 13 4 20 5 2 6 1 7 19 8 18 9 16 10 14 11 4 12
REMARK SMILES IDX 5 13 6 14 7 15 10 16 9 17 8 18 15 20 17 22
REMARK H PARENT 8 19 15 21 17 23
REMARK Flexibility Score: inf
ROOT
ATOM      1  C   UNL     1      80.334  54.294 257.689  1.00  0.00     0.065 A 
ATOM      2  C   UNL     1      79.380  54.768 258.603  1.00  0.00     0.208 A 
ATOM      3  O   UNL     1      78.267  54.085 258.844  1.00  0.00    -0.459 OA
ATOM      4  C   UNL     1      77.987  52.929 258.251  1.00  0.00     0.183 A 
ATOM      5  C   UNL     1      78.893  52.373 257.319  1.00  0.00     0.069 A 
ATOM      6  C   UNL     1      80.083  53.067 257.044  1.00  0.00     0.200 A 
ATOM      7  O   UNL     1      80.931  52.586 256.241  1.00  0.00    -0.288 OA
ATOM      8  C   UNL     1      78.585  51.147 256.702  1.00  0.00     0.020 A 
ATOM      9  C   UNL     1      77.392  50.488 257.006  1.00  0.00     0.051 A 
ATOM     10  C   UNL     1      76.492  51.039 257.928  1.00  0.00     0.161 A 
ATOM     11  C   UNL     1      76.787  52.259 258.552  1.00  0.00     0.201 A 
ENDROOT
BRANCH   1  12
ATOM     12  C   UNL     1      81.567  55.079 257.430  1.00  0.00    -0.011 A 
ATOM     13  C   UNL     1      81.998  55.325 256.115  1.00  0.00     0.013 A 
ATOM     14  C   UNL     1      83.155  56.074 255.878  1.00  0.00     0.047 A 
ATOM     15  C   UNL     1      83.892  56.589 256.948  1.00  0.00     0.115 A 
ATOM     16  C   UNL     1      82.309  55.607 258.502  1.00  0.00     0.013 A 
ATOM     17  C   UNL     1      83.465  56.355 258.262  1.00  0.00     0.047 A 
BRANCH  15  18
ATOM     18  O   UNL     1      85.043  57.333 256.697  1.00  0.00    -0.508 OA
ATOM     19  H   UNL     1      85.344  57.539 255.752  1.00  0.00     0.293 HD
ENDBRANCH  15  18
ENDBRANCH   1  12
BRANCH  11  20
ATOM     20  O   UNL     1      75.878  52.790 259.467  1.00  0.00    -0.502 OA
ATOM     21  H   UNL     1      75.874  53.773 259.713  1.00  0.00     0.293 HD
ENDBRANCH  11  20
BRANCH  10  22
ATOM     22  O   UNL     1      75.303  50.380 258.229  1.00  0.00    -0.504 OA
ATOM     23  H   UNL     1      75.166  49.402 258.002  1.00  0.00     0.293 HD
ENDBRANCH  10  22
TORSDOF 4
ENDMDL
MODEL 8
REMARK VINA RESULT:    -5.370      9.633     11.351
REMARK INTER + INTRA:          -6.416
REMARK INTER:                  -6.170
REMARK INTRA:                  -0.245
REMARK UNBOUND:                -0.261
REMARK SMILES O=c1c(-c2ccc(O)cc2)coc2c(O)c(O)ccc12
REMARK SMILES IDX 3 1 11 2 12 3 13 4 20 5 2 6 1 7 19 8 18 9 16 10 14 11 4 12
REMARK SMILES IDX 5 13 6 14 7 15 10 16 9 17 8 18 15 20 17 22
REMARK H PARENT 8 19 15 21 17 23
REMARK Flexibility Score: inf
ROOT
ATOM      1  C   UNL     1      79.386  54.022 257.128  1.00  0.00     0.065 A 
ATOM      2  C   UNL     1      79.740  54.023 255.770  1.00  0.00     0.208 A 
ATOM      3  O   UNL     1      80.873  54.580 255.360  1.00  0.00    -0.459 OA
ATOM      4  C   UNL     1      81.733  55.161 256.190  1.00  0.00     0.183 A 
ATOM      5  C   UNL     1      81.461  55.204 257.577  1.00  0.00     0.069 A 
ATOM      6  C   UNL     1      80.272  54.618 258.045  1.00  0.00     0.200 A 
ATOM      7  O   UNL     1      80.010  54.609 259.281  1.00  0.00    -0.288 OA
ATOM      8  C   UNL     1      82.382  55.818 258.444  1.00  0.00     0.020 A 
ATOM      9  C   UNL     1      83.553  56.385 257.938  1.00  0.00     0.051 A 
ATOM     10  C   UNL     1      83.823  56.346 256.564  1.00  0.00     0.161 A 
ATOM     11  C   UNL     1      82.915  55.735 255.688  1.00  0.00     0.201 A 
ENDROOT
BRANCH   1  12
ATOM     12  C   UNL     1      78.109  53.399 257.561  1.00  0.00    -0.011 A 
ATOM     13  C   UNL     1      76.988  54.193 257.857  1.00  0.00     0.013 A 
ATOM     14  C   UNL     1      75.786  53.600 258.255  1.00  0.00     0.047 A 
ATOM     15  C   UNL     1      75.687  52.210 258.357  1.00  0.00     0.115 A 
ATOM     16  C   UNL     1      78.001  52.000 257.659  1.00  0.00     0.013 A 
ATOM     17  C   UNL     1      76.798  51.410 258.057  1.00  0.00     0.047 A 
BRANCH  15  18
ATOM     18  O   UNL     1      74.483  51.632 258.756  1.00  0.00    -0.508 OA
ATOM     19  H   UNL     1      74.207  51.604 259.730  1.00  0.00     0.293 HD
ENDBRANCH  15  18
ENDBRANCH   1  12
BRANCH  11  20
ATOM     20  O   UNL     1      83.204  55.706 254.323  1.00  0.00    -0.502 OA
ATOM     21  H   UNL     1      83.818  55.011 253.917  1.00  0.00     0.293 HD
ENDBRANCH  11  20
BRANCH  10  22
ATOM     22  O   UNL     1      84.992  56.913 256.061  1.00  0.00    -0.504 OA
ATOM     23  H   UNL     1      85.822  57.014 256.633  1.00  0.00     0.293 HD
ENDBRANCH  10  22
TORSDOF 4
ENDMDL
MODEL 9
REMARK VINA RESULT:    -5.332      9.351     12.016
REMARK INTER + INTRA:          -6.372
REMARK INTER:                  -6.581
REMARK INTRA:                   0.209
REMARK UNBOUND:                -0.261
REMARK SMILES O=c1c(-c2ccc(O)cc2)coc2c(O)c(O)ccc12
REMARK SMILES IDX 3 1 11 2 12 3 13 4 20 5 2 6 1 7 19 8 18 9 16 10 14 11 4 12
REMARK SMILES IDX 5 13 6 14 7 15 10 16 9 17 8 18 15 20 17 22
REMARK H PARENT 8 19 15 21 17 23
REMARK Flexibility Score: inf
ROOT
ATOM      1  C   UNL     1      80.487  54.149 257.388  1.00  0.00     0.065 A 
ATOM      2  C   UNL     1      80.428  53.033 256.538  1.00  0.00     0.208 A 
ATOM      3  O   UNL     1      79.393  52.203 256.573  1.00  0.00    -0.459 OA
ATOM      4  C   UNL     1      78.362  52.369 257.396  1.00  0.00     0.183 A 
ATOM      5  C   UNL     1      78.334  53.469 258.284  1.00  0.00     0.069 A 
ATOM      6  C   UNL     1      79.412  54.370 258.269  1.00  0.00     0.200 A 
ATOM      7  O   UNL     1      79.408  55.381 259.026  1.00  0.00    -0.288 OA
ATOM      8  C   UNL     1      77.235  53.634 259.145  1.00  0.00     0.020 A 
ATOM      9  C   UNL     1      76.183  52.717 259.126  1.00  0.00     0.051 A 
ATOM     10  C   UNL     1      76.210  51.625 258.248  1.00  0.00     0.161 A 
ATOM     11  C   UNL     1      77.298  51.449 257.382  1.00  0.00     0.201 A 
ENDROOT
BRANCH   1  12
ATOM     12  C   UNL     1      81.660  55.059 257.336  1.00  0.00    -0.011 A 
ATOM     13  C   UNL     1      82.197  55.605 258.514  1.00  0.00     0.013 A 
ATOM     14  C   UNL     1      83.307  56.453 258.459  1.00  0.00     0.047 A 
ATOM     15  C   UNL     1      83.897  56.762 257.230  1.00  0.00     0.115 A 
ATOM     16  C   UNL     1      82.262  55.368 256.102  1.00  0.00     0.013 A 
ATOM     17  C   UNL     1      83.372  56.216 256.051  1.00  0.00     0.047 A 
BRANCH  15  18
ATOM     18  O   UNL     1      85.002  57.610 257.190  1.00  0.00    -0.508 OA
ATOM     19  H   UNL     1      85.363  58.048 258.028  1.00  0.00     0.293 HD
ENDBRANCH  15  18
ENDBRANCH   1  12
BRANCH  11  20
ATOM     20  O   UNL     1      77.305  50.356 256.515  1.00  0.00    -0.502 OA
ATOM     21  H   UNL     1      76.654  50.277 255.742  1.00  0.00     0.293 HD
ENDBRANCH  11  20
BRANCH  10  22
ATOM     22  O   UNL     1      75.159  50.711 258.230  1.00  0.00    -0.504 OA
ATOM     23  H   UNL     1      74.508  50.635 259.003  1.00  0.00     0.293 HD
ENDBRANCH  10  22
TORSDOF 4
ENDMDL
