MODEL 1
REMARK VINA RESULT:    -1.299      0.000      0.000
REMARK INTER + INTRA:          -4.568
REMARK INTER:                  -2.210
REMARK INTRA:                  -2.357
REMARK UNBOUND:                -2.357
REMARK SMILES CCCCCCCCCCCCCC(=O)[O-]
REMARK SMILES IDX 8 1 9 2 10 3 11 4 12 5 13 6 14 7 15 8 16 9 7 10 6 11 5 12
REMARK SMILES IDX 4 13 3 14 2 15 1 16
REMARK H PARENT
REMARK Flexibility Score: inf
ROOT
ATOM      1  C   UNL     1      20.612 -28.771  -1.931  1.00  0.00     0.000 C 
ENDROOT
BRANCH   1   2
ATOM      2  C   UNL     1      21.356 -27.435  -2.079  1.00  0.00     0.000 C 
BRANCH   2   3
ATOM      3  C   UNL     1      20.926 -26.397  -1.028  1.00  0.00     0.000 C 
BRANCH   3   4
ATOM      4  C   UNL     1      22.121 -25.802  -0.262  1.00  0.00     0.000 C 
BRANCH   4   5
ATOM      5  C   UNL     1      21.829 -25.620   1.236  1.00  0.00     0.006 C 
BRANCH   5   6
ATOM      6  C   UNL     1      20.338 -25.760   1.572  1.00  0.00     0.053 C 
BRANCH   6   7
ATOM      7  C   UNL     1      20.155 -25.992   3.038  1.00  0.00     0.041 C 
ATOM      8  O   UNL     1      21.036 -26.605   3.698  1.00  0.00    -0.550 OA
ATOM      9  O   UNL     1      18.987 -25.578   3.667  1.00  0.00    -0.550 OA
ENDBRANCH   6   7
ENDBRANCH   5   6
ENDBRANCH   4   5
ENDBRANCH   3   4
ENDBRANCH   2   3
ENDBRANCH   1   2
BRANCH   1  10
ATOM     10  C   UNL     1      19.858 -28.834  -0.596  1.00  0.00     0.000 C 
BRANCH  10  11
ATOM     11  C   UNL     1      20.427 -29.936   0.306  1.00  0.00    -0.000 C 
BRANCH  11  12
ATOM     12  C   UNL     1      21.317 -29.338   1.407  1.00  0.00    -0.000 C 
BRANCH  12  13
ATOM     13  C   UNL     1      22.770 -29.838   1.335  1.00  0.00    -0.000 C 
BRANCH  13  14
ATOM     14  C   UNL     1      23.821 -28.740   1.074  1.00  0.00    -0.000 C 
BRANCH  14  15
ATOM     15  C   UNL     1      24.439 -28.795  -0.339  1.00  0.00    -0.003 C 
ATOM     16  C   UNL     1      24.075 -30.077  -1.087  1.00  0.00     0.004 C 
ENDBRANCH  14  15
ENDBRANCH  13  14
ENDBRANCH  12  13
ENDBRANCH  11  12
ENDBRANCH  10  11
ENDBRANCH   1  10
TORSDOF 12
ENDMDL
MODEL 2
REMARK VINA RESULT:    -1.177      2.847      4.668
REMARK INTER + INTRA:          -4.360
REMARK INTER:                  -2.292
REMARK INTRA:                  -2.068
REMARK UNBOUND:                -2.357
REMARK SMILES CCCCCCCCCCCCCC(=O)[O-]
REMARK SMILES IDX 8 1 9 2 10 3 11 4 12 5 13 6 14 7 15 8 16 9 7 10 6 11 5 12
REMARK SMILES IDX 4 13 3 14 2 15 1 16
REMARK H PARENT
REMARK Flexibility Score: inf
ROOT
ATOM      1  C   UNL     1      22.696 -26.972  -0.974  1.00  0.00     0.000 C 
ENDROOT
BRANCH   1   2
ATOM      2  C   UNL     1      22.088 -28.346  -1.293  1.00  0.00     0.000 C 
BRANCH   2   3
ATOM      3  C   UNL     1      20.570 -28.282  -1.534  1.00  0.00     0.000 C 
BRANCH   3   4
ATOM      4  C   UNL     1      19.762 -28.914  -0.388  1.00  0.00     0.000 C 
BRANCH   4   5
ATOM      5  C   UNL     1      20.483 -30.114   0.249  1.00  0.00     0.006 C 
BRANCH   5   6
ATOM      6  C   UNL     1      19.758 -30.652   1.490  1.00  0.00     0.053 C 
BRANCH   6   7
ATOM      7  C   UNL     1      19.972 -32.127   1.620  1.00  0.00     0.041 C 
ATOM      8  O   UNL     1      19.033 -32.928   1.370  1.00  0.00    -0.550 OA
ATOM      9  O   UNL     1      21.193 -32.615   2.069  1.00  0.00    -0.550 OA
ENDBRANCH   6   7
ENDBRANCH   5   6
ENDBRANCH   4   5
ENDBRANCH   3   4
ENDBRANCH   2   3
ENDBRANCH   1   2
BRANCH   1  10
ATOM     10  C   UNL     1      21.666 -25.854  -1.182  1.00  0.00     0.000 C 
BRANCH  10  11
ATOM     11  C   UNL     1      21.550 -24.972   0.066  1.00  0.00    -0.000 C 
BRANCH  11  12
ATOM     12  C   UNL     1      20.442 -25.484   0.999  1.00  0.00    -0.000 C 
BRANCH  12  13
ATOM     13  C   UNL     1      20.955 -25.808   2.412  1.00  0.00    -0.000 C 
BRANCH  13  14
ATOM     14  C   UNL     1      20.949 -27.307   2.777  1.00  0.00    -0.000 C 
BRANCH  14  15
ATOM     15  C   UNL     1      22.316 -27.998   2.589  1.00  0.00    -0.003 C 
ATOM     16  C   UNL     1      23.485 -27.016   2.678  1.00  0.00     0.004 C 
ENDBRANCH  14  15
ENDBRANCH  13  14
ENDBRANCH  12  13
ENDBRANCH  11  12
ENDBRANCH  10  11
ENDBRANCH   1  10
TORSDOF 12
ENDMDL
MODEL 3
REMARK VINA RESULT:    -1.170      6.994      9.045
REMARK INTER + INTRA:          -4.348
REMARK INTER:                  -2.877
REMARK INTRA:                  -1.471
REMARK UNBOUND:                -2.357
REMARK SMILES CCCCCCCCCCCCCC(=O)[O-]
REMARK SMILES IDX 8 1 9 2 10 3 11 4 12 5 13 6 14 7 15 8 16 9 7 10 6 11 5 12
REMARK SMILES IDX 4 13 3 14 2 15 1 16
REMARK H PARENT
REMARK Flexibility Score: inf
ROOT
ATOM      1  C   UNL     1      14.721 -32.489   3.449  1.00  0.00     0.000 C 
ENDROOT
BRANCH   1   2
ATOM      2  C   UNL     1      14.801 -32.924   1.978  1.00  0.00     0.000 C 
BRANCH   2   3
ATOM      3  C   UNL     1      15.437 -34.314   1.804  1.00  0.00     0.000 C 
BRANCH   3   4
ATOM      4  C   UNL     1      15.804 -34.618   0.341  1.00  0.00     0.000 C 
BRANCH   4   5
ATOM      5  C   UNL     1      14.588 -35.047  -0.495  1.00  0.00     0.006 C 
BRANCH   5   6
ATOM      6  C   UNL     1      14.196 -34.006  -1.552  1.00  0.00     0.053 C 
BRANCH   6   7
ATOM      7  C   UNL     1      12.892 -33.365  -1.194  1.00  0.00     0.041 C 
ATOM      8  O   UNL     1      12.199 -33.826  -0.249  1.00  0.00    -0.550 OA
ATOM      9  O   UNL     1      12.417 -32.292  -1.938  1.00  0.00    -0.550 OA
ENDBRANCH   6   7
ENDBRANCH   5   6
ENDBRANCH   4   5
ENDBRANCH   3   4
ENDBRANCH   2   3
ENDBRANCH   1   2
BRANCH   1  10
ATOM     10  C   UNL     1      14.473 -30.979   3.561  1.00  0.00     0.000 C 
BRANCH  10  11
ATOM     11  C   UNL     1      15.562 -30.186   2.829  1.00  0.00    -0.000 C 
BRANCH  11  12
ATOM     12  C   UNL     1      16.890 -30.238   3.600  1.00  0.00    -0.000 C 
BRANCH  12  13
ATOM     13  C   UNL     1      18.086 -30.599   2.703  1.00  0.00    -0.000 C 
BRANCH  13  14
ATOM     14  C   UNL     1      18.690 -31.995   2.956  1.00  0.00    -0.000 C 
BRANCH  14  15
ATOM     15  C   UNL     1      18.801 -32.864   1.685  1.00  0.00    -0.003 C 
ATOM     16  C   UNL     1      19.347 -34.261   1.978  1.00  0.00     0.004 C 
ENDBRANCH  14  15
ENDBRANCH  13  14
ENDBRANCH  12  13
ENDBRANCH  11  12
ENDBRANCH  10  11
ENDBRANCH   1  10
TORSDOF 12
ENDMDL
MODEL 4
REMARK VINA RESULT:    -1.157      6.783      8.530
REMARK INTER + INTRA:          -4.326
REMARK INTER:                  -2.561
REMARK INTRA:                  -1.765
REMARK UNBOUND:                -2.357
REMARK SMILES CCCCCCCCCCCCCC(=O)[O-]
REMARK SMILES IDX 8 1 9 2 10 3 11 4 12 5 13 6 14 7 15 8 16 9 7 10 6 11 5 12
REMARK SMILES IDX 4 13 3 14 2 15 1 16
REMARK H PARENT
REMARK Flexibility Score: inf
ROOT
ATOM      1  C   UNL     1      16.978 -34.027   2.853  1.00  0.00     0.000 C 
ENDROOT
BRANCH   1   2
ATOM      2  C   UNL     1      16.755 -32.710   3.611  1.00  0.00     0.000 C 
BRANCH   2   3
ATOM      3  C   UNL     1      16.669 -31.493   2.673  1.00  0.00     0.000 C 
BRANCH   3   4
ATOM      4  C   UNL     1      16.439 -30.176   3.434  1.00  0.00     0.000 C 
BRANCH   4   5
ATOM      5  C   UNL     1      15.171 -30.211   4.302  1.00  0.00     0.006 C 
BRANCH   5   6
ATOM      6  C   UNL     1      13.895 -29.916   3.502  1.00  0.00     0.053 C 
BRANCH   6   7
ATOM      7  C   UNL     1      14.017 -28.606   2.790  1.00  0.00     0.041 C 
ATOM      8  O   UNL     1      14.163 -27.540   3.446  1.00  0.00    -0.550 OA
ATOM      9  O   UNL     1      13.918 -28.555   1.405  1.00  0.00    -0.550 OA
ENDBRANCH   6   7
ENDBRANCH   5   6
ENDBRANCH   4   5
ENDBRANCH   3   4
ENDBRANCH   2   3
ENDBRANCH   1   2
BRANCH   1  10
ATOM     10  C   UNL     1      17.837 -33.802   1.602  1.00  0.00     0.000 C 
BRANCH  10  11
ATOM     11  C   UNL     1      17.385 -34.710   0.452  1.00  0.00    -0.000 C 
BRANCH  11  12
ATOM     12  C   UNL     1      15.917 -35.127   0.628  1.00  0.00    -0.000 C 
BRANCH  12  13
ATOM     13  C   UNL     1      14.978 -34.447  -0.383  1.00  0.00    -0.000 C 
BRANCH  13  14
ATOM     14  C   UNL     1      13.615 -34.010   0.189  1.00  0.00    -0.000 C 
BRANCH  14  15
ATOM     15  C   UNL     1      13.721 -32.975   1.328  1.00  0.00    -0.003 C 
ATOM     16  C   UNL     1      13.160 -33.499   2.649  1.00  0.00     0.004 C 
ENDBRANCH  14  15
ENDBRANCH  13  14
ENDBRANCH  12  13
ENDBRANCH  11  12
ENDBRANCH  10  11
ENDBRANCH   1  10
TORSDOF 12
ENDMDL
MODEL 5
REMARK VINA RESULT:    -1.153      8.022     10.290
REMARK INTER + INTRA:          -4.319
REMARK INTER:                  -2.307
REMARK INTRA:                  -2.012
REMARK UNBOUND:                -2.357
REMARK SMILES CCCCCCCCCCCCCC(=O)[O-]
REMARK SMILES IDX 8 1 9 2 10 3 11 4 12 5 13 6 14 7 15 8 16 9 7 10 6 11 5 12
REMARK SMILES IDX 4 13 3 14 2 15 1 16
REMARK H PARENT
REMARK Flexibility Score: inf
ROOT
ATOM      1  C   UNL     1      16.731 -33.931   2.374  1.00  0.00     0.000 C 
ENDROOT
BRANCH   1   2
ATOM      2  C   UNL     1      17.681 -34.180   1.193  1.00  0.00     0.000 C 
BRANCH   2   3
ATOM      3  C   UNL     1      16.997 -34.911   0.025  1.00  0.00     0.000 C 
BRANCH   3   4
ATOM      4  C   UNL     1      15.495 -35.140   0.270  1.00  0.00     0.000 C 
BRANCH   4   5
ATOM      5  C   UNL     1      14.611 -34.268  -0.636  1.00  0.00     0.006 C 
BRANCH   5   6
ATOM      6  C   UNL     1      13.175 -34.130  -0.110  1.00  0.00     0.053 C 
BRANCH   6   7
ATOM      7  C   UNL     1      12.593 -32.816  -0.524  1.00  0.00     0.041 C 
ATOM      8  O   UNL     1      12.089 -32.047   0.336  1.00  0.00    -0.550 OA
ATOM      9  O   UNL     1      12.558 -32.464  -1.868  1.00  0.00    -0.550 OA
ENDBRANCH   6   7
ENDBRANCH   5   6
ENDBRANCH   4   5
ENDBRANCH   3   4
ENDBRANCH   2   3
ENDBRANCH   1   2
BRANCH   1  10
ATOM     10  C   UNL     1      16.515 -32.429   2.597  1.00  0.00     0.000 C 
BRANCH  10  11
ATOM     11  C   UNL     1      15.050 -32.042   2.362  1.00  0.00    -0.000 C 
BRANCH  11  12
ATOM     12  C   UNL     1      14.216 -32.253   3.635  1.00  0.00    -0.000 C 
BRANCH  12  13
ATOM     13  C   UNL     1      13.158 -33.359   3.478  1.00  0.00    -0.000 C 
BRANCH  13  14
ATOM     14  C   UNL     1      13.522 -34.703   4.141  1.00  0.00    -0.000 C 
BRANCH  14  15
ATOM     15  C   UNL     1      13.568 -35.889   3.156  1.00  0.00    -0.003 C 
ATOM     16  C   UNL     1      14.678 -36.885   3.492  1.00  0.00     0.004 C 
ENDBRANCH  14  15
ENDBRANCH  13  14
ENDBRANCH  12  13
ENDBRANCH  11  12
ENDBRANCH  10  11
ENDBRANCH   1  10
TORSDOF 12
ENDMDL
MODEL 6
REMARK VINA RESULT:    -1.123      1.836      4.275
REMARK INTER + INTRA:          -4.269
REMARK INTER:                  -2.155
REMARK INTRA:                  -2.113
REMARK UNBOUND:                -2.357
REMARK SMILES CCCCCCCCCCCCCC(=O)[O-]
REMARK SMILES IDX 8 1 9 2 10 3 11 4 12 5 13 6 14 7 15 8 16 9 7 10 6 11 5 12
REMARK SMILES IDX 4 13 3 14 2 15 1 16
REMARK H PARENT
REMARK Flexibility Score: inf
ROOT
ATOM      1  C   UNL     1      20.733 -29.305  -1.395  1.00  0.00     0.000 C 
ENDROOT
BRANCH   1   2
ATOM      2  C   UNL     1      19.769 -28.955  -0.250  1.00  0.00     0.000 C 
BRANCH   2   3
ATOM      3  C   UNL     1      20.282 -29.426   1.122  1.00  0.00     0.000 C 
BRANCH   3   4
ATOM      4  C   UNL     1      21.429 -30.445   1.006  1.00  0.00     0.000 C 
BRANCH   4   5
ATOM      5  C   UNL     1      22.556 -30.182   2.018  1.00  0.00     0.006 C 
BRANCH   5   6
ATOM      6  C   UNL     1      23.096 -28.747   1.946  1.00  0.00     0.053 C 
BRANCH   6   7
ATOM      7  C   UNL     1      23.235 -28.174   3.321  1.00  0.00     0.041 C 
ATOM      8  O   UNL     1      23.611 -26.982   3.475  1.00  0.00    -0.550 OA
ATOM      9  O   UNL     1      23.002 -28.972   4.434  1.00  0.00    -0.550 OA
ENDBRANCH   6   7
ENDBRANCH   5   6
ENDBRANCH   4   5
ENDBRANCH   3   4
ENDBRANCH   2   3
ENDBRANCH   1   2
BRANCH   1  10
ATOM     10  C   UNL     1      21.199 -28.039  -2.125  1.00  0.00     0.000 C 
BRANCH  10  11
ATOM     11  C   UNL     1      22.610 -27.635  -1.682  1.00  0.00    -0.000 C 
BRANCH  11  12
ATOM     12  C   UNL     1      22.617 -26.212  -1.105  1.00  0.00    -0.000 C 
BRANCH  12  13
ATOM     13  C   UNL     1      21.271 -25.489  -1.284  1.00  0.00    -0.000 C 
BRANCH  13  14
ATOM     14  C   UNL     1      20.642 -24.957   0.020  1.00  0.00    -0.000 C 
BRANCH  14  15
ATOM     15  C   UNL     1      21.225 -25.596   1.298  1.00  0.00    -0.003 C 
ATOM     16  C   UNL     1      20.149 -25.918   2.334  1.00  0.00     0.004 C 
ENDBRANCH  14  15
ENDBRANCH  13  14
ENDBRANCH  12  13
ENDBRANCH  11  12
ENDBRANCH  10  11
ENDBRANCH   1  10
TORSDOF 12
ENDMDL
MODEL 7
REMARK VINA RESULT:    -1.090      2.557      4.503
REMARK INTER + INTRA:          -4.212
REMARK INTER:                  -2.130
REMARK INTRA:                  -2.082
REMARK UNBOUND:                -2.357
REMARK SMILES CCCCCCCCCCCCCC(=O)[O-]
REMARK SMILES IDX 8 1 9 2 10 3 11 4 12 5 13 6 14 7 15 8 16 9 7 10 6 11 5 12
REMARK SMILES IDX 4 13 3 14 2 15 1 16
REMARK H PARENT
REMARK Flexibility Score: inf
ROOT
ATOM      1  C   UNL     1      23.324 -27.533   1.469  1.00  0.00     0.000 C 
ENDROOT
BRANCH   1   2
ATOM      2  C   UNL     1      22.266 -26.426   1.589  1.00  0.00     0.000 C 
BRANCH   2   3
ATOM      3  C   UNL     1      20.920 -26.947   2.123  1.00  0.00     0.000 C 
BRANCH   3   4
ATOM      4  C   UNL     1      21.075 -28.222   2.970  1.00  0.00     0.000 C 
BRANCH   4   5
ATOM      5  C   UNL     1      19.728 -28.906   3.256  1.00  0.00     0.006 C 
BRANCH   5   6
ATOM      6  C   UNL     1      19.846 -30.434   3.350  1.00  0.00     0.053 C 
BRANCH   6   7
ATOM      7  C   UNL     1      18.734 -31.089   2.594  1.00  0.00     0.041 C 
ATOM      8  O   UNL     1      18.955 -32.125   1.913  1.00  0.00    -0.550 OA
ATOM      9  O   UNL     1      17.464 -30.525   2.598  1.00  0.00    -0.550 OA
ENDBRANCH   6   7
ENDBRANCH   5   6
ENDBRANCH   4   5
ENDBRANCH   3   4
ENDBRANCH   2   3
ENDBRANCH   1   2
BRANCH   1  10
ATOM     10  C   UNL     1      23.794 -27.688   0.017  1.00  0.00     0.000 C 
BRANCH  10  11
ATOM     11  C   UNL     1      23.278 -26.538  -0.855  1.00  0.00    -0.000 C 
BRANCH  11  12
ATOM     12  C   UNL     1      22.537 -27.076  -2.089  1.00  0.00    -0.000 C 
BRANCH  12  13
ATOM     13  C   UNL     1      21.036 -27.293  -1.836  1.00  0.00    -0.000 C 
BRANCH  13  14
ATOM     14  C   UNL     1      20.573 -28.763  -1.898  1.00  0.00    -0.000 C 
BRANCH  14  15
ATOM     15  C   UNL     1      20.273 -29.379  -0.515  1.00  0.00    -0.003 C 
ATOM     16  C   UNL     1      21.315 -30.417  -0.099  1.00  0.00     0.004 C 
ENDBRANCH  14  15
ENDBRANCH  13  14
ENDBRANCH  12  13
ENDBRANCH  11  12
ENDBRANCH  10  11
ENDBRANCH   1  10
TORSDOF 12
ENDMDL
MODEL 8
REMARK VINA RESULT:    -1.063      8.559     10.710
REMARK INTER + INTRA:          -4.167
REMARK INTER:                  -2.322
REMARK INTRA:                  -1.845
REMARK UNBOUND:                -2.357
REMARK SMILES CCCCCCCCCCCCCC(=O)[O-]
REMARK SMILES IDX 8 1 9 2 10 3 11 4 12 5 13 6 14 7 15 8 16 9 7 10 6 11 5 12
REMARK SMILES IDX 4 13 3 14 2 15 1 16
REMARK H PARENT
REMARK Flexibility Score: inf
ROOT
ATOM      1  C   UNL     1      13.541 -33.908   2.266  1.00  0.00     0.000 C 
ENDROOT
BRANCH   1   2
ATOM      2  C   UNL     1      14.880 -34.653   2.377  1.00  0.00     0.000 C 
BRANCH   2   3
ATOM      3  C   UNL     1      16.092 -33.716   2.244  1.00  0.00     0.000 C 
BRANCH   3   4
ATOM      4  C   UNL     1      17.016 -34.106   1.077  1.00  0.00     0.000 C 
BRANCH   4   5
ATOM      5  C   UNL     1      16.654 -35.472   0.471  1.00  0.00     0.006 C 
BRANCH   5   6
ATOM      6  C   UNL     1      16.984 -35.564  -1.025  1.00  0.00     0.053 C 
BRANCH   6   7
ATOM      7  C   UNL     1      18.290 -36.264  -1.228  1.00  0.00     0.041 C 
ATOM      8  O   UNL     1      18.313 -37.465  -1.606  1.00  0.00    -0.550 OA
ATOM      9  O   UNL     1      19.482 -35.607  -0.949  1.00  0.00    -0.550 OA
ENDBRANCH   6   7
ENDBRANCH   5   6
ENDBRANCH   4   5
ENDBRANCH   3   4
ENDBRANCH   2   3
ENDBRANCH   1   2
BRANCH   1  10
ATOM     10  C   UNL     1      13.764 -32.406   2.049  1.00  0.00     0.000 C 
BRANCH  10  11
ATOM     11  C   UNL     1      12.655 -31.803   1.180  1.00  0.00    -0.000 C 
BRANCH  11  12
ATOM     12  C   UNL     1      12.039 -32.868   0.260  1.00  0.00    -0.000 C 
BRANCH  12  13
ATOM     13  C   UNL     1      12.639 -32.853  -1.156  1.00  0.00    -0.000 C 
BRANCH  13  14
ATOM     14  C   UNL     1      13.740 -33.904  -1.405  1.00  0.00    -0.000 C 
BRANCH  14  15
ATOM     15  C   UNL     1      13.195 -35.295  -1.790  1.00  0.00    -0.003 C 
ATOM     16  C   UNL     1      13.204 -36.273  -0.615  1.00  0.00     0.004 C 
ENDBRANCH  14  15
ENDBRANCH  13  14
ENDBRANCH  12  13
ENDBRANCH  11  12
ENDBRANCH  10  11
ENDBRANCH   1  10
TORSDOF 12
ENDMDL
MODEL 9
REMARK VINA RESULT:    -1.059      3.806      5.946
REMARK INTER + INTRA:          -4.160
REMARK INTER:                  -2.057
REMARK INTRA:                  -2.103
REMARK UNBOUND:                -2.357
REMARK SMILES CCCCCCCCCCCCCC(=O)[O-]
REMARK SMILES IDX 8 1 9 2 10 3 11 4 12 5 13 6 14 7 15 8 16 9 7 10 6 11 5 12
REMARK SMILES IDX 4 13 3 14 2 15 1 16
REMARK H PARENT
REMARK Flexibility Score: inf
ROOT
ATOM      1  C   UNL     1      20.295 -30.182   4.757  1.00  0.00     0.000 C 
ENDROOT
BRANCH   1   2
ATOM      2  C   UNL     1      21.593 -30.774   4.188  1.00  0.00     0.000 C 
BRANCH   2   3
ATOM      3  C   UNL     1      21.558 -30.921   2.658  1.00  0.00     0.000 C 
BRANCH   3   4
ATOM      4  C   UNL     1      20.806 -29.768   1.970  1.00  0.00     0.000 C 
BRANCH   4   5
ATOM      5  C   UNL     1      20.365 -30.122   0.541  1.00  0.00     0.006 C 
BRANCH   5   6
ATOM      6  C   UNL     1      19.798 -28.916  -0.222  1.00  0.00     0.053 C 
BRANCH   6   7
ATOM      7  C   UNL     1      20.883 -28.225  -0.984  1.00  0.00     0.041 C 
ATOM      8  O   UNL     1      21.831 -28.890  -1.481  1.00  0.00    -0.550 OA
ATOM      9  O   UNL     1      20.877 -26.840  -1.102  1.00  0.00    -0.550 OA
ENDBRANCH   6   7
ENDBRANCH   5   6
ENDBRANCH   4   5
ENDBRANCH   3   4
ENDBRANCH   2   3
ENDBRANCH   1   2
BRANCH   1  10
ATOM     10  C   UNL     1      19.452 -31.265   5.442  1.00  0.00     0.000 C 
BRANCH  10  11
ATOM     11  C   UNL     1      17.962 -31.086   5.126  1.00  0.00    -0.000 C 
BRANCH  11  12
ATOM     12  C   UNL     1      17.762 -30.097   3.968  1.00  0.00    -0.000 C 
BRANCH  12  13
ATOM     13  C   UNL     1      17.258 -30.777   2.684  1.00  0.00    -0.000 C 
BRANCH  13  14
ATOM     14  C   UNL     1      17.304 -32.318   2.704  1.00  0.00    -0.000 C 
BRANCH  14  15
ATOM     15  C   UNL     1      18.482 -32.916   1.908  1.00  0.00    -0.003 C 
ATOM     16  C   UNL     1      19.343 -33.854   2.753  1.00  0.00     0.004 C 
ENDBRANCH  14  15
ENDBRANCH  13  14
ENDBRANCH  12  13
ENDBRANCH  11  12
ENDBRANCH  10  11
ENDBRANCH   1  10
TORSDOF 12
ENDMDL
