MODEL 1
REMARK VINA RESULT:    -4.487      0.000      0.000
REMARK INTER + INTRA:         -16.674
REMARK INTER:                 -11.307
REMARK INTRA:                  -5.367
REMARK UNBOUND:                -5.367
REMARK SMILES CCCCCCCCCCCCCCCCCCCCCCCCCCCC(=O)[O-]
REMARK SMILES IDX 15 1 16 2 17 3 18 4 19 5 20 6 21 7 22 8 23 9 24 10 25 11
REMARK SMILES IDX 26 12 27 13 28 14 29 15 30 16 14 17 13 18 12 19 11 20 10 21
REMARK SMILES IDX 9 22 8 23 7 24 6 25 5 26 4 27 3 28 2 29 1 30
REMARK H PARENT
REMARK Flexibility Score: inf
ROOT
ATOM      1  C   UNL     1      63.353  12.135  39.624  1.00  0.00     0.000 C 
ENDROOT
BRANCH   1   2
ATOM      2  C   UNL     1      63.514  13.669  39.598  1.00  0.00     0.000 C 
BRANCH   2   3
ATOM      3  C   UNL     1      63.570  14.300  38.196  1.00  0.00     0.000 C 
BRANCH   3   4
ATOM      4  C   UNL     1      62.193  14.369  37.517  1.00  0.00     0.000 C 
BRANCH   4   5
ATOM      5  C   UNL     1      61.649  15.805  37.404  1.00  0.00     0.000 C 
BRANCH   5   6
ATOM      6  C   UNL     1      60.413  16.112  38.269  1.00  0.00     0.000 C 
BRANCH   6   7
ATOM      7  C   UNL     1      60.696  16.003  39.778  1.00  0.00     0.000 C 
BRANCH   7   8
ATOM      8  C   UNL     1      61.402  17.248  40.344  1.00  0.00     0.000 C 
BRANCH   8   9
ATOM      9  C   UNL     1      62.884  17.048  40.715  1.00  0.00     0.000 C 
BRANCH   9  10
ATOM     10  C   UNL     1      63.835  18.081  40.070  1.00  0.00     0.000 C 
BRANCH  10  11
ATOM     11  C   UNL     1      63.122  18.943  39.011  1.00  0.00     0.000 C 
BRANCH  11  12
ATOM     12  C   UNL     1      63.653  18.692  37.586  1.00  0.00     0.006 C 
BRANCH  12  13
ATOM     13  C   UNL     1      64.835  17.710  37.533  1.00  0.00     0.053 C 
BRANCH  13  14
ATOM     14  C   UNL     1      65.290  17.437  36.134  1.00  0.00     0.041 C 
ATOM     15  O   UNL     1      64.674  16.605  35.417  1.00  0.00    -0.550 OA
ATOM     16  O   UNL     1      66.404  18.094  35.624  1.00  0.00    -0.550 OA
ENDBRANCH  13  14
ENDBRANCH  12  13
ENDBRANCH  11  12
ENDBRANCH  10  11
ENDBRANCH   9  10
ENDBRANCH   8   9
ENDBRANCH   7   8
ENDBRANCH   6   7
ENDBRANCH   5   6
ENDBRANCH   4   5
ENDBRANCH   3   4
ENDBRANCH   2   3
ENDBRANCH   1   2
BRANCH   1  17
ATOM     17  C   UNL     1      62.251  11.604  40.559  1.00  0.00     0.000 C 
BRANCH  17  18
ATOM     18  C   UNL     1      61.106  12.611  40.763  1.00  0.00     0.000 C 
BRANCH  18  19
ATOM     19  C   UNL     1      59.762  12.115  40.197  1.00  0.00     0.000 C 
BRANCH  19  20
ATOM     20  C   UNL     1      59.551  12.364  38.692  1.00  0.00     0.000 C 
BRANCH  20  21
ATOM     21  C   UNL     1      59.514  11.069  37.867  1.00  0.00     0.000 C 
BRANCH  21  22
ATOM     22  C   UNL     1      60.866  10.805  37.193  1.00  0.00    -0.000 C 
BRANCH  22  23
ATOM     23  C   UNL     1      61.296   9.344  37.373  1.00  0.00    -0.000 C 
BRANCH  23  24
ATOM     24  C   UNL     1      60.683   8.739  38.641  1.00  0.00    -0.000 C 
BRANCH  24  25
ATOM     25  C   UNL     1      61.775   8.178  39.564  1.00  0.00    -0.000 C 
BRANCH  25  26
ATOM     26  C   UNL     1      63.194   8.477  39.054  1.00  0.00    -0.000 C 
BRANCH  26  27
ATOM     27  C   UNL     1      64.147   7.278  39.213  1.00  0.00    -0.000 C 
BRANCH  27  28
ATOM     28  C   UNL     1      64.426   6.568  37.871  1.00  0.00    -0.000 C 
BRANCH  28  29
ATOM     29  C   UNL     1      63.410   5.464  37.532  1.00  0.00    -0.003 C 
ATOM     30  C   UNL     1      62.373   5.899  36.495  1.00  0.00     0.004 C 
ENDBRANCH  28  29
ENDBRANCH  27  28
ENDBRANCH  26  27
ENDBRANCH  25  26
ENDBRANCH  24  25
ENDBRANCH  23  24
ENDBRANCH  22  23
ENDBRANCH  21  22
ENDBRANCH  20  21
ENDBRANCH  19  20
ENDBRANCH  18  19
ENDBRANCH  17  18
ENDBRANCH   1  17
TORSDOF 26
ENDMDL
MODEL 2
REMARK VINA RESULT:    -4.287      3.031      7.422
REMARK INTER + INTRA:         -16.171
REMARK INTER:                 -10.959
REMARK INTRA:                  -5.212
REMARK UNBOUND:                -5.367
REMARK SMILES CCCCCCCCCCCCCCCCCCCCCCCCCCCC(=O)[O-]
REMARK SMILES IDX 15 1 16 2 17 3 18 4 19 5 20 6 21 7 22 8 23 9 24 10 25 11
REMARK SMILES IDX 26 12 27 13 28 14 29 15 30 16 14 17 13 18 12 19 11 20 10 21
REMARK SMILES IDX 9 22 8 23 7 24 6 25 5 26 4 27 3 28 2 29 1 30
REMARK H PARENT
REMARK Flexibility Score: inf
ROOT
ATOM      1  C   UNL     1      65.257  17.664  36.312  1.00  0.00     0.000 C 
ENDROOT
BRANCH   1   2
ATOM      2  C   UNL     1      64.684  16.554  35.408  1.00  0.00     0.000 C 
BRANCH   2   3
ATOM      3  C   UNL     1      64.501  15.184  36.085  1.00  0.00     0.000 C 
BRANCH   3   4
ATOM      4  C   UNL     1      63.023  14.788  36.238  1.00  0.00     0.000 C 
BRANCH   4   5
ATOM      5  C   UNL     1      62.541  14.819  37.701  1.00  0.00     0.000 C 
BRANCH   5   6
ATOM      6  C   UNL     1      63.556  14.307  38.740  1.00  0.00     0.000 C 
BRANCH   6   7
ATOM      7  C   UNL     1      62.885  13.748  40.007  1.00  0.00     0.000 C 
BRANCH   7   8
ATOM      8  C   UNL     1      61.392  13.440  39.804  1.00  0.00     0.000 C 
BRANCH   8   9
ATOM      9  C   UNL     1      60.871  12.197  40.553  1.00  0.00     0.000 C 
BRANCH   9  10
ATOM     10  C   UNL     1      61.955  11.130  40.821  1.00  0.00     0.000 C 
BRANCH  10  11
ATOM     11  C   UNL     1      61.778   9.888  39.928  1.00  0.00     0.000 C 
BRANCH  11  12
ATOM     12  C   UNL     1      62.894   9.752  38.872  1.00  0.00     0.006 C 
BRANCH  12  13
ATOM     13  C   UNL     1      62.582   8.720  37.776  1.00  0.00     0.053 C 
BRANCH  13  14
ATOM     14  C   UNL     1      63.188   7.382  38.060  1.00  0.00     0.041 C 
ATOM     15  O   UNL     1      64.414   7.284  38.333  1.00  0.00    -0.550 OA
ATOM     16  O   UNL     1      62.400   6.238  38.013  1.00  0.00    -0.550 OA
ENDBRANCH  13  14
ENDBRANCH  12  13
ENDBRANCH  11  12
ENDBRANCH  10  11
ENDBRANCH   9  10
ENDBRANCH   8   9
ENDBRANCH   7   8
ENDBRANCH   6   7
ENDBRANCH   5   6
ENDBRANCH   4   5
ENDBRANCH   3   4
ENDBRANCH   2   3
ENDBRANCH   1   2
BRANCH   1  17
ATOM     17  C   UNL     1      65.608  17.229  37.747  1.00  0.00     0.000 C 
BRANCH  17  18
ATOM     18  C   UNL     1      64.608  17.755  38.791  1.00  0.00     0.000 C 
BRANCH  18  19
ATOM     19  C   UNL     1      63.453  18.560  38.166  1.00  0.00     0.000 C 
BRANCH  19  20
ATOM     20  C   UNL     1      62.137  18.550  38.966  1.00  0.00     0.000 C 
BRANCH  20  21
ATOM     21  C   UNL     1      62.141  17.536  40.119  1.00  0.00     0.000 C 
BRANCH  21  22
ATOM     22  C   UNL     1      60.741  16.953  40.346  1.00  0.00    -0.000 C 
BRANCH  22  23
ATOM     23  C   UNL     1      59.784  17.364  39.220  1.00  0.00    -0.000 C 
BRANCH  23  24
ATOM     24  C   UNL     1      59.049  16.146  38.647  1.00  0.00    -0.000 C 
BRANCH  24  25
ATOM     25  C   UNL     1      58.395  16.483  37.300  1.00  0.00    -0.000 C 
BRANCH  25  26
ATOM     26  C   UNL     1      58.318  15.271  36.357  1.00  0.00    -0.000 C 
BRANCH  26  27
ATOM     27  C   UNL     1      59.165  14.084  36.848  1.00  0.00    -0.000 C 
BRANCH  27  28
ATOM     28  C   UNL     1      58.431  12.734  36.693  1.00  0.00    -0.000 C 
BRANCH  28  29
ATOM     29  C   UNL     1      59.320  11.511  36.970  1.00  0.00    -0.003 C 
ATOM     30  C   UNL     1      60.784  11.732  36.589  1.00  0.00     0.004 C 
ENDBRANCH  28  29
ENDBRANCH  27  28
ENDBRANCH  26  27
ENDBRANCH  25  26
ENDBRANCH  24  25
ENDBRANCH  23  24
ENDBRANCH  22  23
ENDBRANCH  21  22
ENDBRANCH  20  21
ENDBRANCH  19  20
ENDBRANCH  18  19
ENDBRANCH  17  18
ENDBRANCH   1  17
TORSDOF 26
ENDMDL
MODEL 3
REMARK VINA RESULT:    -4.212      1.694      3.678
REMARK INTER + INTRA:         -15.980
REMARK INTER:                 -10.306
REMARK INTRA:                  -5.674
REMARK UNBOUND:                -5.367
REMARK SMILES CCCCCCCCCCCCCCCCCCCCCCCCCCCC(=O)[O-]
REMARK SMILES IDX 15 1 16 2 17 3 18 4 19 5 20 6 21 7 22 8 23 9 24 10 25 11
REMARK SMILES IDX 26 12 27 13 28 14 29 15 30 16 14 17 13 18 12 19 11 20 10 21
REMARK SMILES IDX 9 22 8 23 7 24 6 25 5 26 4 27 3 28 2 29 1 30
REMARK H PARENT
REMARK Flexibility Score: inf
ROOT
ATOM      1  C   UNL     1      60.708  15.389  37.836  1.00  0.00     0.000 C 
ENDROOT
BRANCH   1   2
ATOM      2  C   UNL     1      59.197  15.623  37.638  1.00  0.00     0.000 C 
BRANCH   2   3
ATOM      3  C   UNL     1      58.406  15.937  38.920  1.00  0.00     0.000 C 
BRANCH   3   4
ATOM      4  C   UNL     1      59.283  15.911  40.183  1.00  0.00     0.000 C 
BRANCH   4   5
ATOM      5  C   UNL     1      59.372  17.281  40.881  1.00  0.00     0.000 C 
BRANCH   5   6
ATOM      6  C   UNL     1      58.876  18.478  40.049  1.00  0.00     0.000 C 
BRANCH   6   7
ATOM      7  C   UNL     1      59.973  19.526  39.793  1.00  0.00     0.000 C 
BRANCH   7   8
ATOM      8  C   UNL     1      61.166  18.959  39.005  1.00  0.00     0.000 C 
BRANCH   8   9
ATOM      9  C   UNL     1      62.547  19.194  39.648  1.00  0.00     0.000 C 
BRANCH   9  10
ATOM     10  C   UNL     1      63.109  17.962  40.389  1.00  0.00     0.000 C 
BRANCH  10  11
ATOM     11  C   UNL     1      63.507  16.833  39.420  1.00  0.00     0.000 C 
BRANCH  11  12
ATOM     12  C   UNL     1      64.461  17.314  38.308  1.00  0.00     0.006 C 
BRANCH  12  13
ATOM     13  C   UNL     1      64.111  16.764  36.916  1.00  0.00     0.053 C 
BRANCH  13  14
ATOM     14  C   UNL     1      64.676  15.399  36.681  1.00  0.00     0.041 C 
ATOM     15  O   UNL     1      64.513  14.827  35.571  1.00  0.00    -0.550 OA
ATOM     16  O   UNL     1      65.375  14.752  37.693  1.00  0.00    -0.550 OA
ENDBRANCH  13  14
ENDBRANCH  12  13
ENDBRANCH  11  12
ENDBRANCH  10  11
ENDBRANCH   9  10
ENDBRANCH   8   9
ENDBRANCH   7   8
ENDBRANCH   6   7
ENDBRANCH   5   6
ENDBRANCH   4   5
ENDBRANCH   3   4
ENDBRANCH   2   3
ENDBRANCH   1   2
BRANCH   1  17
ATOM     17  C   UNL     1      61.306  14.225  37.023  1.00  0.00     0.000 C 
BRANCH  17  18
ATOM     18  C   UNL     1      62.121  13.249  37.889  1.00  0.00     0.000 C 
BRANCH  18  19
ATOM     19  C   UNL     1      61.922  13.476  39.400  1.00  0.00     0.000 C 
BRANCH  19  20
ATOM     20  C   UNL     1      62.348  12.304  40.302  1.00  0.00     0.000 C 
BRANCH  20  21
ATOM     21  C   UNL     1      61.168  11.647  41.034  1.00  0.00     0.000 C 
BRANCH  21  22
ATOM     22  C   UNL     1      59.843  12.325  40.664  1.00  0.00    -0.000 C 
BRANCH  22  23
ATOM     23  C   UNL     1      58.998  11.425  39.756  1.00  0.00    -0.000 C 
BRANCH  23  24
ATOM     24  C   UNL     1      58.434  12.212  38.567  1.00  0.00    -0.000 C 
BRANCH  24  25
ATOM     25  C   UNL     1      58.792  11.530  37.238  1.00  0.00    -0.000 C 
BRANCH  25  26
ATOM     26  C   UNL     1      59.389  10.126  37.434  1.00  0.00    -0.000 C 
BRANCH  26  27
ATOM     27  C   UNL     1      60.908  10.089  37.194  1.00  0.00    -0.000 C 
BRANCH  27  28
ATOM     28  C   UNL     1      61.527   8.722  37.557  1.00  0.00    -0.000 C 
BRANCH  28  29
ATOM     29  C   UNL     1      61.690   8.499  39.070  1.00  0.00    -0.003 C 
ATOM     30  C   UNL     1      63.119   8.730  39.562  1.00  0.00     0.004 C 
ENDBRANCH  28  29
ENDBRANCH  27  28
ENDBRANCH  26  27
ENDBRANCH  25  26
ENDBRANCH  24  25
ENDBRANCH  23  24
ENDBRANCH  22  23
ENDBRANCH  21  22
ENDBRANCH  20  21
ENDBRANCH  19  20
ENDBRANCH  18  19
ENDBRANCH  17  18
ENDBRANCH   1  17
TORSDOF 26
ENDMDL
MODEL 4
REMARK VINA RESULT:    -4.180      1.121      2.153
REMARK INTER + INTRA:         -15.900
REMARK INTER:                 -10.535
REMARK INTRA:                  -5.365
REMARK UNBOUND:                -5.367
REMARK SMILES CCCCCCCCCCCCCCCCCCCCCCCCCCCC(=O)[O-]
REMARK SMILES IDX 15 1 16 2 17 3 18 4 19 5 20 6 21 7 22 8 23 9 24 10 25 11
REMARK SMILES IDX 26 12 27 13 28 14 29 15 30 16 14 17 13 18 12 19 11 20 10 21
REMARK SMILES IDX 9 22 8 23 7 24 6 25 5 26 4 27 3 28 2 29 1 30
REMARK H PARENT
REMARK Flexibility Score: inf
ROOT
ATOM      1  C   UNL     1      63.782  14.319  38.464  1.00  0.00     0.000 C 
ENDROOT
BRANCH   1   2
ATOM      2  C   UNL     1      62.666  14.183  37.409  1.00  0.00     0.000 C 
BRANCH   2   3
ATOM      3  C   UNL     1      61.793  15.434  37.209  1.00  0.00     0.000 C 
BRANCH   3   4
ATOM      4  C   UNL     1      60.298  15.162  37.443  1.00  0.00     0.000 C 
BRANCH   4   5
ATOM      5  C   UNL     1      60.028  14.352  38.725  1.00  0.00     0.000 C 
BRANCH   5   6
ATOM      6  C   UNL     1      60.207  15.126  40.044  1.00  0.00     0.000 C 
BRANCH   6   7
ATOM      7  C   UNL     1      59.742  16.590  39.947  1.00  0.00     0.000 C 
BRANCH   7   8
ATOM      8  C   UNL     1      60.904  17.593  40.050  1.00  0.00     0.000 C 
BRANCH   8   9
ATOM      9  C   UNL     1      62.224  17.012  40.594  1.00  0.00     0.000 C 
BRANCH   9  10
ATOM     10  C   UNL     1      63.483  17.773  40.125  1.00  0.00     0.000 C 
BRANCH  10  11
ATOM     11  C   UNL     1      63.143  18.897  39.129  1.00  0.00     0.000 C 
BRANCH  11  12
ATOM     12  C   UNL     1      63.612  18.582  37.694  1.00  0.00     0.006 C 
BRANCH  12  13
ATOM     13  C   UNL     1      64.866  17.694  37.638  1.00  0.00     0.053 C 
BRANCH  13  14
ATOM     14  C   UNL     1      65.342  17.464  36.238  1.00  0.00     0.041 C 
ATOM     15  O   UNL     1      66.333  18.099  35.792  1.00  0.00    -0.550 OA
ATOM     16  O   UNL     1      64.684  16.553  35.421  1.00  0.00    -0.550 OA
ENDBRANCH  13  14
ENDBRANCH  12  13
ENDBRANCH  11  12
ENDBRANCH  10  11
ENDBRANCH   9  10
ENDBRANCH   8   9
ENDBRANCH   7   8
ENDBRANCH   6   7
ENDBRANCH   5   6
ENDBRANCH   4   5
ENDBRANCH   3   4
ENDBRANCH   2   3
ENDBRANCH   1   2
BRANCH   1  17
ATOM     17  C   UNL     1      63.514  13.606  39.802  1.00  0.00     0.000 C 
BRANCH  17  18
ATOM     18  C   UNL     1      63.243  12.101  39.632  1.00  0.00     0.000 C 
BRANCH  18  19
ATOM     19  C   UNL     1      62.000  11.624  40.407  1.00  0.00     0.000 C 
BRANCH  19  20
ATOM     20  C   UNL     1      60.908  10.957  39.550  1.00  0.00     0.000 C 
BRANCH  20  21
ATOM     21  C   UNL     1      61.276  10.875  38.061  1.00  0.00     0.000 C 
BRANCH  21  22
ATOM     22  C   UNL     1      60.272  10.010  37.291  1.00  0.00    -0.000 C 
BRANCH  22  23
ATOM     23  C   UNL     1      58.952   9.882  38.059  1.00  0.00    -0.000 C 
BRANCH  23  24
ATOM     24  C   UNL     1      58.539   8.413  38.208  1.00  0.00    -0.000 C 
BRANCH  24  25
ATOM     25  C   UNL     1      59.471   7.677  39.183  1.00  0.00    -0.000 C 
BRANCH  25  26
ATOM     26  C   UNL     1      60.032   6.372  38.596  1.00  0.00    -0.000 C 
BRANCH  26  27
ATOM     27  C   UNL     1      61.568   6.303  38.663  1.00  0.00    -0.000 C 
BRANCH  27  28
ATOM     28  C   UNL     1      62.142   7.122  39.839  1.00  0.00    -0.000 C 
BRANCH  28  29
ATOM     29  C   UNL     1      63.261   8.094  39.429  1.00  0.00    -0.003 C 
ATOM     30  C   UNL     1      63.593   8.034  37.938  1.00  0.00     0.004 C 
ENDBRANCH  28  29
ENDBRANCH  27  28
ENDBRANCH  26  27
ENDBRANCH  25  26
ENDBRANCH  24  25
ENDBRANCH  23  24
ENDBRANCH  22  23
ENDBRANCH  21  22
ENDBRANCH  20  21
ENDBRANCH  19  20
ENDBRANCH  18  19
ENDBRANCH  17  18
ENDBRANCH   1  17
TORSDOF 26
ENDMDL
MODEL 5
REMARK VINA RESULT:    -4.167      3.009      8.169
REMARK INTER + INTRA:         -15.869
REMARK INTER:                 -10.897
REMARK INTRA:                  -4.972
REMARK UNBOUND:                -5.367
REMARK SMILES CCCCCCCCCCCCCCCCCCCCCCCCCCCC(=O)[O-]
REMARK SMILES IDX 15 1 16 2 17 3 18 4 19 5 20 6 21 7 22 8 23 9 24 10 25 11
REMARK SMILES IDX 26 12 27 13 28 14 29 15 30 16 14 17 13 18 12 19 11 20 10 21
REMARK SMILES IDX 9 22 8 23 7 24 6 25 5 26 4 27 3 28 2 29 1 30
REMARK H PARENT
REMARK Flexibility Score: inf
ROOT
ATOM      1  C   UNL     1      62.699  14.869  37.345  1.00  0.00     0.000 C 
ENDROOT
BRANCH   1   2
ATOM      2  C   UNL     1      63.856  14.390  38.245  1.00  0.00     0.000 C 
BRANCH   2   3
ATOM      3  C   UNL     1      63.432  13.796  39.600  1.00  0.00     0.000 C 
BRANCH   3   4
ATOM      4  C   UNL     1      63.414  12.258  39.597  1.00  0.00     0.000 C 
BRANCH   4   5
ATOM      5  C   UNL     1      62.360  11.668  40.553  1.00  0.00     0.000 C 
BRANCH   5   6
ATOM      6  C   UNL     1      60.962  12.308  40.470  1.00  0.00     0.000 C 
BRANCH   6   7
ATOM      7  C   UNL     1      59.856  11.289  40.143  1.00  0.00     0.000 C 
BRANCH   7   8
ATOM      8  C   UNL     1      59.255  11.491  38.741  1.00  0.00     0.000 C 
BRANCH   8   9
ATOM      9  C   UNL     1      59.505  10.338  37.749  1.00  0.00     0.000 C 
BRANCH   9  10
ATOM     10  C   UNL     1      60.989  10.159  37.360  1.00  0.00     0.000 C 
BRANCH  10  11
ATOM     11  C   UNL     1      61.573   8.838  37.894  1.00  0.00     0.000 C 
BRANCH  11  12
ATOM     12  C   UNL     1      63.077   8.943  38.219  1.00  0.00     0.006 C 
BRANCH  12  13
ATOM     13  C   UNL     1      63.551   7.929  39.272  1.00  0.00     0.053 C 
BRANCH  13  14
ATOM     14  C   UNL     1      64.617   7.017  38.751  1.00  0.00     0.041 C 
ATOM     15  O   UNL     1      65.501   6.566  39.526  1.00  0.00    -0.550 OA
ATOM     16  O   UNL     1      64.641   6.674  37.405  1.00  0.00    -0.550 OA
ENDBRANCH  13  14
ENDBRANCH  12  13
ENDBRANCH  11  12
ENDBRANCH  10  11
ENDBRANCH   9  10
ENDBRANCH   8   9
ENDBRANCH   7   8
ENDBRANCH   6   7
ENDBRANCH   5   6
ENDBRANCH   4   5
ENDBRANCH   3   4
ENDBRANCH   2   3
ENDBRANCH   1   2
BRANCH   1  17
ATOM     17  C   UNL     1      61.711  13.773  36.905  1.00  0.00     0.000 C 
BRANCH  17  18
ATOM     18  C   UNL     1      60.247  14.246  36.924  1.00  0.00     0.000 C 
BRANCH  18  19
ATOM     19  C   UNL     1      60.052  15.565  37.696  1.00  0.00     0.000 C 
BRANCH  19  20
ATOM     20  C   UNL     1      58.802  15.622  38.593  1.00  0.00     0.000 C 
BRANCH  20  21
ATOM     21  C   UNL     1      59.117  16.027  40.041  1.00  0.00     0.000 C 
BRANCH  21  22
ATOM     22  C   UNL     1      60.620  15.930  40.326  1.00  0.00    -0.000 C 
BRANCH  22  23
ATOM     23  C   UNL     1      61.252  17.322  40.439  1.00  0.00    -0.000 C 
BRANCH  23  24
ATOM     24  C   UNL     1      62.749  17.226  40.757  1.00  0.00    -0.000 C 
BRANCH  24  25
ATOM     25  C   UNL     1      63.555  18.217  39.904  1.00  0.00    -0.000 C 
BRANCH  25  26
ATOM     26  C   UNL     1      62.718  18.853  38.782  1.00  0.00    -0.000 C 
BRANCH  26  27
ATOM     27  C   UNL     1      63.114  18.343  37.385  1.00  0.00    -0.000 C 
BRANCH  27  28
ATOM     28  C   UNL     1      64.611  18.566  37.081  1.00  0.00    -0.000 C 
BRANCH  28  29
ATOM     29  C   UNL     1      65.330  17.310  36.559  1.00  0.00    -0.003 C 
ATOM     30  C   UNL     1      65.057  17.031  35.082  1.00  0.00     0.004 C 
ENDBRANCH  28  29
ENDBRANCH  27  28
ENDBRANCH  26  27
ENDBRANCH  25  26
ENDBRANCH  24  25
ENDBRANCH  23  24
ENDBRANCH  22  23
ENDBRANCH  21  22
ENDBRANCH  20  21
ENDBRANCH  19  20
ENDBRANCH  18  19
ENDBRANCH  17  18
ENDBRANCH   1  17
TORSDOF 26
ENDMDL
MODEL 6
REMARK VINA RESULT:    -4.132      2.745      7.406
REMARK INTER + INTRA:         -15.778
REMARK INTER:                 -10.609
REMARK INTRA:                  -5.170
REMARK UNBOUND:                -5.367
REMARK SMILES CCCCCCCCCCCCCCCCCCCCCCCCCCCC(=O)[O-]
REMARK SMILES IDX 15 1 16 2 17 3 18 4 19 5 20 6 21 7 22 8 23 9 24 10 25 11
REMARK SMILES IDX 26 12 27 13 28 14 29 15 30 16 14 17 13 18 12 19 11 20 10 21
REMARK SMILES IDX 9 22 8 23 7 24 6 25 5 26 4 27 3 28 2 29 1 30
REMARK H PARENT
REMARK Flexibility Score: inf
ROOT
ATOM      1  C   UNL     1      61.299  18.458  37.416  1.00  0.00     0.000 C 
ENDROOT
BRANCH   1   2
ATOM      2  C   UNL     1      60.055  18.423  38.326  1.00  0.00     0.000 C 
BRANCH   2   3
ATOM      3  C   UNL     1      58.912  17.512  37.843  1.00  0.00     0.000 C 
BRANCH   3   4
ATOM      4  C   UNL     1      58.802  16.211  38.656  1.00  0.00     0.000 C 
BRANCH   4   5
ATOM      5  C   UNL     1      59.006  14.948  37.798  1.00  0.00     0.000 C 
BRANCH   5   6
ATOM      6  C   UNL     1      58.907  13.613  38.558  1.00  0.00     0.000 C 
BRANCH   6   7
ATOM      7  C   UNL     1      58.575  13.796  40.050  1.00  0.00     0.000 C 
BRANCH   7   8
ATOM      8  C   UNL     1      58.960  12.573  40.900  1.00  0.00     0.000 C 
BRANCH   8   9
ATOM      9  C   UNL     1      60.475  12.345  41.070  1.00  0.00     0.000 C 
BRANCH   9  10
ATOM     10  C   UNL     1      60.962  10.972  40.557  1.00  0.00     0.000 C 
BRANCH  10  11
ATOM     11  C   UNL     1      62.154  11.103  39.591  1.00  0.00     0.000 C 
BRANCH  11  12
ATOM     12  C   UNL     1      62.089  10.095  38.427  1.00  0.00     0.006 C 
BRANCH  12  13
ATOM     13  C   UNL     1      60.656   9.754  37.986  1.00  0.00     0.053 C 
BRANCH  13  14
ATOM     14  C   UNL     1      60.156  10.665  36.910  1.00  0.00     0.041 C 
ATOM     15  O   UNL     1      60.926  11.513  36.387  1.00  0.00    -0.550 OA
ATOM     16  O   UNL     1      58.833  10.586  36.491  1.00  0.00    -0.550 OA
ENDBRANCH  13  14
ENDBRANCH  12  13
ENDBRANCH  11  12
ENDBRANCH  10  11
ENDBRANCH   9  10
ENDBRANCH   8   9
ENDBRANCH   7   8
ENDBRANCH   6   7
ENDBRANCH   5   6
ENDBRANCH   4   5
ENDBRANCH   3   4
ENDBRANCH   2   3
ENDBRANCH   1   2
BRANCH   1  17
ATOM     17  C   UNL     1      62.609  18.879  38.108  1.00  0.00     0.000 C 
BRANCH  17  18
ATOM     18  C   UNL     1      62.432  19.139  39.614  1.00  0.00     0.000 C 
BRANCH  18  19
ATOM     19  C   UNL     1      63.563  18.533  40.466  1.00  0.00     0.000 C 
BRANCH  19  20
ATOM     20  C   UNL     1      63.415  17.035  40.785  1.00  0.00     0.000 C 
BRANCH  20  21
ATOM     21  C   UNL     1      62.015  16.487  40.470  1.00  0.00     0.000 C 
BRANCH  21  22
ATOM     22  C   UNL     1      62.094  15.070  39.891  1.00  0.00    -0.000 C 
BRANCH  22  23
ATOM     23  C   UNL     1      63.551  14.617  39.738  1.00  0.00    -0.000 C 
BRANCH  23  24
ATOM     24  C   UNL     1      63.817  14.077  38.328  1.00  0.00    -0.000 C 
BRANCH  24  25
ATOM     25  C   UNL     1      62.667  14.436  37.376  1.00  0.00    -0.000 C 
BRANCH  25  26
ATOM     26  C   UNL     1      63.142  14.673  35.934  1.00  0.00    -0.000 C 
BRANCH  26  27
ATOM     27  C   UNL     1      64.544  15.304  35.867  1.00  0.00    -0.000 C 
BRANCH  27  28
ATOM     28  C   UNL     1      64.494  16.813  35.544  1.00  0.00    -0.000 C 
BRANCH  28  29
ATOM     29  C   UNL     1      65.590  17.633  36.246  1.00  0.00    -0.003 C 
ATOM     30  C   UNL     1      65.861  17.172  37.678  1.00  0.00     0.004 C 
ENDBRANCH  28  29
ENDBRANCH  27  28
ENDBRANCH  26  27
ENDBRANCH  25  26
ENDBRANCH  24  25
ENDBRANCH  23  24
ENDBRANCH  22  23
ENDBRANCH  21  22
ENDBRANCH  20  21
ENDBRANCH  19  20
ENDBRANCH  18  19
ENDBRANCH  17  18
ENDBRANCH   1  17
TORSDOF 26
ENDMDL
MODEL 7
REMARK VINA RESULT:    -4.112      2.976      7.614
REMARK INTER + INTRA:         -15.729
REMARK INTER:                 -11.116
REMARK INTRA:                  -4.612
REMARK UNBOUND:                -5.367
REMARK SMILES CCCCCCCCCCCCCCCCCCCCCCCCCCCC(=O)[O-]
REMARK SMILES IDX 15 1 16 2 17 3 18 4 19 5 20 6 21 7 22 8 23 9 24 10 25 11
REMARK SMILES IDX 26 12 27 13 28 14 29 15 30 16 14 17 13 18 12 19 11 20 10 21
REMARK SMILES IDX 9 22 8 23 7 24 6 25 5 26 4 27 3 28 2 29 1 30
REMARK H PARENT
REMARK Flexibility Score: inf
ROOT
ATOM      1  C   UNL     1      63.802  17.576  36.238  1.00  0.00     0.000 C 
ENDROOT
BRANCH   1   2
ATOM      2  C   UNL     1      64.891  16.558  35.843  1.00  0.00     0.000 C 
BRANCH   2   3
ATOM      3  C   UNL     1      64.465  15.081  35.907  1.00  0.00     0.000 C 
BRANCH   3   4
ATOM      4  C   UNL     1      64.568  14.491  37.324  1.00  0.00     0.000 C 
BRANCH   4   5
ATOM      5  C   UNL     1      63.200  14.359  38.019  1.00  0.00     0.000 C 
BRANCH   5   6
ATOM      6  C   UNL     1      63.241  14.355  39.558  1.00  0.00     0.000 C 
BRANCH   6   7
ATOM      7  C   UNL     1      62.674  13.061  40.169  1.00  0.00     0.000 C 
BRANCH   7   8
ATOM      8  C   UNL     1      63.127  11.798  39.417  1.00  0.00     0.000 C 
BRANCH   8   9
ATOM      9  C   UNL     1      62.757  10.464  40.095  1.00  0.00     0.000 C 
BRANCH   9  10
ATOM     10  C   UNL     1      61.904   9.529  39.210  1.00  0.00     0.000 C 
BRANCH  10  11
ATOM     11  C   UNL     1      62.772   8.563  38.382  1.00  0.00     0.000 C 
BRANCH  11  12
ATOM     12  C   UNL     1      63.576   7.584  39.262  1.00  0.00     0.006 C 
BRANCH  12  13
ATOM     13  C   UNL     1      64.240   6.446  38.469  1.00  0.00     0.053 C 
BRANCH  13  14
ATOM     14  C   UNL     1      65.709   6.657  38.286  1.00  0.00     0.041 C 
ATOM     15  O   UNL     1      66.494   6.549  39.265  1.00  0.00    -0.550 OA
ATOM     16  O   UNL     1      66.213   6.985  37.032  1.00  0.00    -0.550 OA
ENDBRANCH  13  14
ENDBRANCH  12  13
ENDBRANCH  11  12
ENDBRANCH  10  11
ENDBRANCH   9  10
ENDBRANCH   8   9
ENDBRANCH   7   8
ENDBRANCH   6   7
ENDBRANCH   5   6
ENDBRANCH   4   5
ENDBRANCH   3   4
ENDBRANCH   2   3
ENDBRANCH   1   2
BRANCH   1  17
ATOM     17  C   UNL     1      64.168  18.515  37.402  1.00  0.00     0.000 C 
BRANCH  17  18
ATOM     18  C   UNL     1      64.546  17.755  38.685  1.00  0.00     0.000 C 
BRANCH  18  19
ATOM     19  C   UNL     1      63.590  18.042  39.857  1.00  0.00     0.000 C 
BRANCH  19  20
ATOM     20  C   UNL     1      62.656  19.250  39.662  1.00  0.00     0.000 C 
BRANCH  20  21
ATOM     21  C   UNL     1      61.172  18.859  39.589  1.00  0.00     0.000 C 
BRANCH  21  22
ATOM     22  C   UNL     1      61.006  17.337  39.512  1.00  0.00    -0.000 C 
BRANCH  22  23
ATOM     23  C   UNL     1      60.598  16.898  38.101  1.00  0.00    -0.000 C 
BRANCH  23  24
ATOM     24  C   UNL     1      59.497  15.832  38.150  1.00  0.00    -0.000 C 
BRANCH  24  25
ATOM     25  C   UNL     1      59.539  15.060  39.477  1.00  0.00    -0.000 C 
BRANCH  25  26
ATOM     26  C   UNL     1      58.556  13.879  39.508  1.00  0.00    -0.000 C 
BRANCH  26  27
ATOM     27  C   UNL     1      59.267  12.518  39.624  1.00  0.00    -0.000 C 
BRANCH  27  28
ATOM     28  C   UNL     1      59.024  11.622  38.390  1.00  0.00    -0.000 C 
BRANCH  28  29
ATOM     29  C   UNL     1      59.393  12.292  37.056  1.00  0.00    -0.003 C 
ATOM     30  C   UNL     1      60.794  11.926  36.566  1.00  0.00     0.004 C 
ENDBRANCH  28  29
ENDBRANCH  27  28
ENDBRANCH  26  27
ENDBRANCH  25  26
ENDBRANCH  24  25
ENDBRANCH  23  24
ENDBRANCH  22  23
ENDBRANCH  21  22
ENDBRANCH  20  21
ENDBRANCH  19  20
ENDBRANCH  18  19
ENDBRANCH  17  18
ENDBRANCH   1  17
TORSDOF 26
ENDMDL
MODEL 8
REMARK VINA RESULT:    -4.086      1.773      3.702
REMARK INTER + INTRA:         -15.664
REMARK INTER:                 -10.433
REMARK INTRA:                  -5.231
REMARK UNBOUND:                -5.367
REMARK SMILES CCCCCCCCCCCCCCCCCCCCCCCCCCCC(=O)[O-]
REMARK SMILES IDX 15 1 16 2 17 3 18 4 19 5 20 6 21 7 22 8 23 9 24 10 25 11
REMARK SMILES IDX 26 12 27 13 28 14 29 15 30 16 14 17 13 18 12 19 11 20 10 21
REMARK SMILES IDX 9 22 8 23 7 24 6 25 5 26 4 27 3 28 2 29 1 30
REMARK H PARENT
REMARK Flexibility Score: inf
ROOT
ATOM      1  C   UNL     1      60.359  13.660  36.961  1.00  0.00     0.000 C 
ENDROOT
BRANCH   1   2
ATOM      2  C   UNL     1      60.676  15.057  37.531  1.00  0.00     0.000 C 
BRANCH   2   3
ATOM      3  C   UNL     1      59.961  15.409  38.847  1.00  0.00     0.000 C 
BRANCH   3   4
ATOM      4  C   UNL     1      60.938  15.684  40.002  1.00  0.00     0.000 C 
BRANCH   4   5
ATOM      5  C   UNL     1      62.361  15.165  39.722  1.00  0.00     0.000 C 
BRANCH   5   6
ATOM      6  C   UNL     1      63.499  16.141  40.070  1.00  0.00     0.000 C 
BRANCH   6   7
ATOM      7  C   UNL     1      63.013  17.375  40.851  1.00  0.00     0.000 C 
BRANCH   7   8
ATOM      8  C   UNL     1      63.131  18.677  40.041  1.00  0.00     0.000 C 
BRANCH   8   9
ATOM      9  C   UNL     1      61.885  19.051  39.215  1.00  0.00     0.000 C 
BRANCH   9  10
ATOM     10  C   UNL     1      61.938  18.567  37.749  1.00  0.00     0.000 C 
BRANCH  10  11
ATOM     11  C   UNL     1      63.380  18.499  37.213  1.00  0.00     0.000 C 
BRANCH  11  12
ATOM     12  C   UNL     1      63.637  17.244  36.355  1.00  0.00     0.006 C 
BRANCH  12  13
ATOM     13  C   UNL     1      64.856  16.426  36.810  1.00  0.00     0.053 C 
BRANCH  13  14
ATOM     14  C   UNL     1      64.625  14.951  36.713  1.00  0.00     0.041 C 
ATOM     15  O   UNL     1      63.807  14.490  35.874  1.00  0.00    -0.550 OA
ATOM     16  O   UNL     1      65.308  14.083  37.558  1.00  0.00    -0.550 OA
ENDBRANCH  13  14
ENDBRANCH  12  13
ENDBRANCH  11  12
ENDBRANCH  10  11
ENDBRANCH   9  10
ENDBRANCH   8   9
ENDBRANCH   7   8
ENDBRANCH   6   7
ENDBRANCH   5   6
ENDBRANCH   4   5
ENDBRANCH   3   4
ENDBRANCH   2   3
ENDBRANCH   1   2
BRANCH   1  17
ATOM     17  C   UNL     1      58.989  13.082  37.361  1.00  0.00     0.000 C 
BRANCH  17  18
ATOM     18  C   UNL     1      58.355  12.226  36.250  1.00  0.00     0.000 C 
BRANCH  18  19
ATOM     19  C   UNL     1      58.233  10.739  36.632  1.00  0.00     0.000 C 
BRANCH  19  20
ATOM     20  C   UNL     1      59.197  10.263  37.735  1.00  0.00     0.000 C 
BRANCH  20  21
ATOM     21  C   UNL     1      58.979   8.795  38.132  1.00  0.00     0.000 C 
BRANCH  21  22
ATOM     22  C   UNL     1      58.981   8.631  39.657  1.00  0.00    -0.000 C 
BRANCH  22  23
ATOM     23  C   UNL     1      60.312   8.050  40.147  1.00  0.00    -0.000 C 
BRANCH  23  24
ATOM     24  C   UNL     1      61.017   7.265  39.034  1.00  0.00    -0.000 C 
BRANCH  24  25
ATOM     25  C   UNL     1      62.454   7.768  38.834  1.00  0.00    -0.000 C 
BRANCH  25  26
ATOM     26  C   UNL     1      62.749   9.052  39.625  1.00  0.00    -0.000 C 
BRANCH  26  27
ATOM     27  C   UNL     1      62.915  10.284  38.717  1.00  0.00    -0.000 C 
BRANCH  27  28
ATOM     28  C   UNL     1      62.147  11.513  39.248  1.00  0.00    -0.000 C 
BRANCH  28  29
ATOM     29  C   UNL     1      61.824  11.440  40.750  1.00  0.00    -0.003 C 
ATOM     30  C   UNL     1      60.500  12.112  41.113  1.00  0.00     0.004 C 
ENDBRANCH  28  29
ENDBRANCH  27  28
ENDBRANCH  26  27
ENDBRANCH  25  26
ENDBRANCH  24  25
ENDBRANCH  23  24
ENDBRANCH  22  23
ENDBRANCH  21  22
ENDBRANCH  20  21
ENDBRANCH  19  20
ENDBRANCH  18  19
ENDBRANCH  17  18
ENDBRANCH   1  17
TORSDOF 26
ENDMDL
MODEL 9
REMARK VINA RESULT:    -4.062      1.180      2.594
REMARK INTER + INTRA:         -15.602
REMARK INTER:                 -10.382
REMARK INTRA:                  -5.220
REMARK UNBOUND:                -5.367
REMARK SMILES CCCCCCCCCCCCCCCCCCCCCCCCCCCC(=O)[O-]
REMARK SMILES IDX 15 1 16 2 17 3 18 4 19 5 20 6 21 7 22 8 23 9 24 10 25 11
REMARK SMILES IDX 26 12 27 13 28 14 29 15 30 16 14 17 13 18 12 19 11 20 10 21
REMARK SMILES IDX 9 22 8 23 7 24 6 25 5 26 4 27 3 28 2 29 1 30
REMARK H PARENT
REMARK Flexibility Score: inf
ROOT
ATOM      1  C   UNL     1      63.986  13.256  38.858  1.00  0.00     0.000 C 
ENDROOT
BRANCH   1   2
ATOM      2  C   UNL     1      63.142  12.243  39.657  1.00  0.00     0.000 C 
BRANCH   2   3
ATOM      3  C   UNL     1      61.924  12.835  40.389  1.00  0.00     0.000 C 
BRANCH   3   4
ATOM      4  C   UNL     1      60.768  11.832  40.531  1.00  0.00     0.000 C 
BRANCH   4   5
ATOM      5  C   UNL     1      59.382  12.499  40.459  1.00  0.00     0.000 C 
BRANCH   5   6
ATOM      6  C   UNL     1      59.362  14.011  40.747  1.00  0.00     0.000 C 
BRANCH   6   7
ATOM      7  C   UNL     1      58.629  14.818  39.662  1.00  0.00     0.000 C 
BRANCH   7   8
ATOM      8  C   UNL     1      59.204  16.233  39.481  1.00  0.00     0.000 C 
BRANCH   8   9
ATOM      9  C   UNL     1      60.364  16.596  40.429  1.00  0.00     0.000 C 
BRANCH   9  10
ATOM     10  C   UNL     1      61.417  17.533  39.800  1.00  0.00     0.000 C 
BRANCH  10  11
ATOM     11  C   UNL     1      62.807  17.356  40.439  1.00  0.00     0.000 C 
BRANCH  11  12
ATOM     12  C   UNL     1      63.916  18.091  39.660  1.00  0.00     0.006 C 
BRANCH  12  13
ATOM     13  C   UNL     1      63.576  18.329  38.180  1.00  0.00     0.053 C 
BRANCH  13  14
ATOM     14  C   UNL     1      64.568  17.697  37.255  1.00  0.00     0.041 C 
ATOM     15  O   UNL     1      65.706  17.361  37.677  1.00  0.00    -0.550 OA
ATOM     16  O   UNL     1      64.240  17.490  35.920  1.00  0.00    -0.550 OA
ENDBRANCH  13  14
ENDBRANCH  12  13
ENDBRANCH  11  12
ENDBRANCH  10  11
ENDBRANCH   9  10
ENDBRANCH   8   9
ENDBRANCH   7   8
ENDBRANCH   6   7
ENDBRANCH   5   6
ENDBRANCH   4   5
ENDBRANCH   3   4
ENDBRANCH   2   3
ENDBRANCH   1   2
BRANCH   1  17
ATOM     17  C   UNL     1      63.258  14.553  38.461  1.00  0.00     0.000 C 
BRANCH  17  18
ATOM     18  C   UNL     1      62.659  14.491  37.045  1.00  0.00     0.000 C 
BRANCH  18  19
ATOM     19  C   UNL     1      61.133  14.285  37.046  1.00  0.00     0.000 C 
BRANCH  19  20
ATOM     20  C   UNL     1      60.667  12.823  36.911  1.00  0.00     0.000 C 
BRANCH  20  21
ATOM     21  C   UNL     1      59.157  12.693  36.662  1.00  0.00     0.000 C 
BRANCH  21  22
ATOM     22  C   UNL     1      58.634  11.333  37.140  1.00  0.00    -0.000 C 
BRANCH  22  23
ATOM     23  C   UNL     1      59.760  10.294  37.182  1.00  0.00    -0.000 C 
BRANCH  23  24
ATOM     24  C   UNL     1      59.397   9.122  38.103  1.00  0.00    -0.000 C 
BRANCH  24  25
ATOM     25  C   UNL     1      60.653   8.527  38.755  1.00  0.00    -0.000 C 
BRANCH  25  26
ATOM     26  C   UNL     1      61.954   9.099  38.168  1.00  0.00    -0.000 C 
BRANCH  26  27
ATOM     27  C   UNL     1      63.196   8.718  38.993  1.00  0.00    -0.000 C 
BRANCH  27  28
ATOM     28  C   UNL     1      63.566   7.227  38.844  1.00  0.00    -0.000 C 
BRANCH  28  29
ATOM     29  C   UNL     1      63.927   6.820  37.405  1.00  0.00    -0.003 C 
ATOM     30  C   UNL     1      63.062   5.682  36.867  1.00  0.00     0.004 C 
ENDBRANCH  28  29
ENDBRANCH  27  28
ENDBRANCH  26  27
ENDBRANCH  25  26
ENDBRANCH  24  25
ENDBRANCH  23  24
ENDBRANCH  22  23
ENDBRANCH  21  22
ENDBRANCH  20  21
ENDBRANCH  19  20
ENDBRANCH  18  19
ENDBRANCH  17  18
ENDBRANCH   1  17
TORSDOF 26
ENDMDL
