MODEL 1
REMARK VINA RESULT:    -4.852      0.000      0.000
REMARK INTER + INTRA:          -7.896
REMARK INTER:                  -7.405
REMARK INTRA:                  -0.491
REMARK UNBOUND:                -0.491
REMARK SMILES O=C([O-])CCCCCCCCC(=O)[O-]
REMARK SMILES IDX 7 1 6 2 5 3 4 4 2 5 1 6 3 7 8 8 9 9 10 10 11 11 12 12 13 13
REMARK SMILES IDX 14 14
REMARK H PARENT
REMARK Flexibility Score: inf
ROOT
ATOM      1  C   UNL     1      -5.246  36.371  19.836  1.00  0.00     0.000 C 
ENDROOT
BRANCH   1   2
ATOM      2  C   UNL     1      -3.869  36.541  19.167  1.00  0.00     0.000 C 
BRANCH   2   3
ATOM      3  C   UNL     1      -3.361  37.993  19.079  1.00  0.00     0.006 C 
BRANCH   3   4
ATOM      4  C   UNL     1      -2.057  38.165  18.284  1.00  0.00     0.053 C 
BRANCH   4   5
ATOM      5  C   UNL     1      -2.205  37.720  16.862  1.00  0.00     0.041 C 
ATOM      6  O   UNL     1      -2.918  38.381  16.061  1.00  0.00    -0.550 OA
ATOM      7  O   UNL     1      -1.582  36.556  16.429  1.00  0.00    -0.550 OA
ENDBRANCH   4   5
ENDBRANCH   3   4
ENDBRANCH   2   3
ENDBRANCH   1   2
BRANCH   1   8
ATOM      8  C   UNL     1      -5.363  37.129  21.167  1.00  0.00     0.000 C 
BRANCH   8   9
ATOM      9  C   UNL     1      -4.644  36.378  22.293  1.00  0.00     0.000 C 
BRANCH   9  10
ATOM     10  C   UNL     1      -5.539  36.253  23.531  1.00  0.00     0.006 C 
BRANCH  10  11
ATOM     11  C   UNL     1      -6.076  37.622  23.961  1.00  0.00     0.053 C 
BRANCH  11  12
ATOM     12  C   UNL     1      -4.986  38.443  24.571  1.00  0.00     0.041 C 
ATOM     13  O   UNL     1      -4.662  39.548  24.061  1.00  0.00    -0.550 OA
ATOM     14  O   UNL     1      -4.292  37.967  25.678  1.00  0.00    -0.550 OA
ENDBRANCH  11  12
ENDBRANCH  10  11
ENDBRANCH   9  10
ENDBRANCH   8   9
ENDBRANCH   1   8
TORSDOF 9
ENDMDL
MODEL 2
REMARK VINA RESULT:    -4.838      0.864      7.101
REMARK INTER + INTRA:          -7.874
REMARK INTER:                  -7.419
REMARK INTRA:                  -0.455
REMARK UNBOUND:                -0.491
REMARK SMILES O=C([O-])CCCCCCCCC(=O)[O-]
REMARK SMILES IDX 7 1 6 2 5 3 4 4 2 5 1 6 3 7 8 8 9 9 10 10 11 11 12 12 13 13
REMARK SMILES IDX 14 14
REMARK H PARENT
REMARK Flexibility Score: inf
ROOT
ATOM      1  C   UNL     1      -5.037  38.051  20.666  1.00  0.00     0.000 C 
ENDROOT
BRANCH   1   2
ATOM      2  C   UNL     1      -5.520  36.805  21.430  1.00  0.00     0.000 C 
BRANCH   2   3
ATOM      3  C   UNL     1      -4.740  36.488  22.722  1.00  0.00     0.006 C 
BRANCH   3   4
ATOM      4  C   UNL     1      -5.427  36.961  24.013  1.00  0.00     0.053 C 
BRANCH   4   5
ATOM      5  C   UNL     1      -4.725  38.134  24.624  1.00  0.00     0.041 C 
ATOM      6  O   UNL     1      -4.243  38.051  25.786  1.00  0.00    -0.550 OA
ATOM      7  O   UNL     1      -4.631  39.330  23.924  1.00  0.00    -0.550 OA
ENDBRANCH   4   5
ENDBRANCH   3   4
ENDBRANCH   2   3
ENDBRANCH   1   2
BRANCH   1   8
ATOM      8  C   UNL     1      -3.818  37.772  19.775  1.00  0.00     0.000 C 
BRANCH   8   9
ATOM      9  C   UNL     1      -3.919  36.389  19.121  1.00  0.00     0.000 C 
BRANCH   9  10
ATOM     10  C   UNL     1      -3.468  36.438  17.657  1.00  0.00     0.006 C 
BRANCH  10  11
ATOM     11  C   UNL     1      -2.758  37.759  17.344  1.00  0.00     0.053 C 
BRANCH  11  12
ATOM     12  C   UNL     1      -2.523  37.891  15.873  1.00  0.00     0.041 C 
ATOM     13  O   UNL     1      -1.545  37.310  15.332  1.00  0.00    -0.550 OA
ATOM     14  O   UNL     1      -3.355  38.695  15.105  1.00  0.00    -0.550 OA
ENDBRANCH  11  12
ENDBRANCH  10  11
ENDBRANCH   9  10
ENDBRANCH   8   9
ENDBRANCH   1   8
TORSDOF 9
ENDMDL
MODEL 3
REMARK VINA RESULT:    -4.813      0.483      6.961
REMARK INTER + INTRA:          -7.836
REMARK INTER:                  -7.440
REMARK INTRA:                  -0.396
REMARK UNBOUND:                -0.491
REMARK SMILES O=C([O-])CCCCCCCCC(=O)[O-]
REMARK SMILES IDX 7 1 6 2 5 3 4 4 2 5 1 6 3 7 8 8 9 9 10 10 11 11 12 12 13 13
REMARK SMILES IDX 14 14
REMARK H PARENT
REMARK Flexibility Score: inf
ROOT
ATOM      1  C   UNL     1      -5.110  37.061  21.260  1.00  0.00     0.000 C 
ENDROOT
BRANCH   1   2
ATOM      2  C   UNL     1      -5.954  36.266  22.274  1.00  0.00     0.000 C 
BRANCH   2   3
ATOM      3  C   UNL     1      -5.348  36.161  23.687  1.00  0.00     0.006 C 
BRANCH   3   4
ATOM      4  C   UNL     1      -5.871  37.206  24.685  1.00  0.00     0.053 C 
BRANCH   4   5
ATOM      5  C   UNL     1      -4.870  38.293  24.933  1.00  0.00     0.041 C 
ATOM      6  O   UNL     1      -4.066  38.208  25.899  1.00  0.00    -0.550 OA
ATOM      7  O   UNL     1      -4.850  39.418  24.117  1.00  0.00    -0.550 OA
ENDBRANCH   4   5
ENDBRANCH   3   4
ENDBRANCH   2   3
ENDBRANCH   1   2
BRANCH   1   8
ATOM      8  C   UNL     1      -5.151  36.462  19.847  1.00  0.00     0.000 C 
BRANCH   8   9
ATOM      9  C   UNL     1      -3.772  36.529  19.181  1.00  0.00     0.000 C 
BRANCH   9  10
ATOM     10  C   UNL     1      -3.344  37.981  18.943  1.00  0.00     0.006 C 
BRANCH  10  11
ATOM     11  C   UNL     1      -1.981  38.045  18.248  1.00  0.00     0.053 C 
BRANCH  11  12
ATOM     12  C   UNL     1      -2.121  37.741  16.790  1.00  0.00     0.041 C 
ATOM     13  O   UNL     1      -3.004  38.321  16.103  1.00  0.00    -0.550 OA
ATOM     14  O   UNL     1      -1.310  36.781  16.198  1.00  0.00    -0.550 OA
ENDBRANCH  11  12
ENDBRANCH  10  11
ENDBRANCH   9  10
ENDBRANCH   8   9
ENDBRANCH   1   8
TORSDOF 9
ENDMDL
MODEL 4
REMARK VINA RESULT:    -4.765      1.016      1.604
REMARK INTER + INTRA:          -7.763
REMARK INTER:                  -7.320
REMARK INTRA:                  -0.443
REMARK UNBOUND:                -0.491
REMARK SMILES O=C([O-])CCCCCCCCC(=O)[O-]
REMARK SMILES IDX 7 1 6 2 5 3 4 4 2 5 1 6 3 7 8 8 9 9 10 10 11 11 12 12 13 13
REMARK SMILES IDX 14 14
REMARK H PARENT
REMARK Flexibility Score: inf
ROOT
ATOM      1  C   UNL     1      -3.818  37.861  19.475  1.00  0.00     0.000 C 
ENDROOT
BRANCH   1   2
ATOM      2  C   UNL     1      -3.828  36.471  18.811  1.00  0.00     0.000 C 
BRANCH   2   3
ATOM      3  C   UNL     1      -3.267  36.430  17.376  1.00  0.00     0.006 C 
BRANCH   3   4
ATOM      4  C   UNL     1      -2.605  37.737  16.912  1.00  0.00     0.053 C 
BRANCH   4   5
ATOM      5  C   UNL     1      -2.728  37.932  15.432  1.00  0.00     0.041 C 
ATOM      6  O   UNL     1      -2.086  37.193  14.639  1.00  0.00    -0.550 OA
ATOM      7  O   UNL     1      -3.526  38.953  14.930  1.00  0.00    -0.550 OA
ENDBRANCH   4   5
ENDBRANCH   3   4
ENDBRANCH   2   3
ENDBRANCH   1   2
BRANCH   1   8
ATOM      8  C   UNL     1      -4.908  38.022  20.545  1.00  0.00     0.000 C 
BRANCH   8   9
ATOM      9  C   UNL     1      -5.362  36.657  21.078  1.00  0.00     0.000 C 
BRANCH   9  10
ATOM     10  C   UNL     1      -4.970  36.482  22.549  1.00  0.00     0.006 C 
BRANCH  10  11
ATOM     11  C   UNL     1      -5.775  37.425  23.448  1.00  0.00     0.053 C 
BRANCH  11  12
ATOM     12  C   UNL     1      -4.858  38.269  24.275  1.00  0.00     0.041 C 
ATOM     13  O   UNL     1      -4.444  39.375  23.837  1.00  0.00    -0.550 OA
ATOM     14  O   UNL     1      -4.420  37.813  25.513  1.00  0.00    -0.550 OA
ENDBRANCH  11  12
ENDBRANCH  10  11
ENDBRANCH   9  10
ENDBRANCH   8   9
ENDBRANCH   1   8
TORSDOF 9
ENDMDL
MODEL 5
REMARK VINA RESULT:    -4.743      1.456      2.377
REMARK INTER + INTRA:          -7.730
REMARK INTER:                  -7.277
REMARK INTRA:                  -0.452
REMARK UNBOUND:                -0.491
REMARK SMILES O=C([O-])CCCCCCCCC(=O)[O-]
REMARK SMILES IDX 7 1 6 2 5 3 4 4 2 5 1 6 3 7 8 8 9 9 10 10 11 11 12 12 13 13
REMARK SMILES IDX 14 14
REMARK H PARENT
REMARK Flexibility Score: inf
ROOT
ATOM      1  C   UNL     1      -3.304  38.120  18.592  1.00  0.00     0.000 C 
ENDROOT
BRANCH   1   2
ATOM      2  C   UNL     1      -3.337  36.811  17.782  1.00  0.00     0.000 C 
BRANCH   2   3
ATOM      3  C   UNL     1      -2.417  36.785  16.545  1.00  0.00     0.006 C 
BRANCH   3   4
ATOM      4  C   UNL     1      -2.316  38.124  15.798  1.00  0.00     0.053 C 
BRANCH   4   5
ATOM      5  C   UNL     1      -3.332  38.233  14.703  1.00  0.00     0.041 C 
ATOM      6  O   UNL     1      -3.678  37.210  14.054  1.00  0.00    -0.550 OA
ATOM      7  O   UNL     1      -3.873  39.471  14.376  1.00  0.00    -0.550 OA
ENDBRANCH   4   5
ENDBRANCH   3   4
ENDBRANCH   2   3
ENDBRANCH   1   2
BRANCH   1   8
ATOM      8  C   UNL     1      -4.253  38.102  19.799  1.00  0.00     0.000 C 
BRANCH   8   9
ATOM      9  C   UNL     1      -4.535  36.666  20.256  1.00  0.00     0.000 C 
BRANCH   9  10
ATOM     10  C   UNL     1      -5.549  36.642  21.405  1.00  0.00     0.006 C 
BRANCH  10  11
ATOM     11  C   UNL     1      -4.880  36.231  22.720  1.00  0.00     0.053 C 
BRANCH  11  12
ATOM     12  C   UNL     1      -4.905  37.364  23.696  1.00  0.00     0.041 C 
ATOM     13  O   UNL     1      -4.631  38.533  23.319  1.00  0.00    -0.550 OA
ATOM     14  O   UNL     1      -5.185  37.121  25.036  1.00  0.00    -0.550 OA
ENDBRANCH  11  12
ENDBRANCH  10  11
ENDBRANCH   9  10
ENDBRANCH   8   9
ENDBRANCH   1   8
TORSDOF 9
ENDMDL
MODEL 6
REMARK VINA RESULT:    -4.728      1.490      2.334
REMARK INTER + INTRA:          -7.706
REMARK INTER:                  -6.954
REMARK INTRA:                  -0.752
REMARK UNBOUND:                -0.491
REMARK SMILES O=C([O-])CCCCCCCCC(=O)[O-]
REMARK SMILES IDX 7 1 6 2 5 3 4 4 2 5 1 6 3 7 8 8 9 9 10 10 11 11 12 12 13 13
REMARK SMILES IDX 14 14
REMARK H PARENT
REMARK Flexibility Score: inf
ROOT
ATOM      1  C   UNL     1      -4.678  36.236  22.189  1.00  0.00     0.000 C 
ENDROOT
BRANCH   1   2
ATOM      2  C   UNL     1      -5.472  36.737  20.969  1.00  0.00     0.000 C 
BRANCH   2   3
ATOM      3  C   UNL     1      -4.686  37.656  20.012  1.00  0.00     0.006 C 
BRANCH   3   4
ATOM      4  C   UNL     1      -3.529  36.967  19.272  1.00  0.00     0.053 C 
BRANCH   4   5
ATOM      5  C   UNL     1      -2.718  37.939  18.472  1.00  0.00     0.041 C 
ATOM      6  O   UNL     1      -2.958  38.108  17.247  1.00  0.00    -0.550 OA
ATOM      7  O   UNL     1      -1.675  38.633  19.071  1.00  0.00    -0.550 OA
ENDBRANCH   4   5
ENDBRANCH   3   4
ENDBRANCH   2   3
ENDBRANCH   1   2
BRANCH   1   8
ATOM      8  C   UNL     1      -5.577  35.673  23.299  1.00  0.00     0.000 C 
BRANCH   8   9
ATOM      9  C   UNL     1      -5.875  36.740  24.359  1.00  0.00     0.000 C 
BRANCH   9  10
ATOM     10  C   UNL     1      -4.683  37.687  24.538  1.00  0.00     0.006 C 
BRANCH  10  11
ATOM     11  C   UNL     1      -5.138  39.149  24.538  1.00  0.00     0.053 C 
BRANCH  11  12
ATOM     12  C   UNL     1      -4.994  39.742  23.172  1.00  0.00     0.041 C 
ATOM     13  O   UNL     1      -6.014  40.086  22.519  1.00  0.00    -0.550 OA
ATOM     14  O   UNL     1      -3.735  39.871  22.599  1.00  0.00    -0.550 OA
ENDBRANCH  11  12
ENDBRANCH  10  11
ENDBRANCH   9  10
ENDBRANCH   8   9
ENDBRANCH   1   8
TORSDOF 9
ENDMDL
MODEL 7
REMARK VINA RESULT:    -4.526      1.425      1.859
REMARK INTER + INTRA:          -7.398
REMARK INTER:                  -6.917
REMARK INTRA:                  -0.482
REMARK UNBOUND:                -0.491
REMARK SMILES O=C([O-])CCCCCCCCC(=O)[O-]
REMARK SMILES IDX 7 1 6 2 5 3 4 4 2 5 1 6 3 7 8 8 9 9 10 10 11 11 12 12 13 13
REMARK SMILES IDX 14 14
REMARK H PARENT
REMARK Flexibility Score: inf
ROOT
ATOM      1  C   UNL     1      -5.456  36.397  19.900  1.00  0.00     0.000 C 
ENDROOT
BRANCH   1   2
ATOM      2  C   UNL     1      -4.197  35.929  19.147  1.00  0.00     0.000 C 
BRANCH   2   3
ATOM      3  C   UNL     1      -3.551  36.988  18.232  1.00  0.00     0.006 C 
BRANCH   3   4
ATOM      4  C   UNL     1      -2.562  37.927  18.942  1.00  0.00     0.053 C 
BRANCH   4   5
ATOM      5  C   UNL     1      -1.256  38.017  18.215  1.00  0.00     0.041 C 
ATOM      6  O   UNL     1      -1.160  37.604  17.029  1.00  0.00    -0.550 OA
ATOM      7  O   UNL     1      -0.135  38.526  18.860  1.00  0.00    -0.550 OA
ENDBRANCH   4   5
ENDBRANCH   3   4
ENDBRANCH   2   3
ENDBRANCH   1   2
BRANCH   1   8
ATOM      8  C   UNL     1      -5.156  36.882  21.325  1.00  0.00     0.000 C 
BRANCH   8   9
ATOM      9  C   UNL     1      -5.085  38.413  21.382  1.00  0.00     0.000 C 
BRANCH   9  10
ATOM     10  C   UNL     1      -4.613  38.892  22.759  1.00  0.00     0.006 C 
BRANCH  10  11
ATOM     11  C   UNL     1      -5.768  38.895  23.765  1.00  0.00     0.053 C 
BRANCH  11  12
ATOM     12  C   UNL     1      -5.385  38.150  25.005  1.00  0.00     0.041 C 
ATOM     13  O   UNL     1      -5.189  36.907  24.963  1.00  0.00    -0.550 OA
ATOM     14  O   UNL     1      -5.290  38.821  26.218  1.00  0.00    -0.550 OA
ENDBRANCH  11  12
ENDBRANCH  10  11
ENDBRANCH   9  10
ENDBRANCH   8   9
ENDBRANCH   1   8
TORSDOF 9
ENDMDL
MODEL 8
REMARK VINA RESULT:    -4.433      1.549      6.622
REMARK INTER + INTRA:          -7.256
REMARK INTER:                  -6.707
REMARK INTRA:                  -0.549
REMARK UNBOUND:                -0.491
REMARK SMILES O=C([O-])CCCCCCCCC(=O)[O-]
REMARK SMILES IDX 7 1 6 2 5 3 4 4 2 5 1 6 3 7 8 8 9 9 10 10 11 11 12 12 13 13
REMARK SMILES IDX 14 14
REMARK H PARENT
REMARK Flexibility Score: inf
ROOT
ATOM      1  C   UNL     1      -4.230  38.654  21.409  1.00  0.00     0.000 C 
ENDROOT
BRANCH   1   2
ATOM      2  C   UNL     1      -4.645  39.892  22.226  1.00  0.00     0.000 C 
BRANCH   2   3
ATOM      3  C   UNL     1      -4.761  39.662  23.746  1.00  0.00     0.006 C 
BRANCH   3   4
ATOM      4  C   UNL     1      -5.825  38.631  24.156  1.00  0.00     0.053 C 
BRANCH   4   5
ATOM      5  C   UNL     1      -5.247  37.535  24.997  1.00  0.00     0.041 C 
ATOM      6  O   UNL     1      -4.272  37.767  25.760  1.00  0.00    -0.550 OA
ATOM      7  O   UNL     1      -5.764  36.248  24.911  1.00  0.00    -0.550 OA
ENDBRANCH   4   5
ENDBRANCH   3   4
ENDBRANCH   2   3
ENDBRANCH   1   2
BRANCH   1   8
ATOM      8  C   UNL     1      -5.238  38.298  20.306  1.00  0.00     0.000 C 
BRANCH   8   9
ATOM      9  C   UNL     1      -5.100  36.830  19.888  1.00  0.00     0.000 C 
BRANCH   9  10
ATOM     10  C   UNL     1      -3.659  36.506  19.478  1.00  0.00     0.006 C 
BRANCH  10  11
ATOM     11  C   UNL     1      -3.487  36.593  17.959  1.00  0.00     0.053 C 
BRANCH  11  12
ATOM     12  C   UNL     1      -2.708  37.815  17.589  1.00  0.00     0.041 C 
ATOM     13  O   UNL     1      -2.684  38.215  16.395  1.00  0.00    -0.550 OA
ATOM     14  O   UNL     1      -1.967  38.486  18.554  1.00  0.00    -0.550 OA
ENDBRANCH  11  12
ENDBRANCH  10  11
ENDBRANCH   9  10
ENDBRANCH   8   9
ENDBRANCH   1   8
TORSDOF 9
ENDMDL
MODEL 9
REMARK VINA RESULT:    -3.998      1.750      6.665
REMARK INTER + INTRA:          -6.593
REMARK INTER:                  -6.153
REMARK INTRA:                  -0.440
REMARK UNBOUND:                -0.491
REMARK SMILES O=C([O-])CCCCCCCCC(=O)[O-]
REMARK SMILES IDX 7 1 6 2 5 3 4 4 2 5 1 6 3 7 8 8 9 9 10 10 11 11 12 12 13 13
REMARK SMILES IDX 14 14
REMARK H PARENT
REMARK Flexibility Score: inf
ROOT
ATOM      1  C   UNL     1      -4.170  35.918  20.173  1.00  0.00     0.000 C 
ENDROOT
BRANCH   1   2
ATOM      2  C   UNL     1      -4.420  37.141  21.075  1.00  0.00     0.000 C 
BRANCH   2   3
ATOM      3  C   UNL     1      -5.096  36.829  22.425  1.00  0.00     0.006 C 
BRANCH   3   4
ATOM      4  C   UNL     1      -5.173  38.021  23.391  1.00  0.00     0.053 C 
BRANCH   4   5
ATOM      5  C   UNL     1      -5.552  37.597  24.777  1.00  0.00     0.041 C 
ATOM      6  O   UNL     1      -5.856  36.397  25.012  1.00  0.00    -0.550 OA
ATOM      7  O   UNL     1      -5.602  38.533  25.802  1.00  0.00    -0.550 OA
ENDBRANCH   4   5
ENDBRANCH   3   4
ENDBRANCH   2   3
ENDBRANCH   1   2
BRANCH   1   8
ATOM      8  C   UNL     1      -4.692  36.112  18.743  1.00  0.00     0.000 C 
BRANCH   8   9
ATOM      9  C   UNL     1      -3.550  36.021  17.723  1.00  0.00     0.000 C 
BRANCH   9  10
ATOM     10  C   UNL     1      -3.112  37.416  17.261  1.00  0.00     0.006 C 
BRANCH  10  11
ATOM     11  C   UNL     1      -1.585  37.537  17.255  1.00  0.00     0.053 C 
BRANCH  11  12
ATOM     12  C   UNL     1      -1.104  38.147  18.534  1.00  0.00     0.041 C 
ATOM     13  O   UNL     1       0.106  38.046  18.869  1.00  0.00    -0.550 OA
ATOM     14  O   UNL     1      -2.001  38.785  19.381  1.00  0.00    -0.550 OA
ENDBRANCH  11  12
ENDBRANCH  10  11
ENDBRANCH   9  10
ENDBRANCH   8   9
ENDBRANCH   1   8
TORSDOF 9
ENDMDL
