MODEL 1
REMARK VINA RESULT:     2.890      0.000      0.000
REMARK INTER + INTRA:           4.438
REMARK INTER:                   4.242
REMARK INTRA:                   0.197
REMARK UNBOUND:                 0.197
REMARK SMILES C=C1C=C[C@H](C(C)C)CCC(C)=CCC1
REMARK SMILES IDX 3 1 4 2 5 3 9 4 10 5 11 6 12 7 13 8 6 10 7 11 8 12 2 13 1 14
REMARK SMILES IDX 15 15 14 16
REMARK H PARENT
REMARK Flexibility Score: 70.00
ROOT
ATOM      1  C   UNL     1     152.390 134.882 162.390  1.00  0.00    -0.001 C 
ATOM      2  C   UNL     1     151.674 135.355 161.355  1.00  0.00    -0.023 C 
ENDROOT
BRANCH   2   3
ATOM      3  C   UNL     1     151.638 136.780 160.814  1.00  0.00     0.014 C 
BRANCH   3   4
ATOM      4  C   UNL     1     152.989 137.307 160.236  1.00  0.00     0.012 C 
BRANCH   4   5
ATOM      5  C   UNL     1     154.028 137.956 161.196  1.00  0.00     0.031 C 
BRANCH   5   6
ATOM      6  C   UNL     1     153.592 139.212 161.919  1.00  0.00    -0.077 C 
ATOM      7  C   UNL     1     153.423 140.479 161.115  1.00  0.00     0.039 C 
ATOM      8  C   UNL     1     153.327 139.264 163.245  1.00  0.00    -0.028 CG0
ATOM      9  G   UNL     1     153.504 138.153 164.260  1.00  0.00     0.000 G0
ENDBRANCH   5   6
ENDBRANCH   4   5
ENDBRANCH   3   4
BRANCH   3  10
ATOM     10  C   UNL     1     150.462 136.933 159.791  1.00  0.00    -0.010 C 
ATOM     11  C   UNL     1     150.923 136.772 158.331  1.00  0.00     0.008 C 
ATOM     12  C   UNL     1     149.758 138.298 159.937  1.00  0.00     0.008 C 
ENDBRANCH   3  10
ENDBRANCH   2   3
BRANCH   1  13
ATOM     13  C   UNL     1     153.207 135.704 163.299  1.00  0.00    -0.055 C 
ATOM     14  C   UNL     1     154.495 135.388 163.452  1.00  0.00     0.012 C 
BRANCH  13  15
ATOM     15  C   UNL     1     152.637 136.876 164.085  1.00  0.00     0.039 C 
BRANCH  15  16
ATOM     16  C   UNL     1     153.493 138.154 164.244  1.00  0.00     0.032 CG0
ATOM     17  G   UNL     1     153.324 139.277 163.241  1.00  0.00     0.000 G0
ENDBRANCH  15  16
ENDBRANCH  13  15
ENDBRANCH   1  13
TORSDOF 1
ENDMDL
MODEL 2
REMARK VINA RESULT:     4.072     19.682     22.076
REMARK INTER + INTRA:           6.173
REMARK INTER:                   5.554
REMARK INTRA:                   0.619
REMARK UNBOUND:                 0.197
REMARK SMILES C=C1C=C[C@H](C(C)C)CCC(C)=CCC1
REMARK SMILES IDX 3 1 4 2 5 3 9 4 10 5 11 6 12 7 13 8 6 10 7 11 8 12 2 13 1 14
REMARK SMILES IDX 15 15 14 16
REMARK H PARENT
REMARK Flexibility Score: 70.00
ROOT
ATOM      1  C   UNL     1     136.873 154.932 161.174  1.00  0.00    -0.001 C 
ATOM      2  C   UNL     1     137.845 154.429 160.393  1.00  0.00    -0.023 C 
ENDROOT
BRANCH   2   3
ATOM      3  C   UNL     1     139.040 153.580 160.814  1.00  0.00     0.014 C 
BRANCH   3   4
ATOM      4  C   UNL     1     138.720 152.082 161.113  1.00  0.00     0.012 C 
BRANCH   4   5
ATOM      5  C   UNL     1     137.316 151.697 161.663  1.00  0.00     0.031 C 
BRANCH   5   6
ATOM      6  C   UNL     1     137.222 151.425 163.149  1.00  0.00    -0.077 C 
ATOM      7  C   UNL     1     138.187 150.437 163.760  1.00  0.00     0.039 C 
ATOM      8  C   UNL     1     136.331 152.029 163.970  1.00  0.00    -0.028 CG0
ATOM      9  G   UNL     1     135.222 152.983 163.576  1.00  0.00     0.000 G0
ENDBRANCH   5   6
ENDBRANCH   4   5
ENDBRANCH   3   4
BRANCH   3  10
ATOM     10  C   UNL     1     140.200 153.738 159.773  1.00  0.00    -0.010 C 
ATOM     11  C   UNL     1     139.683 153.996 158.346  1.00  0.00     0.008 C 
ATOM     12  C   UNL     1     141.112 152.495 159.748  1.00  0.00     0.008 C 
ENDBRANCH   3  10
ENDBRANCH   2   3
BRANCH   1  13
ATOM     13  C   UNL     1     136.845 154.857 162.643  1.00  0.00    -0.055 C 
ATOM     14  C   UNL     1     137.972 155.113 163.312  1.00  0.00     0.012 C 
BRANCH  13  15
ATOM     15  C   UNL     1     135.596 154.475 163.425  1.00  0.00     0.039 C 
BRANCH  15  16
ATOM     16  C   UNL     1     135.245 152.978 163.587  1.00  0.00     0.032 CG0
ATOM     17  G   UNL     1     136.344 152.005 163.961  1.00  0.00     0.000 G0
ENDBRANCH  15  16
ENDBRANCH  13  15
ENDBRANCH   1  13
TORSDOF 1
ENDMDL
MODEL 3
REMARK VINA RESULT:     4.398      2.804      5.017
REMARK INTER + INTRA:           6.651
REMARK INTER:                   5.787
REMARK INTRA:                   0.864
REMARK UNBOUND:                 0.197
REMARK SMILES C=C1C=C[C@H](C(C)C)CCC(C)=CCC1
REMARK SMILES IDX 3 1 4 2 5 3 9 4 10 5 11 6 12 7 13 8 6 10 7 11 8 12 2 13 1 14
REMARK SMILES IDX 15 15 14 16
REMARK H PARENT
REMARK Flexibility Score: 70.00
ROOT
ATOM      1  C   UNL     1     151.070 135.914 160.905  1.00  0.00    -0.001 C 
ATOM      2  C   UNL     1     152.354 135.595 161.146  1.00  0.00    -0.023 C 
ENDROOT
BRANCH   2   3
ATOM      3  C   UNL     1     153.599 136.418 160.832  1.00  0.00     0.014 C 
BRANCH   3   4
ATOM      4  C   UNL     1     153.415 137.508 159.729  1.00  0.00     0.012 C 
BRANCH   4   5
ATOM      5  C   UNL     1     153.988 137.257 158.305  1.00  0.00     0.031 C 
BRANCH   5   6
ATOM      6  C   UNL     1     153.187 137.807 157.144  1.00  0.00    -0.077 C 
ATOM      7  C   UNL     1     153.836 138.834 156.248  1.00  0.00     0.039 C 
ATOM      8  C   UNL     1     151.924 137.418 156.851  1.00  0.00    -0.028 CG0
ATOM      9  G   UNL     1     151.047 136.473 157.646  1.00  0.00     0.000 G0
ENDBRANCH   5   6
ENDBRANCH   4   5
ENDBRANCH   3   4
BRANCH   3  10
ATOM     10  C   UNL     1     154.194 137.012 162.153  1.00  0.00    -0.010 C 
ATOM     11  C   UNL     1     153.942 136.108 163.374  1.00  0.00     0.008 C 
ATOM     12  C   UNL     1     153.622 138.413 162.452  1.00  0.00     0.008 C 
ENDBRANCH   3  10
ENDBRANCH   2   3
BRANCH   1  13
ATOM     13  C   UNL     1     150.619 137.100 160.159  1.00  0.00    -0.055 C 
ATOM     14  C   UNL     1     150.647 138.284 160.777  1.00  0.00     0.012 C 
BRANCH  13  15
ATOM     15  C   UNL     1     150.102 137.027 158.730  1.00  0.00     0.039 C 
BRANCH  15  16
ATOM     16  C   UNL     1     151.029 136.462 157.628  1.00  0.00     0.032 CG0
ATOM     17  G   UNL     1     151.918 137.417 156.858  1.00  0.00     0.000 G0
ENDBRANCH  15  16
ENDBRANCH  13  15
ENDBRANCH   1  13
TORSDOF 1
ENDMDL
MODEL 4
REMARK VINA RESULT:     4.426      1.585      4.109
REMARK INTER + INTRA:           6.693
REMARK INTER:                   3.796
REMARK INTRA:                   2.897
REMARK UNBOUND:                 0.197
REMARK SMILES C=C1C=C[C@H](C(C)C)CCC(C)=CCC1
REMARK SMILES IDX 3 1 4 2 5 3 9 4 10 5 11 6 12 7 13 8 6 10 7 11 8 12 2 13 1 14
REMARK SMILES IDX 15 15 14 16
REMARK H PARENT
REMARK Flexibility Score: 70.00
ROOT
ATOM      1  C   UNL     1     152.866 137.650 163.760  1.00  0.00    -0.001 C 
ATOM      2  C   UNL     1     152.468 136.372 163.635  1.00  0.00    -0.023 C 
ENDROOT
BRANCH   2   3
ATOM      3  C   UNL     1     152.950 135.335 162.626  1.00  0.00     0.014 C 
BRANCH   3   4
ATOM      4  C   UNL     1     152.379 135.496 161.182  1.00  0.00     0.012 C 
BRANCH   4   5
ATOM      5  C   UNL     1     150.984 136.155 160.982  1.00  0.00     0.031 C 
BRANCH   5   6
ATOM      6  C   UNL     1     150.869 137.176 159.870  1.00  0.00    -0.077 C 
ATOM      7  C   UNL     1     150.326 136.724 158.535  1.00  0.00     0.039 C 
ATOM      8  C   UNL     1     151.209 138.479 160.007  1.00  0.00    -0.028 CG0
ATOM      9  G   UNL     1     151.847 139.139 161.212  1.00  0.00     0.000 G0
ENDBRANCH   5   6
ENDBRANCH   4   5
ENDBRANCH   3   4
BRANCH   3  10
ATOM     10  C   UNL     1     154.514 135.268 162.636  1.00  0.00    -0.010 C 
ATOM     11  C   UNL     1     155.119 135.753 163.967  1.00  0.00     0.008 C 
ATOM     12  C   UNL     1     155.125 136.097 161.488  1.00  0.00     0.008 C 
ENDBRANCH   3  10
ENDBRANCH   2   3
BRANCH   1  13
ATOM     13  C   UNL     1     153.782 138.344 162.841  1.00  0.00    -0.055 C 
ATOM     14  C   UNL     1     155.031 138.581 163.251  1.00  0.00     0.012 C 
BRANCH  13  15
ATOM     15  C   UNL     1     153.358 138.822 161.459  1.00  0.00     0.039 C 
BRANCH  15  16
ATOM     16  C   UNL     1     151.864 139.125 161.201  1.00  0.00     0.032 CG0
ATOM     17  G   UNL     1     151.189 138.503 159.995  1.00  0.00     0.000 G0
ENDBRANCH  15  16
ENDBRANCH  13  15
ENDBRANCH   1  13
TORSDOF 1
ENDMDL
MODEL 5
REMARK VINA RESULT:     4.474      1.171      3.204
REMARK INTER + INTRA:           6.762
REMARK INTER:                   3.117
REMARK INTRA:                   3.645
REMARK UNBOUND:                 0.197
REMARK SMILES C=C1C=C[C@H](C(C)C)CCC(C)=CCC1
REMARK SMILES IDX 3 1 4 2 5 3 9 4 10 5 11 6 12 7 13 8 6 10 7 11 8 12 2 13 1 14
REMARK SMILES IDX 15 15 14 16
REMARK H PARENT
REMARK Flexibility Score: 70.00
ROOT
ATOM      1  C   UNL     1     153.513 136.881 160.139  1.00  0.00    -0.001 C 
ATOM      2  C   UNL     1     154.028 136.009 161.024  1.00  0.00    -0.023 C 
ENDROOT
BRANCH   2   3
ATOM      3  C   UNL     1     153.370 135.452 162.282  1.00  0.00     0.014 C 
BRANCH   3   4
ATOM      4  C   UNL     1     153.346 136.422 163.505  1.00  0.00     0.012 C 
BRANCH   4   5
ATOM      5  C   UNL     1     154.446 137.515 163.633  1.00  0.00     0.031 C 
BRANCH   5   6
ATOM      6  C   UNL     1     153.978 138.908 163.998  1.00  0.00    -0.077 C 
ATOM      7  C   UNL     1     154.034 139.327 165.447  1.00  0.00     0.039 C 
ATOM      8  C   UNL     1     153.527 139.810 163.095  1.00  0.00    -0.028 CG0
ATOM      9  G   UNL     1     153.305 139.592 161.612  1.00  0.00     0.000 G0
ENDBRANCH   5   6
ENDBRANCH   4   5
ENDBRANCH   3   4
BRANCH   3  10
ATOM     10  C   UNL     1     151.944 134.902 161.940  1.00  0.00    -0.010 C 
ATOM     11  C   UNL     1     151.667 134.878 160.426  1.00  0.00     0.008 C 
ATOM     12  C   UNL     1     150.838 135.726 162.629  1.00  0.00     0.008 C 
ENDBRANCH   3  10
ENDBRANCH   2   3
BRANCH   1  13
ATOM     13  C   UNL     1     152.223 137.575 160.289  1.00  0.00    -0.055 C 
ATOM     14  C   UNL     1     151.173 137.113 159.605  1.00  0.00     0.012 C 
BRANCH  13  15
ATOM     15  C   UNL     1     152.048 138.806 161.166  1.00  0.00     0.039 C 
BRANCH  15  16
ATOM     16  C   UNL     1     153.304 139.588 161.615  1.00  0.00     0.032 CG0
ATOM     17  G   UNL     1     153.540 139.809 163.095  1.00  0.00     0.000 G0
ENDBRANCH  15  16
ENDBRANCH  13  15
ENDBRANCH   1  13
TORSDOF 1
ENDMDL
MODEL 6
REMARK VINA RESULT:     5.074      2.168      4.323
REMARK INTER + INTRA:           7.643
REMARK INTER:                   5.950
REMARK INTRA:                   1.693
REMARK UNBOUND:                 0.197
REMARK SMILES C=C1C=C[C@H](C(C)C)CCC(C)=CCC1
REMARK SMILES IDX 3 1 4 2 5 3 9 4 10 5 11 6 12 7 13 8 6 10 7 11 8 12 2 13 1 14
REMARK SMILES IDX 15 15 14 16
REMARK H PARENT
REMARK Flexibility Score: 70.00
ROOT
ATOM      1  C   UNL     1     153.139 134.909 162.754  1.00  0.00    -0.001 C 
ATOM      2  C   UNL     1     154.312 135.565 162.731  1.00  0.00    -0.023 C 
ENDROOT
BRANCH   2   3
ATOM      3  C   UNL     1     154.583 136.983 162.240  1.00  0.00     0.014 C 
BRANCH   3   4
ATOM      4  C   UNL     1     153.662 137.473 161.079  1.00  0.00     0.012 C 
BRANCH   4   5
ATOM      5  C   UNL     1     153.832 136.859 159.659  1.00  0.00     0.031 C 
BRANCH   5   6
ATOM      6  C   UNL     1     152.782 137.224 158.632  1.00  0.00    -0.077 C 
ATOM      7  C   UNL     1     153.228 137.912 157.364  1.00  0.00     0.039 C 
ATOM      8  C   UNL     1     151.464 136.953 158.775  1.00  0.00    -0.028 CG0
ATOM      9  G   UNL     1     150.777 136.350 159.983  1.00  0.00     0.000 G0
ENDBRANCH   5   6
ENDBRANCH   4   5
ENDBRANCH   3   4
BRANCH   3  10
ATOM     10  C   UNL     1     154.581 137.976 163.451  1.00  0.00    -0.010 C 
ATOM     11  C   UNL     1     153.293 137.884 164.290  1.00  0.00     0.008 C 
ATOM     12  C   UNL     1     154.763 139.436 162.988  1.00  0.00     0.008 C 
ENDBRANCH   3  10
ENDBRANCH   2   3
BRANCH   1  13
ATOM     13  C   UNL     1     151.879 135.409 162.181  1.00  0.00    -0.055 C 
ATOM     14  C   UNL     1     151.031 136.057 162.985  1.00  0.00     0.012 C 
BRANCH  13  15
ATOM     15  C   UNL     1     151.495 135.197 160.724  1.00  0.00     0.039 C 
BRANCH  15  16
ATOM     16  C   UNL     1     150.784 136.342 159.964  1.00  0.00     0.032 CG0
ATOM     17  G   UNL     1     151.462 136.946 158.751  1.00  0.00     0.000 G0
ENDBRANCH  15  16
ENDBRANCH  13  15
ENDBRANCH   1  13
TORSDOF 1
ENDMDL
MODEL 7
REMARK VINA RESULT:     5.374      1.242      3.142
REMARK INTER + INTRA:           8.084
REMARK INTER:                   5.336
REMARK INTRA:                   2.748
REMARK UNBOUND:                 0.197
REMARK SMILES C=C1C=C[C@H](C(C)C)CCC(C)=CCC1
REMARK SMILES IDX 3 1 4 2 5 3 9 4 10 5 11 6 12 7 13 8 6 10 7 11 8 12 2 13 1 14
REMARK SMILES IDX 15 15 14 16
REMARK H PARENT
REMARK Flexibility Score: 70.00
ROOT
ATOM      1  C   UNL     1     153.358 138.730 160.417  1.00  0.00    -0.001 C 
ATOM      2  C   UNL     1     152.954 137.499 160.059  1.00  0.00    -0.023 C 
ENDROOT
BRANCH   2   3
ATOM      3  C   UNL     1     151.856 136.651 160.693  1.00  0.00     0.014 C 
BRANCH   3   4
ATOM      4  C   UNL     1     151.465 137.051 162.151  1.00  0.00     0.012 C 
BRANCH   4   5
ATOM      5  C   UNL     1     152.488 136.830 163.303  1.00  0.00     0.031 C 
BRANCH   5   6
ATOM      6  C   UNL     1     153.871 136.362 162.902  1.00  0.00    -0.077 C 
ATOM      7  C   UNL     1     154.076 134.894 162.617  1.00  0.00     0.039 C 
ATOM      8  C   UNL     1     154.934 137.188 162.766  1.00  0.00    -0.028 CG0
ATOM      9  G   UNL     1     154.990 138.671 163.074  1.00  0.00     0.000 G0
ENDBRANCH   5   6
ENDBRANCH   4   5
ENDBRANCH   3   4
BRANCH   3  10
ATOM     10  C   UNL     1     150.611 136.593 159.745  1.00  0.00    -0.010 C 
ATOM     11  C   UNL     1     151.001 136.401 158.268  1.00  0.00     0.008 C 
ATOM     12  C   UNL     1     149.748 137.865 159.865  1.00  0.00     0.008 C 
ENDBRANCH   3  10
ENDBRANCH   2   3
BRANCH   1  13
ATOM     13  C   UNL     1     152.883 139.465 161.600  1.00  0.00    -0.055 C 
ATOM     14  C   UNL     1     151.754 140.170 161.497  1.00  0.00     0.012 C 
BRANCH  13  15
ATOM     15  C   UNL     1     153.638 139.473 162.922  1.00  0.00     0.039 C 
BRANCH  15  16
ATOM     16  C   UNL     1     154.960 138.676 163.032  1.00  0.00     0.032 CG0
ATOM     17  G   UNL     1     154.937 137.183 162.773  1.00  0.00     0.000 G0
ENDBRANCH  15  16
ENDBRANCH  13  15
ENDBRANCH   1  13
TORSDOF 1
ENDMDL
MODEL 8
REMARK VINA RESULT:     5.494     19.443     21.864
REMARK INTER + INTRA:           8.259
REMARK INTER:                   6.419
REMARK INTRA:                   1.841
REMARK UNBOUND:                 0.197
REMARK SMILES C=C1C=C[C@H](C(C)C)CCC(C)=CCC1
REMARK SMILES IDX 3 1 4 2 5 3 9 4 10 5 11 6 12 7 13 8 6 10 7 11 8 12 2 13 1 14
REMARK SMILES IDX 15 15 14 16
REMARK H PARENT
REMARK Flexibility Score: 70.00
ROOT
ATOM      1  C   UNL     1     137.239 154.321 163.651  1.00  0.00    -0.001 C 
ATOM      2  C   UNL     1     137.516 153.247 164.410  1.00  0.00    -0.023 C 
ENDROOT
BRANCH   2   3
ATOM      3  C   UNL     1     137.109 151.797 164.166  1.00  0.00     0.014 C 
BRANCH   3   4
ATOM      4  C   UNL     1     137.676 151.158 162.859  1.00  0.00     0.012 C 
BRANCH   4   5
ATOM      5  C   UNL     1     137.649 151.976 161.536  1.00  0.00     0.031 C 
BRANCH   5   6
ATOM      6  C   UNL     1     138.984 152.455 161.007  1.00  0.00    -0.077 C 
ATOM      7  C   UNL     1     140.085 151.439 160.815  1.00  0.00     0.039 C 
ATOM      8  C   UNL     1     139.246 153.741 160.678  1.00  0.00    -0.028 CG0
ATOM      9  G   UNL     1     138.334 154.938 160.860  1.00  0.00     0.000 G0
ENDBRANCH   5   6
ENDBRANCH   4   5
ENDBRANCH   3   4
BRANCH   3  10
ATOM     10  C   UNL     1     137.430 150.932 165.431  1.00  0.00    -0.010 C 
ATOM     11  C   UNL     1     138.067 149.576 165.075  1.00  0.00     0.008 C 
ATOM     12  C   UNL     1     136.168 150.676 166.279  1.00  0.00     0.008 C 
ENDBRANCH   3  10
ENDBRANCH   2   3
BRANCH   1  13
ATOM     13  C   UNL     1     136.362 154.318 162.468  1.00  0.00    -0.055 C 
ATOM     14  C   UNL     1     135.106 153.890 162.613  1.00  0.00     0.012 C 
BRANCH  13  15
ATOM     15  C   UNL     1     136.837 154.757 161.090  1.00  0.00     0.039 C 
BRANCH  15  16
ATOM     16  C   UNL     1     138.352 154.957 160.851  1.00  0.00     0.032 CG0
ATOM     17  G   UNL     1     139.233 153.736 160.679  1.00  0.00     0.000 G0
ENDBRANCH  15  16
ENDBRANCH  13  15
ENDBRANCH   1  13
TORSDOF 1
ENDMDL
MODEL 9
REMARK VINA RESULT:     5.543      1.572      2.514
REMARK INTER + INTRA:           8.331
REMARK INTER:                   6.546
REMARK INTRA:                   1.785
REMARK UNBOUND:                 0.197
REMARK SMILES C=C1C=C[C@H](C(C)C)CCC(C)=CCC1
REMARK SMILES IDX 3 1 4 2 5 3 9 4 10 5 11 6 12 7 13 8 6 10 7 11 8 12 2 13 1 14
REMARK SMILES IDX 15 15 14 16
REMARK H PARENT
REMARK Flexibility Score: 70.00
ROOT
ATOM      1  C   UNL     1     152.064 135.107 160.239  1.00  0.00    -0.001 C 
ATOM      2  C   UNL     1     150.998 135.926 160.224  1.00  0.00    -0.023 C 
ENDROOT
BRANCH   2   3
ATOM      3  C   UNL     1     150.864 137.302 160.868  1.00  0.00     0.014 C 
BRANCH   3   4
ATOM      4  C   UNL     1     152.142 137.821 161.601  1.00  0.00     0.012 C 
BRANCH   4   5
ATOM      5  C   UNL     1     152.284 137.600 163.134  1.00  0.00     0.031 C 
BRANCH   5   6
ATOM      6  C   UNL     1     153.651 137.857 163.733  1.00  0.00    -0.077 C 
ATOM      7  C   UNL     1     153.944 139.231 164.287  1.00  0.00     0.039 C 
ATOM      8  C   UNL     1     154.624 136.920 163.817  1.00  0.00    -0.028 CG0
ATOM      9  G   UNL     1     154.590 135.511 163.261  1.00  0.00     0.000 G0
ENDBRANCH   5   6
ENDBRANCH   4   5
ENDBRANCH   3   4
BRANCH   3  10
ATOM     10  C   UNL     1     150.329 138.333 159.818  1.00  0.00    -0.010 C 
ATOM     11  C   UNL     1     149.181 139.199 160.371  1.00  0.00     0.008 C 
ATOM     12  C   UNL     1     149.842 137.634 158.533  1.00  0.00     0.008 C 
ENDBRANCH   3  10
ENDBRANCH   2   3
BRANCH   1  13
ATOM     13  C   UNL     1     153.298 135.339 161.006  1.00  0.00    -0.055 C 
ATOM     14  C   UNL     1     154.346 135.871 160.372  1.00  0.00     0.012 C 
BRANCH  13  15
ATOM     15  C   UNL     1     153.434 134.976 162.478  1.00  0.00     0.039 C 
BRANCH  15  16
ATOM     16  C   UNL     1     154.651 135.511 163.269  1.00  0.00     0.032 CG0
ATOM     17  G   UNL     1     154.602 136.922 163.820  1.00  0.00     0.000 G0
ENDBRANCH  15  16
ENDBRANCH  13  15
ENDBRANCH   1  13
TORSDOF 1
ENDMDL
