MODEL 1
REMARK VINA RESULT:     0.000      0.000      0.000
REMARK INTER + INTRA:          -2.631
REMARK INTER:                   0.000
REMARK INTRA:                  -2.631
REMARK UNBOUND:                -2.631
REMARK SMILES COc1cc(CNC(=O)CCCCC=CC(C)C)ccc1O
REMARK SMILES IDX 11 1 12 2 13 3 14 4 15 5 16 6 17 7 18 8 10 9 8 10 9 11 7 12
REMARK SMILES IDX 6 14 5 15 4 16 19 17 3 18 20 19 21 20 2 21 1 22 22 23
REMARK H PARENT 7 13 22 24
REMARK Flexibility Score: inf
ROOT
ATOM      1  C   UNL     1     123.704 116.435 123.723  1.00  0.00     0.010 C 
ENDROOT
BRANCH   1   2
ATOM      2  C   UNL     1     122.198 116.328 123.438  1.00  0.00     0.005 C 
BRANCH   2   3
ATOM      3  C   UNL     1     121.410 115.802 124.647  1.00  0.00     0.027 C 
BRANCH   3   4
ATOM      4  C   UNL     1     120.353 116.783 125.075  1.00  0.00    -0.031 C 
ATOM      5  C   UNL     1     120.515 118.098 124.858  1.00  0.00    -0.028 C 
BRANCH   5   6
ATOM      6  C   UNL     1     119.480 119.128 125.248  1.00  0.00     0.005 C 
ATOM      7  C   UNL     1     118.327 118.493 126.035  1.00  0.00     0.012 C 
ATOM      8  C   UNL     1     120.112 120.286 126.030  1.00  0.00     0.012 C 
ENDBRANCH   5   6
ENDBRANCH   3   4
ENDBRANCH   2   3
ENDBRANCH   1   2
BRANCH   1   9
ATOM      9  C   UNL     1     124.176 117.890 123.847  1.00  0.00     0.100 C 
BRANCH   9  10
ATOM     10  C   UNL     1     124.158 118.321 125.283  1.00  0.00     0.220 C 
ATOM     11  O   UNL     1     123.758 119.481 125.576  1.00  0.00    -0.275 OA
ATOM     12  N   UNL     1     124.553 117.405 126.316  1.00  0.00    -0.352 N 
ATOM     13  H   UNL     1     124.913 116.461 126.046  1.00  0.00     0.163 HD
BRANCH  12  14
ATOM     14  C   UNL     1     124.264 117.647 127.728  1.00  0.00     0.151 C 
BRANCH  14  15
ATOM     15  C   UNL     1     122.883 117.153 128.053  1.00  0.00    -0.025 A 
ATOM     16  C   UNL     1     122.604 115.778 128.067  1.00  0.00     0.056 A 
ATOM     17  C   UNL     1     121.880 118.062 128.416  1.00  0.00     0.009 A 
ATOM     18  C   UNL     1     121.322 115.310 128.419  1.00  0.00     0.160 A 
ATOM     19  C   UNL     1     120.607 117.606 128.761  1.00  0.00     0.050 A 
ATOM     20  C   UNL     1     120.323 116.234 128.761  1.00  0.00     0.157 A 
BRANCH  18  21
ATOM     21  O   UNL     1     121.003 113.943 128.444  1.00  0.00    -0.493 OA
ATOM     22  C   UNL     1     120.708 113.163 127.289  1.00  0.00     0.278 C 
ENDBRANCH  18  21
BRANCH  20  23
ATOM     23  O   UNL     1     119.050 115.781 129.104  1.00  0.00    -0.504 OA
ATOM     24  H   UNL     1     118.436 116.323 129.702  1.00  0.00     0.293 HD
ENDBRANCH  20  23
ENDBRANCH  14  15
ENDBRANCH  12  14
ENDBRANCH   9  10
ENDBRANCH   1   9
TORSDOF 10
ENDMDL
MODEL 2
REMARK VINA RESULT:     0.000      8.754     10.955
REMARK INTER + INTRA:          -2.631
REMARK INTER:                   0.000
REMARK INTRA:                  -2.631
REMARK UNBOUND:                -2.631
REMARK SMILES COc1cc(CNC(=O)CCCCC=CC(C)C)ccc1O
REMARK SMILES IDX 11 1 12 2 13 3 14 4 15 5 16 6 17 7 18 8 10 9 8 10 9 11 7 12
REMARK SMILES IDX 6 14 5 15 4 16 19 17 3 18 20 19 21 20 2 21 1 22 22 23
REMARK H PARENT 7 13 22 24
REMARK Flexibility Score: inf
ROOT
ATOM      1  C   UNL     1     123.840 124.113 129.423  1.00  0.00     0.010 C 
ENDROOT
BRANCH   1   2
ATOM      2  C   UNL     1     124.751 125.120 130.142  1.00  0.00     0.005 C 
BRANCH   2   3
ATOM      3  C   UNL     1     123.986 125.973 131.164  1.00  0.00     0.027 C 
BRANCH   3   4
ATOM      4  C   UNL     1     124.565 125.818 132.544  1.00  0.00    -0.031 C 
ATOM      5  C   UNL     1     125.189 124.683 132.898  1.00  0.00    -0.028 C 
BRANCH   5   6
ATOM      6  C   UNL     1     125.808 124.477 134.262  1.00  0.00     0.005 C 
ATOM      7  C   UNL     1     125.500 125.652 135.199  1.00  0.00     0.012 C 
ATOM      8  C   UNL     1     125.366 123.145 134.879  1.00  0.00     0.012 C 
ENDBRANCH   5   6
ENDBRANCH   3   4
ENDBRANCH   2   3
ENDBRANCH   1   2
BRANCH   1   9
ATOM      9  C   UNL     1     124.104 122.665 129.860  1.00  0.00     0.100 C 
BRANCH   9  10
ATOM     10  C   UNL     1     123.177 122.283 130.975  1.00  0.00     0.220 C 
ATOM     11  O   UNL     1     123.617 121.595 131.936  1.00  0.00    -0.275 OA
ATOM     12  N   UNL     1     121.813 122.733 130.967  1.00  0.00    -0.352 N 
ATOM     13  H   UNL     1     121.463 123.273 130.142  1.00  0.00     0.163 HD
BRANCH  12  14
ATOM     14  C   UNL     1     120.960 122.666 132.150  1.00  0.00     0.151 C 
BRANCH  14  15
ATOM     15  C   UNL     1     121.181 123.885 133.002  1.00  0.00    -0.025 A 
ATOM     16  C   UNL     1     120.747 125.146 132.564  1.00  0.00     0.056 A 
ATOM     17  C   UNL     1     121.755 123.758 134.273  1.00  0.00     0.009 A 
ATOM     18  C   UNL     1     120.909 126.282 133.382  1.00  0.00     0.160 A 
ATOM     19  C   UNL     1     121.922 124.879 135.086  1.00  0.00     0.050 A 
ATOM     20  C   UNL     1     121.504 126.141 134.644  1.00  0.00     0.157 A 
BRANCH  18  21
ATOM     21  O   UNL     1     120.491 127.560 132.979  1.00  0.00    -0.493 OA
ATOM     22  C   UNL     1     121.213 128.400 132.084  1.00  0.00     0.278 C 
ENDBRANCH  18  21
BRANCH  20  23
ATOM     23  O   UNL     1     121.674 127.262 135.457  1.00  0.00    -0.504 OA
ATOM     24  H   UNL     1     120.894 127.861 135.704  1.00  0.00     0.293 HD
ENDBRANCH  20  23
ENDBRANCH  14  15
ENDBRANCH  12  14
ENDBRANCH   9  10
ENDBRANCH   1   9
TORSDOF 10
ENDMDL
MODEL 3
REMARK VINA RESULT:     0.001      3.633      6.765
REMARK INTER + INTRA:          -2.630
REMARK INTER:                   0.000
REMARK INTRA:                  -2.630
REMARK UNBOUND:                -2.631
REMARK SMILES COc1cc(CNC(=O)CCCCC=CC(C)C)ccc1O
REMARK SMILES IDX 11 1 12 2 13 3 14 4 15 5 16 6 17 7 18 8 10 9 8 10 9 11 7 12
REMARK SMILES IDX 6 14 5 15 4 16 19 17 3 18 20 19 21 20 2 21 1 22 22 23
REMARK H PARENT 7 13 22 24
REMARK Flexibility Score: inf
ROOT
ATOM      1  C   UNL     1     118.814 117.900 130.324  1.00  0.00     0.010 C 
ENDROOT
BRANCH   1   2
ATOM      2  C   UNL     1     117.315 118.236 130.366  1.00  0.00     0.005 C 
BRANCH   2   3
ATOM      3  C   UNL     1     116.956 119.423 129.460  1.00  0.00     0.027 C 
BRANCH   3   4
ATOM      4  C   UNL     1     115.930 119.030 128.432  1.00  0.00    -0.031 C 
ATOM      5  C   UNL     1     115.846 117.760 128.003  1.00  0.00    -0.028 C 
BRANCH   5   6
ATOM      6  C   UNL     1     114.823 117.303 126.988  1.00  0.00     0.005 C 
ATOM      7  C   UNL     1     114.019 118.485 126.431  1.00  0.00     0.012 C 
ATOM      8  C   UNL     1     115.479 116.499 125.859  1.00  0.00     0.012 C 
ENDBRANCH   5   6
ENDBRANCH   3   4
ENDBRANCH   2   3
ENDBRANCH   1   2
BRANCH   1   9
ATOM      9  C   UNL     1     119.100 116.587 129.583  1.00  0.00     0.100 C 
BRANCH   9  10
ATOM     10  C   UNL     1     119.406 116.860 128.141  1.00  0.00     0.220 C 
ATOM     11  O   UNL     1     118.942 116.092 127.254  1.00  0.00    -0.275 OA
ATOM     12  N   UNL     1     120.182 118.010 127.773  1.00  0.00    -0.352 N 
ATOM     13  H   UNL     1     120.584 118.613 128.527  1.00  0.00     0.163 HD
BRANCH  12  14
ATOM     14  C   UNL     1     120.249 118.503 126.399  1.00  0.00     0.151 C 
BRANCH  14  15
ATOM     15  C   UNL     1     119.085 119.415 126.133  1.00  0.00    -0.025 A 
ATOM     16  C   UNL     1     119.011 120.673 126.750  1.00  0.00     0.056 A 
ATOM     17  C   UNL     1     118.101 119.044 125.206  1.00  0.00     0.009 A 
ATOM     18  C   UNL     1     117.946 121.550 126.464  1.00  0.00     0.160 A 
ATOM     19  C   UNL     1     117.041 119.906 124.922  1.00  0.00     0.050 A 
ATOM     20  C   UNL     1     116.958 121.156 125.549  1.00  0.00     0.157 A 
BRANCH  18  21
ATOM     21  O   UNL     1     117.836 122.815 127.062  1.00  0.00    -0.493 OA
ATOM     22  C   UNL     1     117.352 123.044 128.382  1.00  0.00     0.278 C 
ENDBRANCH  18  21
BRANCH  20  23
ATOM     23  O   UNL     1     115.897 122.015 125.265  1.00  0.00    -0.504 OA
ATOM     24  H   UNL     1     114.939 121.683 125.230  1.00  0.00     0.293 HD
ENDBRANCH  20  23
ENDBRANCH  14  15
ENDBRANCH  12  14
ENDBRANCH   9  10
ENDBRANCH   1   9
TORSDOF 10
ENDMDL
MODEL 4
REMARK VINA RESULT:     0.001      6.615      9.948
REMARK INTER + INTRA:          -2.630
REMARK INTER:                   0.000
REMARK INTRA:                  -2.630
REMARK UNBOUND:                -2.631
REMARK SMILES COc1cc(CNC(=O)CCCCC=CC(C)C)ccc1O
REMARK SMILES IDX 11 1 12 2 13 3 14 4 15 5 16 6 17 7 18 8 10 9 8 10 9 11 7 12
REMARK SMILES IDX 6 14 5 15 4 16 19 17 3 18 20 19 21 20 2 21 1 22 22 23
REMARK H PARENT 7 13 22 24
REMARK Flexibility Score: inf
ROOT
ATOM      1  C   UNL     1     117.259 122.147 124.532  1.00  0.00     0.010 C 
ENDROOT
BRANCH   1   2
ATOM      2  C   UNL     1     117.016 121.776 123.060  1.00  0.00     0.005 C 
BRANCH   2   3
ATOM      3  C   UNL     1     117.134 122.988 122.125  1.00  0.00     0.027 C 
BRANCH   3   4
ATOM      4  C   UNL     1     118.195 122.769 121.082  1.00  0.00    -0.031 C 
ATOM      5  C   UNL     1     119.235 121.956 121.328  1.00  0.00    -0.028 C 
BRANCH   5   6
ATOM      6  C   UNL     1     120.321 121.681 120.313  1.00  0.00     0.005 C 
ATOM      7  C   UNL     1     120.140 122.539 119.054  1.00  0.00     0.012 C 
ATOM      8  C   UNL     1     121.715 121.876 120.921  1.00  0.00     0.012 C 
ENDBRANCH   5   6
ENDBRANCH   3   4
ENDBRANCH   2   3
ENDBRANCH   1   2
BRANCH   1   9
ATOM      9  C   UNL     1     118.595 121.608 125.061  1.00  0.00     0.100 C 
BRANCH   9  10
ATOM     10  C   UNL     1     119.668 122.644 124.913  1.00  0.00     0.220 C 
ATOM     11  O   UNL     1     120.821 122.292 124.539  1.00  0.00    -0.275 OA
ATOM     12  N   UNL     1     119.373 124.029 125.152  1.00  0.00    -0.352 N 
ATOM     13  H   UNL     1     118.420 124.292 125.494  1.00  0.00     0.163 HD
BRANCH  12  14
ATOM     14  C   UNL     1     120.266 125.104 124.729  1.00  0.00     0.151 C 
BRANCH  14  15
ATOM     15  C   UNL     1     119.979 125.466 123.299  1.00  0.00    -0.025 A 
ATOM     16  C   UNL     1     118.779 126.109 122.956  1.00  0.00     0.056 A 
ATOM     17  C   UNL     1     120.940 125.231 122.308  1.00  0.00     0.009 A 
ATOM     18  C   UNL     1     118.529 126.494 121.624  1.00  0.00     0.160 A 
ATOM     19  C   UNL     1     120.697 125.604 120.986  1.00  0.00     0.050 A 
ATOM     20  C   UNL     1     119.493 126.232 120.640  1.00  0.00     0.157 A 
BRANCH  18  21
ATOM     21  O   UNL     1     117.341 127.137 121.241  1.00  0.00    -0.493 OA
ATOM     22  C   UNL     1     116.097 126.476 121.030  1.00  0.00     0.278 C 
ENDBRANCH  18  21
BRANCH  20  23
ATOM     23  O   UNL     1     119.250 126.604 119.318  1.00  0.00    -0.504 OA
ATOM     24  H   UNL     1     119.560 127.498 118.952  1.00  0.00     0.293 HD
ENDBRANCH  20  23
ENDBRANCH  14  15
ENDBRANCH  12  14
ENDBRANCH   9  10
ENDBRANCH   1   9
TORSDOF 10
ENDMDL
MODEL 5
REMARK VINA RESULT:     0.001      4.902      6.843
REMARK INTER + INTRA:          -2.630
REMARK INTER:                   0.000
REMARK INTRA:                  -2.630
REMARK UNBOUND:                -2.631
REMARK SMILES COc1cc(CNC(=O)CCCCC=CC(C)C)ccc1O
REMARK SMILES IDX 11 1 12 2 13 3 14 4 15 5 16 6 17 7 18 8 10 9 8 10 9 11 7 12
REMARK SMILES IDX 6 14 5 15 4 16 19 17 3 18 20 19 21 20 2 21 1 22 22 23
REMARK H PARENT 7 13 22 24
REMARK Flexibility Score: inf
ROOT
ATOM      1  C   UNL     1     119.123 119.740 122.042  1.00  0.00     0.010 C 
ENDROOT
BRANCH   1   2
ATOM      2  C   UNL     1     117.713 120.206 122.440  1.00  0.00     0.005 C 
BRANCH   2   3
ATOM      3  C   UNL     1     116.636 119.167 122.095  1.00  0.00     0.027 C 
BRANCH   3   4
ATOM      4  C   UNL     1     115.875 118.746 123.322  1.00  0.00    -0.031 C 
ATOM      5  C   UNL     1     116.456 118.782 124.532  1.00  0.00    -0.028 C 
BRANCH   5   6
ATOM      6  C   UNL     1     115.736 118.390 125.802  1.00  0.00     0.005 C 
ATOM      7  C   UNL     1     114.343 117.822 125.503  1.00  0.00     0.012 C 
ATOM      8  C   UNL     1     116.569 117.408 126.635  1.00  0.00     0.012 C 
ENDBRANCH   5   6
ENDBRANCH   3   4
ENDBRANCH   2   3
ENDBRANCH   1   2
BRANCH   1   9
ATOM      9  C   UNL     1     119.990 119.387 123.259  1.00  0.00     0.100 C 
BRANCH   9  10
ATOM     10  C   UNL     1     119.893 117.921 123.558  1.00  0.00     0.220 C 
ATOM     11  O   UNL     1     119.823 117.537 124.757  1.00  0.00    -0.275 OA
ATOM     12  N   UNL     1     119.837 116.968 122.485  1.00  0.00    -0.352 N 
ATOM     13  H   UNL     1     119.931 117.308 121.500  1.00  0.00     0.163 HD
BRANCH  12  14
ATOM     14  C   UNL     1     119.432 115.580 122.692  1.00  0.00     0.151 C 
BRANCH  14  15
ATOM     15  C   UNL     1     117.934 115.477 122.635  1.00  0.00    -0.025 A 
ATOM     16  C   UNL     1     117.254 115.662 121.422  1.00  0.00     0.056 A 
ATOM     17  C   UNL     1     117.211 115.122 123.782  1.00  0.00     0.009 A 
ATOM     18  C   UNL     1     115.854 115.518 121.357  1.00  0.00     0.160 A 
ATOM     19  C   UNL     1     115.824 114.982 123.725  1.00  0.00     0.050 A 
ATOM     20  C   UNL     1     115.142 115.181 122.518  1.00  0.00     0.157 A 
BRANCH  18  21
ATOM     21  O   UNL     1     115.137 115.696 120.162  1.00  0.00    -0.493 OA
ATOM     22  C   UNL     1     114.791 116.963 119.611  1.00  0.00     0.278 C 
ENDBRANCH  18  21
BRANCH  20  23
ATOM     23  O   UNL     1     113.756 115.043 122.463  1.00  0.00    -0.504 OA
ATOM     24  H   UNL     1     113.136 115.756 122.831  1.00  0.00     0.293 HD
ENDBRANCH  20  23
ENDBRANCH  14  15
ENDBRANCH  12  14
ENDBRANCH   9  10
ENDBRANCH   1   9
TORSDOF 10
ENDMDL
MODEL 6
REMARK VINA RESULT:     0.001      4.768      6.736
REMARK INTER + INTRA:          -2.629
REMARK INTER:                   0.000
REMARK INTRA:                  -2.629
REMARK UNBOUND:                -2.631
REMARK SMILES COc1cc(CNC(=O)CCCCC=CC(C)C)ccc1O
REMARK SMILES IDX 11 1 12 2 13 3 14 4 15 5 16 6 17 7 18 8 10 9 8 10 9 11 7 12
REMARK SMILES IDX 6 14 5 15 4 16 19 17 3 18 20 19 21 20 2 21 1 22 22 23
REMARK H PARENT 7 13 22 24
REMARK Flexibility Score: inf
ROOT
ATOM      1  C   UNL     1     120.518 120.806 129.054  1.00  0.00     0.010 C 
ENDROOT
BRANCH   1   2
ATOM      2  C   UNL     1     120.191 120.750 130.555  1.00  0.00     0.005 C 
BRANCH   2   3
ATOM      3  C   UNL     1     121.072 119.744 131.308  1.00  0.00     0.027 C 
BRANCH   3   4
ATOM      4  C   UNL     1     121.844 120.416 132.410  1.00  0.00    -0.031 C 
ATOM      5  C   UNL     1     122.163 121.717 132.324  1.00  0.00    -0.028 C 
BRANCH   5   6
ATOM      6  C   UNL     1     122.920 122.451 133.408  1.00  0.00     0.005 C 
ATOM      7  C   UNL     1     123.370 121.497 134.521  1.00  0.00     0.012 C 
ATOM      8  C   UNL     1     124.108 123.229 132.830  1.00  0.00     0.012 C 
ENDBRANCH   5   6
ENDBRANCH   3   4
ENDBRANCH   2   3
ENDBRANCH   1   2
BRANCH   1   9
ATOM      9  C   UNL     1     121.217 122.112 128.653  1.00  0.00     0.100 C 
BRANCH   9  10
ATOM     10  C   UNL     1     122.706 121.937 128.692  1.00  0.00     0.220 C 
ATOM     11  O   UNL     1     123.426 122.862 129.158  1.00  0.00    -0.275 OA
ATOM     12  N   UNL     1     123.300 120.709 128.243  1.00  0.00    -0.352 N 
ATOM     13  H   UNL     1     122.686 119.971 127.829  1.00  0.00     0.163 HD
BRANCH  12  14
ATOM     14  C   UNL     1     124.686 120.355 128.541  1.00  0.00     0.151 C 
BRANCH  14  15
ATOM     15  C   UNL     1     124.760 119.696 129.889  1.00  0.00    -0.025 A 
ATOM     16  C   UNL     1     124.217 118.417 130.086  1.00  0.00     0.056 A 
ATOM     17  C   UNL     1     125.439 120.325 130.940  1.00  0.00     0.009 A 
ATOM     18  C   UNL     1     124.328 117.777 131.337  1.00  0.00     0.160 A 
ATOM     19  C   UNL     1     125.549 119.699 132.183  1.00  0.00     0.050 A 
ATOM     20  C   UNL     1     124.994 118.429 132.386  1.00  0.00     0.157 A 
BRANCH  18  21
ATOM     21  O   UNL     1     123.797 116.500 131.575  1.00  0.00    -0.493 OA
ATOM     22  C   UNL     1     122.422 116.233 131.830  1.00  0.00     0.278 C 
ENDBRANCH  18  21
BRANCH  20  23
ATOM     23  O   UNL     1     125.103 117.805 133.628  1.00  0.00    -0.504 OA
ATOM     24  H   UNL     1     124.691 116.896 133.804  1.00  0.00     0.293 HD
ENDBRANCH  20  23
ENDBRANCH  14  15
ENDBRANCH  12  14
ENDBRANCH   9  10
ENDBRANCH   1   9
TORSDOF 10
ENDMDL
MODEL 7
REMARK VINA RESULT:     0.001      6.130      9.065
REMARK INTER + INTRA:          -2.629
REMARK INTER:                   0.000
REMARK INTRA:                  -2.629
REMARK UNBOUND:                -2.631
REMARK SMILES COc1cc(CNC(=O)CCCCC=CC(C)C)ccc1O
REMARK SMILES IDX 11 1 12 2 13 3 14 4 15 5 16 6 17 7 18 8 10 9 8 10 9 11 7 12
REMARK SMILES IDX 6 14 5 15 4 16 19 17 3 18 20 19 21 20 2 21 1 22 22 23
REMARK H PARENT 7 13 22 24
REMARK Flexibility Score: inf
ROOT
ATOM      1  C   UNL     1     120.216 123.642 126.531  1.00  0.00     0.010 C 
ENDROOT
BRANCH   1   2
ATOM      2  C   UNL     1     119.235 122.648 125.889  1.00  0.00     0.005 C 
BRANCH   2   3
ATOM      3  C   UNL     1     118.686 123.154 124.547  1.00  0.00     0.027 C 
BRANCH   3   4
ATOM      4  C   UNL     1     119.003 122.193 123.433  1.00  0.00    -0.031 C 
ATOM      5  C   UNL     1     120.080 121.395 123.507  1.00  0.00    -0.028 C 
BRANCH   5   6
ATOM      6  C   UNL     1     120.438 120.397 122.429  1.00  0.00     0.005 C 
ATOM      7  C   UNL     1     119.499 120.516 121.222  1.00  0.00     0.012 C 
ATOM      8  C   UNL     1     121.905 120.534 122.007  1.00  0.00     0.012 C 
ENDBRANCH   5   6
ENDBRANCH   3   4
ENDBRANCH   2   3
ENDBRANCH   1   2
BRANCH   1   9
ATOM      9  C   UNL     1     121.668 123.144 126.490  1.00  0.00     0.100 C 
BRANCH   9  10
ATOM     10  C   UNL     1     122.364 123.672 125.272  1.00  0.00     0.220 C 
ATOM     11  O   UNL     1     123.140 122.916 124.626  1.00  0.00    -0.275 OA
ATOM     12  N   UNL     1     122.113 125.012 124.821  1.00  0.00    -0.352 N 
ATOM     13  H   UNL     1     121.491 125.630 125.392  1.00  0.00     0.163 HD
BRANCH  12  14
ATOM     14  C   UNL     1     122.503 125.477 123.492  1.00  0.00     0.151 C 
BRANCH  14  15
ATOM     15  C   UNL     1     121.431 125.126 122.500  1.00  0.00    -0.025 A 
ATOM     16  C   UNL     1     120.186 125.773 122.539  1.00  0.00     0.056 A 
ATOM     17  C   UNL     1     121.694 124.202 121.480  1.00  0.00     0.009 A 
ATOM     18  C   UNL     1     119.197 125.481 121.579  1.00  0.00     0.160 A 
ATOM     19  C   UNL     1     120.717 123.904 120.529  1.00  0.00     0.050 A 
ATOM     20  C   UNL     1     119.469 124.538 120.576  1.00  0.00     0.157 A 
BRANCH  18  21
ATOM     21  O   UNL     1     117.939 126.105 121.585  1.00  0.00    -0.493 OA
ATOM     22  C   UNL     1     116.865 125.745 122.448  1.00  0.00     0.278 C 
ENDBRANCH  18  21
BRANCH  20  23
ATOM     23  O   UNL     1     118.493 124.239 119.626  1.00  0.00    -0.504 OA
ATOM     24  H   UNL     1     118.255 124.889 118.886  1.00  0.00     0.293 HD
ENDBRANCH  20  23
ENDBRANCH  14  15
ENDBRANCH  12  14
ENDBRANCH   9  10
ENDBRANCH   1   9
TORSDOF 10
ENDMDL
MODEL 8
REMARK VINA RESULT:     0.001      4.009      6.931
REMARK INTER + INTRA:          -2.629
REMARK INTER:                   0.000
REMARK INTRA:                  -2.629
REMARK UNBOUND:                -2.631
REMARK SMILES COc1cc(CNC(=O)CCCCC=CC(C)C)ccc1O
REMARK SMILES IDX 11 1 12 2 13 3 14 4 15 5 16 6 17 7 18 8 10 9 8 10 9 11 7 12
REMARK SMILES IDX 6 14 5 15 4 16 19 17 3 18 20 19 21 20 2 21 1 22 22 23
REMARK H PARENT 7 13 22 24
REMARK Flexibility Score: inf
ROOT
ATOM      1  C   UNL     1     123.778 122.401 130.507  1.00  0.00     0.010 C 
ENDROOT
BRANCH   1   2
ATOM      2  C   UNL     1     123.391 122.164 129.038  1.00  0.00     0.005 C 
BRANCH   2   3
ATOM      3  C   UNL     1     124.509 121.472 128.244  1.00  0.00     0.027 C 
BRANCH   3   4
ATOM      4  C   UNL     1     124.033 120.171 127.656  1.00  0.00    -0.031 C 
ATOM      5  C   UNL     1     123.043 119.480 128.243  1.00  0.00    -0.028 C 
BRANCH   5   6
ATOM      6  C   UNL     1     122.509 118.178 127.688  1.00  0.00     0.005 C 
ATOM      7  C   UNL     1     123.323 117.713 126.474  1.00  0.00     0.012 C 
ATOM      8  C   UNL     1     122.455 117.092 128.769  1.00  0.00     0.012 C 
ENDBRANCH   5   6
ENDBRANCH   3   4
ENDBRANCH   2   3
ENDBRANCH   1   2
BRANCH   1   9
ATOM      9  C   UNL     1     123.011 121.486 131.471  1.00  0.00     0.100 C 
BRANCH   9  10
ATOM     10  C   UNL     1     123.806 120.247 131.754  1.00  0.00     0.220 C 
ATOM     11  O   UNL     1     123.216 119.134 131.820  1.00  0.00    -0.275 OA
ATOM     12  N   UNL     1     125.232 120.324 131.906  1.00  0.00    -0.352 N 
ATOM     13  H   UNL     1     125.694 121.262 131.881  1.00  0.00     0.163 HD
BRANCH  12  14
ATOM     14  C   UNL     1     126.088 119.141 131.868  1.00  0.00     0.151 C 
BRANCH  14  15
ATOM     15  C   UNL     1     126.430 118.810 130.442  1.00  0.00    -0.025 A 
ATOM     16  C   UNL     1     127.279 119.646 129.702  1.00  0.00     0.056 A 
ATOM     17  C   UNL     1     125.960 117.622 129.866  1.00  0.00     0.009 A 
ATOM     18  C   UNL     1     127.640 119.312 128.381  1.00  0.00     0.160 A 
ATOM     19  C   UNL     1     126.310 117.287 128.557  1.00  0.00     0.050 A 
ATOM     20  C   UNL     1     127.145 118.129 127.812  1.00  0.00     0.157 A 
BRANCH  18  21
ATOM     21  O   UNL     1     128.486 120.123 127.608  1.00  0.00    -0.493 OA
ATOM     22  C   UNL     1     128.074 121.311 126.940  1.00  0.00     0.278 C 
ENDBRANCH  18  21
BRANCH  20  23
ATOM     23  O   UNL     1     127.492 117.795 126.503  1.00  0.00    -0.504 OA
ATOM     24  H   UNL     1     127.053 118.242 125.706  1.00  0.00     0.293 HD
ENDBRANCH  20  23
ENDBRANCH  14  15
ENDBRANCH  12  14
ENDBRANCH   9  10
ENDBRANCH   1   9
TORSDOF 10
ENDMDL
MODEL 9
REMARK VINA RESULT:     0.002      8.511     10.417
REMARK INTER + INTRA:          -2.629
REMARK INTER:                   0.000
REMARK INTRA:                  -2.629
REMARK UNBOUND:                -2.631
REMARK SMILES COc1cc(CNC(=O)CCCCC=CC(C)C)ccc1O
REMARK SMILES IDX 11 1 12 2 13 3 14 4 15 5 16 6 17 7 18 8 10 9 8 10 9 11 7 12
REMARK SMILES IDX 6 14 5 15 4 16 19 17 3 18 20 19 21 20 2 21 1 22 22 23
REMARK H PARENT 7 13 22 24
REMARK Flexibility Score: inf
ROOT
ATOM      1  C   UNL     1     120.827 124.519 122.588  1.00  0.00     0.010 C 
ENDROOT
BRANCH   1   2
ATOM      2  C   UNL     1     120.236 123.907 123.869  1.00  0.00     0.005 C 
BRANCH   2   3
ATOM      3  C   UNL     1     120.857 124.504 125.141  1.00  0.00     0.027 C 
BRANCH   3   4
ATOM      4  C   UNL     1     119.805 125.123 126.020  1.00  0.00    -0.031 C 
ATOM      5  C   UNL     1     118.675 125.615 125.488  1.00  0.00    -0.028 C 
BRANCH   5   6
ATOM      6  C   UNL     1     117.574 126.230 126.323  1.00  0.00     0.005 C 
ATOM      7  C   UNL     1     117.985 126.341 127.796  1.00  0.00     0.012 C 
ATOM      8  C   UNL     1     117.144 127.591 125.763  1.00  0.00     0.012 C 
ENDBRANCH   5   6
ENDBRANCH   3   4
ENDBRANCH   2   3
ENDBRANCH   1   2
BRANCH   1   9
ATOM      9  C   UNL     1     119.831 125.433 121.862  1.00  0.00     0.100 C 
BRANCH   9  10
ATOM     10  C   UNL     1     120.019 126.855 122.298  1.00  0.00     0.220 C 
ATOM     11  O   UNL     1     119.006 127.580 122.498  1.00  0.00    -0.275 OA
ATOM     12  N   UNL     1     121.339 127.372 122.529  1.00  0.00    -0.352 N 
ATOM     13  H   UNL     1     122.164 126.763 122.324  1.00  0.00     0.163 HD
BRANCH  12  14
ATOM     14  C   UNL     1     121.576 128.623 123.245  1.00  0.00     0.151 C 
BRANCH  14  15
ATOM     15  C   UNL     1     121.606 128.360 124.724  1.00  0.00    -0.025 A 
ATOM     16  C   UNL     1     122.666 127.641 125.297  1.00  0.00     0.056 A 
ATOM     17  C   UNL     1     120.612 128.897 125.552  1.00  0.00     0.009 A 
ATOM     18  C   UNL     1     122.721 127.435 126.690  1.00  0.00     0.160 A 
ATOM     19  C   UNL     1     120.658 128.694 126.932  1.00  0.00     0.050 A 
ATOM     20  C   UNL     1     121.707 127.962 127.504  1.00  0.00     0.157 A 
BRANCH  18  21
ATOM     21  O   UNL     1     123.763 126.719 127.301  1.00  0.00    -0.493 OA
ATOM     22  C   UNL     1     123.856 125.298 127.330  1.00  0.00     0.278 C 
ENDBRANCH  18  21
BRANCH  20  23
ATOM     23  O   UNL     1     121.751 127.758 128.882  1.00  0.00    -0.504 OA
ATOM     24  H   UNL     1     120.909 127.758 129.447  1.00  0.00     0.293 HD
ENDBRANCH  20  23
ENDBRANCH  14  15
ENDBRANCH  12  14
ENDBRANCH   9  10
ENDBRANCH   1   9
TORSDOF 10
ENDMDL
