MODEL 1
REMARK VINA RESULT:    -5.530      0.000      0.000
REMARK INTER + INTRA:          -7.037
REMARK INTER:                  -6.823
REMARK INTRA:                  -0.214
REMARK UNBOUND:                -0.214
REMARK SMILES O=c1c(O)c(-c2cc(O)c(O)c(O)c2)oc2cc(O)cc(O)c12
REMARK SMILES IDX 5 1 3 2 2 3 1 4 23 5 21 6 20 7 18 8 17 9 16 10 15 11 6 12
REMARK SMILES IDX 7 13 8 14 14 15 10 16 12 17 9 18 11 20 13 22 4 24 22 26
REMARK SMILES IDX 19 28
REMARK H PARENT 9 19 11 21 13 23 4 25 22 27 19 29
REMARK Flexibility Score: inf
ROOT
ATOM      1  C   UNL     1      30.776 -92.220  37.549  1.00  0.00     0.180 A 
ATOM      2  C   UNL     1      29.573 -92.830  37.144  1.00  0.00     0.208 A 
ATOM      3  C   UNL     1      29.465 -94.228  37.216  1.00  0.00     0.238 A 
ATOM      4  O   UNL     1      28.396 -94.786  36.844  1.00  0.00    -0.285 OA
ATOM      5  C   UNL     1      30.545 -94.987  37.709  1.00  0.00     0.111 A 
ATOM      6  C   UNL     1      30.515 -96.399  37.817  1.00  0.00     0.134 A 
ATOM      7  C   UNL     1      31.629 -97.080  38.327  1.00  0.00     0.093 A 
ATOM      8  C   UNL     1      32.770 -96.383  38.730  1.00  0.00     0.123 A 
ATOM      9  C   UNL     1      32.806 -94.989  38.625  1.00  0.00     0.094 A 
ATOM     10  C   UNL     1      31.706 -94.290  38.118  1.00  0.00     0.146 A 
ATOM     11  O   UNL     1      31.769 -92.966  38.023  1.00  0.00    -0.452 OA
ENDROOT
BRANCH   1  12
ATOM     12  C   UNL     1      30.974 -90.754  37.485  1.00  0.00     0.029 A 
ATOM     13  C   UNL     1      31.881 -90.221  36.559  1.00  0.00     0.062 A 
ATOM     14  C   UNL     1      32.072 -88.837  36.465  1.00  0.00     0.162 A 
ATOM     15  C   UNL     1      30.230 -89.879  38.293  1.00  0.00     0.062 A 
ATOM     16  C   UNL     1      31.345 -87.965  37.288  1.00  0.00     0.200 A 
ATOM     17  C   UNL     1      30.408 -88.493  38.206  1.00  0.00     0.162 A 
BRANCH  14  18
ATOM     18  O   UNL     1      32.988 -88.316  35.552  1.00  0.00    -0.504 OA
ATOM     19  H   UNL     1      33.069 -87.319  35.391  1.00  0.00     0.293 HD
ENDBRANCH  14  18
BRANCH  16  20
ATOM     20  O   UNL     1      31.580 -86.593  37.159  1.00  0.00    -0.502 OA
ATOM     21  H   UNL     1      31.096 -85.884  37.691  1.00  0.00     0.293 HD
ENDBRANCH  16  20
BRANCH  17  22
ATOM     22  O   UNL     1      29.634 -87.685  39.042  1.00  0.00    -0.504 OA
ATOM     23  H   UNL     1      29.156 -86.849  38.738  1.00  0.00     0.293 HD
ENDBRANCH  17  22
ENDBRANCH   1  12
BRANCH   2  24
ATOM     24  O   UNL     1      28.499 -92.052  36.705  1.00  0.00    -0.502 OA
ATOM     25  H   UNL     1      27.553 -92.409  36.657  1.00  0.00     0.293 HD
ENDBRANCH   2  24
BRANCH   6  26
ATOM     26  O   UNL     1      29.390 -97.125  37.424  1.00  0.00    -0.507 OA
ATOM     27  H   UNL     1      29.434 -98.121  37.245  1.00  0.00     0.293 HD
ENDBRANCH   6  26
BRANCH   8  28
ATOM     28  O   UNL     1      33.862 -97.085  39.233  1.00  0.00    -0.508 OA
ATOM     29  H   UNL     1      34.067 -98.032  38.936  1.00  0.00     0.293 HD
ENDBRANCH   8  28
TORSDOF 7
ENDMDL
MODEL 2
REMARK VINA RESULT:    -5.306      9.268     10.788
REMARK INTER + INTRA:          -6.761
REMARK INTER:                  -6.518
REMARK INTRA:                  -0.243
REMARK UNBOUND:                -0.214
REMARK SMILES O=c1c(O)c(-c2cc(O)c(O)c(O)c2)oc2cc(O)cc(O)c12
REMARK SMILES IDX 5 1 3 2 2 3 1 4 23 5 21 6 20 7 18 8 17 9 16 10 15 11 6 12
REMARK SMILES IDX 7 13 8 14 14 15 10 16 12 17 9 18 11 20 13 22 4 24 22 26
REMARK SMILES IDX 19 28
REMARK H PARENT 9 19 11 21 13 23 4 25 22 27 19 29
REMARK Flexibility Score: inf
ROOT
ATOM      1  C   UNL     1      36.224 -95.407  30.188  1.00  0.00     0.180 A 
ATOM      2  C   UNL     1      37.269 -95.799  29.329  1.00  0.00     0.208 A 
ATOM      3  C   UNL     1      38.589 -95.762  29.807  1.00  0.00     0.238 A 
ATOM      4  O   UNL     1      39.534 -96.100  29.043  1.00  0.00    -0.285 OA
ATOM      5  C   UNL     1      38.839 -95.356  31.134  1.00  0.00     0.111 A 
ATOM      6  C   UNL     1      40.139 -95.295  31.693  1.00  0.00     0.134 A 
ATOM      7  C   UNL     1      40.303 -94.889  33.025  1.00  0.00     0.093 A 
ATOM      8  C   UNL     1      39.199 -94.545  33.808  1.00  0.00     0.123 A 
ATOM      9  C   UNL     1      37.913 -94.603  33.261  1.00  0.00     0.094 A 
ATOM     10  C   UNL     1      37.728 -95.003  31.934  1.00  0.00     0.146 A 
ATOM     11  O   UNL     1      36.496 -95.044  31.437  1.00  0.00    -0.452 OA
ENDROOT
BRANCH   1  12
ATOM     12  C   UNL     1      34.809 -95.401  29.751  1.00  0.00     0.029 A 
ATOM     13  C   UNL     1      33.892 -96.258  30.375  1.00  0.00     0.062 A 
ATOM     14  C   UNL     1      32.545 -96.257  29.994  1.00  0.00     0.162 A 
ATOM     15  C   UNL     1      34.352 -94.512  28.766  1.00  0.00     0.062 A 
ATOM     16  C   UNL     1      32.093 -95.385  28.993  1.00  0.00     0.200 A 
ATOM     17  C   UNL     1      33.006 -94.497  28.378  1.00  0.00     0.162 A 
BRANCH  14  18
ATOM     18  O   UNL     1      31.642 -97.125  30.608  1.00  0.00    -0.504 OA
ATOM     19  H   UNL     1      31.866 -98.102  30.762  1.00  0.00     0.293 HD
ENDBRANCH  14  18
BRANCH  16  20
ATOM     20  O   UNL     1      30.739 -95.430  28.646  1.00  0.00    -0.502 OA
ATOM     21  H   UNL     1      30.261 -96.265  28.339  1.00  0.00     0.293 HD
ENDBRANCH  16  20
BRANCH  17  22
ATOM     22  O   UNL     1      32.624 -93.587  27.390  1.00  0.00    -0.504 OA
ATOM     23  H   UNL     1      31.724 -93.130  27.358  1.00  0.00     0.293 HD
ENDBRANCH  17  22
ENDBRANCH   1  12
BRANCH   2  24
ATOM     24  O   UNL     1      36.991 -96.243  28.034  1.00  0.00    -0.502 OA
ATOM     25  H   UNL     1      36.164 -95.953  27.526  1.00  0.00     0.293 HD
ENDBRANCH   2  24
BRANCH   6  26
ATOM     26  O   UNL     1      41.262 -95.633  30.938  1.00  0.00    -0.507 OA
ATOM     27  H   UNL     1      42.036 -94.991  30.816  1.00  0.00     0.293 HD
ENDBRANCH   6  26
BRANCH   8  28
ATOM     28  O   UNL     1      39.391 -94.146  35.128  1.00  0.00    -0.508 OA
ATOM     29  H   UNL     1      40.218 -94.415  35.649  1.00  0.00     0.293 HD
ENDBRANCH   8  28
TORSDOF 7
ENDMDL
MODEL 3
REMARK VINA RESULT:    -5.263     15.210     17.347
REMARK INTER + INTRA:          -6.708
REMARK INTER:                  -7.209
REMARK INTRA:                   0.501
REMARK UNBOUND:                -0.214
REMARK SMILES O=c1c(O)c(-c2cc(O)c(O)c(O)c2)oc2cc(O)cc(O)c12
REMARK SMILES IDX 5 1 3 2 2 3 1 4 23 5 21 6 20 7 18 8 17 9 16 10 15 11 6 12
REMARK SMILES IDX 7 13 8 14 14 15 10 16 12 17 9 18 11 20 13 22 4 24 22 26
REMARK SMILES IDX 19 28
REMARK H PARENT 9 19 11 21 13 23 4 25 22 27 19 29
REMARK Flexibility Score: inf
ROOT
ATOM      1  C   UNL     1      37.636 -77.512  34.400  1.00  0.00     0.180 A 
ATOM      2  C   UNL     1      37.979 -77.570  35.765  1.00  0.00     0.208 A 
ATOM      3  C   UNL     1      36.952 -77.662  36.718  1.00  0.00     0.238 A 
ATOM      4  O   UNL     1      37.247 -77.704  37.943  1.00  0.00    -0.285 OA
ATOM      5  C   UNL     1      35.609 -77.717  36.293  1.00  0.00     0.111 A 
ATOM      6  C   UNL     1      34.517 -77.814  37.190  1.00  0.00     0.134 A 
ATOM      7  C   UNL     1      33.209 -77.873  36.688  1.00  0.00     0.093 A 
ATOM      8  C   UNL     1      32.971 -77.835  35.312  1.00  0.00     0.123 A 
ATOM      9  C   UNL     1      34.045 -77.739  34.422  1.00  0.00     0.094 A 
ATOM     10  C   UNL     1      35.356 -77.678  34.902  1.00  0.00     0.146 A 
ATOM     11  O   UNL     1      36.359 -77.580  34.036  1.00  0.00    -0.452 OA
ENDROOT
BRANCH   1  12
ATOM     12  C   UNL     1      38.660 -77.394  33.337  1.00  0.00     0.029 A 
ATOM     13  C   UNL     1      40.017 -77.509  33.670  1.00  0.00     0.062 A 
ATOM     14  C   UNL     1      41.003 -77.421  32.680  1.00  0.00     0.162 A 
ATOM     15  C   UNL     1      38.299 -77.228  31.990  1.00  0.00     0.062 A 
ATOM     16  C   UNL     1      40.643 -77.232  31.338  1.00  0.00     0.200 A 
ATOM     17  C   UNL     1      39.275 -77.142  30.989  1.00  0.00     0.162 A 
BRANCH  14  18
ATOM     18  O   UNL     1      42.350 -77.520  33.023  1.00  0.00    -0.504 OA
ATOM     19  H   UNL     1      42.646 -77.945  33.895  1.00  0.00     0.293 HD
ENDBRANCH  14  18
BRANCH  16  20
ATOM     20  O   UNL     1      41.667 -77.144  30.391  1.00  0.00    -0.502 OA
ATOM     21  H   UNL     1      42.484 -76.560  30.494  1.00  0.00     0.293 HD
ENDBRANCH  16  20
BRANCH  17  22
ATOM     22  O   UNL     1      38.842 -76.975  29.672  1.00  0.00    -0.504 OA
ATOM     23  H   UNL     1      37.961 -77.317  29.318  1.00  0.00     0.293 HD
ENDBRANCH  17  22
ENDBRANCH   1  12
BRANCH   2  24
ATOM     24  O   UNL     1      39.319 -77.563  36.157  1.00  0.00    -0.502 OA
ATOM     25  H   UNL     1      39.611 -77.309  37.093  1.00  0.00     0.293 HD
ENDBRANCH   2  24
BRANCH   6  26
ATOM     26  O   UNL     1      34.721 -77.854  38.569  1.00  0.00    -0.507 OA
ATOM     27  H   UNL     1      35.422 -77.279  39.022  1.00  0.00     0.293 HD
ENDBRANCH   6  26
BRANCH   8  28
ATOM     28  O   UNL     1      31.662 -77.896  34.840  1.00  0.00    -0.508 OA
ATOM     29  H   UNL     1      31.019 -78.615  35.150  1.00  0.00     0.293 HD
ENDBRANCH   8  28
TORSDOF 7
ENDMDL
MODEL 4
REMARK VINA RESULT:    -5.172      9.061     10.964
REMARK INTER + INTRA:          -6.596
REMARK INTER:                  -6.399
REMARK INTRA:                  -0.196
REMARK UNBOUND:                -0.214
REMARK SMILES O=c1c(O)c(-c2cc(O)c(O)c(O)c2)oc2cc(O)cc(O)c12
REMARK SMILES IDX 5 1 3 2 2 3 1 4 23 5 21 6 20 7 18 8 17 9 16 10 15 11 6 12
REMARK SMILES IDX 7 13 8 14 14 15 10 16 12 17 9 18 11 20 13 22 4 24 22 26
REMARK SMILES IDX 19 28
REMARK H PARENT 9 19 11 21 13 23 4 25 22 27 19 29
REMARK Flexibility Score: inf
ROOT
ATOM      1  C   UNL     1      37.825 -95.559  31.769  1.00  0.00     0.180 A 
ATOM      2  C   UNL     1      38.543 -96.296  30.808  1.00  0.00     0.208 A 
ATOM      3  C   UNL     1      37.992 -96.457  29.527  1.00  0.00     0.238 A 
ATOM      4  O   UNL     1      38.621 -97.125  28.662  1.00  0.00    -0.285 OA
ATOM      5  C   UNL     1      36.750 -95.863  29.222  1.00  0.00     0.111 A 
ATOM      6  C   UNL     1      36.129 -95.974  27.954  1.00  0.00     0.134 A 
ATOM      7  C   UNL     1      34.896 -95.346  27.727  1.00  0.00     0.093 A 
ATOM      8  C   UNL     1      34.273 -94.612  28.738  1.00  0.00     0.123 A 
ATOM      9  C   UNL     1      34.881 -94.499  29.992  1.00  0.00     0.094 A 
ATOM     10  C   UNL     1      36.109 -95.119  30.239  1.00  0.00     0.146 A 
ATOM     11  O   UNL     1      36.663 -95.001  31.441  1.00  0.00    -0.452 OA
ENDROOT
BRANCH   1  12
ATOM     12  C   UNL     1      38.330 -95.361  33.147  1.00  0.00     0.029 A 
ATOM     13  C   UNL     1      37.650 -95.953  34.221  1.00  0.00     0.062 A 
ATOM     14  C   UNL     1      38.118 -95.798  35.532  1.00  0.00     0.162 A 
ATOM     15  C   UNL     1      39.509 -94.642  33.398  1.00  0.00     0.062 A 
ATOM     16  C   UNL     1      39.284 -95.060  35.784  1.00  0.00     0.200 A 
ATOM     17  C   UNL     1      39.990 -94.482  34.703  1.00  0.00     0.162 A 
BRANCH  14  18
ATOM     18  O   UNL     1      37.428 -96.376  36.596  1.00  0.00    -0.504 OA
ATOM     19  H   UNL     1      36.699 -95.875  37.091  1.00  0.00     0.293 HD
ENDBRANCH  14  18
BRANCH  16  20
ATOM     20  O   UNL     1      39.704 -94.930  37.111  1.00  0.00    -0.502 OA
ATOM     21  H   UNL     1      40.041 -94.068  37.515  1.00  0.00     0.293 HD
ENDBRANCH  16  20
BRANCH  17  22
ATOM     22  O   UNL     1      41.169 -93.752  34.876  1.00  0.00    -0.504 OA
ATOM     23  H   UNL     1      41.666 -93.679  35.751  1.00  0.00     0.293 HD
ENDBRANCH  17  22
ENDBRANCH   1  12
BRANCH   2  24
ATOM     24  O   UNL     1      39.794 -96.833  31.120  1.00  0.00    -0.502 OA
ATOM     25  H   UNL     1      40.034 -97.799  30.930  1.00  0.00     0.293 HD
ENDBRANCH   2  24
BRANCH   6  26
ATOM     26  O   UNL     1      36.726 -96.700  26.923  1.00  0.00    -0.507 OA
ATOM     27  H   UNL     1      37.374 -96.270  26.273  1.00  0.00     0.293 HD
ENDBRANCH   6  26
BRANCH   8  28
ATOM     28  O   UNL     1      33.049 -93.997  28.485  1.00  0.00    -0.508 OA
ATOM     29  H   UNL     1      32.351 -94.428  27.890  1.00  0.00     0.293 HD
ENDBRANCH   8  28
TORSDOF 7
ENDMDL
MODEL 5
REMARK VINA RESULT:    -5.153      9.000     11.571
REMARK INTER + INTRA:          -6.572
REMARK INTER:                  -6.865
REMARK INTRA:                   0.293
REMARK UNBOUND:                -0.214
REMARK SMILES O=c1c(O)c(-c2cc(O)c(O)c(O)c2)oc2cc(O)cc(O)c12
REMARK SMILES IDX 5 1 3 2 2 3 1 4 23 5 21 6 20 7 18 8 17 9 16 10 15 11 6 12
REMARK SMILES IDX 7 13 8 14 14 15 10 16 12 17 9 18 11 20 13 22 4 24 22 26
REMARK SMILES IDX 19 28
REMARK H PARENT 9 19 11 21 13 23 4 25 22 27 19 29
REMARK Flexibility Score: inf
ROOT
ATOM      1  C   UNL     1      40.634 -95.212  35.727  1.00  0.00     0.180 A 
ATOM      2  C   UNL     1      41.756 -95.383  34.895  1.00  0.00     0.208 A 
ATOM      3  C   UNL     1      41.570 -95.410  33.504  1.00  0.00     0.238 A 
ATOM      4  O   UNL     1      42.567 -95.574  32.749  1.00  0.00    -0.285 OA
ATOM      5  C   UNL     1      40.276 -95.244  32.970  1.00  0.00     0.111 A 
ATOM      6  C   UNL     1      40.005 -95.255  31.580  1.00  0.00     0.134 A 
ATOM      7  C   UNL     1      38.691 -95.073  31.127  1.00  0.00     0.093 A 
ATOM      8  C   UNL     1      37.644 -94.883  32.032  1.00  0.00     0.123 A 
ATOM      9  C   UNL     1      37.906 -94.872  33.406  1.00  0.00     0.094 A 
ATOM     10  C   UNL     1      39.209 -95.052  33.878  1.00  0.00     0.146 A 
ATOM     11  O   UNL     1      39.430 -95.044  35.188  1.00  0.00    -0.452 OA
ENDROOT
BRANCH   1  12
ATOM     12  C   UNL     1      40.745 -95.192  37.204  1.00  0.00     0.029 A 
ATOM     13  C   UNL     1      39.723 -94.609  37.965  1.00  0.00     0.062 A 
ATOM     14  C   UNL     1      39.795 -94.595  39.363  1.00  0.00     0.162 A 
ATOM     15  C   UNL     1      41.826 -95.799  37.864  1.00  0.00     0.062 A 
ATOM     16  C   UNL     1      40.886 -95.180  40.021  1.00  0.00     0.200 A 
ATOM     17  C   UNL     1      41.909 -95.796  39.262  1.00  0.00     0.162 A 
BRANCH  14  18
ATOM     18  O   UNL     1      38.782 -93.998  40.111  1.00  0.00    -0.504 OA
ATOM     19  H   UNL     1      38.522 -93.027  39.974  1.00  0.00     0.293 HD
ENDBRANCH  14  18
BRANCH  16  20
ATOM     20  O   UNL     1      40.913 -95.133  41.417  1.00  0.00    -0.502 OA
ATOM     21  H   UNL     1      40.277 -94.583  41.977  1.00  0.00     0.293 HD
ENDBRANCH  16  20
BRANCH  17  22
ATOM     22  O   UNL     1      43.014 -96.417  39.848  1.00  0.00    -0.504 OA
ATOM     23  H   UNL     1      43.296 -96.282  40.808  1.00  0.00     0.293 HD
ENDBRANCH  17  22
ENDBRANCH   1  12
BRANCH   2  24
ATOM     24  O   UNL     1      43.034 -95.497  35.447  1.00  0.00    -0.502 OA
ATOM     25  H   UNL     1      43.834 -95.805  34.908  1.00  0.00     0.293 HD
ENDBRANCH   2  24
BRANCH   6  26
ATOM     26  O   UNL     1      41.028 -95.441  30.650  1.00  0.00    -0.507 OA
ATOM     27  H   UNL     1      42.005 -95.347  30.903  1.00  0.00     0.293 HD
ENDBRANCH   6  26
BRANCH   8  28
ATOM     28  O   UNL     1      36.348 -94.704  31.556  1.00  0.00    -0.508 OA
ATOM     29  H   UNL     1      35.943 -93.781  31.453  1.00  0.00     0.293 HD
ENDBRANCH   8  28
TORSDOF 7
ENDMDL
MODEL 6
REMARK VINA RESULT:    -5.125      3.665      6.204
REMARK INTER + INTRA:          -6.538
REMARK INTER:                  -6.259
REMARK INTRA:                  -0.279
REMARK UNBOUND:                -0.214
REMARK SMILES O=c1c(O)c(-c2cc(O)c(O)c(O)c2)oc2cc(O)cc(O)c12
REMARK SMILES IDX 5 1 3 2 2 3 1 4 23 5 21 6 20 7 18 8 17 9 16 10 15 11 6 12
REMARK SMILES IDX 7 13 8 14 14 15 10 16 12 17 9 18 11 20 13 22 4 24 22 26
REMARK SMILES IDX 19 28
REMARK H PARENT 9 19 11 21 13 23 4 25 22 27 19 29
REMARK Flexibility Score: inf
ROOT
ATOM      1  C   UNL     1      28.791 -95.798  38.464  1.00  0.00     0.180 A 
ATOM      2  C   UNL     1      28.017 -95.983  37.303  1.00  0.00     0.208 A 
ATOM      3  C   UNL     1      26.670 -96.356  37.439  1.00  0.00     0.238 A 
ATOM      4  O   UNL     1      25.970 -96.536  36.405  1.00  0.00    -0.285 OA
ATOM      5  C   UNL     1      26.118 -96.517  38.726  1.00  0.00     0.111 A 
ATOM      6  C   UNL     1      24.769 -96.887  38.949  1.00  0.00     0.134 A 
ATOM      7  C   UNL     1      24.293 -97.018  40.261  1.00  0.00     0.093 A 
ATOM      8  C   UNL     1      25.133 -96.786  41.352  1.00  0.00     0.123 A 
ATOM      9  C   UNL     1      26.467 -96.420  41.138  1.00  0.00     0.094 A 
ATOM     10  C   UNL     1      26.961 -96.287  39.837  1.00  0.00     0.146 A 
ATOM     11  O   UNL     1      28.233 -95.944  39.661  1.00  0.00    -0.452 OA
ENDROOT
BRANCH   1  12
ATOM     12  C   UNL     1      30.223 -95.423  38.402  1.00  0.00     0.029 A 
ATOM     13  C   UNL     1      30.578 -94.107  38.074  1.00  0.00     0.062 A 
ATOM     14  C   UNL     1      31.923 -93.723  38.028  1.00  0.00     0.162 A 
ATOM     15  C   UNL     1      31.234 -96.343  38.723  1.00  0.00     0.062 A 
ATOM     16  C   UNL     1      32.933 -94.648  38.326  1.00  0.00     0.200 A 
ATOM     17  C   UNL     1      32.584 -95.971  38.685  1.00  0.00     0.162 A 
BRANCH  14  18
ATOM     18  O   UNL     1      32.267 -92.416  37.686  1.00  0.00    -0.504 OA
ATOM     19  H   UNL     1      33.140 -92.000  37.991  1.00  0.00     0.293 HD
ENDBRANCH  14  18
BRANCH  16  20
ATOM     20  O   UNL     1      34.261 -94.214  38.259  1.00  0.00    -0.502 OA
ATOM     21  H   UNL     1      35.060 -94.828  38.322  1.00  0.00     0.293 HD
ENDBRANCH  16  20
BRANCH  17  22
ATOM     22  O   UNL     1      33.534 -96.940  39.015  1.00  0.00    -0.504 OA
ATOM     23  H   UNL     1      33.591 -97.848  38.579  1.00  0.00     0.293 HD
ENDBRANCH  17  22
ENDBRANCH   1  12
BRANCH   2  24
ATOM     24  O   UNL     1      28.575 -95.770  36.040  1.00  0.00    -0.502 OA
ATOM     25  H   UNL     1      29.567 -95.622  35.902  1.00  0.00     0.293 HD
ENDBRANCH   2  24
BRANCH   6  26
ATOM     26  O   UNL     1      23.904 -97.125  37.881  1.00  0.00    -0.507 OA
ATOM     27  H   UNL     1      23.889 -98.013  37.393  1.00  0.00     0.293 HD
ENDBRANCH   6  26
BRANCH   8  28
ATOM     28  O   UNL     1      24.635 -96.922  42.645  1.00  0.00    -0.508 OA
ATOM     29  H   UNL     1      24.715 -96.175  43.325  1.00  0.00     0.293 HD
ENDBRANCH   8  28
TORSDOF 7
ENDMDL
MODEL 7
REMARK VINA RESULT:    -5.040      9.194     10.658
REMARK INTER + INTRA:          -6.433
REMARK INTER:                  -6.230
REMARK INTRA:                  -0.203
REMARK UNBOUND:                -0.214
REMARK SMILES O=c1c(O)c(-c2cc(O)c(O)c(O)c2)oc2cc(O)cc(O)c12
REMARK SMILES IDX 5 1 3 2 2 3 1 4 23 5 21 6 20 7 18 8 17 9 16 10 15 11 6 12
REMARK SMILES IDX 7 13 8 14 14 15 10 16 12 17 9 18 11 20 13 22 4 24 22 26
REMARK SMILES IDX 19 28
REMARK H PARENT 9 19 11 21 13 23 4 25 22 27 19 29
REMARK Flexibility Score: inf
ROOT
ATOM      1  C   UNL     1      35.453 -95.648  29.873  1.00  0.00     0.180 A 
ATOM      2  C   UNL     1      35.276 -95.329  28.513  1.00  0.00     0.208 A 
ATOM      3  C   UNL     1      33.997 -95.453  27.949  1.00  0.00     0.238 A 
ATOM      4  O   UNL     1      33.829 -95.181  26.729  1.00  0.00    -0.285 OA
ATOM      5  C   UNL     1      32.917 -95.869  28.754  1.00  0.00     0.111 A 
ATOM      6  C   UNL     1      31.596 -96.014  28.263  1.00  0.00     0.134 A 
ATOM      7  C   UNL     1      30.574 -96.425  29.130  1.00  0.00     0.093 A 
ATOM      8  C   UNL     1      30.843 -96.692  30.474  1.00  0.00     0.123 A 
ATOM      9  C   UNL     1      32.146 -96.551  30.965  1.00  0.00     0.094 A 
ATOM     10  C   UNL     1      33.179 -96.145  30.116  1.00  0.00     0.146 A 
ATOM     11  O   UNL     1      34.409 -96.024  30.605  1.00  0.00    -0.452 OA
ENDROOT
BRANCH   1  12
ATOM     12  C   UNL     1      36.775 -95.562  30.536  1.00  0.00     0.029 A 
ATOM     13  C   UNL     1      36.942 -94.704  31.632  1.00  0.00     0.062 A 
ATOM     14  C   UNL     1      38.176 -94.619  32.287  1.00  0.00     0.162 A 
ATOM     15  C   UNL     1      37.851 -96.366  30.127  1.00  0.00     0.062 A 
ATOM     16  C   UNL     1      39.258 -95.406  31.864  1.00  0.00     0.200 A 
ATOM     17  C   UNL     1      39.090 -96.294  30.776  1.00  0.00     0.162 A 
BRANCH  14  18
ATOM     18  O   UNL     1      38.339 -93.752  33.366  1.00  0.00    -0.504 OA
ATOM     19  H   UNL     1      38.902 -94.004  34.170  1.00  0.00     0.293 HD
ENDBRANCH  14  18
BRANCH  16  20
ATOM     20  O   UNL     1      40.470 -95.277  32.549  1.00  0.00    -0.502 OA
ATOM     21  H   UNL     1      40.545 -95.168  33.550  1.00  0.00     0.293 HD
ENDBRANCH  16  20
BRANCH  17  22
ATOM     22  O   UNL     1      40.115 -97.123  30.314  1.00  0.00    -0.504 OA
ATOM     23  H   UNL     1      40.077 -97.640  29.448  1.00  0.00     0.293 HD
ENDBRANCH  17  22
ENDBRANCH   1  12
BRANCH   2  24
ATOM     24  O   UNL     1      36.353 -94.873  27.749  1.00  0.00    -0.502 OA
ATOM     25  H   UNL     1      36.804 -93.983  27.923  1.00  0.00     0.293 HD
ENDBRANCH   2  24
BRANCH   6  26
ATOM     26  O   UNL     1      31.294 -95.754  26.926  1.00  0.00    -0.507 OA
ATOM     27  H   UNL     1      32.006 -95.471  26.263  1.00  0.00     0.293 HD
ENDBRANCH   6  26
BRANCH   8  28
ATOM     28  O   UNL     1      29.810 -97.098  31.315  1.00  0.00    -0.508 OA
ATOM     29  H   UNL     1      29.013 -97.617  30.964  1.00  0.00     0.293 HD
ENDBRANCH   8  28
TORSDOF 7
ENDMDL
MODEL 8
REMARK VINA RESULT:    -5.014     10.363     11.980
REMARK INTER + INTRA:          -6.401
REMARK INTER:                  -6.051
REMARK INTRA:                  -0.349
REMARK UNBOUND:                -0.214
REMARK SMILES O=c1c(O)c(-c2cc(O)c(O)c(O)c2)oc2cc(O)cc(O)c12
REMARK SMILES IDX 5 1 3 2 2 3 1 4 23 5 21 6 20 7 18 8 17 9 16 10 15 11 6 12
REMARK SMILES IDX 7 13 8 14 14 15 10 16 12 17 9 18 11 20 13 22 4 24 22 26
REMARK SMILES IDX 19 28
REMARK H PARENT 9 19 11 21 13 23 4 25 22 27 19 29
REMARK Flexibility Score: inf
ROOT
ATOM      1  C   UNL     1      39.750 -95.113  31.425  1.00  0.00     0.180 A 
ATOM      2  C   UNL     1      38.424 -95.368  31.821  1.00  0.00     0.208 A 
ATOM      3  C   UNL     1      38.140 -95.506  33.189  1.00  0.00     0.238 A 
ATOM      4  O   UNL     1      36.957 -95.746  33.555  1.00  0.00    -0.285 OA
ATOM      5  C   UNL     1      39.176 -95.365  34.134  1.00  0.00     0.111 A 
ATOM      6  C   UNL     1      38.973 -95.485  35.531  1.00  0.00     0.134 A 
ATOM      7  C   UNL     1      40.055 -95.322  36.407  1.00  0.00     0.093 A 
ATOM      8  C   UNL     1      41.333 -95.043  35.918  1.00  0.00     0.123 A 
ATOM      9  C   UNL     1      41.541 -94.924  34.540  1.00  0.00     0.094 A 
ATOM     10  C   UNL     1      40.475 -95.084  33.650  1.00  0.00     0.146 A 
ATOM     11  O   UNL     1      40.700 -94.972  32.345  1.00  0.00    -0.452 OA
ENDROOT
BRANCH   1  12
ATOM     12  C   UNL     1      40.132 -94.975  30.001  1.00  0.00     0.029 A 
ATOM     13  C   UNL     1      40.341 -93.697  29.464  1.00  0.00     0.062 A 
ATOM     14  C   UNL     1      40.722 -93.540  28.126  1.00  0.00     0.162 A 
ATOM     15  C   UNL     1      40.348 -96.100  29.189  1.00  0.00     0.062 A 
ATOM     16  C   UNL     1      40.915 -94.663  27.309  1.00  0.00     0.200 A 
ATOM     17  C   UNL     1      40.733 -95.958  27.850  1.00  0.00     0.162 A 
BRANCH  14  18
ATOM     18  O   UNL     1      40.912 -92.264  27.596  1.00  0.00    -0.504 OA
ATOM     19  H   UNL     1      41.791 -91.992  27.172  1.00  0.00     0.293 HD
ENDBRANCH  14  18
BRANCH  16  20
ATOM     20  O   UNL     1      41.288 -94.451  25.979  1.00  0.00    -0.502 OA
ATOM     21  H   UNL     1      41.068 -93.615  25.457  1.00  0.00     0.293 HD
ENDBRANCH  16  20
BRANCH  17  22
ATOM     22  O   UNL     1      40.928 -97.122  27.103  1.00  0.00    -0.504 OA
ATOM     23  H   UNL     1      41.037 -98.041  27.505  1.00  0.00     0.293 HD
ENDBRANCH  17  22
ENDBRANCH   1  12
BRANCH   2  24
ATOM     24  O   UNL     1      37.406 -95.455  30.868  1.00  0.00    -0.502 OA
ATOM     25  H   UNL     1      37.274 -94.755  30.148  1.00  0.00     0.293 HD
ENDBRANCH   2  24
BRANCH   6  26
ATOM     26  O   UNL     1      37.708 -95.762  36.051  1.00  0.00    -0.507 OA
ATOM     27  H   UNL     1      36.912 -95.945  35.451  1.00  0.00     0.293 HD
ENDBRANCH   6  26
BRANCH   8  28
ATOM     28  O   UNL     1      42.391 -94.885  36.810  1.00  0.00    -0.508 OA
ATOM     29  H   UNL     1      43.355 -94.982  36.513  1.00  0.00     0.293 HD
ENDBRANCH   8  28
TORSDOF 7
ENDMDL
MODEL 9
REMARK VINA RESULT:    -4.953     15.125     16.393
REMARK INTER + INTRA:          -6.326
REMARK INTER:                  -6.552
REMARK INTRA:                   0.226
REMARK UNBOUND:                -0.214
REMARK SMILES O=c1c(O)c(-c2cc(O)c(O)c(O)c2)oc2cc(O)cc(O)c12
REMARK SMILES IDX 5 1 3 2 2 3 1 4 23 5 21 6 20 7 18 8 17 9 16 10 15 11 6 12
REMARK SMILES IDX 7 13 8 14 14 15 10 16 12 17 9 18 11 20 13 22 4 24 22 26
REMARK SMILES IDX 19 28
REMARK H PARENT 9 19 11 21 13 23 4 25 22 27 19 29
REMARK Flexibility Score: inf
ROOT
ATOM      1  C   UNL     1      37.024 -78.006  37.160  1.00  0.00     0.180 A 
ATOM      2  C   UNL     1      38.215 -77.456  36.650  1.00  0.00     0.208 A 
ATOM      3  C   UNL     1      39.379 -77.516  37.433  1.00  0.00     0.238 A 
ATOM      4  O   UNL     1      40.449 -77.015  36.991  1.00  0.00    -0.285 OA
ATOM      5  C   UNL     1      39.338 -78.140  38.696  1.00  0.00     0.111 A 
ATOM      6  C   UNL     1      40.467 -78.246  39.545  1.00  0.00     0.134 A 
ATOM      7  C   UNL     1      40.347 -78.891  40.784  1.00  0.00     0.093 A 
ATOM      8  C   UNL     1      39.126 -79.431  41.192  1.00  0.00     0.123 A 
ATOM      9  C   UNL     1      38.007 -79.330  40.358  1.00  0.00     0.094 A 
ATOM     10  C   UNL     1      38.105 -78.689  39.120  1.00  0.00     0.146 A 
ATOM     11  O   UNL     1      37.026 -78.601  38.349  1.00  0.00    -0.452 OA
ENDROOT
BRANCH   1  12
ATOM     12  C   UNL     1      35.751 -77.965  36.403  1.00  0.00     0.029 A 
ATOM     13  C   UNL     1      34.541 -77.828  37.097  1.00  0.00     0.062 A 
ATOM     14  C   UNL     1      33.326 -77.767  36.404  1.00  0.00     0.162 A 
ATOM     15  C   UNL     1      35.734 -78.001  35.000  1.00  0.00     0.062 A 
ATOM     16  C   UNL     1      33.308 -77.826  35.003  1.00  0.00     0.200 A 
ATOM     17  C   UNL     1      34.527 -77.936  34.294  1.00  0.00     0.162 A 
BRANCH  14  18
ATOM     18  O   UNL     1      32.126 -77.647  37.102  1.00  0.00    -0.504 OA
ATOM     19  H   UNL     1      32.044 -77.051  37.918  1.00  0.00     0.293 HD
ENDBRANCH  14  18
BRANCH  16  20
ATOM     20  O   UNL     1      32.068 -77.768  34.360  1.00  0.00    -0.502 OA
ATOM     21  H   UNL     1      31.396 -78.522  34.358  1.00  0.00     0.293 HD
ENDBRANCH  16  20
BRANCH  17  22
ATOM     22  O   UNL     1      34.587 -77.979  32.899  1.00  0.00    -0.504 OA
ATOM     23  H   UNL     1      34.092 -78.651  32.331  1.00  0.00     0.293 HD
ENDBRANCH  17  22
ENDBRANCH   1  12
BRANCH   2  24
ATOM     24  O   UNL     1      38.241 -76.885  35.375  1.00  0.00    -0.502 OA
ATOM     25  H   UNL     1      37.628 -77.193  34.630  1.00  0.00     0.293 HD
ENDBRANCH   2  24
BRANCH   6  26
ATOM     26  O   UNL     1      41.702 -77.718  39.167  1.00  0.00    -0.507 OA
ATOM     27  H   UNL     1      42.121 -77.930  38.269  1.00  0.00     0.293 HD
ENDBRANCH   6  26
BRANCH   8  28
ATOM     28  O   UNL     1      39.034 -80.068  42.427  1.00  0.00    -0.508 OA
ATOM     29  H   UNL     1      38.419 -79.725  43.156  1.00  0.00     0.293 HD
ENDBRANCH   8  28
TORSDOF 7
ENDMDL
