MODEL 1
REMARK VINA RESULT:    20.404      0.000      0.000
REMARK INTER + INTRA:          29.532
REMARK INTER:                  27.561
REMARK INTRA:                   1.972
REMARK UNBOUND:                 1.972
REMARK SMILES COc1ccc(-c2cc(=O)c3c(OC)c(OC)c(OC)c(OC)c3o2)cc1
REMARK SMILES IDX 7 1 8 2 9 3 10 4 11 5 24 6 25 7 21 8 18 9 15 10 12 11 6 12
REMARK SMILES IDX 3 13 4 14 27 15 5 16 26 17 2 18 1 19 22 20 23 21 13 22 14 23
REMARK SMILES IDX 19 24 20 25 16 26 17 27
REMARK H PARENT
REMARK Flexibility Score: inf
ROOT
ATOM      1  C   UNL     1       0.974 -13.635 -19.086  1.00  0.00     0.138 A 
ATOM      2  C   UNL     1      -0.116 -13.688 -19.967  1.00  0.00     0.100 A 
ATOM      3  C   UNL     1      -0.747 -14.908 -20.200  1.00  0.00     0.197 A 
ATOM      4  O   UNL     1      -1.727 -14.937 -20.989  1.00  0.00    -0.289 OA
ATOM      5  C   UNL     1      -0.278 -16.079 -19.557  1.00  0.00     0.115 A 
ATOM      6  C   UNL     1       0.841 -15.946 -18.704  1.00  0.00     0.188 A 
ATOM      7  O   UNL     1       1.401 -14.754 -18.510  1.00  0.00    -0.452 OA
ATOM      8  C   UNL     1       1.379 -17.053 -18.047  1.00  0.00     0.209 A 
ATOM      9  C   UNL     1       0.830 -18.332 -18.276  1.00  0.00     0.211 A 
ATOM     10  C   UNL     1      -0.338 -18.473 -19.061  1.00  0.00     0.208 A 
ATOM     11  C   UNL     1      -0.895 -17.344 -19.714  1.00  0.00     0.179 A 
ENDROOT
BRANCH   1  12
ATOM     12  C   UNL     1       1.676 -12.363 -18.781  1.00  0.00     0.018 A 
ATOM     13  C   UNL     1       3.052  -9.979 -18.140  1.00  0.00     0.118 A 
ATOM     14  C   UNL     1       3.720 -11.209 -18.135  1.00  0.00     0.047 A 
ATOM     15  C   UNL     1       1.683  -9.944 -18.466  1.00  0.00     0.047 A 
ATOM     16  C   UNL     1       3.041 -12.390 -18.446  1.00  0.00     0.016 A 
ATOM     17  C   UNL     1       1.002 -11.126 -18.781  1.00  0.00     0.016 A 
BRANCH  13  18
ATOM     18  O   UNL     1       3.779  -8.823 -17.813  1.00  0.00    -0.497 OA
ATOM     19  C   UNL     1       3.565  -8.046 -16.639  1.00  0.00     0.278 C 
ENDBRANCH  13  18
ENDBRANCH   1  12
BRANCH   8  20
ATOM     20  O   UNL     1       2.473 -16.818 -17.191  1.00  0.00    -0.490 OA
ATOM     21  C   UNL     1       2.794 -15.585 -16.556  1.00  0.00     0.278 C 
ENDBRANCH   8  20
BRANCH  11  22
ATOM     22  O   UNL     1      -2.055 -17.422 -20.511  1.00  0.00    -0.492 OA
ATOM     23  C   UNL     1      -2.116 -17.548 -21.932  1.00  0.00     0.278 C 
ENDBRANCH  11  22
BRANCH   9  24
ATOM     24  O   UNL     1       1.468 -19.461 -17.763  1.00  0.00    -0.490 OA
ATOM     25  C   UNL     1       1.086 -20.034 -16.515  1.00  0.00     0.279 C 
ENDBRANCH   9  24
BRANCH  10  26
ATOM     26  O   UNL     1      -0.939 -19.730 -19.216  1.00  0.00    -0.490 OA
ATOM     27  C   UNL     1      -1.657 -20.124 -20.382  1.00  0.00     0.278 C 
ENDBRANCH  10  26
TORSDOF 6
ENDMDL
MODEL 2
REMARK VINA RESULT:    21.248      2.546      7.686
REMARK INTER + INTRA:          30.672
REMARK INTER:                  30.596
REMARK INTRA:                   0.077
REMARK UNBOUND:                 1.972
REMARK SMILES COc1ccc(-c2cc(=O)c3c(OC)c(OC)c(OC)c(OC)c3o2)cc1
REMARK SMILES IDX 7 1 8 2 9 3 10 4 11 5 24 6 25 7 21 8 18 9 15 10 12 11 6 12
REMARK SMILES IDX 3 13 4 14 27 15 5 16 26 17 2 18 1 19 22 20 23 21 13 22 14 23
REMARK SMILES IDX 19 24 20 25 16 26 17 27
REMARK H PARENT
REMARK Flexibility Score: inf
ROOT
ATOM      1  C   UNL     1       1.608 -14.430 -18.437  1.00  0.00     0.138 A 
ATOM      2  C   UNL     1       1.192 -13.301 -19.156  1.00  0.00     0.100 A 
ATOM      3  C   UNL     1       2.086 -12.250 -19.355  1.00  0.00     0.197 A 
ATOM      4  O   UNL     1       1.698 -11.246 -20.008  1.00  0.00    -0.289 OA
ATOM      5  C   UNL     1       3.396 -12.329 -18.824  1.00  0.00     0.115 A 
ATOM      6  C   UNL     1       3.728 -13.489 -18.090  1.00  0.00     0.188 A 
ATOM      7  O   UNL     1       2.839 -14.467 -17.936  1.00  0.00    -0.452 OA
ATOM      8  C   UNL     1       4.991 -13.638 -17.515  1.00  0.00     0.209 A 
ATOM      9  C   UNL     1       5.932 -12.593 -17.625  1.00  0.00     0.211 A 
ATOM     10  C   UNL     1       5.647 -11.462 -18.422  1.00  0.00     0.208 A 
ATOM     11  C   UNL     1       4.369 -11.320 -19.021  1.00  0.00     0.179 A 
ENDROOT
BRANCH   1  12
ATOM     12  C   UNL     1       0.709 -15.589 -18.208  1.00  0.00     0.018 A 
ATOM     13  C   UNL     1      -0.955 -17.841 -17.823  1.00  0.00     0.118 A 
ATOM     14  C   UNL     1       0.435 -17.987 -17.881  1.00  0.00     0.047 A 
ATOM     15  C   UNL     1      -1.516 -16.557 -17.961  1.00  0.00     0.047 A 
ATOM     16  C   UNL     1       1.261 -16.876 -18.077  1.00  0.00     0.016 A 
ATOM     17  C   UNL     1      -0.691 -15.443 -18.155  1.00  0.00     0.016 A 
BRANCH  13  18
ATOM     18  O   UNL     1      -1.740 -18.989 -17.630  1.00  0.00    -0.497 OA
ATOM     19  C   UNL     1      -1.415 -20.041 -16.726  1.00  0.00     0.278 C 
ENDBRANCH  13  18
ENDBRANCH   1  12
BRANCH   8  20
ATOM     20  O   UNL     1       5.243 -14.843 -16.830  1.00  0.00    -0.490 OA
ATOM     21  C   UNL     1       6.039 -14.995 -15.660  1.00  0.00     0.278 C 
ENDBRANCH   8  20
BRANCH  11  22
ATOM     22  O   UNL     1       4.024 -10.213 -19.824  1.00  0.00    -0.492 OA
ATOM     23  C   UNL     1       4.330 -10.023 -21.205  1.00  0.00     0.278 C 
ENDBRANCH  11  22
BRANCH   9  24
ATOM     24  O   UNL     1       7.127 -12.661 -16.908  1.00  0.00    -0.490 OA
ATOM     25  C   UNL     1       7.391 -11.792 -15.809  1.00  0.00     0.279 C 
ENDBRANCH   9  24
BRANCH  10  26
ATOM     26  O   UNL     1       6.615 -10.464 -18.608  1.00  0.00    -0.490 OA
ATOM     27  C   UNL     1       7.576 -10.481 -19.660  1.00  0.00     0.278 C 
ENDBRANCH  10  26
TORSDOF 6
ENDMDL
MODEL 3
REMARK VINA RESULT:    21.952      1.985      2.498
REMARK INTER + INTRA:          31.624
REMARK INTER:                  28.203
REMARK INTRA:                   3.421
REMARK UNBOUND:                 1.972
REMARK SMILES COc1ccc(-c2cc(=O)c3c(OC)c(OC)c(OC)c(OC)c3o2)cc1
REMARK SMILES IDX 7 1 8 2 9 3 10 4 11 5 24 6 25 7 21 8 18 9 15 10 12 11 6 12
REMARK SMILES IDX 3 13 4 14 27 15 5 16 26 17 2 18 1 19 22 20 23 21 13 22 14 23
REMARK SMILES IDX 19 24 20 25 16 26 17 27
REMARK H PARENT
REMARK Flexibility Score: inf
ROOT
ATOM      1  C   UNL     1       2.743 -13.524 -19.090  1.00  0.00     0.138 A 
ATOM      2  C   UNL     1       1.592 -13.009 -19.702  1.00  0.00     0.100 A 
ATOM      3  C   UNL     1       0.439 -13.790 -19.757  1.00  0.00     0.197 A 
ATOM      4  O   UNL     1      -0.587 -13.310 -20.306  1.00  0.00    -0.289 OA
ATOM      5  C   UNL     1       0.444 -15.093 -19.205  1.00  0.00     0.115 A 
ATOM      6  C   UNL     1       1.650 -15.548 -18.628  1.00  0.00     0.188 A 
ATOM      7  O   UNL     1       2.721 -14.758 -18.595  1.00  0.00    -0.452 OA
ATOM      8  C   UNL     1       1.747 -16.828 -18.079  1.00  0.00     0.209 A 
ATOM      9  C   UNL     1       0.638 -17.698 -18.146  1.00  0.00     0.211 A 
ATOM     10  C   UNL     1      -0.599 -17.233 -18.646  1.00  0.00     0.208 A 
ATOM     11  C   UNL     1      -0.701 -15.926 -19.187  1.00  0.00     0.179 A 
ENDROOT
BRANCH   1  12
ATOM     12  C   UNL     1       3.996 -12.736 -18.983  1.00  0.00     0.018 A 
ATOM     13  C   UNL     1       6.377 -11.241 -18.698  1.00  0.00     0.118 A 
ATOM     14  C   UNL     1       6.148 -12.370 -17.904  1.00  0.00     0.047 A 
ATOM     15  C   UNL     1       5.404 -10.856 -19.639  1.00  0.00     0.047 A 
ATOM     16  C   UNL     1       4.969 -13.108 -18.039  1.00  0.00     0.016 A 
ATOM     17  C   UNL     1       4.224 -11.595 -19.778  1.00  0.00     0.016 A 
BRANCH  13  18
ATOM     18  O   UNL     1       7.576 -10.530 -18.519  1.00  0.00    -0.497 OA
ATOM     19  C   UNL     1       8.579 -10.384 -19.519  1.00  0.00     0.278 C 
ENDBRANCH  13  18
ENDBRANCH   1  12
BRANCH   8  20
ATOM     20  O   UNL     1       2.979 -17.181 -17.497  1.00  0.00    -0.490 OA
ATOM     21  C   UNL     1       3.422 -18.502 -17.202  1.00  0.00     0.278 C 
ENDBRANCH   8  20
BRANCH  11  22
ATOM     22  O   UNL     1      -1.907 -15.408 -19.702  1.00  0.00    -0.492 OA
ATOM     23  C   UNL     1      -2.123 -14.862 -21.003  1.00  0.00     0.278 C 
ENDBRANCH  11  22
BRANCH   9  24
ATOM     24  O   UNL     1       0.781 -19.031 -17.760  1.00  0.00    -0.490 OA
ATOM     25  C   UNL     1       0.392 -19.480 -16.464  1.00  0.00     0.279 C 
ENDBRANCH   9  24
BRANCH  10  26
ATOM     26  O   UNL     1      -1.727 -18.067 -18.630  1.00  0.00    -0.490 OA
ATOM     27  C   UNL     1      -1.659 -19.490 -18.670  1.00  0.00     0.278 C 
ENDBRANCH  10  26
TORSDOF 6
ENDMDL
