MODEL 1
REMARK VINA RESULT:    -0.492      0.000      0.000
REMARK INTER + INTRA:          -1.520
REMARK INTER:                  -0.751
REMARK INTRA:                  -0.769
REMARK UNBOUND:                -0.769
REMARK SMILES OC[C@H]1O[C@H](O[C@]2(CO)O[C@H](CO)[C@H](O)[C@@H]2O)[C@@H](O)[C@@H](O)[C@@H]1O
REMARK SMILES IDX 6 1 5 2 3 3 22 4 4 5 20 6 18 7 2 8 1 9 23 11 21 13 19 15
REMARK SMILES IDX 7 17 16 18 10 19 14 20 11 21 8 22 9 23 17 25 15 27 12 29
REMARK SMILES IDX 13 30
REMARK H PARENT 1 10 23 12 21 14 19 16 9 24 17 26 15 28 13 31
REMARK Flexibility Score: inf
ROOT
ATOM      1  O   UNL     1     -25.219   5.191 -15.842  1.00  0.00    -0.313 OA
ENDROOT
BRANCH   1   2
ATOM      2  C   UNL     1     -25.014   5.472 -14.461  1.00  0.00     0.285 C 
ATOM      3  C   UNL     1     -23.624   7.345 -14.724  1.00  0.00     0.178 C 
ATOM      4  C   UNL     1     -24.485   8.311 -13.851  1.00  0.00     0.177 C 
ATOM      5  O   UNL     1     -23.713   6.010 -14.254  1.00  0.00    -0.341 OA
ATOM      6  C   UNL     1     -25.596   7.550 -13.094  1.00  0.00     0.179 C 
ATOM      7  C   UNL     1     -26.150   6.419 -13.972  1.00  0.00     0.202 C 
BRANCH   3   8
ATOM      8  C   UNL     1     -22.152   7.772 -14.733  1.00  0.00     0.191 C 
BRANCH   8   9
ATOM      9  O   UNL     1     -22.026   9.125 -14.385  1.00  0.00    -0.394 OA
ATOM     10  H   UNL     1     -22.404   9.229 -13.475  1.00  0.00     0.210 HD
ENDBRANCH   8   9
ENDBRANCH   3   8
BRANCH   4  11
ATOM     11  O   UNL     1     -25.029   9.345 -14.640  1.00  0.00    -0.387 OA
ATOM     12  H   UNL     1     -24.313   9.679 -15.241  1.00  0.00     0.211 HD
ENDBRANCH   4  11
BRANCH   6  13
ATOM     13  O   UNL     1     -25.072   7.005 -11.908  1.00  0.00    -0.387 OA
ATOM     14  H   UNL     1     -25.837   6.649 -11.387  1.00  0.00     0.211 HD
ENDBRANCH   6  13
BRANCH   7  15
ATOM     15  O   UNL     1     -27.110   5.678 -13.260  1.00  0.00    -0.385 OA
ATOM     16  H   UNL     1     -27.079   4.752 -13.613  1.00  0.00     0.211 HD
ENDBRANCH   7  15
ENDBRANCH   1   2
BRANCH   1  17
ATOM     17  C   UNL     1     -24.436   4.143 -16.426  1.00  0.00     0.224 C 
ATOM     18  C   UNL     1     -25.103   3.640 -17.728  1.00  0.00     0.208 C 
ATOM     19  O   UNL     1     -23.104   4.532 -16.734  1.00  0.00    -0.337 OA
ATOM     20  C   UNL     1     -24.174   4.130 -18.815  1.00  0.00     0.180 C 
ATOM     21  C   UNL     1     -22.849   4.153 -18.066  1.00  0.00     0.179 C 
BRANCH  17  22
ATOM     22  C   UNL     1     -24.355   3.008 -15.386  1.00  0.00     0.225 C 
BRANCH  22  23
ATOM     23  O   UNL     1     -23.062   2.888 -14.854  1.00  0.00    -0.391 OA
ATOM     24  H   UNL     1     -22.482   3.516 -15.358  1.00  0.00     0.210 HD
ENDBRANCH  22  23
ENDBRANCH  17  22
BRANCH  18  25
ATOM     25  O   UNL     1     -26.410   4.132 -17.878  1.00  0.00    -0.385 OA
ATOM     26  H   UNL     1     -26.360   4.888 -18.517  1.00  0.00     0.211 HD
ENDBRANCH  18  25
BRANCH  20  27
ATOM     27  O   UNL     1     -24.552   5.418 -19.236  1.00  0.00    -0.387 OA
ATOM     28  H   UNL     1     -25.188   5.769 -18.556  1.00  0.00     0.211 HD
ENDBRANCH  20  27
BRANCH  21  29
ATOM     29  C   UNL     1     -21.787   5.064 -18.698  1.00  0.00     0.191 C 
BRANCH  29  30
ATOM     30  O   UNL     1     -20.989   5.671 -17.716  1.00  0.00    -0.394 OA
ATOM     31  H   UNL     1     -20.183   5.106 -17.606  1.00  0.00     0.210 HD
ENDBRANCH  29  30
ENDBRANCH  21  29
ENDBRANCH   1  17
TORSDOF 13
ENDMDL
MODEL 2
REMARK VINA RESULT:     0.257      1.752      5.923
REMARK INTER + INTRA:          -0.377
REMARK INTER:                   0.528
REMARK INTRA:                  -0.905
REMARK UNBOUND:                -0.769
REMARK SMILES OC[C@H]1O[C@H](O[C@]2(CO)O[C@H](CO)[C@H](O)[C@@H]2O)[C@@H](O)[C@@H](O)[C@@H]1O
REMARK SMILES IDX 6 1 5 2 3 3 22 4 4 5 20 6 18 7 2 8 1 9 23 11 21 13 19 15
REMARK SMILES IDX 7 17 16 18 10 19 14 20 11 21 8 22 9 23 17 25 15 27 12 29
REMARK SMILES IDX 13 30
REMARK H PARENT 1 10 23 12 21 14 19 16 9 24 17 26 15 28 13 31
REMARK Flexibility Score: inf
ROOT
ATOM      1  O   UNL     1     -24.632   6.640 -14.948  1.00  0.00    -0.313 OA
ENDROOT
BRANCH   1   2
ATOM      2  C   UNL     1     -24.472   5.226 -14.912  1.00  0.00     0.285 C 
ATOM      3  C   UNL     1     -25.711   4.719 -16.841  1.00  0.00     0.178 C 
ATOM      4  C   UNL     1     -24.582   3.911 -17.552  1.00  0.00     0.177 C 
ATOM      5  O   UNL     1     -25.631   4.584 -15.431  1.00  0.00    -0.341 OA
ATOM      6  C   UNL     1     -23.394   3.642 -16.602  1.00  0.00     0.179 C 
ATOM      7  C   UNL     1     -23.172   4.852 -15.684  1.00  0.00     0.202 C 
BRANCH   3   8
ATOM      8  C   UNL     1     -27.098   4.262 -17.306  1.00  0.00     0.191 C 
BRANCH   8   9
ATOM      9  O   UNL     1     -27.000   3.505 -18.484  1.00  0.00    -0.394 OA
ATOM     10  H   UNL     1     -26.880   4.144 -19.233  1.00  0.00     0.210 HD
ENDBRANCH   8   9
ENDBRANCH   3   8
BRANCH   4  11
ATOM     11  O   UNL     1     -24.154   4.573 -18.721  1.00  0.00    -0.387 OA
ATOM     12  H   UNL     1     -24.904   5.138 -19.044  1.00  0.00     0.211 HD
ENDBRANCH   4  11
BRANCH   6  13
ATOM     13  O   UNL     1     -23.663   2.506 -15.818  1.00  0.00    -0.387 OA
ATOM     14  H   UNL     1     -22.822   1.984 -15.761  1.00  0.00     0.211 HD
ENDBRANCH   6  13
BRANCH   7  15
ATOM     15  O   UNL     1     -22.138   4.584 -14.768  1.00  0.00    -0.385 OA
ATOM     16  H   UNL     1     -22.065   5.376 -14.178  1.00  0.00     0.211 HD
ENDBRANCH   7  15
ENDBRANCH   1   2
BRANCH   1  17
ATOM     17  C   UNL     1     -25.510   7.230 -13.982  1.00  0.00     0.224 C 
ATOM     18  C   UNL     1     -25.013   8.646 -13.603  1.00  0.00     0.208 C 
ATOM     19  O   UNL     1     -26.856   7.340 -14.426  1.00  0.00    -0.337 OA
ATOM     20  C   UNL     1     -26.045   9.561 -14.220  1.00  0.00     0.180 C 
ATOM     21  C   UNL     1     -27.274   8.664 -14.191  1.00  0.00     0.179 C 
BRANCH  17  22
ATOM     22  C   UNL     1     -25.506   6.307 -12.747  1.00  0.00     0.225 C 
BRANCH  22  23
ATOM     23  O   UNL     1     -24.776   6.867 -11.687  1.00  0.00    -0.391 OA
ATOM     24  H   UNL     1     -24.114   7.487 -12.088  1.00  0.00     0.210 HD
ENDBRANCH  22  23
ENDBRANCH  17  22
BRANCH  18  25
ATOM     25  O   UNL     1     -23.717   8.898 -14.081  1.00  0.00    -0.385 OA
ATOM     26  H   UNL     1     -23.123   8.946 -13.288  1.00  0.00     0.211 HD
ENDBRANCH  18  25
BRANCH  20  27
ATOM     27  O   UNL     1     -25.677   9.893 -15.536  1.00  0.00    -0.387 OA
ATOM     28  H   UNL     1     -25.913  10.849 -15.670  1.00  0.00     0.211 HD
ENDBRANCH  20  27
BRANCH  21  29
ATOM     29  C   UNL     1     -28.371   9.073 -15.184  1.00  0.00     0.191 C 
BRANCH  29  30
ATOM     30  O   UNL     1     -29.429   8.149 -15.180  1.00  0.00    -0.394 OA
ATOM     31  H   UNL     1     -29.154   7.390 -15.752  1.00  0.00     0.210 HD
ENDBRANCH  29  30
ENDBRANCH  21  29
ENDBRANCH   1  17
TORSDOF 13
ENDMDL
MODEL 3
REMARK VINA RESULT:     1.375      1.603      5.962
REMARK INTER + INTRA:           1.330
REMARK INTER:                   3.001
REMARK INTRA:                  -1.672
REMARK UNBOUND:                -0.769
REMARK SMILES OC[C@H]1O[C@H](O[C@]2(CO)O[C@H](CO)[C@H](O)[C@@H]2O)[C@@H](O)[C@@H](O)[C@@H]1O
REMARK SMILES IDX 6 1 5 2 3 3 22 4 4 5 20 6 18 7 2 8 1 9 23 11 21 13 19 15
REMARK SMILES IDX 7 17 16 18 10 19 14 20 11 21 8 22 9 23 17 25 15 27 12 29
REMARK SMILES IDX 13 30
REMARK H PARENT 1 10 23 12 21 14 19 16 9 24 17 26 15 28 13 31
REMARK Flexibility Score: inf
ROOT
ATOM      1  O   UNL     1     -24.348   6.801 -15.162  1.00  0.00    -0.313 OA
ENDROOT
BRANCH   1   2
ATOM      2  C   UNL     1     -24.322   5.391 -14.968  1.00  0.00     0.285 C 
ATOM      3  C   UNL     1     -25.864   4.812 -16.642  1.00  0.00     0.178 C 
ATOM      4  C   UNL     1     -24.929   3.806 -17.383  1.00  0.00     0.177 C 
ATOM      5  O   UNL     1     -25.599   4.829 -15.248  1.00  0.00    -0.341 OA
ATOM      6  C   UNL     1     -23.651   3.515 -16.567  1.00  0.00     0.179 C 
ATOM      7  C   UNL     1     -23.185   4.788 -15.846  1.00  0.00     0.202 C 
BRANCH   3   8
ATOM      8  C   UNL     1     -27.339   4.465 -16.863  1.00  0.00     0.191 C 
BRANCH   8   9
ATOM      9  O   UNL     1     -27.516   3.817 -18.096  1.00  0.00    -0.394 OA
ATOM     10  H   UNL     1     -26.975   4.310 -18.765  1.00  0.00     0.210 HD
ENDBRANCH   8   9
ENDBRANCH   3   8
BRANCH   4  11
ATOM     11  O   UNL     1     -24.609   4.279 -18.672  1.00  0.00    -0.387 OA
ATOM     12  H   UNL     1     -23.893   3.699 -19.041  1.00  0.00     0.211 HD
ENDBRANCH   4  11
BRANCH   6  13
ATOM     13  O   UNL     1     -23.915   2.512 -15.616  1.00  0.00    -0.387 OA
ATOM     14  H   UNL     1     -24.030   1.661 -16.113  1.00  0.00     0.211 HD
ENDBRANCH   6  13
BRANCH   7  15
ATOM     15  O   UNL     1     -22.064   4.510 -15.044  1.00  0.00    -0.385 OA
ATOM     16  H   UNL     1     -21.584   3.756 -15.471  1.00  0.00     0.211 HD
ENDBRANCH   7  15
ENDBRANCH   1   2
BRANCH   1  17
ATOM     17  C   UNL     1     -24.557   7.623 -14.008  1.00  0.00     0.224 C 
ATOM     18  C   UNL     1     -26.055   7.987 -13.876  1.00  0.00     0.208 C 
ATOM     19  O   UNL     1     -24.142   7.014 -12.793  1.00  0.00    -0.337 OA
ATOM     20  C   UNL     1     -26.505   7.204 -12.663  1.00  0.00     0.180 C 
ATOM     21  C   UNL     1     -25.204   7.129 -11.876  1.00  0.00     0.179 C 
BRANCH  17  22
ATOM     22  C   UNL     1     -23.706   8.894 -14.201  1.00  0.00     0.225 C 
BRANCH  22  23
ATOM     23  O   UNL     1     -24.350   9.824 -15.032  1.00  0.00    -0.391 OA
ATOM     24  H   UNL     1     -23.695  10.544 -15.223  1.00  0.00     0.210 HD
ENDBRANCH  22  23
ENDBRANCH  17  22
BRANCH  18  25
ATOM     25  O   UNL     1     -26.784   7.656 -15.029  1.00  0.00    -0.385 OA
ATOM     26  H   UNL     1     -26.925   6.675 -15.007  1.00  0.00     0.211 HD
ENDBRANCH  18  25
BRANCH  20  27
ATOM     27  O   UNL     1     -26.951   5.926 -13.047  1.00  0.00    -0.387 OA
ATOM     28  H   UNL     1     -27.016   5.382 -12.217  1.00  0.00     0.211 HD
ENDBRANCH  20  27
BRANCH  21  29
ATOM     29  C   UNL     1     -25.160   5.992 -10.845  1.00  0.00     0.191 C 
BRANCH  29  30
ATOM     30  O   UNL     1     -26.441   5.711 -10.344  1.00  0.00    -0.394 OA
ATOM     31  H   UNL     1     -26.645   4.771 -10.576  1.00  0.00     0.210 HD
ENDBRANCH  29  30
ENDBRANCH  21  29
ENDBRANCH   1  17
TORSDOF 13
ENDMDL
MODEL 4
REMARK VINA RESULT:     1.846      1.672      5.086
REMARK INTER + INTRA:           2.047
REMARK INTER:                   2.061
REMARK INTRA:                  -0.014
REMARK UNBOUND:                -0.769
REMARK SMILES OC[C@H]1O[C@H](O[C@]2(CO)O[C@H](CO)[C@H](O)[C@@H]2O)[C@@H](O)[C@@H](O)[C@@H]1O
REMARK SMILES IDX 6 1 5 2 3 3 22 4 4 5 20 6 18 7 2 8 1 9 23 11 21 13 19 15
REMARK SMILES IDX 7 17 16 18 10 19 14 20 11 21 8 22 9 23 17 25 15 27 12 29
REMARK SMILES IDX 13 30
REMARK H PARENT 1 10 23 12 21 14 19 16 9 24 17 26 15 28 13 31
REMARK Flexibility Score: inf
ROOT
ATOM      1  O   UNL     1     -24.425   7.331 -14.663  1.00  0.00    -0.313 OA
ENDROOT
BRANCH   1   2
ATOM      2  C   UNL     1     -23.156   6.725 -14.439  1.00  0.00     0.285 C 
ATOM      3  C   UNL     1     -23.318   5.044 -16.070  1.00  0.00     0.178 C 
ATOM      4  C   UNL     1     -21.992   5.405 -16.808  1.00  0.00     0.177 C 
ATOM      5  O   UNL     1     -23.227   5.325 -14.682  1.00  0.00    -0.341 OA
ATOM      6  C   UNL     1     -21.163   6.436 -16.011  1.00  0.00     0.179 C 
ATOM      7  C   UNL     1     -22.097   7.444 -15.326  1.00  0.00     0.202 C 
BRANCH   3   8
ATOM      8  C   UNL     1     -23.671   3.565 -16.256  1.00  0.00     0.191 C 
BRANCH   8   9
ATOM      9  O   UNL     1     -23.646   2.891 -15.026  1.00  0.00    -0.394 OA
ATOM     10  H   UNL     1     -23.721   1.922 -15.222  1.00  0.00     0.210 HD
ENDBRANCH   8   9
ENDBRANCH   3   8
BRANCH   4  11
ATOM     11  O   UNL     1     -22.257   5.870 -18.113  1.00  0.00    -0.387 OA
ATOM     12  H   UNL     1     -21.850   5.230 -18.754  1.00  0.00     0.211 HD
ENDBRANCH   4  11
BRANCH   6  13
ATOM     13  O   UNL     1     -20.396   5.775 -15.035  1.00  0.00    -0.387 OA
ATOM     14  H   UNL     1     -20.830   4.898 -14.867  1.00  0.00     0.211 HD
ENDBRANCH   6  13
BRANCH   7  15
ATOM     15  O   UNL     1     -21.352   8.341 -14.540  1.00  0.00    -0.385 OA
ATOM     16  H   UNL     1     -20.400   8.084 -14.634  1.00  0.00     0.211 HD
ENDBRANCH   7  15
ENDBRANCH   1   2
BRANCH   1  17
ATOM     17  C   UNL     1     -25.566   6.720 -14.050  1.00  0.00     0.224 C 
ATOM     18  C   UNL     1     -26.697   7.761 -13.868  1.00  0.00     0.208 C 
ATOM     19  O   UNL     1     -26.091   5.624 -14.789  1.00  0.00    -0.337 OA
ATOM     20  C   UNL     1     -27.744   7.326 -14.867  1.00  0.00     0.180 C 
ATOM     21  C   UNL     1     -27.477   5.828 -14.924  1.00  0.00     0.179 C 
BRANCH  17  22
ATOM     22  C   UNL     1     -25.106   6.175 -12.683  1.00  0.00     0.225 C 
BRANCH  22  23
ATOM     23  O   UNL     1     -25.620   6.941 -11.625  1.00  0.00    -0.391 OA
ATOM     24  H   UNL     1     -26.067   6.311 -11.002  1.00  0.00     0.210 HD
ENDBRANCH  22  23
ENDBRANCH  17  22
BRANCH  18  25
ATOM     25  O   UNL     1     -26.250   9.072 -14.095  1.00  0.00    -0.385 OA
ATOM     26  H   UNL     1     -25.285   9.012 -14.317  1.00  0.00     0.211 HD
ENDBRANCH  18  25
BRANCH  20  27
ATOM     27  O   UNL     1     -27.514   7.940 -16.112  1.00  0.00    -0.387 OA
ATOM     28  H   UNL     1     -27.854   8.872 -16.041  1.00  0.00     0.211 HD
ENDBRANCH  20  27
BRANCH  21  29
ATOM     29  C   UNL     1     -28.007   5.145 -16.194  1.00  0.00     0.191 C 
BRANCH  29  30
ATOM     30  O   UNL     1     -26.962   4.570 -16.934  1.00  0.00    -0.394 OA
ATOM     31  H   UNL     1     -27.375   3.946 -17.582  1.00  0.00     0.210 HD
ENDBRANCH  29  30
ENDBRANCH  21  29
ENDBRANCH   1  17
TORSDOF 13
ENDMDL
MODEL 5
REMARK VINA RESULT:     1.878      1.121      2.803
REMARK INTER + INTRA:           2.096
REMARK INTER:                   3.668
REMARK INTRA:                  -1.572
REMARK UNBOUND:                -0.769
REMARK SMILES OC[C@H]1O[C@H](O[C@]2(CO)O[C@H](CO)[C@H](O)[C@@H]2O)[C@@H](O)[C@@H](O)[C@@H]1O
REMARK SMILES IDX 6 1 5 2 3 3 22 4 4 5 20 6 18 7 2 8 1 9 23 11 21 13 19 15
REMARK SMILES IDX 7 17 16 18 10 19 14 20 11 21 8 22 9 23 17 25 15 27 12 29
REMARK SMILES IDX 13 30
REMARK H PARENT 1 10 23 12 21 14 19 16 9 24 17 26 15 28 13 31
REMARK Flexibility Score: inf
ROOT
ATOM      1  O   UNL     1     -25.067   5.498 -16.149  1.00  0.00    -0.313 OA
ENDROOT
BRANCH   1   2
ATOM      2  C   UNL     1     -25.035   5.701 -14.740  1.00  0.00     0.285 C 
ATOM      3  C   UNL     1     -23.796   7.696 -14.737  1.00  0.00     0.178 C 
ATOM      4  C   UNL     1     -24.828   8.527 -13.912  1.00  0.00     0.177 C 
ATOM      5  O   UNL     1     -23.816   6.329 -14.358  1.00  0.00    -0.341 OA
ATOM      6  C   UNL     1     -25.941   7.629 -13.328  1.00  0.00     0.179 C 
ATOM      7  C   UNL     1     -26.296   6.517 -14.326  1.00  0.00     0.202 C 
BRANCH   3   8
ATOM      8  C   UNL     1     -22.376   8.241 -14.559  1.00  0.00     0.191 C 
BRANCH   8   9
ATOM      9  O   UNL     1     -22.407   9.587 -14.164  1.00  0.00    -0.394 OA
ATOM     10  H   UNL     1     -22.207  10.132 -14.967  1.00  0.00     0.210 HD
ENDBRANCH   8   9
ENDBRANCH   3   8
BRANCH   4  11
ATOM     11  O   UNL     1     -25.374   9.564 -14.695  1.00  0.00    -0.387 OA
ATOM     12  H   UNL     1     -24.648   9.934 -15.263  1.00  0.00     0.211 HD
ENDBRANCH   4  11
BRANCH   6  13
ATOM     13  O   UNL     1     -25.499   7.050 -12.124  1.00  0.00    -0.387 OA
ATOM     14  H   UNL     1     -25.983   6.191 -12.018  1.00  0.00     0.211 HD
ENDBRANCH   6  13
BRANCH   7  15
ATOM     15  O   UNL     1     -27.257   5.654 -13.770  1.00  0.00    -0.385 OA
ATOM     16  H   UNL     1     -28.125   5.880 -14.190  1.00  0.00     0.211 HD
ENDBRANCH   7  15
ENDBRANCH   1   2
BRANCH   1  17
ATOM     17  C   UNL     1     -24.704   4.201 -16.637  1.00  0.00     0.224 C 
ATOM     18  C   UNL     1     -23.203   4.173 -17.014  1.00  0.00     0.208 C 
ATOM     19  O   UNL     1     -24.944   3.154 -15.706  1.00  0.00    -0.337 OA
ATOM     20  C   UNL     1     -22.587   3.291 -15.953  1.00  0.00     0.180 C 
ATOM     21  C   UNL     1     -23.765   2.389 -15.613  1.00  0.00     0.179 C 
BRANCH  17  22
ATOM     22  C   UNL     1     -25.579   3.925 -17.876  1.00  0.00     0.225 C 
BRANCH  22  23
ATOM     23  O   UNL     1     -26.918   4.278 -17.649  1.00  0.00    -0.391 OA
ATOM     24  H   UNL     1     -27.208   4.828 -18.423  1.00  0.00     0.210 HD
ENDBRANCH  22  23
ENDBRANCH  17  22
BRANCH  18  25
ATOM     25  O   UNL     1     -22.640   5.459 -17.038  1.00  0.00    -0.385 OA
ATOM     26  H   UNL     1     -22.786   5.853 -16.139  1.00  0.00     0.211 HD
ENDBRANCH  18  25
BRANCH  20  27
ATOM     27  O   UNL     1     -22.192   4.065 -14.846  1.00  0.00    -0.387 OA
ATOM     28  H   UNL     1     -21.219   3.908 -14.716  1.00  0.00     0.211 HD
ENDBRANCH  20  27
BRANCH  21  29
ATOM     29  C   UNL     1     -23.660   1.712 -14.239  1.00  0.00     0.191 C 
BRANCH  29  30
ATOM     30  O   UNL     1     -22.339   1.329 -13.962  1.00  0.00    -0.394 OA
ATOM     31  H   UNL     1     -21.768   1.721 -14.668  1.00  0.00     0.210 HD
ENDBRANCH  29  30
ENDBRANCH  21  29
ENDBRANCH   1  17
TORSDOF 13
ENDMDL
MODEL 6
REMARK VINA RESULT:     2.021      1.567      5.271
REMARK INTER + INTRA:           2.316
REMARK INTER:                  -0.505
REMARK INTRA:                   2.821
REMARK UNBOUND:                -0.769
REMARK SMILES OC[C@H]1O[C@H](O[C@]2(CO)O[C@H](CO)[C@H](O)[C@@H]2O)[C@@H](O)[C@@H](O)[C@@H]1O
REMARK SMILES IDX 6 1 5 2 3 3 22 4 4 5 20 6 18 7 2 8 1 9 23 11 21 13 19 15
REMARK SMILES IDX 7 17 16 18 10 19 14 20 11 21 8 22 9 23 17 25 15 27 12 29
REMARK SMILES IDX 13 30
REMARK H PARENT 1 10 23 12 21 14 19 16 9 24 17 26 15 28 13 31
REMARK Flexibility Score: inf
ROOT
ATOM      1  O   UNL     1     -25.224   6.609 -15.370  1.00  0.00    -0.313 OA
ENDROOT
BRANCH   1   2
ATOM      2  C   UNL     1     -25.410   5.215 -15.145  1.00  0.00     0.285 C 
ATOM      3  C   UNL     1     -25.241   4.511 -17.379  1.00  0.00     0.178 C 
ATOM      4  C   UNL     1     -24.107   3.467 -17.135  1.00  0.00     0.177 C 
ATOM      5  O   UNL     1     -26.089   4.623 -16.246  1.00  0.00    -0.341 OA
ATOM      6  C   UNL     1     -23.858   3.243 -15.628  1.00  0.00     0.179 C 
ATOM      7  C   UNL     1     -24.021   4.567 -14.866  1.00  0.00     0.202 C 
BRANCH   3   8
ATOM      8  C   UNL     1     -26.088   4.134 -18.599  1.00  0.00     0.191 C 
BRANCH   8   9
ATOM      9  O   UNL     1     -25.456   4.537 -19.785  1.00  0.00    -0.394 OA
ATOM     10  H   UNL     1     -24.481   4.564 -19.602  1.00  0.00     0.210 HD
ENDBRANCH   8   9
ENDBRANCH   3   8
BRANCH   4  11
ATOM     11  O   UNL     1     -22.921   3.856 -17.791  1.00  0.00    -0.387 OA
ATOM     12  H   UNL     1     -22.495   3.040 -18.162  1.00  0.00     0.211 HD
ENDBRANCH   4  11
BRANCH   6  13
ATOM     13  O   UNL     1     -24.779   2.304 -15.130  1.00  0.00    -0.387 OA
ATOM     14  H   UNL     1     -25.686   2.675 -15.280  1.00  0.00     0.211 HD
ENDBRANCH   6  13
BRANCH   7  15
ATOM     15  O   UNL     1     -23.867   4.355 -13.484  1.00  0.00    -0.385 OA
ATOM     16  H   UNL     1     -23.307   3.545 -13.378  1.00  0.00     0.211 HD
ENDBRANCH   7  15
ENDBRANCH   1   2
BRANCH   1  17
ATOM     17  C   UNL     1     -24.728   7.393 -14.279  1.00  0.00     0.224 C 
ATOM     18  C   UNL     1     -23.197   7.212 -14.144  1.00  0.00     0.208 C 
ATOM     19  O   UNL     1     -24.999   8.783 -14.406  1.00  0.00    -0.337 OA
ATOM     20  C   UNL     1     -22.642   8.549 -14.578  1.00  0.00     0.180 C 
ATOM     21  C   UNL     1     -23.790   9.472 -14.191  1.00  0.00     0.179 C 
BRANCH  17  22
ATOM     22  C   UNL     1     -25.446   6.899 -13.007  1.00  0.00     0.225 C 
BRANCH  22  23
ATOM     23  O   UNL     1     -24.531   6.572 -11.994  1.00  0.00    -0.391 OA
ATOM     24  H   UNL     1     -23.707   6.248 -12.441  1.00  0.00     0.210 HD
ENDBRANCH  22  23
ENDBRANCH  17  22
BRANCH  18  25
ATOM     25  O   UNL     1     -22.718   6.151 -14.929  1.00  0.00    -0.385 OA
ATOM     26  H   UNL     1     -22.195   5.563 -14.326  1.00  0.00     0.211 HD
ENDBRANCH  18  25
BRANCH  20  27
ATOM     27  O   UNL     1     -22.419   8.556 -15.967  1.00  0.00    -0.387 OA
ATOM     28  H   UNL     1     -22.982   9.283 -16.346  1.00  0.00     0.211 HD
ENDBRANCH  20  27
BRANCH  21  29
ATOM     29  C   UNL     1     -23.790  10.817 -14.933  1.00  0.00     0.191 C 
BRANCH  29  30
ATOM     30  O   UNL     1     -24.107  10.648 -16.290  1.00  0.00    -0.394 OA
ATOM     31  H   UNL     1     -23.930  11.511 -16.740  1.00  0.00     0.210 HD
ENDBRANCH  29  30
ENDBRANCH  21  29
ENDBRANCH   1  17
TORSDOF 13
ENDMDL
MODEL 7
REMARK VINA RESULT:     2.235      1.715      5.607
REMARK INTER + INTRA:           2.641
REMARK INTER:                   3.583
REMARK INTRA:                  -0.942
REMARK UNBOUND:                -0.769
REMARK SMILES OC[C@H]1O[C@H](O[C@]2(CO)O[C@H](CO)[C@H](O)[C@@H]2O)[C@@H](O)[C@@H](O)[C@@H]1O
REMARK SMILES IDX 6 1 5 2 3 3 22 4 4 5 20 6 18 7 2 8 1 9 23 11 21 13 19 15
REMARK SMILES IDX 7 17 16 18 10 19 14 20 11 21 8 22 9 23 17 25 15 27 12 29
REMARK SMILES IDX 13 30
REMARK H PARENT 1 10 23 12 21 14 19 16 9 24 17 26 15 28 13 31
REMARK Flexibility Score: inf
ROOT
ATOM      1  O   UNL     1     -24.550   7.524 -15.035  1.00  0.00    -0.313 OA
ENDROOT
BRANCH   1   2
ATOM      2  C   UNL     1     -23.330   6.928 -14.607  1.00  0.00     0.285 C 
ATOM      3  C   UNL     1     -23.220   5.234 -16.228  1.00  0.00     0.178 C 
ATOM      4  C   UNL     1     -21.795   5.598 -16.748  1.00  0.00     0.177 C 
ATOM      5  O   UNL     1     -23.354   5.526 -14.846  1.00  0.00    -0.341 OA
ATOM      6  C   UNL     1     -21.110   6.641 -15.838  1.00  0.00     0.179 C 
ATOM      7  C   UNL     1     -22.147   7.648 -15.320  1.00  0.00     0.202 C 
BRANCH   3   8
ATOM      8  C   UNL     1     -23.530   3.750 -16.455  1.00  0.00     0.191 C 
BRANCH   8   9
ATOM      9  O   UNL     1     -24.201   3.210 -15.348  1.00  0.00    -0.394 OA
ATOM     10  H   UNL     1     -23.876   2.280 -15.234  1.00  0.00     0.210 HD
ENDBRANCH   8   9
ENDBRANCH   3   8
BRANCH   4  11
ATOM     11  O   UNL     1     -21.851   6.051 -18.082  1.00  0.00    -0.387 OA
ATOM     12  H   UNL     1     -22.359   6.904 -18.094  1.00  0.00     0.211 HD
ENDBRANCH   4  11
BRANCH   6  13
ATOM     13  O   UNL     1     -20.505   5.993 -14.746  1.00  0.00    -0.387 OA
ATOM     14  H   UNL     1     -21.005   6.261 -13.933  1.00  0.00     0.211 HD
ENDBRANCH   6  13
BRANCH   7  15
ATOM     15  O   UNL     1     -21.542   8.557 -14.433  1.00  0.00    -0.385 OA
ATOM     16  H   UNL     1     -22.248   9.188 -14.142  1.00  0.00     0.211 HD
ENDBRANCH   7  15
ENDBRANCH   1   2
BRANCH   1  17
ATOM     17  C   UNL     1     -25.630   7.567 -14.095  1.00  0.00     0.224 C 
ATOM     18  C   UNL     1     -26.457   6.262 -14.173  1.00  0.00     0.208 C 
ATOM     19  O   UNL     1     -25.207   7.742 -12.749  1.00  0.00    -0.337 OA
ATOM     20  C   UNL     1     -26.139   5.562 -12.871  1.00  0.00     0.180 C 
ATOM     21  C   UNL     1     -25.843   6.755 -11.973  1.00  0.00     0.179 C 
BRANCH  17  22
ATOM     22  C   UNL     1     -26.502   8.783 -14.466  1.00  0.00     0.225 C 
BRANCH  22  23
ATOM     23  O   UNL     1     -27.802   8.395 -14.824  1.00  0.00    -0.391 OA
ATOM     24  H   UNL     1     -28.038   7.615 -14.257  1.00  0.00     0.210 HD
ENDBRANCH  22  23
ENDBRANCH  17  22
BRANCH  18  25
ATOM     25  O   UNL     1     -26.121   5.488 -15.295  1.00  0.00    -0.385 OA
ATOM     26  H   UNL     1     -25.369   5.950 -15.747  1.00  0.00     0.211 HD
ENDBRANCH  18  25
BRANCH  20  27
ATOM     27  O   UNL     1     -25.009   4.738 -13.025  1.00  0.00    -0.387 OA
ATOM     28  H   UNL     1     -24.511   4.768 -12.165  1.00  0.00     0.211 HD
ENDBRANCH  20  27
BRANCH  21  29
ATOM     29  C   UNL     1     -25.005   6.412 -10.733  1.00  0.00     0.191 C 
BRANCH  29  30
ATOM     30  O   UNL     1     -25.821   6.020  -9.660  1.00  0.00    -0.394 OA
ATOM     31  H   UNL     1     -26.721   5.841 -10.031  1.00  0.00     0.210 HD
ENDBRANCH  29  30
ENDBRANCH  21  29
ENDBRANCH   1  17
TORSDOF 13
ENDMDL
MODEL 8
REMARK VINA RESULT:     2.476      1.703      5.608
REMARK INTER + INTRA:           3.010
REMARK INTER:                   3.396
REMARK INTRA:                  -0.386
REMARK UNBOUND:                -0.769
REMARK SMILES OC[C@H]1O[C@H](O[C@]2(CO)O[C@H](CO)[C@H](O)[C@@H]2O)[C@@H](O)[C@@H](O)[C@@H]1O
REMARK SMILES IDX 6 1 5 2 3 3 22 4 4 5 20 6 18 7 2 8 1 9 23 11 21 13 19 15
REMARK SMILES IDX 7 17 16 18 10 19 14 20 11 21 8 22 9 23 17 25 15 27 12 29
REMARK SMILES IDX 13 30
REMARK H PARENT 1 10 23 12 21 14 19 16 9 24 17 26 15 28 13 31
REMARK Flexibility Score: inf
ROOT
ATOM      1  O   UNL     1     -23.267   5.873 -15.592  1.00  0.00    -0.313 OA
ENDROOT
BRANCH   1   2
ATOM      2  C   UNL     1     -22.432   4.968 -16.306  1.00  0.00     0.285 C 
ATOM      3  C   UNL     1     -23.622   4.973 -18.331  1.00  0.00     0.178 C 
ATOM      4  C   UNL     1     -22.410   5.367 -19.231  1.00  0.00     0.177 C 
ATOM      5  O   UNL     1     -23.206   4.197 -17.218  1.00  0.00    -0.341 OA
ATOM      6  C   UNL     1     -21.080   5.307 -18.448  1.00  0.00     0.179 C 
ATOM      7  C   UNL     1     -21.299   5.779 -17.003  1.00  0.00     0.202 C 
BRANCH   3   8
ATOM      8  C   UNL     1     -24.669   4.184 -19.124  1.00  0.00     0.191 C 
BRANCH   8   9
ATOM      9  O   UNL     1     -25.549   3.518 -18.258  1.00  0.00    -0.394 OA
ATOM     10  H   UNL     1     -26.367   4.074 -18.189  1.00  0.00     0.210 HD
ENDBRANCH   8   9
ENDBRANCH   3   8
BRANCH   4  11
ATOM     11  O   UNL     1     -22.604   6.642 -19.800  1.00  0.00    -0.387 OA
ATOM     12  H   UNL     1     -21.710   7.036 -19.979  1.00  0.00     0.211 HD
ENDBRANCH   4  11
BRANCH   6  13
ATOM     13  O   UNL     1     -20.596   3.986 -18.437  1.00  0.00    -0.387 OA
ATOM     14  H   UNL     1     -21.373   3.391 -18.277  1.00  0.00     0.211 HD
ENDBRANCH   6  13
BRANCH   7  15
ATOM     15  O   UNL     1     -20.108   5.658 -16.265  1.00  0.00    -0.385 OA
ATOM     16  H   UNL     1     -20.364   5.388 -15.347  1.00  0.00     0.211 HD
ENDBRANCH   7  15
ENDBRANCH   1   2
BRANCH   1  17
ATOM     17  C   UNL     1     -24.330   5.315 -14.811  1.00  0.00     0.224 C 
ATOM     18  C   UNL     1     -24.537   6.143 -13.520  1.00  0.00     0.208 C 
ATOM     19  O   UNL     1     -25.573   5.256 -15.500  1.00  0.00    -0.337 OA
ATOM     20  C   UNL     1     -25.863   6.831 -13.748  1.00  0.00     0.180 C 
ATOM     21  C   UNL     1     -26.550   5.827 -14.663  1.00  0.00     0.179 C 
BRANCH  17  22
ATOM     22  C   UNL     1     -23.925   3.868 -14.468  1.00  0.00     0.225 C 
BRANCH  22  23
ATOM     23  O   UNL     1     -24.627   2.938 -15.250  1.00  0.00    -0.391 OA
ATOM     24  H   UNL     1     -24.596   2.071 -14.767  1.00  0.00     0.210 HD
ENDBRANCH  22  23
ENDBRANCH  17  22
BRANCH  18  25
ATOM     25  O   UNL     1     -23.490   7.053 -13.302  1.00  0.00    -0.385 OA
ATOM     26  H   UNL     1     -23.874   7.962 -13.409  1.00  0.00     0.211 HD
ENDBRANCH  18  25
BRANCH  20  27
ATOM     27  O   UNL     1     -25.667   8.067 -14.390  1.00  0.00    -0.387 OA
ATOM     28  H   UNL     1     -24.693   8.143 -14.578  1.00  0.00     0.211 HD
ENDBRANCH  20  27
BRANCH  21  29
ATOM     29  C   UNL     1     -27.699   6.419 -15.492  1.00  0.00     0.191 C 
BRANCH  29  30
ATOM     30  O   UNL     1     -27.987   7.734 -15.093  1.00  0.00    -0.394 OA
ATOM     31  H   UNL     1     -28.107   7.721 -14.111  1.00  0.00     0.210 HD
ENDBRANCH  29  30
ENDBRANCH  21  29
ENDBRANCH   1  17
TORSDOF 13
ENDMDL
