MODEL 1
REMARK VINA RESULT:    -5.035      0.000      0.000
REMARK INTER + INTRA:          -5.035
REMARK INTER:                  -5.035
REMARK INTRA:                   0.000
REMARK UNBOUND:                 0.000
REMARK SMILES O=c1ccc2ccccc2o1
REMARK SMILES IDX 7 1 8 2 9 3 10 4 5 5 6 6 4 7 3 8 2 9 1 10 11 11
REMARK H PARENT
REMARK Flexibility Score: inf
ROOT
ATOM      1  C   UNL     1      19.651  26.347  39.848  1.00  0.00     0.001 A 
ATOM      2  C   UNL     1      19.239  26.327  38.511  1.00  0.00     0.004 A 
ATOM      3  C   UNL     1      19.263  25.132  37.786  1.00  0.00     0.048 A 
ATOM      4  C   UNL     1      19.701  23.951  38.395  1.00  0.00     0.138 A 
ATOM      5  C   UNL     1      20.117  23.970  39.746  1.00  0.00     0.018 A 
ATOM      6  C   UNL     1      20.091  25.173  40.467  1.00  0.00     0.012 A 
ATOM      7  C   UNL     1      20.549  22.775  40.327  1.00  0.00     0.019 A 
ATOM      8  C   UNL     1      20.557  21.607  39.567  1.00  0.00     0.094 A 
ATOM      9  C   UNL     1      20.130  21.663  38.235  1.00  0.00     0.336 A 
ATOM     10  O   UNL     1      20.129  20.618  37.531  1.00  0.00    -0.246 OA
ATOM     11  O   UNL     1      19.724  22.813  37.704  1.00  0.00    -0.423 OA
ENDROOT
TORSDOF 0
ENDMDL
MODEL 2
REMARK VINA RESULT:    -4.989     12.942     14.057
REMARK INTER + INTRA:          -4.989
REMARK INTER:                  -4.989
REMARK INTRA:                   0.000
REMARK UNBOUND:                 0.000
REMARK SMILES O=c1ccc2ccccc2o1
REMARK SMILES IDX 7 1 8 2 9 3 10 4 5 5 6 6 4 7 3 8 2 9 1 10 11 11
REMARK H PARENT
REMARK Flexibility Score: inf
ROOT
ATOM      1  C   UNL     1      28.083  23.851  47.729  1.00  0.00     0.001 A 
ATOM      2  C   UNL     1      27.267  22.715  47.797  1.00  0.00     0.004 A 
ATOM      3  C   UNL     1      26.717  22.317  49.019  1.00  0.00     0.048 A 
ATOM      4  C   UNL     1      26.981  23.050  50.180  1.00  0.00     0.138 A 
ATOM      5  C   UNL     1      27.805  24.197  50.113  1.00  0.00     0.018 A 
ATOM      6  C   UNL     1      28.354  24.592  48.884  1.00  0.00     0.012 A 
ATOM      7  C   UNL     1      28.051  24.911  51.289  1.00  0.00     0.019 A 
ATOM      8  C   UNL     1      27.483  24.477  52.485  1.00  0.00     0.094 A 
ATOM      9  C   UNL     1      26.677  23.333  52.477  1.00  0.00     0.336 A 
ATOM     10  O   UNL     1      26.154  22.924  53.547  1.00  0.00    -0.246 OA
ATOM     11  O   UNL     1      26.458  22.670  51.343  1.00  0.00    -0.423 OA
ENDROOT
TORSDOF 0
ENDMDL
MODEL 3
REMARK VINA RESULT:    -4.972     12.993     13.907
REMARK INTER + INTRA:          -4.972
REMARK INTER:                  -4.972
REMARK INTRA:                   0.000
REMARK UNBOUND:                 0.000
REMARK SMILES O=c1ccc2ccccc2o1
REMARK SMILES IDX 7 1 8 2 9 3 10 4 5 5 6 6 4 7 3 8 2 9 1 10 11 11
REMARK H PARENT
REMARK Flexibility Score: inf
ROOT
ATOM      1  C   UNL     1      30.640  24.464  46.992  1.00  0.00     0.001 A 
ATOM      2  C   UNL     1      31.447  23.483  47.579  1.00  0.00     0.004 A 
ATOM      3  C   UNL     1      30.929  22.651  48.576  1.00  0.00     0.048 A 
ATOM      4  C   UNL     1      29.602  22.796  48.992  1.00  0.00     0.138 A 
ATOM      5  C   UNL     1      28.786  23.787  48.399  1.00  0.00     0.018 A 
ATOM      6  C   UNL     1      29.311  24.619  47.400  1.00  0.00     0.012 A 
ATOM      7  C   UNL     1      27.463  23.909  48.835  1.00  0.00     0.019 A 
ATOM      8  C   UNL     1      26.989  23.058  49.832  1.00  0.00     0.094 A 
ATOM      9  C   UNL     1      27.854  22.100  50.373  1.00  0.00     0.336 A 
ATOM     10  O   UNL     1      27.444  21.322  51.274  1.00  0.00    -0.246 OA
ATOM     11  O   UNL     1      29.109  22.004  49.941  1.00  0.00    -0.423 OA
ENDROOT
TORSDOF 0
ENDMDL
MODEL 4
REMARK VINA RESULT:    -4.945     12.144     13.429
REMARK INTER + INTRA:          -4.945
REMARK INTER:                  -4.945
REMARK INTRA:                   0.000
REMARK UNBOUND:                 0.000
REMARK SMILES O=c1ccc2ccccc2o1
REMARK SMILES IDX 7 1 8 2 9 3 10 4 5 5 6 6 4 7 3 8 2 9 1 10 11 11
REMARK H PARENT
REMARK Flexibility Score: inf
ROOT
ATOM      1  C   UNL     1      29.097  22.265  51.665  1.00  0.00     0.001 A 
ATOM      2  C   UNL     1      28.004  21.417  51.448  1.00  0.00     0.004 A 
ATOM      3  C   UNL     1      27.279  21.497  50.255  1.00  0.00     0.048 A 
ATOM      4  C   UNL     1      27.643  22.425  49.273  1.00  0.00     0.138 A 
ATOM      5  C   UNL     1      28.746  23.281  49.492  1.00  0.00     0.018 A 
ATOM      6  C   UNL     1      29.470  23.196  50.690  1.00  0.00     0.012 A 
ATOM      7  C   UNL     1      29.086  24.198  48.493  1.00  0.00     0.019 A 
ATOM      8  C   UNL     1      28.335  24.243  47.320  1.00  0.00     0.094 A 
ATOM      9  C   UNL     1      27.256  23.365  47.173  1.00  0.00     0.336 A 
ATOM     10  O   UNL     1      26.565  23.389  46.120  1.00  0.00    -0.246 OA
ATOM     11  O   UNL     1      26.952  22.501  48.139  1.00  0.00    -0.423 OA
ENDROOT
TORSDOF 0
ENDMDL
MODEL 5
REMARK VINA RESULT:    -4.911     13.300     14.395
REMARK INTER + INTRA:          -4.911
REMARK INTER:                  -4.911
REMARK INTRA:                   0.000
REMARK UNBOUND:                 0.000
REMARK SMILES O=c1ccc2ccccc2o1
REMARK SMILES IDX 7 1 8 2 9 3 10 4 5 5 6 6 4 7 3 8 2 9 1 10 11 11
REMARK H PARENT
REMARK Flexibility Score: inf
ROOT
ATOM      1  C   UNL     1      26.540  24.189  52.212  1.00  0.00     0.001 A 
ATOM      2  C   UNL     1      27.706  23.718  52.827  1.00  0.00     0.004 A 
ATOM      3  C   UNL     1      28.823  23.386  52.054  1.00  0.00     0.048 A 
ATOM      4  C   UNL     1      28.780  23.521  50.663  1.00  0.00     0.138 A 
ATOM      5  C   UNL     1      27.603  23.997  50.041  1.00  0.00     0.018 A 
ATOM      6  C   UNL     1      26.486  24.329  50.821  1.00  0.00     0.012 A 
ATOM      7  C   UNL     1      27.589  24.123  48.649  1.00  0.00     0.019 A 
ATOM      8  C   UNL     1      28.726  23.780  47.919  1.00  0.00     0.094 A 
ATOM      9  C   UNL     1      29.856  23.316  48.602  1.00  0.00     0.336 A 
ATOM     10  O   UNL     1      30.893  23.000  47.961  1.00  0.00    -0.246 OA
ATOM     11  O   UNL     1      29.843  23.205  49.929  1.00  0.00    -0.423 OA
ENDROOT
TORSDOF 0
ENDMDL
MODEL 6
REMARK VINA RESULT:    -4.791      2.016      4.401
REMARK INTER + INTRA:          -4.791
REMARK INTER:                  -4.791
REMARK INTRA:                   0.000
REMARK UNBOUND:                 0.000
REMARK SMILES O=c1ccc2ccccc2o1
REMARK SMILES IDX 7 1 8 2 9 3 10 4 5 5 6 6 4 7 3 8 2 9 1 10 11 11
REMARK H PARENT
REMARK Flexibility Score: inf
ROOT
ATOM      1  C   UNL     1      20.122  21.684  38.170  1.00  0.00     0.001 A 
ATOM      2  C   UNL     1      20.541  21.629  39.505  1.00  0.00     0.004 A 
ATOM      3  C   UNL     1      20.487  22.774  40.306  1.00  0.00     0.048 A 
ATOM      4  C   UNL     1      20.016  23.980  39.776  1.00  0.00     0.138 A 
ATOM      5  C   UNL     1      19.593  24.036  38.428  1.00  0.00     0.018 A 
ATOM      6  C   UNL     1      19.649  22.884  37.630  1.00  0.00     0.012 A 
ATOM      7  C   UNL     1      19.126  25.254  37.926  1.00  0.00     0.019 A 
ATOM      8  C   UNL     1      19.090  26.370  38.760  1.00  0.00     0.094 A 
ATOM      9  C   UNL     1      19.525  26.240  40.084  1.00  0.00     0.336 A 
ATOM     10  O   UNL     1      19.501  27.237  40.854  1.00  0.00    -0.246 OA
ATOM     11  O   UNL     1      19.966  25.069  40.538  1.00  0.00    -0.423 OA
ENDROOT
TORSDOF 0
ENDMDL
MODEL 7
REMARK VINA RESULT:    -4.785     13.586     14.760
REMARK INTER + INTRA:          -4.785
REMARK INTER:                  -4.785
REMARK INTRA:                   0.000
REMARK UNBOUND:                 0.000
REMARK SMILES O=c1ccc2ccccc2o1
REMARK SMILES IDX 7 1 8 2 9 3 10 4 5 5 6 6 4 7 3 8 2 9 1 10 11 11
REMARK H PARENT
REMARK Flexibility Score: inf
ROOT
ATOM      1  C   UNL     1      29.678  23.612  47.994  1.00  0.00     0.001 A 
ATOM      2  C   UNL     1      30.448  22.790  48.825  1.00  0.00     0.004 A 
ATOM      3  C   UNL     1      30.030  22.526  50.134  1.00  0.00     0.048 A 
ATOM      4  C   UNL     1      28.841  23.083  50.616  1.00  0.00     0.138 A 
ATOM      5  C   UNL     1      28.063  23.912  49.776  1.00  0.00     0.018 A 
ATOM      6  C   UNL     1      28.488  24.174  48.465  1.00  0.00     0.012 A 
ATOM      7  C   UNL     1      26.880  24.454  50.286  1.00  0.00     0.019 A 
ATOM      8  C   UNL     1      26.502  24.164  51.596  1.00  0.00     0.094 A 
ATOM      9  C   UNL     1      27.322  23.335  52.369  1.00  0.00     0.336 A 
ATOM     10  O   UNL     1      26.997  23.060  53.556  1.00  0.00    -0.246 OA
ATOM     11  O   UNL     1      28.444  22.831  51.861  1.00  0.00    -0.423 OA
ENDROOT
TORSDOF 0
ENDMDL
MODEL 8
REMARK VINA RESULT:    -4.782     12.386     13.702
REMARK INTER + INTRA:          -4.782
REMARK INTER:                  -4.782
REMARK INTRA:                   0.000
REMARK UNBOUND:                 0.000
REMARK SMILES O=c1ccc2ccccc2o1
REMARK SMILES IDX 7 1 8 2 9 3 10 4 5 5 6 6 4 7 3 8 2 9 1 10 11 11
REMARK H PARENT
REMARK Flexibility Score: inf
ROOT
ATOM      1  C   UNL     1      27.134  21.483  50.974  1.00  0.00     0.001 A 
ATOM      2  C   UNL     1      28.471  21.620  51.364  1.00  0.00     0.004 A 
ATOM      3  C   UNL     1      29.360  22.359  50.577  1.00  0.00     0.048 A 
ATOM      4  C   UNL     1      28.917  22.962  49.395  1.00  0.00     0.138 A 
ATOM      5  C   UNL     1      27.566  22.823  49.001  1.00  0.00     0.018 A 
ATOM      6  C   UNL     1      26.679  22.082  49.795  1.00  0.00     0.012 A 
ATOM      7  C   UNL     1      27.152  23.438  47.816  1.00  0.00     0.019 A 
ATOM      8  C   UNL     1      28.073  24.163  47.063  1.00  0.00     0.094 A 
ATOM      9  C   UNL     1      29.394  24.258  47.514  1.00  0.00     0.336 A 
ATOM     10  O   UNL     1      30.241  24.910  46.848  1.00  0.00    -0.246 OA
ATOM     11  O   UNL     1      29.764  23.664  48.646  1.00  0.00    -0.423 OA
ENDROOT
TORSDOF 0
ENDMDL
MODEL 9
REMARK VINA RESULT:    -4.659      4.531      5.953
REMARK INTER + INTRA:          -4.659
REMARK INTER:                  -4.659
REMARK INTRA:                   0.000
REMARK UNBOUND:                 0.000
REMARK SMILES O=c1ccc2ccccc2o1
REMARK SMILES IDX 7 1 8 2 9 3 10 4 5 5 6 6 4 7 3 8 2 9 1 10 11 11
REMARK H PARENT
REMARK Flexibility Score: inf
ROOT
ATOM      1  C   UNL     1      16.742  26.116  44.215  1.00  0.00     0.001 A 
ATOM      2  C   UNL     1      17.736  26.476  45.132  1.00  0.00     0.004 A 
ATOM      3  C   UNL     1      19.011  26.834  44.682  1.00  0.00     0.048 A 
ATOM      4  C   UNL     1      19.298  26.831  43.313  1.00  0.00     0.138 A 
ATOM      5  C   UNL     1      18.295  26.467  42.386  1.00  0.00     0.018 A 
ATOM      6  C   UNL     1      17.018  26.110  42.844  1.00  0.00     0.012 A 
ATOM      7  C   UNL     1      18.610  26.474  41.025  1.00  0.00     0.019 A 
ATOM      8  C   UNL     1      19.894  26.836  40.622  1.00  0.00     0.094 A 
ATOM      9  C   UNL     1      20.837  27.185  41.595  1.00  0.00     0.336 A 
ATOM     10  O   UNL     1      22.003  27.516  41.251  1.00  0.00    -0.246 OA
ATOM     11  O   UNL     1      20.512  27.170  42.885  1.00  0.00    -0.423 OA
ENDROOT
TORSDOF 0
ENDMDL
