MODEL 1
REMARK VINA RESULT:    -5.696      0.000      0.000
REMARK INTER + INTRA:          -5.696
REMARK INTER:                  -5.696
REMARK INTRA:                   0.000
REMARK UNBOUND:                 0.000
REMARK SMILES CC1=CC[C@@]2(C)CCCC(C)(C)[C@]23C[C@H]13
REMARK SMILES IDX 1 1 2 2 3 3 4 4 5 5 7 6 8 7 9 8 10 9 13 10 15 11 14 12 11 13
REMARK SMILES IDX 12 14 6 15
REMARK H PARENT
REMARK Flexibility Score: inf
ROOT
ATOM      1  C   UNL     1       6.750   5.105  10.875  1.00  0.00     0.039 C 
ATOM      2  C   UNL     1       6.746   6.318  11.763  1.00  0.00    -0.074 C 
ATOM      3  C   UNL     1       7.676   7.263  11.601  1.00  0.00    -0.027 C 
ATOM      4  C   UNL     1       7.610   8.530  12.391  1.00  0.00     0.034 C 
ATOM      5  C   UNL     1       7.315   8.334  13.913  1.00  0.00    -0.022 C 
ATOM      6  C   UNL     1       6.962   9.767  14.433  1.00  0.00     0.008 C 
ATOM      7  C   UNL     1       6.187   9.785  15.736  1.00  0.00     0.001 C 
ATOM      8  C   UNL     1       4.854   9.083  15.521  1.00  0.00     0.007 C 
ATOM      9  C   UNL     1       5.026   7.565  15.281  1.00  0.00    -0.029 C 
ATOM     10  C   UNL     1       6.128   7.284  14.158  1.00  0.00    -0.012 C 
ATOM     11  C   UNL     1       5.795   6.380  12.932  1.00  0.00     0.022 C 
ATOM     12  C   UNL     1       6.492   5.776  14.130  1.00  0.00     0.017 C 
ATOM     13  C   UNL     1       5.424   6.906  16.635  1.00  0.00     0.012 C 
ATOM     14  C   UNL     1       3.628   7.022  14.891  1.00  0.00     0.012 C 
ATOM     15  C   UNL     1       8.617   7.877  14.623  1.00  0.00     0.012 C 
ENDROOT
TORSDOF 0
ENDMDL
MODEL 2
REMARK VINA RESULT:    -5.672     11.914     14.111
REMARK INTER + INTRA:          -5.672
REMARK INTER:                  -5.672
REMARK INTRA:                   0.000
REMARK UNBOUND:                 0.000
REMARK SMILES CC1=CC[C@@]2(C)CCCC(C)(C)[C@]23C[C@H]13
REMARK SMILES IDX 1 1 2 2 3 3 4 4 5 5 7 6 8 7 9 8 10 9 13 10 15 11 14 12 11 13
REMARK SMILES IDX 12 14 6 15
REMARK H PARENT
REMARK Flexibility Score: inf
ROOT
ATOM      1  C   UNL     1      11.680   5.624  27.884  1.00  0.00     0.039 C 
ATOM      2  C   UNL     1      12.072   6.771  26.995  1.00  0.00    -0.074 C 
ATOM      3  C   UNL     1      11.129   7.480  26.371  1.00  0.00    -0.027 C 
ATOM      4  C   UNL     1      11.495   8.698  25.586  1.00  0.00     0.034 C 
ATOM      5  C   UNL     1      12.732   8.520  24.647  1.00  0.00    -0.022 C 
ATOM      6  C   UNL     1      13.111   9.976  24.217  1.00  0.00     0.008 C 
ATOM      7  C   UNL     1      14.532  10.125  23.707  1.00  0.00     0.001 C 
ATOM      8  C   UNL     1      15.495   9.760  24.827  1.00  0.00     0.007 C 
ATOM      9  C   UNL     1      15.444   8.253  25.172  1.00  0.00    -0.029 C 
ATOM     10  C   UNL     1      13.937   7.766  25.388  1.00  0.00    -0.012 C 
ATOM     11  C   UNL     1      13.529   7.009  26.689  1.00  0.00     0.022 C 
ATOM     12  C   UNL     1      13.879   6.217  25.450  1.00  0.00     0.017 C 
ATOM     13  C   UNL     1      16.126   7.471  24.010  1.00  0.00     0.012 C 
ATOM     14  C   UNL     1      16.317   8.064  26.438  1.00  0.00     0.012 C 
ATOM     15  C   UNL     1      12.290   7.748  23.376  1.00  0.00     0.012 C 
ENDROOT
TORSDOF 0
ENDMDL
MODEL 3
REMARK VINA RESULT:    -5.554      1.292      4.715
REMARK INTER + INTRA:          -5.554
REMARK INTER:                  -5.554
REMARK INTRA:                   0.000
REMARK UNBOUND:                 0.000
REMARK SMILES CC1=CC[C@@]2(C)CCCC(C)(C)[C@]23C[C@H]13
REMARK SMILES IDX 1 1 2 2 3 3 4 4 5 5 7 6 8 7 9 8 10 9 13 10 15 11 14 12 11 13
REMARK SMILES IDX 12 14 6 15
REMARK H PARENT
REMARK Flexibility Score: inf
ROOT
ATOM      1  C   UNL     1       5.663  10.124  17.780  1.00  0.00     0.039 C 
ATOM      2  C   UNL     1       5.294   9.318  16.566  1.00  0.00    -0.074 C 
ATOM      3  C   UNL     1       4.024   8.958  16.368  1.00  0.00    -0.027 C 
ATOM      4  C   UNL     1       3.623   8.267  15.106  1.00  0.00     0.034 C 
ATOM      5  C   UNL     1       4.576   7.108  14.666  1.00  0.00    -0.022 C 
ATOM      6  C   UNL     1       4.153   6.790  13.194  1.00  0.00     0.008 C 
ATOM      7  C   UNL     1       5.208   6.056  12.388  1.00  0.00     0.001 C 
ATOM      8  C   UNL     1       6.443   6.937  12.281  1.00  0.00     0.007 C 
ATOM      9  C   UNL     1       7.156   7.108  13.644  1.00  0.00    -0.029 C 
ATOM     10  C   UNL     1       6.118   7.531  14.783  1.00  0.00    -0.012 C 
ATOM     11  C   UNL     1       6.384   8.787  15.669  1.00  0.00     0.022 C 
ATOM     12  C   UNL     1       6.784   7.423  16.181  1.00  0.00     0.017 C 
ATOM     13  C   UNL     1       7.856   5.762  13.993  1.00  0.00     0.012 C 
ATOM     14  C   UNL     1       8.265   8.169  13.427  1.00  0.00     0.012 C 
ATOM     15  C   UNL     1       4.275   5.855  15.530  1.00  0.00     0.012 C 
ENDROOT
TORSDOF 0
ENDMDL
MODEL 4
REMARK VINA RESULT:    -5.314     13.188     15.720
REMARK INTER + INTRA:          -5.314
REMARK INTER:                  -5.314
REMARK INTRA:                   0.000
REMARK UNBOUND:                 0.000
REMARK SMILES CC1=CC[C@@]2(C)CCCC(C)(C)[C@]23C[C@H]13
REMARK SMILES IDX 1 1 2 2 3 3 4 4 5 5 7 6 8 7 9 8 10 9 13 10 15 11 14 12 11 13
REMARK SMILES IDX 12 14 6 15
REMARK H PARENT
REMARK Flexibility Score: inf
ROOT
ATOM      1  C   UNL     1      10.498   3.426  31.125  1.00  0.00     0.039 C 
ATOM      2  C   UNL     1      10.500   4.734  30.385  1.00  0.00    -0.074 C 
ATOM      3  C   UNL     1       9.585   5.663  30.675  1.00  0.00    -0.027 C 
ATOM      4  C   UNL     1       9.652   7.013  30.038  1.00  0.00     0.034 C 
ATOM      5  C   UNL     1       9.917   6.994  28.497  1.00  0.00    -0.022 C 
ATOM      6  C   UNL     1      10.277   8.475  28.143  1.00  0.00     0.008 C 
ATOM      7  C   UNL     1      11.029   8.638  26.836  1.00  0.00     0.001 C 
ATOM      8  C   UNL     1      12.357   7.903  26.941  1.00  0.00     0.007 C 
ATOM      9  C   UNL     1      12.171   6.368  27.004  1.00  0.00    -0.029 C 
ATOM     10  C   UNL     1      11.086   5.968  28.108  1.00  0.00    -0.012 C 
ATOM     11  C   UNL     1      11.430   4.923  29.213  1.00  0.00     0.022 C 
ATOM     12  C   UNL     1      10.705   4.471  27.966  1.00  0.00     0.017 C 
ATOM     13  C   UNL     1      11.741   5.877  25.590  1.00  0.00     0.012 C 
ATOM     14  C   UNL     1      13.569   5.770  27.301  1.00  0.00     0.012 C 
ATOM     15  C   UNL     1       8.597   6.637  27.765  1.00  0.00     0.012 C 
ENDROOT
TORSDOF 0
ENDMDL
MODEL 5
REMARK VINA RESULT:    -5.205     13.408     15.224
REMARK INTER + INTRA:          -5.205
REMARK INTER:                  -5.205
REMARK INTRA:                   0.000
REMARK UNBOUND:                 0.000
REMARK SMILES CC1=CC[C@@]2(C)CCCC(C)(C)[C@]23C[C@H]13
REMARK SMILES IDX 1 1 2 2 3 3 4 4 5 5 7 6 8 7 9 8 10 9 13 10 15 11 14 12 11 13
REMARK SMILES IDX 12 14 6 15
REMARK H PARENT
REMARK Flexibility Score: inf
ROOT
ATOM      1  C   UNL     1      13.527   7.838  25.279  1.00  0.00     0.039 C 
ATOM      2  C   UNL     1      12.954   7.109  26.462  1.00  0.00    -0.074 C 
ATOM      3  C   UNL     1      13.415   5.898  26.784  1.00  0.00    -0.027 C 
ATOM      4  C   UNL     1      12.945   5.217  28.027  1.00  0.00     0.034 C 
ATOM      5  C   UNL     1      11.399   5.272  28.255  1.00  0.00    -0.022 C 
ATOM      6  C   UNL     1      11.204   4.813  29.739  1.00  0.00     0.008 C 
ATOM      7  C   UNL     1       9.879   5.227  30.350  1.00  0.00     0.001 C 
ATOM      8  C   UNL     1       9.805   6.747  30.374  1.00  0.00     0.007 C 
ATOM      9  C   UNL     1       9.693   7.347  28.953  1.00  0.00    -0.029 C 
ATOM     10  C   UNL     1      10.810   6.739  27.985  1.00  0.00    -0.012 C 
ATOM     11  C   UNL     1      11.754   7.680  27.176  1.00  0.00     0.022 C 
ATOM     12  C   UNL     1      10.513   7.128  26.513  1.00  0.00     0.017 C 
ATOM     13  C   UNL     1       8.262   7.050  28.416  1.00  0.00     0.012 C 
ATOM     14  C   UNL     1       9.821   8.883  29.115  1.00  0.00     0.012 C 
ATOM     15  C   UNL     1      10.718   4.221  27.339  1.00  0.00     0.012 C 
ENDROOT
TORSDOF 0
ENDMDL
MODEL 6
REMARK VINA RESULT:    -5.195      1.408      3.608
REMARK INTER + INTRA:          -5.195
REMARK INTER:                  -5.195
REMARK INTRA:                   0.000
REMARK UNBOUND:                 0.000
REMARK SMILES CC1=CC[C@@]2(C)CCCC(C)(C)[C@]23C[C@H]13
REMARK SMILES IDX 1 1 2 2 3 3 4 4 5 5 7 6 8 7 9 8 10 9 13 10 15 11 14 12 11 13
REMARK SMILES IDX 12 14 6 15
REMARK H PARENT
REMARK Flexibility Score: inf
ROOT
ATOM      1  C   UNL     1       8.248   8.574  12.779  1.00  0.00     0.039 C 
ATOM      2  C   UNL     1       7.207   7.913  13.638  1.00  0.00    -0.074 C 
ATOM      3  C   UNL     1       6.401   6.987  13.112  1.00  0.00    -0.027 C 
ATOM      4  C   UNL     1       5.448   6.233  13.981  1.00  0.00     0.034 C 
ATOM      5  C   UNL     1       4.648   7.118  14.992  1.00  0.00    -0.022 C 
ATOM      6  C   UNL     1       4.005   6.095  15.985  1.00  0.00     0.008 C 
ATOM      7  C   UNL     1       3.584   6.696  17.313  1.00  0.00     0.001 C 
ATOM      8  C   UNL     1       4.818   7.236  18.019  1.00  0.00     0.007 C 
ATOM      9  C   UNL     1       5.412   8.467  17.294  1.00  0.00    -0.029 C 
ATOM     10  C   UNL     1       5.596   8.178  15.733  1.00  0.00    -0.012 C 
ATOM     11  C   UNL     1       6.974   8.415  15.041  1.00  0.00     0.022 C 
ATOM     12  C   UNL     1       5.919   9.495  14.979  1.00  0.00     0.017 C 
ATOM     13  C   UNL     1       4.457   9.673  17.533  1.00  0.00     0.012 C 
ATOM     14  C   UNL     1       6.753   8.786  18.001  1.00  0.00     0.012 C 
ATOM     15  C   UNL     1       3.499   7.833  14.233  1.00  0.00     0.012 C 
ENDROOT
TORSDOF 0
ENDMDL
MODEL 7
REMARK VINA RESULT:    -5.175     10.416     12.529
REMARK INTER + INTRA:          -5.175
REMARK INTER:                  -5.175
REMARK INTRA:                   0.000
REMARK UNBOUND:                 0.000
REMARK SMILES CC1=CC[C@@]2(C)CCCC(C)(C)[C@]23C[C@H]13
REMARK SMILES IDX 1 1 2 2 3 3 4 4 5 5 7 6 8 7 9 8 10 9 13 10 15 11 14 12 11 13
REMARK SMILES IDX 12 14 6 15
REMARK H PARENT
REMARK Flexibility Score: inf
ROOT
ATOM      1  C   UNL     1      11.786   5.982  27.391  1.00  0.00     0.039 C 
ATOM      2  C   UNL     1      12.532   6.558  26.221  1.00  0.00    -0.074 C 
ATOM      3  C   UNL     1      13.791   6.975  26.376  1.00  0.00    -0.027 C 
ATOM      4  C   UNL     1      14.586   7.432  25.196  1.00  0.00     0.034 C 
ATOM      5  C   UNL     1      13.823   8.397  24.231  1.00  0.00    -0.022 C 
ATOM      6  C   UNL     1      14.713   8.450  22.945  1.00  0.00     0.008 C 
ATOM      7  C   UNL     1      13.984   8.920  21.701  1.00  0.00     0.001 C 
ATOM      8  C   UNL     1      12.866   7.935  21.389  1.00  0.00     0.007 C 
ATOM      9  C   UNL     1      11.738   7.980  22.448  1.00  0.00    -0.029 C 
ATOM     10  C   UNL     1      12.336   7.880  23.926  1.00  0.00    -0.012 C 
ATOM     11  C   UNL     1      11.803   6.807  24.925  1.00  0.00     0.022 C 
ATOM     12  C   UNL     1      11.239   8.209  24.972  1.00  0.00     0.017 C 
ATOM     13  C   UNL     1      10.946   9.307  22.251  1.00  0.00     0.012 C 
ATOM     14  C   UNL     1      10.778   6.810  22.114  1.00  0.00     0.012 C 
ATOM     15  C   UNL     1      13.802   9.817  24.854  1.00  0.00     0.012 C 
ENDROOT
TORSDOF 0
ENDMDL
MODEL 8
REMARK VINA RESULT:    -4.947      1.933      3.104
REMARK INTER + INTRA:          -4.947
REMARK INTER:                  -4.947
REMARK INTRA:                   0.000
REMARK UNBOUND:                 0.000
REMARK SMILES CC1=CC[C@@]2(C)CCCC(C)(C)[C@]23C[C@H]13
REMARK SMILES IDX 1 1 2 2 3 3 4 4 5 5 7 6 8 7 9 8 10 9 13 10 15 11 14 12 11 13
REMARK SMILES IDX 12 14 6 15
REMARK H PARENT
REMARK Flexibility Score: inf
ROOT
ATOM      1  C   UNL     1       5.231   6.294  12.750  1.00  0.00     0.039 C 
ATOM      2  C   UNL     1       5.277   7.266  13.895  1.00  0.00    -0.074 C 
ATOM      3  C   UNL     1       6.454   7.709  14.345  1.00  0.00    -0.027 C 
ATOM      4  C   UNL     1       6.511   8.769  15.396  1.00  0.00     0.034 C 
ATOM      5  C   UNL     1       5.534   8.548  16.597  1.00  0.00    -0.022 C 
ATOM      6  C   UNL     1       5.531   9.916  17.357  1.00  0.00     0.008 C 
ATOM      7  C   UNL     1       4.330  10.125  18.259  1.00  0.00     0.001 C 
ATOM      8  C   UNL     1       3.071  10.124  17.405  1.00  0.00     0.007 C 
ATOM      9  C   UNL     1       2.773   8.728  16.808  1.00  0.00    -0.029 C 
ATOM     10  C   UNL     1       4.071   8.119  16.102  1.00  0.00    -0.012 C 
ATOM     11  C   UNL     1       4.005   7.609  14.630  1.00  0.00     0.022 C 
ATOM     12  C   UNL     1       3.843   6.622  15.764  1.00  0.00     0.017 C 
ATOM     13  C   UNL     1       2.277   7.807  17.962  1.00  0.00     0.012 C 
ATOM     14  C   UNL     1       1.593   8.917  15.822  1.00  0.00     0.012 C 
ATOM     15  C   UNL     1       6.138   7.478  17.545  1.00  0.00     0.012 C 
ENDROOT
TORSDOF 0
ENDMDL
MODEL 9
REMARK VINA RESULT:    -4.945     11.935     13.989
REMARK INTER + INTRA:          -4.945
REMARK INTER:                  -4.945
REMARK INTRA:                   0.000
REMARK UNBOUND:                 0.000
REMARK SMILES CC1=CC[C@@]2(C)CCCC(C)(C)[C@]23C[C@H]13
REMARK SMILES IDX 1 1 2 2 3 3 4 4 5 5 7 6 8 7 9 8 10 9 13 10 15 11 14 12 11 13
REMARK SMILES IDX 12 14 6 15
REMARK H PARENT
REMARK Flexibility Score: inf
ROOT
ATOM      1  C   UNL     1      17.178   9.167  25.169  1.00  0.00     0.039 C 
ATOM      2  C   UNL     1      15.888   8.574  25.663  1.00  0.00    -0.074 C 
ATOM      3  C   UNL     1      15.908   7.652  26.630  1.00  0.00    -0.027 C 
ATOM      4  C   UNL     1      14.631   7.147  27.217  1.00  0.00     0.034 C 
ATOM      5  C   UNL     1      13.527   6.791  26.169  1.00  0.00    -0.022 C 
ATOM      6  C   UNL     1      12.221   6.626  27.014  1.00  0.00     0.008 C 
ATOM      7  C   UNL     1      10.939   6.751  26.213  1.00  0.00     0.001 C 
ATOM      8  C   UNL     1      10.871   8.148  25.615  1.00  0.00     0.007 C 
ATOM      9  C   UNL     1      11.945   8.368  24.523  1.00  0.00    -0.029 C 
ATOM     10  C   UNL     1      13.389   7.924  25.042  1.00  0.00    -0.012 C 
ATOM     11  C   UNL     1      14.599   8.904  24.954  1.00  0.00     0.022 C 
ATOM     12  C   UNL     1      14.394   7.881  23.861  1.00  0.00     0.017 C 
ATOM     13  C   UNL     1      11.525   7.552  23.264  1.00  0.00     0.012 C 
ATOM     14  C   UNL     1      11.885   9.870  24.146  1.00  0.00     0.012 C 
ATOM     15  C   UNL     1      13.862   5.414  25.536  1.00  0.00     0.012 C 
ENDROOT
TORSDOF 0
ENDMDL
