MODEL 1
REMARK VINA RESULT:    11.120      0.000      0.000
REMARK INTER + INTRA:          20.322
REMARK INTER:                  19.570
REMARK INTRA:                   0.752
REMARK UNBOUND:                 0.752
REMARK SMILES CCCCCCCCCCCCCCC(=O)[O-]
REMARK SMILES IDX 9 1 10 2 11 3 12 4 13 5 14 6 15 7 16 8 17 9 8 10 7 11 6 12
REMARK SMILES IDX 5 13 4 14 3 15 2 16 1 17
REMARK H PARENT
REMARK Flexibility Score: inf
ROOT
ATOM      1  C   UNL     1      15.398   6.343   7.216  1.00  0.00     0.000 C 
ENDROOT
BRANCH   1   2
ATOM      2  C   UNL     1      15.723   4.978   6.592  1.00  0.00     0.000 C 
BRANCH   2   3
ATOM      3  C   UNL     1      17.234   4.750   6.406  1.00  0.00     0.000 C 
BRANCH   3   4
ATOM      4  C   UNL     1      18.125   5.331   7.523  1.00  0.00     0.000 C 
BRANCH   4   5
ATOM      5  C   UNL     1      17.369   5.824   8.770  1.00  0.00     0.006 C 
BRANCH   5   6
ATOM      6  C   UNL     1      18.122   6.926   9.525  1.00  0.00     0.053 C 
BRANCH   6   7
ATOM      7  C   UNL     1      17.206   8.069   9.831  1.00  0.00     0.041 C 
ATOM      8  O   UNL     1      17.664   9.238   9.930  1.00  0.00    -0.550 OA
ATOM      9  O   UNL     1      15.840   7.850   9.957  1.00  0.00    -0.550 OA
ENDBRANCH   6   7
ENDBRANCH   5   6
ENDBRANCH   4   5
ENDBRANCH   3   4
ENDBRANCH   2   3
ENDBRANCH   1   2
BRANCH   1  10
ATOM     10  C   UNL     1      14.064   6.295   7.975  1.00  0.00     0.000 C 
BRANCH  10  11
ATOM     11  C   UNL     1      13.067   7.369   7.504  1.00  0.00    -0.000 C 
BRANCH  11  12
ATOM     12  C   UNL     1      11.635   6.861   7.238  1.00  0.00    -0.000 C 
BRANCH  12  13
ATOM     13  C   UNL     1      10.764   6.673   8.494  1.00  0.00    -0.000 C 
BRANCH  13  14
ATOM     14  C   UNL     1      10.155   5.268   8.656  1.00  0.00    -0.000 C 
BRANCH  14  15
ATOM     15  C   UNL     1      10.841   4.191   7.789  1.00  0.00    -0.000 C 
BRANCH  15  16
ATOM     16  C   UNL     1      10.523   2.764   8.261  1.00  0.00    -0.003 C 
ATOM     17  C   UNL     1      10.944   2.558   9.713  1.00  0.00     0.004 C 
ENDBRANCH  15  16
ENDBRANCH  14  15
ENDBRANCH  13  14
ENDBRANCH  12  13
ENDBRANCH  11  12
ENDBRANCH  10  11
ENDBRANCH   1  10
TORSDOF 13
ENDMDL
MODEL 2
REMARK VINA RESULT:    11.180      1.004      1.621
REMARK INTER + INTRA:          20.428
REMARK INTER:                  20.255
REMARK INTRA:                   0.173
REMARK UNBOUND:                 0.752
REMARK SMILES CCCCCCCCCCCCCCC(=O)[O-]
REMARK SMILES IDX 9 1 10 2 11 3 12 4 13 5 14 6 15 7 16 8 17 9 8 10 7 11 6 12
REMARK SMILES IDX 5 13 4 14 3 15 2 16 1 17
REMARK H PARENT
REMARK Flexibility Score: inf
ROOT
ATOM      1  C   UNL     1      15.844   5.993   6.871  1.00  0.00     0.000 C 
ENDROOT
BRANCH   1   2
ATOM      2  C   UNL     1      16.450   4.884   5.999  1.00  0.00     0.000 C 
BRANCH   2   3
ATOM      3  C   UNL     1      17.764   4.324   6.571  1.00  0.00     0.000 C 
BRANCH   3   4
ATOM      4  C   UNL     1      18.125   4.820   7.986  1.00  0.00     0.000 C 
BRANCH   4   5
ATOM      5  C   UNL     1      18.089   6.348   8.169  1.00  0.00     0.006 C 
BRANCH   5   6
ATOM      6  C   UNL     1      18.046   6.771   9.643  1.00  0.00     0.053 C 
BRANCH   6   7
ATOM      7  C   UNL     1      17.125   7.935   9.826  1.00  0.00     0.041 C 
ATOM      8  O   UNL     1      15.905   7.746  10.072  1.00  0.00    -0.550 OA
ATOM      9  O   UNL     1      17.625   9.231   9.774  1.00  0.00    -0.550 OA
ENDBRANCH   6   7
ENDBRANCH   5   6
ENDBRANCH   4   5
ENDBRANCH   3   4
ENDBRANCH   2   3
ENDBRANCH   1   2
BRANCH   1  10
ATOM     10  C   UNL     1      14.598   5.488   7.613  1.00  0.00     0.000 C 
BRANCH  10  11
ATOM     11  C   UNL     1      13.777   6.625   8.249  1.00  0.00    -0.000 C 
BRANCH  11  12
ATOM     12  C   UNL     1      12.850   7.385   7.278  1.00  0.00    -0.000 C 
BRANCH  12  13
ATOM     13  C   UNL     1      11.343   7.235   7.560  1.00  0.00    -0.000 C 
BRANCH  13  14
ATOM     14  C   UNL     1      10.996   6.360   8.780  1.00  0.00    -0.000 C 
BRANCH  14  15
ATOM     15  C   UNL     1      10.126   5.132   8.434  1.00  0.00    -0.000 C 
BRANCH  15  16
ATOM     16  C   UNL     1      10.711   4.301   7.283  1.00  0.00    -0.003 C 
ATOM     17  C   UNL     1       9.783   4.310   6.071  1.00  0.00     0.004 C 
ENDBRANCH  15  16
ENDBRANCH  14  15
ENDBRANCH  13  14
ENDBRANCH  12  13
ENDBRANCH  11  12
ENDBRANCH  10  11
ENDBRANCH   1  10
TORSDOF 13
ENDMDL
MODEL 3
REMARK VINA RESULT:    12.441      2.967      7.075
REMARK INTER + INTRA:          22.648
REMARK INTER:                  21.617
REMARK INTRA:                   1.031
REMARK UNBOUND:                 0.752
REMARK SMILES CCCCCCCCCCCCCCC(=O)[O-]
REMARK SMILES IDX 9 1 10 2 11 3 12 4 13 5 14 6 15 7 16 8 17 9 8 10 7 11 6 12
REMARK SMILES IDX 5 13 4 14 3 15 2 16 1 17
REMARK H PARENT
REMARK Flexibility Score: inf
ROOT
ATOM      1  C   UNL     1      13.861   6.379   8.303  1.00  0.00     0.000 C 
ENDROOT
BRANCH   1   2
ATOM      2  C   UNL     1      13.130   7.348   7.362  1.00  0.00     0.000 C 
BRANCH   2   3
ATOM      3  C   UNL     1      11.606   7.137   7.352  1.00  0.00     0.000 C 
BRANCH   3   4
ATOM      4  C   UNL     1      11.003   6.660   8.689  1.00  0.00     0.000 C 
BRANCH   4   5
ATOM      5  C   UNL     1      10.139   5.390   8.598  1.00  0.00     0.006 C 
BRANCH   5   6
ATOM      6  C   UNL     1      10.849   4.236   7.879  1.00  0.00     0.053 C 
BRANCH   6   7
ATOM      7  C   UNL     1      10.596   2.944   8.588  1.00  0.00     0.041 C 
ATOM      8  O   UNL     1      10.584   1.861   7.946  1.00  0.00    -0.550 OA
ATOM      9  O   UNL     1      10.421   2.930   9.967  1.00  0.00    -0.550 OA
ENDBRANCH   6   7
ENDBRANCH   5   6
ENDBRANCH   4   5
ENDBRANCH   3   4
ENDBRANCH   2   3
ENDBRANCH   1   2
BRANCH   1  10
ATOM     10  C   UNL     1      15.366   6.348   7.996  1.00  0.00     0.000 C 
BRANCH  10  11
ATOM     11  C   UNL     1      15.717   5.424   6.815  1.00  0.00    -0.000 C 
BRANCH  11  12
ATOM     12  C   UNL     1      17.219   5.115   6.650  1.00  0.00    -0.000 C 
BRANCH  12  13
ATOM     13  C   UNL     1      18.106   5.525   7.840  1.00  0.00    -0.000 C 
BRANCH  13  14
ATOM     14  C   UNL     1      17.340   6.053   9.068  1.00  0.00    -0.000 C 
BRANCH  14  15
ATOM     15  C   UNL     1      18.125   7.101   9.885  1.00  0.00    -0.000 C 
BRANCH  15  16
ATOM     16  C   UNL     1      17.252   8.290  10.312  1.00  0.00    -0.003 C 
ATOM     17  C   UNL     1      17.530   9.516   9.446  1.00  0.00     0.004 C 
ENDBRANCH  15  16
ENDBRANCH  14  15
ENDBRANCH  13  14
ENDBRANCH  12  13
ENDBRANCH  11  12
ENDBRANCH  10  11
ENDBRANCH   1  10
TORSDOF 13
ENDMDL
MODEL 4
REMARK VINA RESULT:    12.445      2.942      7.079
REMARK INTER + INTRA:          22.654
REMARK INTER:                  22.174
REMARK INTRA:                   0.480
REMARK UNBOUND:                 0.752
REMARK SMILES CCCCCCCCCCCCCCC(=O)[O-]
REMARK SMILES IDX 9 1 10 2 11 3 12 4 13 5 14 6 15 7 16 8 17 9 8 10 7 11 6 12
REMARK SMILES IDX 5 13 4 14 3 15 2 16 1 17
REMARK H PARENT
REMARK Flexibility Score: inf
ROOT
ATOM      1  C   UNL     1      14.880   6.042   7.614  1.00  0.00     0.000 C 
ENDROOT
BRANCH   1   2
ATOM      2  C   UNL     1      14.257   7.433   7.424  1.00  0.00     0.000 C 
BRANCH   2   3
ATOM      3  C   UNL     1      12.718   7.402   7.401  1.00  0.00     0.000 C 
BRANCH   3   4
ATOM      4  C   UNL     1      12.080   6.177   8.088  1.00  0.00     0.000 C 
BRANCH   4   5
ATOM      5  C   UNL     1      10.592   6.336   8.451  1.00  0.00     0.006 C 
BRANCH   5   6
ATOM      6  C   UNL     1      10.010   5.092   9.134  1.00  0.00     0.053 C 
BRANCH   6   7
ATOM      7  C   UNL     1      10.565   3.849   8.516  1.00  0.00     0.041 C 
ATOM      8  O   UNL     1      10.959   2.900   9.244  1.00  0.00    -0.550 OA
ATOM      9  O   UNL     1      10.602   3.717   7.133  1.00  0.00    -0.550 OA
ENDBRANCH   6   7
ENDBRANCH   5   6
ENDBRANCH   4   5
ENDBRANCH   3   4
ENDBRANCH   2   3
ENDBRANCH   1   2
BRANCH   1  10
ATOM     10  C   UNL     1      15.875   5.729   6.487  1.00  0.00     0.000 C 
BRANCH  10  11
ATOM     11  C   UNL     1      17.118   4.966   6.980  1.00  0.00    -0.000 C 
BRANCH  11  12
ATOM     12  C   UNL     1      17.927   5.677   8.084  1.00  0.00    -0.000 C 
BRANCH  12  13
ATOM     13  C   UNL     1      17.105   6.590   9.013  1.00  0.00    -0.000 C 
BRANCH  13  14
ATOM     14  C   UNL     1      17.831   7.028  10.299  1.00  0.00    -0.000 C 
BRANCH  14  15
ATOM     15  C   UNL     1      18.115   8.544  10.366  1.00  0.00    -0.000 C 
BRANCH  15  16
ATOM     16  C   UNL     1      17.273   9.345   9.362  1.00  0.00    -0.003 C 
ATOM     17  C   UNL     1      17.970  10.647   8.975  1.00  0.00     0.004 C 
ENDBRANCH  15  16
ENDBRANCH  14  15
ENDBRANCH  13  14
ENDBRANCH  12  13
ENDBRANCH  11  12
ENDBRANCH  10  11
ENDBRANCH   1  10
TORSDOF 13
ENDMDL
