MODEL 1
REMARK VINA RESULT:    -4.612      0.000      0.000
REMARK INTER + INTRA:          -5.063
REMARK INTER:                  -5.017
REMARK INTRA:                  -0.046
REMARK UNBOUND:                -0.046
REMARK SMILES CCc1cccc(O)c1
REMARK SMILES IDX 3 1 9 2 7 3 6 4 5 5 4 6 2 7 1 8 8 9
REMARK H PARENT 8 10
REMARK Flexibility Score: inf
ROOT
ATOM      1  C   UNL     1      19.500  28.227 -13.153  1.00  0.00    -0.045 A 
ATOM      2  C   UNL     1      18.746  27.377 -12.325  1.00  0.00     0.049 A 
ATOM      3  C   UNL     1      17.613  26.726 -12.826  1.00  0.00     0.115 A 
ATOM      4  C   UNL     1      17.233  26.915 -14.161  1.00  0.00     0.046 A 
ATOM      5  C   UNL     1      17.986  27.749 -14.992  1.00  0.00     0.004 A 
ATOM      6  C   UNL     1      19.118  28.400 -14.493  1.00  0.00     0.004 A 
ENDROOT
BRANCH   1   7
ATOM      7  C   UNL     1      20.737  28.901 -12.623  1.00  0.00     0.032 C 
ATOM      8  C   UNL     1      20.370  29.999 -11.630  1.00  0.00     0.009 C 
ENDBRANCH   1   7
BRANCH   3   9
ATOM      9  O   UNL     1      16.875  25.892 -11.989  1.00  0.00    -0.508 OA
ATOM     10  H   UNL     1      16.448  26.239 -11.139  1.00  0.00     0.293 HD
ENDBRANCH   3   9
TORSDOF 2
ENDMDL
MODEL 2
REMARK VINA RESULT:    -4.543      9.112     10.408
REMARK INTER + INTRA:          -4.988
REMARK INTER:                  -4.916
REMARK INTRA:                  -0.072
REMARK UNBOUND:                -0.046
REMARK SMILES CCc1cccc(O)c1
REMARK SMILES IDX 3 1 9 2 7 3 6 4 5 5 4 6 2 7 1 8 8 9
REMARK H PARENT 8 10
REMARK Flexibility Score: inf
ROOT
ATOM      1  C   UNL     1      19.478  30.726 -22.342  1.00  0.00    -0.045 A 
ATOM      2  C   UNL     1      19.656  31.976 -22.960  1.00  0.00     0.049 A 
ATOM      3  C   UNL     1      18.601  32.894 -23.018  1.00  0.00     0.115 A 
ATOM      4  C   UNL     1      17.363  32.568 -22.448  1.00  0.00     0.046 A 
ATOM      5  C   UNL     1      17.184  31.332 -21.821  1.00  0.00     0.004 A 
ATOM      6  C   UNL     1      18.238  30.415 -21.763  1.00  0.00     0.004 A 
ENDROOT
BRANCH   1   7
ATOM      7  C   UNL     1      20.624  29.754 -22.252  1.00  0.00     0.032 C 
ATOM      8  C   UNL     1      20.612  29.030 -20.909  1.00  0.00     0.009 C 
ENDBRANCH   1   7
BRANCH   3   9
ATOM      9  O   UNL     1      18.794  34.125 -23.639  1.00  0.00    -0.508 OA
ATOM     10  H   UNL     1      18.960  34.194 -24.636  1.00  0.00     0.293 HD
ENDBRANCH   3   9
TORSDOF 2
ENDMDL
MODEL 3
REMARK VINA RESULT:    -4.495      2.720      4.278
REMARK INTER + INTRA:          -4.936
REMARK INTER:                  -4.871
REMARK INTRA:                  -0.065
REMARK UNBOUND:                -0.046
REMARK SMILES CCc1cccc(O)c1
REMARK SMILES IDX 3 1 9 2 7 3 6 4 5 5 4 6 2 7 1 8 8 9
REMARK H PARENT 8 10
REMARK Flexibility Score: inf
ROOT
ATOM      1  C   UNL     1      19.077  27.922 -14.664  1.00  0.00    -0.045 A 
ATOM      2  C   UNL     1      19.924  27.447 -15.680  1.00  0.00     0.049 A 
ATOM      3  C   UNL     1      21.313  27.576 -15.561  1.00  0.00     0.115 A 
ATOM      4  C   UNL     1      21.861  28.174 -14.418  1.00  0.00     0.046 A 
ATOM      5  C   UNL     1      21.024  28.636 -13.399  1.00  0.00     0.004 A 
ATOM      6  C   UNL     1      19.637  28.507 -13.518  1.00  0.00     0.004 A 
ENDROOT
BRANCH   1   7
ATOM      7  C   UNL     1      17.586  27.752 -14.779  1.00  0.00     0.032 C 
ATOM      8  C   UNL     1      17.050  26.899 -13.634  1.00  0.00     0.009 C 
ENDBRANCH   1   7
BRANCH   3   9
ATOM      9  O   UNL     1      22.136  27.105 -16.580  1.00  0.00    -0.508 OA
ATOM     10  H   UNL     1      22.552  26.182 -16.541  1.00  0.00     0.293 HD
ENDBRANCH   3   9
TORSDOF 2
ENDMDL
MODEL 4
REMARK VINA RESULT:    -4.456     15.285     17.082
REMARK INTER + INTRA:          -4.893
REMARK INTER:                  -4.821
REMARK INTRA:                  -0.072
REMARK UNBOUND:                -0.046
REMARK SMILES CCc1cccc(O)c1
REMARK SMILES IDX 3 1 9 2 7 3 6 4 5 5 4 6 2 7 1 8 8 9
REMARK H PARENT 8 10
REMARK Flexibility Score: inf
ROOT
ATOM      1  C   UNL     1      34.383  30.613 -12.431  1.00  0.00    -0.045 A 
ATOM      2  C   UNL     1      35.263  31.484 -11.766  1.00  0.00     0.049 A 
ATOM      3  C   UNL     1      36.259  32.163 -12.477  1.00  0.00     0.115 A 
ATOM      4  C   UNL     1      36.374  31.980 -13.861  1.00  0.00     0.046 A 
ATOM      5  C   UNL     1      35.494  31.125 -14.530  1.00  0.00     0.004 A 
ATOM      6  C   UNL     1      34.499  30.447 -13.820  1.00  0.00     0.004 A 
ENDROOT
BRANCH   1   7
ATOM      7  C   UNL     1      33.292  29.909 -11.670  1.00  0.00     0.032 C 
ATOM      8  C   UNL     1      32.895  28.613 -12.371  1.00  0.00     0.009 C 
ENDBRANCH   1   7
BRANCH   3   9
ATOM      9  O   UNL     1      37.125  33.018 -11.799  1.00  0.00    -0.508 OA
ATOM     10  H   UNL     1      37.320  33.952 -12.139  1.00  0.00     0.293 HD
ENDBRANCH   3   9
TORSDOF 2
ENDMDL
MODEL 5
REMARK VINA RESULT:    -4.393     18.021     19.205
REMARK INTER + INTRA:          -4.825
REMARK INTER:                  -4.778
REMARK INTRA:                  -0.046
REMARK UNBOUND:                -0.046
REMARK SMILES CCc1cccc(O)c1
REMARK SMILES IDX 3 1 9 2 7 3 6 4 5 5 4 6 2 7 1 8 8 9
REMARK H PARENT 8 10
REMARK Flexibility Score: inf
ROOT
ATOM      1  C   UNL     1      28.945  38.750 -23.902  1.00  0.00    -0.045 A 
ATOM      2  C   UNL     1      30.266  39.146 -24.173  1.00  0.00     0.049 A 
ATOM      3  C   UNL     1      31.235  39.117 -23.163  1.00  0.00     0.115 A 
ATOM      4  C   UNL     1      30.887  38.683 -21.877  1.00  0.00     0.046 A 
ATOM      5  C   UNL     1      29.578  38.276 -21.605  1.00  0.00     0.004 A 
ATOM      6  C   UNL     1      28.611  38.305 -22.614  1.00  0.00     0.004 A 
ENDROOT
BRANCH   1   7
ATOM      7  C   UNL     1      27.913  38.751 -24.997  1.00  0.00     0.032 C 
ATOM      8  C   UNL     1      27.822  40.125 -25.653  1.00  0.00     0.009 C 
ENDBRANCH   1   7
BRANCH   3   9
ATOM      9  O   UNL     1      32.537  39.518 -23.450  1.00  0.00    -0.508 OA
ATOM     10  H   UNL     1      32.956  39.349 -24.357  1.00  0.00     0.293 HD
ENDBRANCH   3   9
TORSDOF 2
ENDMDL
MODEL 6
REMARK VINA RESULT:    -4.362     12.915     13.686
REMARK INTER + INTRA:          -4.790
REMARK INTER:                  -4.737
REMARK INTRA:                  -0.053
REMARK UNBOUND:                -0.046
REMARK SMILES CCc1cccc(O)c1
REMARK SMILES IDX 3 1 9 2 7 3 6 4 5 5 4 6 2 7 1 8 8 9
REMARK H PARENT 8 10
REMARK Flexibility Score: inf
ROOT
ATOM      1  C   UNL     1      31.093  31.552 -16.569  1.00  0.00    -0.045 A 
ATOM      2  C   UNL     1      31.509  30.724 -17.626  1.00  0.00     0.049 A 
ATOM      3  C   UNL     1      30.812  30.723 -18.840  1.00  0.00     0.115 A 
ATOM      4  C   UNL     1      29.699  31.558 -19.005  1.00  0.00     0.046 A 
ATOM      5  C   UNL     1      29.289  32.393 -17.962  1.00  0.00     0.004 A 
ATOM      6  C   UNL     1      29.985  32.394 -16.750  1.00  0.00     0.004 A 
ENDROOT
BRANCH   1   7
ATOM      7  C   UNL     1      31.863  31.576 -15.277  1.00  0.00     0.032 C 
ATOM      8  C   UNL     1      32.999  32.593 -15.344  1.00  0.00     0.009 C 
ENDBRANCH   1   7
BRANCH   3   9
ATOM      9  O   UNL     1      31.235  29.892 -19.874  1.00  0.00    -0.508 OA
ATOM     10  H   UNL     1      30.775  29.010 -20.067  1.00  0.00     0.293 HD
ENDBRANCH   3   9
TORSDOF 2
ENDMDL
MODEL 7
REMARK VINA RESULT:    -4.336     14.487     16.156
REMARK INTER + INTRA:          -4.763
REMARK INTER:                  -4.702
REMARK INTRA:                  -0.061
REMARK UNBOUND:                -0.046
REMARK SMILES CCc1cccc(O)c1
REMARK SMILES IDX 3 1 9 2 7 3 6 4 5 5 4 6 2 7 1 8 8 9
REMARK H PARENT 8 10
REMARK Flexibility Score: inf
ROOT
ATOM      1  C   UNL     1      35.064  31.347 -14.145  1.00  0.00    -0.045 A 
ATOM      2  C   UNL     1      34.226  32.074 -15.007  1.00  0.00     0.049 A 
ATOM      3  C   UNL     1      32.834  31.976 -14.890  1.00  0.00     0.115 A 
ATOM      4  C   UNL     1      32.275  31.155 -13.901  1.00  0.00     0.046 A 
ATOM      5  C   UNL     1      33.103  30.440 -13.033  1.00  0.00     0.004 A 
ATOM      6  C   UNL     1      34.493  30.537 -13.150  1.00  0.00     0.004 A 
ENDROOT
BRANCH   1   7
ATOM      7  C   UNL     1      36.559  31.478 -14.251  1.00  0.00     0.032 C 
ATOM      8  C   UNL     1      37.125  32.202 -13.033  1.00  0.00     0.009 C 
ENDBRANCH   1   7
BRANCH   3   9
ATOM      9  O   UNL     1      32.020  32.700 -15.757  1.00  0.00    -0.508 OA
ATOM     10  H   UNL     1      31.440  33.463 -15.426  1.00  0.00     0.293 HD
ENDBRANCH   3   9
TORSDOF 2
ENDMDL
MODEL 8
REMARK VINA RESULT:    -4.321     17.808     18.808
REMARK INTER + INTRA:          -4.746
REMARK INTER:                  -4.675
REMARK INTRA:                  -0.071
REMARK UNBOUND:                -0.046
REMARK SMILES CCc1cccc(O)c1
REMARK SMILES IDX 3 1 9 2 7 3 6 4 5 5 4 6 2 7 1 8 8 9
REMARK H PARENT 8 10
REMARK Flexibility Score: inf
ROOT
ATOM      1  C   UNL     1      30.994  38.140 -22.412  1.00  0.00    -0.045 A 
ATOM      2  C   UNL     1      31.072  38.902 -23.590  1.00  0.00     0.049 A 
ATOM      3  C   UNL     1      29.906  39.376 -24.204  1.00  0.00     0.115 A 
ATOM      4  C   UNL     1      28.656  39.097 -23.635  1.00  0.00     0.046 A 
ATOM      5  C   UNL     1      28.574  38.350 -22.457  1.00  0.00     0.004 A 
ATOM      6  C   UNL     1      29.738  37.877 -21.844  1.00  0.00     0.004 A 
ENDROOT
BRANCH   1   7
ATOM      7  C   UNL     1      32.250  37.659 -21.735  1.00  0.00     0.032 C 
ATOM      8  C   UNL     1      31.998  36.346 -21.002  1.00  0.00     0.009 C 
ENDBRANCH   1   7
BRANCH   3   9
ATOM      9  O   UNL     1      30.002  40.125 -25.374  1.00  0.00    -0.508 OA
ATOM     10  H   UNL     1      29.791  39.722 -26.280  1.00  0.00     0.293 HD
ENDBRANCH   3   9
TORSDOF 2
ENDMDL
MODEL 9
REMARK VINA RESULT:    -4.315      2.798      3.321
REMARK INTER + INTRA:          -4.740
REMARK INTER:                  -4.683
REMARK INTRA:                  -0.057
REMARK UNBOUND:                -0.046
REMARK SMILES CCc1cccc(O)c1
REMARK SMILES IDX 3 1 9 2 7 3 6 4 5 5 4 6 2 7 1 8 8 9
REMARK H PARENT 8 10
REMARK Flexibility Score: inf
ROOT
ATOM      1  C   UNL     1      20.332  28.558 -13.649  1.00  0.00    -0.045 A 
ATOM      2  C   UNL     1      21.433  28.132 -14.410  1.00  0.00     0.049 A 
ATOM      3  C   UNL     1      21.237  27.428 -15.604  1.00  0.00     0.115 A 
ATOM      4  C   UNL     1      19.936  27.155 -16.047  1.00  0.00     0.046 A 
ATOM      5  C   UNL     1      18.837  27.588 -15.300  1.00  0.00     0.004 A 
ATOM      6  C   UNL     1      19.032  28.291 -14.108  1.00  0.00     0.004 A 
ENDROOT
BRANCH   1   7
ATOM      7  C   UNL     1      20.543  29.344 -12.382  1.00  0.00     0.032 C 
ATOM      8  C   UNL     1      20.136  28.522 -11.163  1.00  0.00     0.009 C 
ENDBRANCH   1   7
BRANCH   3   9
ATOM      9  O   UNL     1      22.341  27.008 -16.343  1.00  0.00    -0.508 OA
ATOM     10  H   UNL     1      23.268  26.973 -15.935  1.00  0.00     0.293 HD
ENDBRANCH   3   9
TORSDOF 2
ENDMDL
