MODEL 1
REMARK VINA RESULT:    -6.524      0.000      0.000
REMARK INTER + INTRA:          -7.896
REMARK INTER:                  -7.858
REMARK INTRA:                  -0.037
REMARK UNBOUND:                -0.037
REMARK SMILES O=c1c(O)c(-c2ccc(O)c(O)c2)oc2cc(O)cc(O)c12
REMARK SMILES IDX 5 1 3 2 2 3 1 4 22 5 20 6 19 7 17 8 16 9 15 10 14 11 6 12
REMARK SMILES IDX 7 13 8 14 9 15 13 16 11 17 10 18 12 20 4 22 21 24 18 26
REMARK H PARENT 10 19 12 21 4 23 21 25 18 27
REMARK Flexibility Score: inf
ROOT
ATOM      1  C   UNL     1       7.145  15.504  21.552  1.00  0.00     0.180 A 
ATOM      2  C   UNL     1       8.474  15.507  21.095  1.00  0.00     0.208 A 
ATOM      3  C   UNL     1       8.967  16.650  20.445  1.00  0.00     0.238 A 
ATOM      4  O   UNL     1      10.141  16.628  19.991  1.00  0.00    -0.285 OA
ATOM      5  C   UNL     1       8.132  17.780  20.274  1.00  0.00     0.111 A 
ATOM      6  C   UNL     1       8.539  19.004  19.666  1.00  0.00     0.134 A 
ATOM      7  C   UNL     1       7.591  20.009  19.432  1.00  0.00     0.093 A 
ATOM      8  C   UNL     1       6.267  19.858  19.841  1.00  0.00     0.123 A 
ATOM      9  C   UNL     1       5.871  18.688  20.491  1.00  0.00     0.094 A 
ATOM     10  C   UNL     1       6.785  17.654  20.705  1.00  0.00     0.146 A 
ATOM     11  O   UNL     1       6.366  16.553  21.317  1.00  0.00    -0.452 OA
ENDROOT
BRANCH   1  12
ATOM     12  C   UNL     1       6.561  14.345  22.267  1.00  0.00     0.025 A 
ATOM     13  C   UNL     1       6.586  13.055  21.712  1.00  0.00     0.016 A 
ATOM     14  C   UNL     1       6.051  11.972  22.416  1.00  0.00     0.051 A 
ATOM     15  C   UNL     1       5.498  12.162  23.688  1.00  0.00     0.157 A 
ATOM     16  C   UNL     1       6.024  14.526  23.553  1.00  0.00     0.062 A 
ATOM     17  C   UNL     1       5.487  13.440  24.259  1.00  0.00     0.158 A 
BRANCH  15  18
ATOM     18  O   UNL     1       4.962  11.085  24.393  1.00  0.00    -0.504 OA
ATOM     19  H   UNL     1       5.004  10.140  24.029  1.00  0.00     0.293 HD
ENDBRANCH  15  18
BRANCH  17  20
ATOM     20  O   UNL     1       4.942  13.625  25.529  1.00  0.00    -0.504 OA
ATOM     21  H   UNL     1       4.268  12.976  25.916  1.00  0.00     0.293 HD
ENDBRANCH  17  20
ENDBRANCH   1  12
BRANCH   2  22
ATOM     22  O   UNL     1       9.276  14.374  21.255  1.00  0.00    -0.502 OA
ATOM     23  H   UNL     1      10.249  14.430  21.529  1.00  0.00     0.293 HD
ENDBRANCH   2  22
BRANCH   6  24
ATOM     24  O   UNL     1       9.857  19.295  19.301  1.00  0.00    -0.507 OA
ATOM     25  H   UNL     1      10.590  18.609  19.203  1.00  0.00     0.293 HD
ENDBRANCH   6  24
BRANCH   8  26
ATOM     26  O   UNL     1       5.354  20.884  19.606  1.00  0.00    -0.508 OA
ATOM     27  H   UNL     1       5.625  21.859  19.669  1.00  0.00     0.293 HD
ENDBRANCH   8  26
TORSDOF 6
ENDMDL
MODEL 2
REMARK VINA RESULT:    -5.500      1.572      2.739
REMARK INTER + INTRA:          -6.662
REMARK INTER:                  -6.375
REMARK INTRA:                  -0.287
REMARK UNBOUND:                -0.037
REMARK SMILES O=c1c(O)c(-c2ccc(O)c(O)c2)oc2cc(O)cc(O)c12
REMARK SMILES IDX 5 1 3 2 2 3 1 4 22 5 20 6 19 7 17 8 16 9 15 10 14 11 6 12
REMARK SMILES IDX 7 13 8 14 9 15 13 16 11 17 10 18 12 20 4 22 21 24 18 26
REMARK H PARENT 10 19 12 21 4 23 21 25 18 27
REMARK Flexibility Score: inf
ROOT
ATOM      1  C   UNL     1       6.893  16.303  21.465  1.00  0.00     0.180 A 
ATOM      2  C   UNL     1       6.081  16.939  20.511  1.00  0.00     0.208 A 
ATOM      3  C   UNL     1       6.482  18.183  19.997  1.00  0.00     0.238 A 
ATOM      4  O   UNL     1       5.726  18.773  19.182  1.00  0.00    -0.285 OA
ATOM      5  C   UNL     1       7.697  18.767  20.431  1.00  0.00     0.111 A 
ATOM      6  C   UNL     1       8.220  20.003  19.947  1.00  0.00     0.134 A 
ATOM      7  C   UNL     1       9.364  20.549  20.543  1.00  0.00     0.093 A 
ATOM      8  C   UNL     1      10.039  19.874  21.558  1.00  0.00     0.123 A 
ATOM      9  C   UNL     1       9.570  18.635  21.997  1.00  0.00     0.094 A 
ATOM     10  C   UNL     1       8.411  18.083  21.449  1.00  0.00     0.146 A 
ATOM     11  O   UNL     1       7.992  16.907  21.902  1.00  0.00    -0.452 OA
ENDROOT
BRANCH   1  12
ATOM     12  C   UNL     1       6.549  14.980  22.036  1.00  0.00     0.025 A 
ATOM     13  C   UNL     1       6.735  13.797  21.300  1.00  0.00     0.016 A 
ATOM     14  C   UNL     1       6.427  12.557  21.868  1.00  0.00     0.051 A 
ATOM     15  C   UNL     1       5.943  12.482  23.180  1.00  0.00     0.157 A 
ATOM     16  C   UNL     1       6.084  14.897  23.358  1.00  0.00     0.062 A 
ATOM     17  C   UNL     1       5.774  13.654  23.927  1.00  0.00     0.158 A 
BRANCH  15  18
ATOM     18  O   UNL     1       5.633  11.247  23.749  1.00  0.00    -0.504 OA
ATOM     19  H   UNL     1       6.024  10.961  24.640  1.00  0.00     0.293 HD
ENDBRANCH  15  18
BRANCH  17  20
ATOM     20  O   UNL     1       5.299  13.575  25.236  1.00  0.00    -0.504 OA
ATOM     21  H   UNL     1       4.322  13.396  25.435  1.00  0.00     0.293 HD
ENDBRANCH  17  20
ENDBRANCH   1  12
BRANCH   2  22
ATOM     22  O   UNL     1       4.876  16.356  20.112  1.00  0.00    -0.502 OA
ATOM     23  H   UNL     1       3.975  16.730  20.383  1.00  0.00     0.293 HD
ENDBRANCH   2  22
BRANCH   6  24
ATOM     24  O   UNL     1       7.675  20.716  18.875  1.00  0.00    -0.507 OA
ATOM     25  H   UNL     1       6.701  20.964  18.787  1.00  0.00     0.293 HD
ENDBRANCH   6  24
BRANCH   8  26
ATOM     26  O   UNL     1      11.183  20.440  22.117  1.00  0.00    -0.508 OA
ATOM     27  H   UNL     1      11.726  21.138  21.621  1.00  0.00     0.293 HD
ENDBRANCH   8  26
TORSDOF 6
ENDMDL
MODEL 3
REMARK VINA RESULT:    -5.389      2.284      6.780
REMARK INTER + INTRA:          -6.529
REMARK INTER:                  -6.306
REMARK INTRA:                  -0.223
REMARK UNBOUND:                -0.037
REMARK SMILES O=c1c(O)c(-c2ccc(O)c(O)c2)oc2cc(O)cc(O)c12
REMARK SMILES IDX 5 1 3 2 2 3 1 4 22 5 20 6 19 7 17 8 16 9 15 10 14 11 6 12
REMARK SMILES IDX 7 13 8 14 9 15 13 16 11 17 10 18 12 20 4 22 21 24 18 26
REMARK H PARENT 10 19 12 21 4 23 21 25 18 27
REMARK Flexibility Score: inf
ROOT
ATOM      1  C   UNL     1       8.402  17.860  21.062  1.00  0.00     0.180 A 
ATOM      2  C   UNL     1       9.027  17.190  19.997  1.00  0.00     0.208 A 
ATOM      3  C   UNL     1       8.755  15.827  19.797  1.00  0.00     0.238 A 
ATOM      4  O   UNL     1       9.358  15.218  18.875  1.00  0.00    -0.285 OA
ATOM      5  C   UNL     1       7.850  15.156  20.654  1.00  0.00     0.111 A 
ATOM      6  C   UNL     1       7.470  13.787  20.520  1.00  0.00     0.134 A 
ATOM      7  C   UNL     1       6.668  13.193  21.502  1.00  0.00     0.093 A 
ATOM      8  C   UNL     1       6.181  13.933  22.578  1.00  0.00     0.123 A 
ATOM      9  C   UNL     1       6.497  15.288  22.687  1.00  0.00     0.094 A 
ATOM     10  C   UNL     1       7.324  15.899  21.743  1.00  0.00     0.146 A 
ATOM     11  O   UNL     1       7.610  17.187  21.888  1.00  0.00    -0.452 OA
ENDROOT
BRANCH   1  12
ATOM     12  C   UNL     1       8.621  19.302  21.321  1.00  0.00     0.025 A 
ATOM     13  C   UNL     1       7.604  20.247  21.101  1.00  0.00     0.016 A 
ATOM     14  C   UNL     1       7.824  21.599  21.377  1.00  0.00     0.051 A 
ATOM     15  C   UNL     1       9.056  22.024  21.888  1.00  0.00     0.157 A 
ATOM     16  C   UNL     1       9.847  19.731  21.854  1.00  0.00     0.062 A 
ATOM     17  C   UNL     1      10.069  21.088  22.130  1.00  0.00     0.158 A 
BRANCH  15  18
ATOM     18  O   UNL     1       9.281  23.372  22.163  1.00  0.00    -0.504 OA
ATOM     19  H   UNL     1       8.514  24.012  22.339  1.00  0.00     0.293 HD
ENDBRANCH  15  18
BRANCH  17  20
ATOM     20  O   UNL     1      11.293  21.512  22.646  1.00  0.00    -0.504 OA
ATOM     21  H   UNL     1      11.392  21.788  23.615  1.00  0.00     0.293 HD
ENDBRANCH  17  20
ENDBRANCH   1  12
BRANCH   2  22
ATOM     22  O   UNL     1       9.934  17.865  19.175  1.00  0.00    -0.502 OA
ATOM     23  H   UNL     1       9.743  18.062  18.201  1.00  0.00     0.293 HD
ENDBRANCH   2  22
BRANCH   6  24
ATOM     24  O   UNL     1       7.827  12.980  19.435  1.00  0.00    -0.507 OA
ATOM     25  H   UNL     1       7.231  12.280  19.021  1.00  0.00     0.293 HD
ENDBRANCH   6  24
BRANCH   8  26
ATOM     26  O   UNL     1       5.372  13.313  23.529  1.00  0.00    -0.508 OA
ATOM     27  H   UNL     1       4.379  13.179  23.373  1.00  0.00     0.293 HD
ENDBRANCH   8  26
TORSDOF 6
ENDMDL
MODEL 4
REMARK VINA RESULT:    -5.307      2.295      3.918
REMARK INTER + INTRA:          -6.430
REMARK INTER:                  -6.109
REMARK INTRA:                  -0.320
REMARK UNBOUND:                -0.037
REMARK SMILES O=c1c(O)c(-c2ccc(O)c(O)c2)oc2cc(O)cc(O)c12
REMARK SMILES IDX 5 1 3 2 2 3 1 4 22 5 20 6 19 7 17 8 16 9 15 10 14 11 6 12
REMARK SMILES IDX 7 13 8 14 9 15 13 16 11 17 10 18 12 20 4 22 21 24 18 26
REMARK H PARENT 10 19 12 21 4 23 21 25 18 27
REMARK Flexibility Score: inf
ROOT
ATOM      1  C   UNL     1       7.521  17.727  20.991  1.00  0.00     0.180 A 
ATOM      2  C   UNL     1       6.826  18.457  20.013  1.00  0.00     0.208 A 
ATOM      3  C   UNL     1       7.244  19.764  19.713  1.00  0.00     0.238 A 
ATOM      4  O   UNL     1       6.585  20.433  18.875  1.00  0.00    -0.285 OA
ATOM      5  C   UNL     1       8.361  20.318  20.383  1.00  0.00     0.111 A 
ATOM      6  C   UNL     1       8.896  21.616  20.131  1.00  0.00     0.134 A 
ATOM      7  C   UNL     1       9.924  22.111  20.944  1.00  0.00     0.093 A 
ATOM      8  C   UNL     1      10.477  21.331  21.959  1.00  0.00     0.123 A 
ATOM      9  C   UNL     1      10.002  20.036  22.175  1.00  0.00     0.094 A 
ATOM     10  C   UNL     1       8.954  19.529  21.404  1.00  0.00     0.146 A 
ATOM     11  O   UNL     1       8.523  18.298  21.649  1.00  0.00    -0.452 OA
ENDROOT
BRANCH   1  12
ATOM     12  C   UNL     1       7.155  16.336  21.345  1.00  0.00     0.025 A 
ATOM     13  C   UNL     1       6.174  16.062  22.313  1.00  0.00     0.016 A 
ATOM     14  C   UNL     1       5.826  14.742  22.612  1.00  0.00     0.051 A 
ATOM     15  C   UNL     1       6.443  13.679  21.940  1.00  0.00     0.157 A 
ATOM     16  C   UNL     1       7.755  15.267  20.659  1.00  0.00     0.062 A 
ATOM     17  C   UNL     1       7.408  13.943  20.960  1.00  0.00     0.158 A 
BRANCH  15  18
ATOM     18  O   UNL     1       6.101  12.361  22.237  1.00  0.00    -0.504 OA
ATOM     19  H   UNL     1       6.722  11.590  22.018  1.00  0.00     0.293 HD
ENDBRANCH  15  18
BRANCH  17  20
ATOM     20  O   UNL     1       8.015  12.884  20.287  1.00  0.00    -0.504 OA
ATOM     21  H   UNL     1       7.536  12.003  20.142  1.00  0.00     0.293 HD
ENDBRANCH  17  20
ENDBRANCH   1  12
BRANCH   2  22
ATOM     22  O   UNL     1       5.712  17.900  19.378  1.00  0.00    -0.502 OA
ATOM     23  H   UNL     1       4.950  18.464  19.023  1.00  0.00     0.293 HD
ENDBRANCH   2  22
BRANCH   6  24
ATOM     24  O   UNL     1       8.478  22.443  19.084  1.00  0.00    -0.507 OA
ATOM     25  H   UNL     1       8.958  23.278  18.786  1.00  0.00     0.293 HD
ENDBRANCH   6  24
BRANCH   8  26
ATOM     26  O   UNL     1      11.508  21.849  22.739  1.00  0.00    -0.508 OA
ATOM     27  H   UNL     1      11.868  21.347  23.543  1.00  0.00     0.293 HD
ENDBRANCH   8  26
TORSDOF 6
ENDMDL
MODEL 5
REMARK VINA RESULT:    -5.212      3.150      5.262
REMARK INTER + INTRA:          -6.315
REMARK INTER:                  -6.016
REMARK INTRA:                  -0.299
REMARK UNBOUND:                -0.037
REMARK SMILES O=c1c(O)c(-c2ccc(O)c(O)c2)oc2cc(O)cc(O)c12
REMARK SMILES IDX 5 1 3 2 2 3 1 4 22 5 20 6 19 7 17 8 16 9 15 10 14 11 6 12
REMARK SMILES IDX 7 13 8 14 9 15 13 16 11 17 10 18 12 20 4 22 21 24 18 26
REMARK H PARENT 10 19 12 21 4 23 21 25 18 27
REMARK Flexibility Score: inf
ROOT
ATOM      1  C   UNL     1       7.942  18.784  21.366  1.00  0.00     0.180 A 
ATOM      2  C   UNL     1       6.845  19.366  22.024  1.00  0.00     0.208 A 
ATOM      3  C   UNL     1       6.988  20.644  22.588  1.00  0.00     0.238 A 
ATOM      4  O   UNL     1       6.020  21.137  23.223  1.00  0.00    -0.285 OA
ATOM      5  C   UNL     1       8.221  21.331  22.472  1.00  0.00     0.111 A 
ATOM      6  C   UNL     1       8.465  22.645  22.970  1.00  0.00     0.134 A 
ATOM      7  C   UNL     1       9.761  23.175  22.915  1.00  0.00     0.093 A 
ATOM      8  C   UNL     1      10.804  22.465  22.323  1.00  0.00     0.123 A 
ATOM      9  C   UNL     1      10.563  21.203  21.779  1.00  0.00     0.094 A 
ATOM     10  C   UNL     1       9.290  20.633  21.852  1.00  0.00     0.146 A 
ATOM     11  O   UNL     1       9.104  19.426  21.333  1.00  0.00    -0.452 OA
ENDROOT
BRANCH   1  12
ATOM     12  C   UNL     1       7.860  17.451  20.726  1.00  0.00     0.025 A 
ATOM     13  C   UNL     1       7.251  17.278  19.471  1.00  0.00     0.016 A 
ATOM     14  C   UNL     1       7.208  16.015  18.875  1.00  0.00     0.051 A 
ATOM     15  C   UNL     1       7.784  14.911  19.517  1.00  0.00     0.157 A 
ATOM     16  C   UNL     1       8.454  16.344  21.355  1.00  0.00     0.062 A 
ATOM     17  C   UNL     1       8.410  15.077  20.758  1.00  0.00     0.158 A 
BRANCH  15  18
ATOM     18  O   UNL     1       7.741  13.649  18.927  1.00  0.00    -0.504 OA
ATOM     19  H   UNL     1       7.005  12.986  19.145  1.00  0.00     0.293 HD
ENDBRANCH  15  18
BRANCH  17  20
ATOM     20  O   UNL     1       8.989  13.978  21.391  1.00  0.00    -0.504 OA
ATOM     21  H   UNL     1       8.732  13.029  21.147  1.00  0.00     0.293 HD
ENDBRANCH  17  20
ENDBRANCH   1  12
BRANCH   2  22
ATOM     22  O   UNL     1       5.643  18.661  22.146  1.00  0.00    -0.502 OA
ATOM     23  H   UNL     1       5.408  18.127  22.973  1.00  0.00     0.293 HD
ENDBRANCH   2  22
BRANCH   6  24
ATOM     24  O   UNL     1       7.474  23.478  23.499  1.00  0.00    -0.507 OA
ATOM     25  H   UNL     1       7.648  24.363  23.949  1.00  0.00     0.293 HD
ENDBRANCH   6  24
BRANCH   8  26
ATOM     26  O   UNL     1      12.077  23.030  22.272  1.00  0.00    -0.508 OA
ATOM     27  H   UNL     1      12.689  23.031  23.080  1.00  0.00     0.293 HD
ENDBRANCH   8  26
TORSDOF 6
ENDMDL
MODEL 6
REMARK VINA RESULT:    -5.207      6.344      8.148
REMARK INTER + INTRA:          -6.309
REMARK INTER:                  -5.991
REMARK INTRA:                  -0.318
REMARK UNBOUND:                -0.037
REMARK SMILES O=c1c(O)c(-c2ccc(O)c(O)c2)oc2cc(O)cc(O)c12
REMARK SMILES IDX 5 1 3 2 2 3 1 4 22 5 20 6 19 7 17 8 16 9 15 10 14 11 6 12
REMARK SMILES IDX 7 13 8 14 9 15 13 16 11 17 10 18 12 20 4 22 21 24 18 26
REMARK H PARENT 10 19 12 21 4 23 21 25 18 27
REMARK Flexibility Score: inf
ROOT
ATOM      1  C   UNL     1       7.472  22.091  24.928  1.00  0.00     0.180 A 
ATOM      2  C   UNL     1       6.894  21.134  24.077  1.00  0.00     0.208 A 
ATOM      3  C   UNL     1       7.586  20.749  22.917  1.00  0.00     0.238 A 
ATOM      4  O   UNL     1       7.041  19.932  22.130  1.00  0.00    -0.285 OA
ATOM      5  C   UNL     1       8.853  21.314  22.631  1.00  0.00     0.111 A 
ATOM      6  C   UNL     1       9.659  20.968  21.506  1.00  0.00     0.134 A 
ATOM      7  C   UNL     1      10.836  21.685  21.253  1.00  0.00     0.093 A 
ATOM      8  C   UNL     1      11.267  22.690  22.117  1.00  0.00     0.123 A 
ATOM      9  C   UNL     1      10.516  22.995  23.254  1.00  0.00     0.094 A 
ATOM     10  C   UNL     1       9.320  22.323  23.513  1.00  0.00     0.146 A 
ATOM     11  O   UNL     1       8.630  22.651  24.599  1.00  0.00    -0.452 OA
ENDROOT
BRANCH   1  12
ATOM     12  C   UNL     1       6.815  22.529  26.181  1.00  0.00     0.025 A 
ATOM     13  C   UNL     1       5.863  23.563  26.185  1.00  0.00     0.016 A 
ATOM     14  C   UNL     1       5.236  23.943  27.375  1.00  0.00     0.051 A 
ATOM     15  C   UNL     1       5.542  23.287  28.574  1.00  0.00     0.157 A 
ATOM     16  C   UNL     1       7.102  21.861  27.383  1.00  0.00     0.062 A 
ATOM     17  C   UNL     1       6.475  22.243  28.578  1.00  0.00     0.158 A 
BRANCH  15  18
ATOM     18  O   UNL     1       4.922  23.664  29.764  1.00  0.00    -0.504 OA
ATOM     19  H   UNL     1       5.172  23.240  30.650  1.00  0.00     0.293 HD
ENDBRANCH  15  18
BRANCH  17  20
ATOM     20  O   UNL     1       6.772  21.586  29.771  1.00  0.00    -0.504 OA
ATOM     21  H   UNL     1       7.623  21.048  29.882  1.00  0.00     0.293 HD
ENDBRANCH  17  20
ENDBRANCH   1  12
BRANCH   2  22
ATOM     22  O   UNL     1       5.633  20.605  24.365  1.00  0.00    -0.502 OA
ATOM     23  H   UNL     1       4.795  20.902  23.881  1.00  0.00     0.293 HD
ENDBRANCH   2  22
BRANCH   6  24
ATOM     24  O   UNL     1       9.368  19.919  20.629  1.00  0.00    -0.507 OA
ATOM     25  H   UNL     1       9.098  20.036  19.664  1.00  0.00     0.293 HD
ENDBRANCH   6  24
BRANCH   8  26
ATOM     26  O   UNL     1      12.450  23.372  21.843  1.00  0.00    -0.508 OA
ATOM     27  H   UNL     1      12.947  23.882  22.564  1.00  0.00     0.293 HD
ENDBRANCH   8  26
TORSDOF 6
ENDMDL
MODEL 7
REMARK VINA RESULT:    -5.181      2.728      7.560
REMARK INTER + INTRA:          -6.278
REMARK INTER:                  -6.016
REMARK INTRA:                  -0.262
REMARK UNBOUND:                -0.037
REMARK SMILES O=c1c(O)c(-c2ccc(O)c(O)c2)oc2cc(O)cc(O)c12
REMARK SMILES IDX 5 1 3 2 2 3 1 4 22 5 20 6 19 7 17 8 16 9 15 10 14 11 6 12
REMARK SMILES IDX 7 13 8 14 9 15 13 16 11 17 10 18 12 20 4 22 21 24 18 26
REMARK H PARENT 10 19 12 21 4 23 21 25 18 27
REMARK Flexibility Score: inf
ROOT
ATOM      1  C   UNL     1       8.313  19.255  20.979  1.00  0.00     0.180 A 
ATOM      2  C   UNL     1       7.137  19.313  21.747  1.00  0.00     0.208 A 
ATOM      3  C   UNL     1       6.350  18.157  21.875  1.00  0.00     0.238 A 
ATOM      4  O   UNL     1       5.271  18.229  22.519  1.00  0.00    -0.285 OA
ATOM      5  C   UNL     1       6.757  16.954  21.250  1.00  0.00     0.111 A 
ATOM      6  C   UNL     1       6.058  15.714  21.346  1.00  0.00     0.134 A 
ATOM      7  C   UNL     1       6.481  14.621  20.579  1.00  0.00     0.093 A 
ATOM      8  C   UNL     1       7.612  14.704  19.769  1.00  0.00     0.123 A 
ATOM      9  C   UNL     1       8.339  15.895  19.714  1.00  0.00     0.094 A 
ATOM     10  C   UNL     1       7.920  17.013  20.439  1.00  0.00     0.146 A 
ATOM     11  O   UNL     1       8.632  18.130  20.350  1.00  0.00    -0.452 OA
ENDROOT
BRANCH   1  12
ATOM     12  C   UNL     1       9.206  20.425  20.817  1.00  0.00     0.025 A 
ATOM     13  C   UNL     1       9.209  21.184  19.634  1.00  0.00     0.016 A 
ATOM     14  C   UNL     1      10.042  22.300  19.512  1.00  0.00     0.051 A 
ATOM     15  C   UNL     1      10.873  22.679  20.574  1.00  0.00     0.157 A 
ATOM     16  C   UNL     1      10.026  20.823  21.886  1.00  0.00     0.062 A 
ATOM     17  C   UNL     1      10.863  21.941  21.764  1.00  0.00     0.158 A 
BRANCH  15  18
ATOM     18  O   UNL     1      11.707  23.790  20.456  1.00  0.00    -0.504 OA
ATOM     19  H   UNL     1      11.443  24.595  19.899  1.00  0.00     0.293 HD
ENDBRANCH  15  18
BRANCH  17  20
ATOM     20  O   UNL     1      11.685  22.325  22.822  1.00  0.00    -0.504 OA
ATOM     21  H   UNL     1      12.056  21.648  23.477  1.00  0.00     0.293 HD
ENDBRANCH  17  20
ENDBRANCH   1  12
BRANCH   2  22
ATOM     22  O   UNL     1       6.742  20.516  22.339  1.00  0.00    -0.502 OA
ATOM     23  H   UNL     1       7.348  21.326  22.379  1.00  0.00     0.293 HD
ENDBRANCH   2  22
BRANCH   6  24
ATOM     24  O   UNL     1       4.969  15.495  22.195  1.00  0.00    -0.507 OA
ATOM     25  H   UNL     1       4.984  14.894  23.005  1.00  0.00     0.293 HD
ENDBRANCH   6  24
BRANCH   8  26
ATOM     26  O   UNL     1       8.013  13.593  19.032  1.00  0.00    -0.508 OA
ATOM     27  H   UNL     1       8.092  13.627  18.021  1.00  0.00     0.293 HD
ENDBRANCH   8  26
TORSDOF 6
ENDMDL
MODEL 8
REMARK VINA RESULT:    -5.179      3.440      5.064
REMARK INTER + INTRA:          -6.276
REMARK INTER:                  -5.985
REMARK INTRA:                  -0.292
REMARK UNBOUND:                -0.037
REMARK SMILES O=c1c(O)c(-c2ccc(O)c(O)c2)oc2cc(O)cc(O)c12
REMARK SMILES IDX 5 1 3 2 2 3 1 4 22 5 20 6 19 7 17 8 16 9 15 10 14 11 6 12
REMARK SMILES IDX 7 13 8 14 9 15 13 16 11 17 10 18 12 20 4 22 21 24 18 26
REMARK H PARENT 10 19 12 21 4 23 21 25 18 27
REMARK Flexibility Score: inf
ROOT
ATOM      1  C   UNL     1       8.446  19.145  21.093  1.00  0.00     0.180 A 
ATOM      2  C   UNL     1       9.163  19.942  20.185  1.00  0.00     0.208 A 
ATOM      3  C   UNL     1       9.629  21.199  20.603  1.00  0.00     0.238 A 
ATOM      4  O   UNL     1      10.224  21.932  19.770  1.00  0.00    -0.285 OA
ATOM      5  C   UNL     1       9.386  21.636  21.928  1.00  0.00     0.111 A 
ATOM      6  C   UNL     1       9.846  22.873  22.470  1.00  0.00     0.134 A 
ATOM      7  C   UNL     1       9.436  23.261  23.752  1.00  0.00     0.093 A 
ATOM      8  C   UNL     1       8.636  22.428  24.534  1.00  0.00     0.123 A 
ATOM      9  C   UNL     1       8.230  21.189  24.036  1.00  0.00     0.094 A 
ATOM     10  C   UNL     1       8.593  20.792  22.748  1.00  0.00     0.146 A 
ATOM     11  O   UNL     1       8.177  19.611  22.307  1.00  0.00    -0.452 OA
ENDROOT
BRANCH   1  12
ATOM     12  C   UNL     1       7.944  17.799  20.733  1.00  0.00     0.025 A 
ATOM     13  C   UNL     1       6.768  17.634  19.982  1.00  0.00     0.016 A 
ATOM     14  C   UNL     1       6.326  16.354  19.632  1.00  0.00     0.051 A 
ATOM     15  C   UNL     1       7.060  15.225  20.016  1.00  0.00     0.157 A 
ATOM     16  C   UNL     1       8.687  16.663  21.097  1.00  0.00     0.062 A 
ATOM     17  C   UNL     1       8.244  15.380  20.748  1.00  0.00     0.158 A 
BRANCH  15  18
ATOM     18  O   UNL     1       6.622  13.947  19.672  1.00  0.00    -0.504 OA
ATOM     19  H   UNL     1       6.933  13.492  18.820  1.00  0.00     0.293 HD
ENDBRANCH  15  18
BRANCH  17  20
ATOM     20  O   UNL     1       8.976  14.255  21.123  1.00  0.00    -0.504 OA
ATOM     21  H   UNL     1       9.961  14.315  21.350  1.00  0.00     0.293 HD
ENDBRANCH  17  20
ENDBRANCH   1  12
BRANCH   2  22
ATOM     22  O   UNL     1       9.373  19.502  18.875  1.00  0.00    -0.502 OA
ATOM     23  H   UNL     1       8.672  19.594  18.152  1.00  0.00     0.293 HD
ENDBRANCH   2  22
BRANCH   6  24
ATOM     24  O   UNL     1      10.723  23.738  21.809  1.00  0.00    -0.507 OA
ATOM     25  H   UNL     1      10.711  23.919  20.817  1.00  0.00     0.293 HD
ENDBRANCH   6  24
BRANCH   8  26
ATOM     26  O   UNL     1       8.260  22.839  25.811  1.00  0.00    -0.508 OA
ATOM     27  H   UNL     1       8.210  23.821  26.059  1.00  0.00     0.293 HD
ENDBRANCH   8  26
TORSDOF 6
ENDMDL
MODEL 9
REMARK VINA RESULT:    -5.176      2.549      4.741
REMARK INTER + INTRA:          -6.272
REMARK INTER:                  -6.004
REMARK INTRA:                  -0.268
REMARK UNBOUND:                -0.037
REMARK SMILES O=c1c(O)c(-c2ccc(O)c(O)c2)oc2cc(O)cc(O)c12
REMARK SMILES IDX 5 1 3 2 2 3 1 4 22 5 20 6 19 7 17 8 16 9 15 10 14 11 6 12
REMARK SMILES IDX 7 13 8 14 9 15 13 16 11 17 10 18 12 20 4 22 21 24 18 26
REMARK H PARENT 10 19 12 21 4 23 21 25 18 27
REMARK Flexibility Score: inf
ROOT
ATOM      1  C   UNL     1       8.190  18.654  20.296  1.00  0.00     0.180 A 
ATOM      2  C   UNL     1       7.182  19.464  19.745  1.00  0.00     0.208 A 
ATOM      3  C   UNL     1       7.349  20.858  19.753  1.00  0.00     0.238 A 
ATOM      4  O   UNL     1       6.421  21.582  19.307  1.00  0.00    -0.285 OA
ATOM      5  C   UNL     1       8.528  21.424  20.296  1.00  0.00     0.111 A 
ATOM      6  C   UNL     1       8.820  22.820  20.321  1.00  0.00     0.134 A 
ATOM      7  C   UNL     1       9.956  23.277  21.001  1.00  0.00     0.093 A 
ATOM      8  C   UNL     1      10.843  22.384  21.602  1.00  0.00     0.123 A 
ATOM      9  C   UNL     1      10.598  21.011  21.532  1.00  0.00     0.094 A 
ATOM     10  C   UNL     1       9.455  20.529  20.893  1.00  0.00     0.146 A 
ATOM     11  O   UNL     1       9.252  19.217  20.858  1.00  0.00    -0.452 OA
ENDROOT
BRANCH   1  12
ATOM     12  C   UNL     1       8.096  17.176  20.302  1.00  0.00     0.025 A 
ATOM     13  C   UNL     1       8.278  16.426  19.127  1.00  0.00     0.016 A 
ATOM     14  C   UNL     1       8.210  15.031  19.162  1.00  0.00     0.051 A 
ATOM     15  C   UNL     1       7.974  14.365  20.371  1.00  0.00     0.157 A 
ATOM     16  C   UNL     1       7.880  16.502  21.515  1.00  0.00     0.062 A 
ATOM     17  C   UNL     1       7.811  15.102  21.550  1.00  0.00     0.158 A 
BRANCH  15  18
ATOM     18  O   UNL     1       7.903  12.973  20.409  1.00  0.00    -0.504 OA
ATOM     19  H   UNL     1       7.150  12.494  20.891  1.00  0.00     0.293 HD
ENDBRANCH  15  18
BRANCH  17  20
ATOM     20  O   UNL     1       7.583  14.437  22.754  1.00  0.00    -0.504 OA
ATOM     21  H   UNL     1       7.007  14.841  23.482  1.00  0.00     0.293 HD
ENDBRANCH  17  20
ENDBRANCH   1  12
BRANCH   2  22
ATOM     22  O   UNL     1       6.017  18.887  19.232  1.00  0.00    -0.502 OA
ATOM     23  H   UNL     1       5.827  17.895  19.299  1.00  0.00     0.293 HD
ENDBRANCH   2  22
BRANCH   6  24
ATOM     24  O   UNL     1       8.049  23.791  19.674  1.00  0.00    -0.507 OA
ATOM     25  H   UNL     1       8.050  24.773  19.906  1.00  0.00     0.293 HD
ENDBRANCH   6  24
BRANCH   8  26
ATOM     26  O   UNL     1      11.971  22.872  22.256  1.00  0.00    -0.508 OA
ATOM     27  H   UNL     1      12.530  23.622  21.863  1.00  0.00     0.293 HD
ENDBRANCH   8  26
TORSDOF 6
ENDMDL
