MODEL 1
REMARK VINA RESULT:    -6.059      0.000      0.000
REMARK INTER + INTRA:          -7.485
REMARK INTER:                  -7.299
REMARK INTRA:                  -0.186
REMARK UNBOUND:                -0.186
REMARK SMILES O=c1c(O)c(-c2ccc(O)c(O)c2)oc2cc(O)cc(O)c12
REMARK SMILES IDX 5 1 3 2 2 3 1 4 22 5 20 6 19 7 17 8 16 9 15 10 14 11 6 12
REMARK SMILES IDX 7 13 8 14 9 15 13 16 11 17 10 18 12 20 4 22 21 24 18 26
REMARK H PARENT 10 19 12 21 4 23 21 25 18 27
REMARK Flexibility Score: inf
ROOT
ATOM      1  C   UNL     1     129.823 -41.459  33.612  1.00  0.00     0.180 A 
ATOM      2  C   UNL     1     128.554 -42.039  33.437  1.00  0.00     0.208 A 
ATOM      3  C   UNL     1     127.763 -41.630  32.352  1.00  0.00     0.238 A 
ATOM      4  O   UNL     1     126.651 -42.192  32.168  1.00  0.00    -0.285 OA
ATOM      5  C   UNL     1     128.242 -40.634  31.466  1.00  0.00     0.111 A 
ATOM      6  C   UNL     1     127.508 -40.114  30.358  1.00  0.00     0.134 A 
ATOM      7  C   UNL     1     128.131 -39.225  29.473  1.00  0.00     0.093 A 
ATOM      8  C   UNL     1     129.439 -38.788  29.693  1.00  0.00     0.123 A 
ATOM      9  C   UNL     1     130.142 -39.243  30.806  1.00  0.00     0.094 A 
ATOM     10  C   UNL     1     129.561 -40.159  31.686  1.00  0.00     0.146 A 
ATOM     11  O   UNL     1     130.271 -40.576  32.728  1.00  0.00    -0.452 OA
ENDROOT
BRANCH   1  12
ATOM     12  C   UNL     1     130.705 -41.822  34.746  1.00  0.00     0.025 A 
ATOM     13  C   UNL     1     131.900 -42.535  34.544  1.00  0.00     0.016 A 
ATOM     14  C   UNL     1     132.704 -42.888  35.631  1.00  0.00     0.051 A 
ATOM     15  C   UNL     1     132.320 -42.547  36.934  1.00  0.00     0.157 A 
ATOM     16  C   UNL     1     130.314 -41.502  36.056  1.00  0.00     0.062 A 
ATOM     17  C   UNL     1     131.116 -41.854  37.147  1.00  0.00     0.158 A 
BRANCH  15  18
ATOM     18  O   UNL     1     133.125 -42.899  38.017  1.00  0.00    -0.504 OA
ATOM     19  H   UNL     1     134.049 -43.292  37.885  1.00  0.00     0.293 HD
ENDBRANCH  15  18
BRANCH  17  20
ATOM     20  O   UNL     1     130.702 -41.506  38.432  1.00  0.00    -0.504 OA
ATOM     21  H   UNL     1     130.384 -42.198  39.101  1.00  0.00     0.293 HD
ENDBRANCH  17  20
ENDBRANCH   1  12
BRANCH   2  22
ATOM     22  O   UNL     1     128.110 -43.037  34.309  1.00  0.00    -0.502 OA
ATOM     23  H   UNL     1     128.500 -43.162  35.235  1.00  0.00     0.293 HD
ENDBRANCH   2  22
BRANCH   6  24
ATOM     24  O   UNL     1     126.167 -40.414  30.100  1.00  0.00    -0.507 OA
ATOM     25  H   UNL     1     125.384 -40.031  30.608  1.00  0.00     0.293 HD
ENDBRANCH   6  24
BRANCH   8  26
ATOM     26  O   UNL     1     130.046 -37.891  28.817  1.00  0.00    -0.508 OA
ATOM     27  H   UNL     1     130.726 -38.198  28.131  1.00  0.00     0.293 HD
ENDBRANCH   8  26
TORSDOF 6
ENDMDL
MODEL 2
REMARK VINA RESULT:    -5.812      1.190      2.822
REMARK INTER + INTRA:          -7.187
REMARK INTER:                  -6.870
REMARK INTRA:                  -0.317
REMARK UNBOUND:                -0.186
REMARK SMILES O=c1c(O)c(-c2ccc(O)c(O)c2)oc2cc(O)cc(O)c12
REMARK SMILES IDX 5 1 3 2 2 3 1 4 22 5 20 6 19 7 17 8 16 9 15 10 14 11 6 12
REMARK SMILES IDX 7 13 8 14 9 15 13 16 11 17 10 18 12 20 4 22 21 24 18 26
REMARK H PARENT 10 19 12 21 4 23 21 25 18 27
REMARK Flexibility Score: inf
ROOT
ATOM      1  C   UNL     1     130.292 -40.826  33.353  1.00  0.00     0.180 A 
ATOM      2  C   UNL     1     130.717 -39.626  32.757  1.00  0.00     0.208 A 
ATOM      3  C   UNL     1     130.025 -39.141  31.635  1.00  0.00     0.238 A 
ATOM      4  O   UNL     1     130.375 -38.038  31.139  1.00  0.00    -0.285 OA
ATOM      5  C   UNL     1     128.930 -39.870  31.113  1.00  0.00     0.111 A 
ATOM      6  C   UNL     1     128.182 -39.495  29.957  1.00  0.00     0.134 A 
ATOM      7  C   UNL     1     127.037 -40.221  29.608  1.00  0.00     0.093 A 
ATOM      8  C   UNL     1     126.650 -41.349  30.336  1.00  0.00     0.123 A 
ATOM      9  C   UNL     1     127.408 -41.759  31.430  1.00  0.00     0.094 A 
ATOM     10  C   UNL     1     128.534 -41.034  31.825  1.00  0.00     0.146 A 
ATOM     11  O   UNL     1     129.221 -41.453  32.881  1.00  0.00    -0.452 OA
ENDROOT
BRANCH   1  12
ATOM     12  C   UNL     1     130.986 -41.413  34.523  1.00  0.00     0.025 A 
ATOM     13  C   UNL     1     132.155 -42.178  34.372  1.00  0.00     0.016 A 
ATOM     14  C   UNL     1     132.779 -42.742  35.489  1.00  0.00     0.051 A 
ATOM     15  C   UNL     1     132.236 -42.562  36.768  1.00  0.00     0.157 A 
ATOM     16  C   UNL     1     130.434 -41.253  35.805  1.00  0.00     0.062 A 
ATOM     17  C   UNL     1     131.056 -41.816  36.925  1.00  0.00     0.158 A 
BRANCH  15  18
ATOM     18  O   UNL     1     132.862 -43.124  37.880  1.00  0.00    -0.504 OA
ATOM     19  H   UNL     1     133.674 -43.721  37.786  1.00  0.00     0.293 HD
ENDBRANCH  15  18
BRANCH  17  20
ATOM     20  O   UNL     1     130.487 -41.623  38.183  1.00  0.00    -0.504 OA
ATOM     21  H   UNL     1     130.487 -40.720  38.642  1.00  0.00     0.293 HD
ENDBRANCH  17  20
ENDBRANCH   1  12
BRANCH   2  22
ATOM     22  O   UNL     1     131.787 -38.910  33.301  1.00  0.00    -0.502 OA
ATOM     23  H   UNL     1     132.681 -39.339  33.505  1.00  0.00     0.293 HD
ENDBRANCH   2  22
BRANCH   6  24
ATOM     24  O   UNL     1     128.536 -38.441  29.108  1.00  0.00    -0.507 OA
ATOM     25  H   UNL     1     129.470 -38.263  28.771  1.00  0.00     0.293 HD
ENDBRANCH   6  24
BRANCH   8  26
ATOM     26  O   UNL     1     125.519 -42.075  29.972  1.00  0.00    -0.508 OA
ATOM     27  H   UNL     1     125.180 -42.085  29.017  1.00  0.00     0.293 HD
ENDBRANCH   8  26
TORSDOF 6
ENDMDL
MODEL 3
REMARK VINA RESULT:    -5.724      1.766      2.472
REMARK INTER + INTRA:          -7.081
REMARK INTER:                  -7.552
REMARK INTRA:                   0.471
REMARK UNBOUND:                -0.186
REMARK SMILES O=c1c(O)c(-c2ccc(O)c(O)c2)oc2cc(O)cc(O)c12
REMARK SMILES IDX 5 1 3 2 2 3 1 4 22 5 20 6 19 7 17 8 16 9 15 10 14 11 6 12
REMARK SMILES IDX 7 13 8 14 9 15 13 16 11 17 10 18 12 20 4 22 21 24 18 26
REMARK H PARENT 10 19 12 21 4 23 21 25 18 27
REMARK Flexibility Score: inf
ROOT
ATOM      1  C   UNL     1     130.442 -41.523  32.592  1.00  0.00     0.180 A 
ATOM      2  C   UNL     1     130.981 -42.021  31.392  1.00  0.00     0.208 A 
ATOM      3  C   UNL     1     130.336 -41.720  30.181  1.00  0.00     0.238 A 
ATOM      4  O   UNL     1     130.853 -42.121  29.105  1.00  0.00    -0.285 OA
ATOM      5  C   UNL     1     129.153 -40.943  30.187  1.00  0.00     0.111 A 
ATOM      6  C   UNL     1     128.395 -40.612  29.024  1.00  0.00     0.134 A 
ATOM      7  C   UNL     1     127.314 -39.728  29.131  1.00  0.00     0.093 A 
ATOM      8  C   UNL     1     126.925 -39.214  30.371  1.00  0.00     0.123 A 
ATOM      9  C   UNL     1     127.622 -39.579  31.520  1.00  0.00     0.094 A 
ATOM     10  C   UNL     1     128.727 -40.429  31.440  1.00  0.00     0.146 A 
ATOM     11  O   UNL     1     129.369 -40.743  32.559  1.00  0.00    -0.452 OA
ENDROOT
BRANCH   1  12
ATOM     12  C   UNL     1     131.052 -41.817  33.910  1.00  0.00     0.025 A 
ATOM     13  C   UNL     1     132.245 -42.554  34.016  1.00  0.00     0.016 A 
ATOM     14  C   UNL     1     132.789 -42.840  35.271  1.00  0.00     0.051 A 
ATOM     15  C   UNL     1     132.142 -42.408  36.436  1.00  0.00     0.157 A 
ATOM     16  C   UNL     1     130.397 -41.405  35.082  1.00  0.00     0.062 A 
ATOM     17  C   UNL     1     130.939 -41.690  36.340  1.00  0.00     0.158 A 
BRANCH  15  18
ATOM     18  O   UNL     1     132.689 -42.694  37.688  1.00  0.00    -0.504 OA
ATOM     19  H   UNL     1     132.611 -42.045  38.461  1.00  0.00     0.293 HD
ENDBRANCH  15  18
BRANCH  17  20
ATOM     20  O   UNL     1     130.268 -41.252  37.481  1.00  0.00    -0.504 OA
ATOM     21  H   UNL     1     130.291 -41.769  38.352  1.00  0.00     0.293 HD
ENDBRANCH  17  20
ENDBRANCH   1  12
BRANCH   2  22
ATOM     22  O   UNL     1     132.162 -42.767  31.407  1.00  0.00    -0.502 OA
ATOM     23  H   UNL     1     132.731 -42.903  30.580  1.00  0.00     0.293 HD
ENDBRANCH   2  22
BRANCH   6  24
ATOM     24  O   UNL     1     128.643 -41.143  27.754  1.00  0.00    -0.507 OA
ATOM     25  H   UNL     1     128.102 -41.877  27.322  1.00  0.00     0.293 HD
ENDBRANCH   6  24
BRANCH   8  26
ATOM     26  O   UNL     1     125.839 -38.348  30.471  1.00  0.00    -0.508 OA
ATOM     27  H   UNL     1     125.261 -38.127  29.668  1.00  0.00     0.293 HD
ENDBRANCH   8  26
TORSDOF 6
ENDMDL
MODEL 4
REMARK VINA RESULT:    -5.360      1.823      2.756
REMARK INTER + INTRA:          -6.642
REMARK INTER:                  -6.446
REMARK INTRA:                  -0.196
REMARK UNBOUND:                -0.186
REMARK SMILES O=c1c(O)c(-c2ccc(O)c(O)c2)oc2cc(O)cc(O)c12
REMARK SMILES IDX 5 1 3 2 2 3 1 4 22 5 20 6 19 7 17 8 16 9 15 10 14 11 6 12
REMARK SMILES IDX 7 13 8 14 9 15 13 16 11 17 10 18 12 20 4 22 21 24 18 26
REMARK H PARENT 10 19 12 21 4 23 21 25 18 27
REMARK Flexibility Score: inf
ROOT
ATOM      1  C   UNL     1     130.627 -41.912  36.091  1.00  0.00     0.180 A 
ATOM      2  C   UNL     1     129.333 -42.462  36.075  1.00  0.00     0.208 A 
ATOM      3  C   UNL     1     128.568 -42.370  34.901  1.00  0.00     0.238 A 
ATOM      4  O   UNL     1     127.433 -42.913  34.875  1.00  0.00    -0.285 OA
ATOM      5  C   UNL     1     129.099 -41.715  33.764  1.00  0.00     0.111 A 
ATOM      6  C   UNL     1     128.398 -41.527  32.535  1.00  0.00     0.134 A 
ATOM      7  C   UNL     1     129.068 -40.980  31.434  1.00  0.00     0.093 A 
ATOM      8  C   UNL     1     130.395 -40.553  31.537  1.00  0.00     0.123 A 
ATOM      9  C   UNL     1     131.068 -40.677  32.749  1.00  0.00     0.094 A 
ATOM     10  C   UNL     1     130.439 -41.253  33.855  1.00  0.00     0.146 A 
ATOM     11  O   UNL     1     131.121 -41.361  34.989  1.00  0.00    -0.452 OA
ENDROOT
BRANCH   1  12
ATOM     12  C   UNL     1     131.483 -41.948  37.299  1.00  0.00     0.025 A 
ATOM     13  C   UNL     1     132.632 -42.757  37.356  1.00  0.00     0.016 A 
ATOM     14  C   UNL     1     133.412 -42.794  38.516  1.00  0.00     0.051 A 
ATOM     15  C   UNL     1     133.048 -42.038  39.637  1.00  0.00     0.157 A 
ATOM     16  C   UNL     1     131.112 -41.208  38.433  1.00  0.00     0.062 A 
ATOM     17  C   UNL     1     131.890 -41.243  39.595  1.00  0.00     0.158 A 
BRANCH  15  18
ATOM     18  O   UNL     1     133.829 -42.076  40.792  1.00  0.00    -0.504 OA
ATOM     19  H   UNL     1     133.686 -41.421  41.550  1.00  0.00     0.293 HD
ENDBRANCH  15  18
BRANCH  17  20
ATOM     20  O   UNL     1     131.497 -40.484  40.696  1.00  0.00    -0.504 OA
ATOM     21  H   UNL     1     131.240 -40.909  41.579  1.00  0.00     0.293 HD
ENDBRANCH  17  20
ENDBRANCH   1  12
BRANCH   2  22
ATOM     22  O   UNL     1     128.836 -43.125  37.201  1.00  0.00    -0.502 OA
ATOM     23  H   UNL     1     129.426 -43.389  37.981  1.00  0.00     0.293 HD
ENDBRANCH   2  22
BRANCH   6  24
ATOM     24  O   UNL     1     127.046 -41.833  32.354  1.00  0.00    -0.507 OA
ATOM     25  H   UNL     1     126.668 -42.308  31.548  1.00  0.00     0.293 HD
ENDBRANCH   6  24
BRANCH   8  26
ATOM     26  O   UNL     1     131.048 -39.995  30.441  1.00  0.00    -0.508 OA
ATOM     27  H   UNL     1     131.818 -39.346  30.557  1.00  0.00     0.293 HD
ENDBRANCH   8  26
TORSDOF 6
ENDMDL
MODEL 5
REMARK VINA RESULT:    -5.186      3.209      4.888
REMARK INTER + INTRA:          -6.433
REMARK INTER:                  -6.287
REMARK INTRA:                  -0.146
REMARK UNBOUND:                -0.186
REMARK SMILES O=c1c(O)c(-c2ccc(O)c(O)c2)oc2cc(O)cc(O)c12
REMARK SMILES IDX 5 1 3 2 2 3 1 4 22 5 20 6 19 7 17 8 16 9 15 10 14 11 6 12
REMARK SMILES IDX 7 13 8 14 9 15 13 16 11 17 10 18 12 20 4 22 21 24 18 26
REMARK H PARENT 10 19 12 21 4 23 21 25 18 27
REMARK Flexibility Score: inf
ROOT
ATOM      1  C   UNL     1     128.771 -40.813  32.041  1.00  0.00     0.180 A 
ATOM      2  C   UNL     1     129.555 -39.747  32.517  1.00  0.00     0.208 A 
ATOM      3  C   UNL     1     130.611 -39.272  31.724  1.00  0.00     0.238 A 
ATOM      4  O   UNL     1     131.275 -38.282  32.130  1.00  0.00    -0.285 OA
ATOM      5  C   UNL     1     130.882 -39.879  30.473  1.00  0.00     0.111 A 
ATOM      6  C   UNL     1     131.951 -39.506  29.606  1.00  0.00     0.134 A 
ATOM      7  C   UNL     1     132.046 -40.087  28.335  1.00  0.00     0.093 A 
ATOM      8  C   UNL     1     131.146 -41.075  27.927  1.00  0.00     0.123 A 
ATOM      9  C   UNL     1     130.135 -41.488  28.790  1.00  0.00     0.094 A 
ATOM     10  C   UNL     1     129.993 -40.901  30.049  1.00  0.00     0.146 A 
ATOM     11  O   UNL     1     129.008 -41.318  30.836  1.00  0.00    -0.452 OA
ENDROOT
BRANCH   1  12
ATOM     12  C   UNL     1     127.655 -41.384  32.831  1.00  0.00     0.025 A 
ATOM     13  C   UNL     1     126.322 -41.278  32.396  1.00  0.00     0.016 A 
ATOM     14  C   UNL     1     125.283 -41.803  33.169  1.00  0.00     0.051 A 
ATOM     15  C   UNL     1     125.559 -42.426  34.393  1.00  0.00     0.157 A 
ATOM     16  C   UNL     1     127.923 -41.990  34.069  1.00  0.00     0.062 A 
ATOM     17  C   UNL     1     126.886 -42.517  34.846  1.00  0.00     0.158 A 
BRANCH  15  18
ATOM     18  O   UNL     1     124.520 -42.950  35.163  1.00  0.00    -0.504 OA
ATOM     19  H   UNL     1     124.435 -43.945  35.330  1.00  0.00     0.293 HD
ENDBRANCH  15  18
BRANCH  17  20
ATOM     20  O   UNL     1     127.193 -43.125  36.063  1.00  0.00    -0.504 OA
ATOM     21  H   UNL     1     127.558 -44.068  36.116  1.00  0.00     0.293 HD
ENDBRANCH  17  20
ENDBRANCH   1  12
BRANCH   2  22
ATOM     22  O   UNL     1     129.256 -39.147  33.744  1.00  0.00    -0.502 OA
ATOM     23  H   UNL     1     129.655 -39.468  34.618  1.00  0.00     0.293 HD
ENDBRANCH   2  22
BRANCH   6  24
ATOM     24  O   UNL     1     132.957 -38.598  29.952  1.00  0.00    -0.507 OA
ATOM     25  H   UNL     1     132.804 -37.622  30.159  1.00  0.00     0.293 HD
ENDBRANCH   6  24
BRANCH   8  26
ATOM     26  O   UNL     1     131.256 -41.659  26.667  1.00  0.00    -0.508 OA
ATOM     27  H   UNL     1     130.733 -42.492  26.421  1.00  0.00     0.293 HD
ENDBRANCH   8  26
TORSDOF 6
ENDMDL
MODEL 6
REMARK VINA RESULT:    -5.139      5.603      7.809
REMARK INTER + INTRA:          -6.377
REMARK INTER:                  -6.130
REMARK INTRA:                  -0.247
REMARK UNBOUND:                -0.186
REMARK SMILES O=c1c(O)c(-c2ccc(O)c(O)c2)oc2cc(O)cc(O)c12
REMARK SMILES IDX 5 1 3 2 2 3 1 4 22 5 20 6 19 7 17 8 16 9 15 10 14 11 6 12
REMARK SMILES IDX 7 13 8 14 9 15 13 16 11 17 10 18 12 20 4 22 21 24 18 26
REMARK H PARENT 10 19 12 21 4 23 21 25 18 27
REMARK Flexibility Score: inf
ROOT
ATOM      1  C   UNL     1     133.434 -41.094  27.663  1.00  0.00     0.180 A 
ATOM      2  C   UNL     1     132.442 -41.778  26.938  1.00  0.00     0.208 A 
ATOM      3  C   UNL     1     131.093 -41.576  27.274  1.00  0.00     0.238 A 
ATOM      4  O   UNL     1     130.207 -42.148  26.586  1.00  0.00    -0.285 OA
ATOM      5  C   UNL     1     130.754 -40.708  28.340  1.00  0.00     0.111 A 
ATOM      6  C   UNL     1     129.424 -40.461  28.793  1.00  0.00     0.134 A 
ATOM      7  C   UNL     1     129.196 -39.484  29.769  1.00  0.00     0.093 A 
ATOM      8  C   UNL     1     130.258 -38.791  30.356  1.00  0.00     0.123 A 
ATOM      9  C   UNL     1     131.565 -39.068  29.964  1.00  0.00     0.094 A 
ATOM     10  C   UNL     1     131.821 -40.011  28.966  1.00  0.00     0.146 A 
ATOM     11  O   UNL     1     133.082 -40.236  28.614  1.00  0.00    -0.452 OA
ENDROOT
BRANCH   1  12
ATOM     12  C   UNL     1     134.878 -41.273  27.384  1.00  0.00     0.025 A 
ATOM     13  C   UNL     1     135.541 -42.470  27.704  1.00  0.00     0.016 A 
ATOM     14  C   UNL     1     136.909 -42.608  27.453  1.00  0.00     0.051 A 
ATOM     15  C   UNL     1     137.635 -41.549  26.894  1.00  0.00     0.157 A 
ATOM     16  C   UNL     1     135.615 -40.207  26.843  1.00  0.00     0.062 A 
ATOM     17  C   UNL     1     136.984 -40.341  26.591  1.00  0.00     0.158 A 
BRANCH  15  18
ATOM     18  O   UNL     1     139.000 -41.690  26.644  1.00  0.00    -0.504 OA
ATOM     19  H   UNL     1     139.470 -42.580  26.753  1.00  0.00     0.293 HD
ENDBRANCH  15  18
BRANCH  17  20
ATOM     20  O   UNL     1     137.680 -39.266  26.040  1.00  0.00    -0.504 OA
ATOM     21  H   UNL     1     137.223 -38.392  25.807  1.00  0.00     0.293 HD
ENDBRANCH  17  20
ENDBRANCH   1  12
BRANCH   2  22
ATOM     22  O   UNL     1     132.797 -42.612  25.875  1.00  0.00    -0.502 OA
ATOM     23  H   UNL     1     132.110 -43.043  25.269  1.00  0.00     0.293 HD
ENDBRANCH   2  22
BRANCH   6  24
ATOM     24  O   UNL     1     128.302 -41.163  28.339  1.00  0.00    -0.507 OA
ATOM     25  H   UNL     1     128.159 -41.463  27.387  1.00  0.00     0.293 HD
ENDBRANCH   6  24
BRANCH   8  26
ATOM     26  O   UNL     1     130.024 -37.832  31.339  1.00  0.00    -0.508 OA
ATOM     27  H   UNL     1     129.961 -36.846  31.113  1.00  0.00     0.293 HD
ENDBRANCH   8  26
TORSDOF 6
ENDMDL
MODEL 7
REMARK VINA RESULT:    -5.056      4.178      6.649
REMARK INTER + INTRA:          -6.277
REMARK INTER:                  -6.167
REMARK INTRA:                  -0.110
REMARK UNBOUND:                -0.186
REMARK SMILES O=c1c(O)c(-c2ccc(O)c(O)c2)oc2cc(O)cc(O)c12
REMARK SMILES IDX 5 1 3 2 2 3 1 4 22 5 20 6 19 7 17 8 16 9 15 10 14 11 6 12
REMARK SMILES IDX 7 13 8 14 9 15 13 16 11 17 10 18 12 20 4 22 21 24 18 26
REMARK H PARENT 10 19 12 21 4 23 21 25 18 27
REMARK Flexibility Score: inf
ROOT
ATOM      1  C   UNL     1     130.725 -40.685  29.793  1.00  0.00     0.180 A 
ATOM      2  C   UNL     1     130.913 -39.540  30.587  1.00  0.00     0.208 A 
ATOM      3  C   UNL     1     129.883 -39.133  31.450  1.00  0.00     0.238 A 
ATOM      4  O   UNL     1     130.078 -38.140  32.199  1.00  0.00    -0.285 OA
ATOM      5  C   UNL     1     128.672 -39.865  31.496  1.00  0.00     0.111 A 
ATOM      6  C   UNL     1     127.547 -39.520  32.303  1.00  0.00     0.134 A 
ATOM      7  C   UNL     1     126.450 -40.389  32.368  1.00  0.00     0.093 A 
ATOM      8  C   UNL     1     126.412 -41.558  31.603  1.00  0.00     0.123 A 
ATOM      9  C   UNL     1     127.480 -41.872  30.767  1.00  0.00     0.094 A 
ATOM     10  C   UNL     1     128.603 -41.045  30.709  1.00  0.00     0.146 A 
ATOM     11  O   UNL     1     129.604 -41.388  29.907  1.00  0.00    -0.452 OA
ENDROOT
BRANCH   1  12
ATOM     12  C   UNL     1     131.755 -41.162  28.842  1.00  0.00     0.025 A 
ATOM     13  C   UNL     1     132.361 -42.422  28.991  1.00  0.00     0.016 A 
ATOM     14  C   UNL     1     133.349 -42.842  28.096  1.00  0.00     0.051 A 
ATOM     15  C   UNL     1     133.755 -42.004  27.049  1.00  0.00     0.157 A 
ATOM     16  C   UNL     1     132.181 -40.319  27.803  1.00  0.00     0.062 A 
ATOM     17  C   UNL     1     133.169 -40.735  26.905  1.00  0.00     0.158 A 
BRANCH  15  18
ATOM     18  O   UNL     1     134.740 -42.426  26.155  1.00  0.00    -0.504 OA
ATOM     19  H   UNL     1     135.124 -43.362  26.193  1.00  0.00     0.293 HD
ENDBRANCH  15  18
BRANCH  17  20
ATOM     20  O   UNL     1     133.556 -39.875  25.877  1.00  0.00    -0.504 OA
ATOM     21  H   UNL     1     133.168 -38.944  25.780  1.00  0.00     0.293 HD
ENDBRANCH  17  20
ENDBRANCH   1  12
BRANCH   2  22
ATOM     22  O   UNL     1     132.125 -38.845  30.543  1.00  0.00    -0.502 OA
ATOM     23  H   UNL     1     132.767 -38.920  29.763  1.00  0.00     0.293 HD
ENDBRANCH   2  22
BRANCH   6  24
ATOM     24  O   UNL     1     127.445 -38.332  33.032  1.00  0.00    -0.507 OA
ATOM     25  H   UNL     1     126.597 -37.993  33.463  1.00  0.00     0.293 HD
ENDBRANCH   6  24
BRANCH   8  26
ATOM     26  O   UNL     1     125.311 -42.408  31.661  1.00  0.00    -0.508 OA
ATOM     27  H   UNL     1     125.333 -43.269  32.196  1.00  0.00     0.293 HD
ENDBRANCH   8  26
TORSDOF 6
ENDMDL
MODEL 8
REMARK VINA RESULT:    -4.886      2.148      2.415
REMARK INTER + INTRA:          -6.072
REMARK INTER:                  -6.531
REMARK INTRA:                   0.459
REMARK UNBOUND:                -0.186
REMARK SMILES O=c1c(O)c(-c2ccc(O)c(O)c2)oc2cc(O)cc(O)c12
REMARK SMILES IDX 5 1 3 2 2 3 1 4 22 5 20 6 19 7 17 8 16 9 15 10 14 11 6 12
REMARK SMILES IDX 7 13 8 14 9 15 13 16 11 17 10 18 12 20 4 22 21 24 18 26
REMARK H PARENT 10 19 12 21 4 23 21 25 18 27
REMARK Flexibility Score: inf
ROOT
ATOM      1  C   UNL     1     130.251 -41.282  32.598  1.00  0.00     0.180 A 
ATOM      2  C   UNL     1     129.284 -40.263  32.539  1.00  0.00     0.208 A 
ATOM      3  C   UNL     1     128.696 -39.954  31.302  1.00  0.00     0.238 A 
ATOM      4  O   UNL     1     127.792 -39.079  31.264  1.00  0.00    -0.285 OA
ATOM      5  C   UNL     1     129.094 -40.656  30.138  1.00  0.00     0.111 A 
ATOM      6  C   UNL     1     128.594 -40.398  28.826  1.00  0.00     0.134 A 
ATOM      7  C   UNL     1     128.961 -41.241  27.769  1.00  0.00     0.093 A 
ATOM      8  C   UNL     1     129.861 -42.291  27.965  1.00  0.00     0.123 A 
ATOM      9  C   UNL     1     130.401 -42.513  29.229  1.00  0.00     0.094 A 
ATOM     10  C   UNL     1     130.025 -41.713  30.311  1.00  0.00     0.146 A 
ATOM     11  O   UNL     1     130.555 -41.966  31.502  1.00  0.00    -0.452 OA
ENDROOT
BRANCH   1  12
ATOM     12  C   UNL     1     130.933 -41.648  33.862  1.00  0.00     0.025 A 
ATOM     13  C   UNL     1     132.124 -42.395  33.860  1.00  0.00     0.016 A 
ATOM     14  C   UNL     1     132.737 -42.749  35.065  1.00  0.00     0.051 A 
ATOM     15  C   UNL     1     132.162 -42.376  36.287  1.00  0.00     0.157 A 
ATOM     16  C   UNL     1     130.350 -41.294  35.089  1.00  0.00     0.062 A 
ATOM     17  C   UNL     1     130.961 -41.647  36.298  1.00  0.00     0.158 A 
BRANCH  15  18
ATOM     18  O   UNL     1     132.777 -42.729  37.488  1.00  0.00    -0.504 OA
ATOM     19  H   UNL     1     133.320 -43.579  37.575  1.00  0.00     0.293 HD
ENDBRANCH  15  18
BRANCH  17  20
ATOM     20  O   UNL     1     130.360 -41.265  37.497  1.00  0.00    -0.504 OA
ATOM     21  H   UNL     1     129.685 -40.512  37.544  1.00  0.00     0.293 HD
ENDBRANCH  17  20
ENDBRANCH   1  12
BRANCH   2  22
ATOM     22  O   UNL     1     128.890 -39.598  33.704  1.00  0.00    -0.502 OA
ATOM     23  H   UNL     1     129.507 -39.480  34.498  1.00  0.00     0.293 HD
ENDBRANCH   2  22
BRANCH   6  24
ATOM     24  O   UNL     1     127.764 -39.320  28.505  1.00  0.00    -0.507 OA
ATOM     25  H   UNL     1     127.125 -39.300  27.724  1.00  0.00     0.293 HD
ENDBRANCH   6  24
BRANCH   8  26
ATOM     26  O   UNL     1     130.234 -43.114  26.905  1.00  0.00    -0.508 OA
ATOM     27  H   UNL     1     129.987 -44.097  26.885  1.00  0.00     0.293 HD
ENDBRANCH   8  26
TORSDOF 6
ENDMDL
MODEL 9
REMARK VINA RESULT:    -4.016      1.517      7.152
REMARK INTER + INTRA:          -5.024
REMARK INTER:                  -4.773
REMARK INTRA:                  -0.251
REMARK UNBOUND:                -0.186
REMARK SMILES O=c1c(O)c(-c2ccc(O)c(O)c2)oc2cc(O)cc(O)c12
REMARK SMILES IDX 5 1 3 2 2 3 1 4 22 5 20 6 19 7 17 8 16 9 15 10 14 11 6 12
REMARK SMILES IDX 7 13 8 14 9 15 13 16 11 17 10 18 12 20 4 22 21 24 18 26
REMARK H PARENT 10 19 12 21 4 23 21 25 18 27
REMARK Flexibility Score: inf
ROOT
ATOM      1  C   UNL     1     130.348 -41.045  32.370  1.00  0.00     0.180 A 
ATOM      2  C   UNL     1     131.571 -41.677  32.082  1.00  0.00     0.208 A 
ATOM      3  C   UNL     1     132.315 -42.232  33.135  1.00  0.00     0.238 A 
ATOM      4  O   UNL     1     133.382 -42.844  32.865  1.00  0.00    -0.285 OA
ATOM      5  C   UNL     1     131.838 -42.133  34.464  1.00  0.00     0.111 A 
ATOM      6  C   UNL     1     132.529 -42.623  35.613  1.00  0.00     0.134 A 
ATOM      7  C   UNL     1     131.902 -42.587  36.865  1.00  0.00     0.093 A 
ATOM      8  C   UNL     1     130.634 -42.019  37.019  1.00  0.00     0.123 A 
ATOM      9  C   UNL     1     129.978 -41.484  35.914  1.00  0.00     0.094 A 
ATOM     10  C   UNL     1     130.561 -41.538  34.646  1.00  0.00     0.146 A 
ATOM     11  O   UNL     1     129.895 -41.026  33.618  1.00  0.00    -0.452 OA
ENDROOT
BRANCH   1  12
ATOM     12  C   UNL     1     129.519 -40.416  31.316  1.00  0.00     0.025 A 
ATOM     13  C   UNL     1     129.916 -39.222  30.689  1.00  0.00     0.016 A 
ATOM     14  C   UNL     1     129.106 -38.633  29.714  1.00  0.00     0.051 A 
ATOM     15  C   UNL     1     127.884 -39.219  29.363  1.00  0.00     0.157 A 
ATOM     16  C   UNL     1     128.283 -40.988  30.976  1.00  0.00     0.062 A 
ATOM     17  C   UNL     1     127.469 -40.401  30.000  1.00  0.00     0.158 A 
BRANCH  15  18
ATOM     18  O   UNL     1     127.078 -38.630  28.389  1.00  0.00    -0.504 OA
ATOM     19  H   UNL     1     126.080 -38.797  28.354  1.00  0.00     0.293 HD
ENDBRANCH  15  18
BRANCH  17  20
ATOM     20  O   UNL     1     126.255 -41.006  29.678  1.00  0.00    -0.504 OA
ATOM     21  H   UNL     1     125.918 -41.829  30.163  1.00  0.00     0.293 HD
ENDBRANCH  17  20
ENDBRANCH   1  12
BRANCH   2  22
ATOM     22  O   UNL     1     132.013 -41.783  30.760  1.00  0.00    -0.502 OA
ATOM     23  H   UNL     1     132.971 -42.012  30.524  1.00  0.00     0.293 HD
ENDBRANCH   2  22
BRANCH   6  24
ATOM     24  O   UNL     1     133.833 -43.125  35.583  1.00  0.00    -0.507 OA
ATOM     25  H   UNL     1     134.583 -42.812  36.181  1.00  0.00     0.293 HD
ENDBRANCH   6  24
BRANCH   8  26
ATOM     26  O   UNL     1     130.025 -41.973  38.270  1.00  0.00    -0.508 OA
ATOM     27  H   UNL     1     130.339 -42.559  39.035  1.00  0.00     0.293 HD
ENDBRANCH   8  26
TORSDOF 6
ENDMDL
