MODEL 1
REMARK VINA RESULT:    -4.735      0.000      0.000
REMARK INTER + INTRA:          -5.177
REMARK INTER:                  -5.150
REMARK INTRA:                  -0.027
REMARK UNBOUND:                -0.027
REMARK SMILES O=C([O-])c1ccc(O)cc1
REMARK SMILES IDX 4 1 5 2 10 3 6 4 9 5 7 6 2 7 1 8 3 9 8 10
REMARK H PARENT 8 11
REMARK Flexibility Score: inf
ROOT
ATOM      1  C   UNL     1     -13.628  33.483  -3.216  1.00  0.00    -0.003 A 
ATOM      2  C   UNL     1     -14.300  33.006  -4.355  1.00  0.00     0.014 A 
ATOM      3  C   UNL     1     -12.626  34.459  -3.375  1.00  0.00     0.014 A 
ATOM      4  C   UNL     1     -13.977  33.494  -5.625  1.00  0.00     0.047 A 
ATOM      5  C   UNL     1     -12.306  34.945  -4.646  1.00  0.00     0.047 A 
ATOM      6  C   UNL     1     -12.979  34.465  -5.773  1.00  0.00     0.115 A 
ENDROOT
BRANCH   1   7
ATOM      7  C   UNL     1     -13.971  32.966  -1.874  1.00  0.00     0.071 C 
ATOM      8  O   UNL     1     -13.573  31.830  -1.502  1.00  0.00    -0.545 OA
ATOM      9  O   UNL     1     -14.742  33.727  -1.001  1.00  0.00    -0.545 OA
ENDBRANCH   1   7
BRANCH   6  10
ATOM     10  O   UNL     1     -12.650  34.958  -7.033  1.00  0.00    -0.508 OA
ATOM     11  H   UNL     1     -11.856  35.573  -7.172  1.00  0.00     0.293 HD
ENDBRANCH   6  10
TORSDOF 2
ENDMDL
MODEL 2
REMARK VINA RESULT:    -4.663      1.916      4.409
REMARK INTER + INTRA:          -5.099
REMARK INTER:                  -5.073
REMARK INTRA:                  -0.027
REMARK UNBOUND:                -0.027
REMARK SMILES O=C([O-])c1ccc(O)cc1
REMARK SMILES IDX 4 1 5 2 10 3 6 4 9 5 7 6 2 7 1 8 3 9 8 10
REMARK H PARENT 8 11
REMARK Flexibility Score: inf
ROOT
ATOM      1  C   UNL     1     -14.119  33.511  -3.205  1.00  0.00    -0.003 A 
ATOM      2  C   UNL     1     -13.565  32.704  -2.196  1.00  0.00     0.014 A 
ATOM      3  C   UNL     1     -14.881  34.636  -2.837  1.00  0.00     0.014 A 
ATOM      4  C   UNL     1     -13.770  33.014  -0.848  1.00  0.00     0.047 A 
ATOM      5  C   UNL     1     -15.083  34.943  -1.487  1.00  0.00     0.047 A 
ATOM      6  C   UNL     1     -14.529  34.135  -0.491  1.00  0.00     0.115 A 
ENDROOT
BRANCH   1   7
ATOM      7  C   UNL     1     -13.900  33.182  -4.630  1.00  0.00     0.071 C 
ATOM      8  O   UNL     1     -14.682  32.402  -5.236  1.00  0.00    -0.545 OA
ATOM      9  O   UNL     1     -12.826  33.730  -5.323  1.00  0.00    -0.545 OA
ENDBRANCH   1   7
BRANCH   6  10
ATOM     10  O   UNL     1     -14.740  34.453   0.849  1.00  0.00    -0.508 OA
ATOM     11  H   UNL     1     -15.611  34.232   1.316  1.00  0.00     0.293 HD
ENDBRANCH   6  10
TORSDOF 2
ENDMDL
MODEL 3
REMARK VINA RESULT:    -4.650      1.894      4.386
REMARK INTER + INTRA:          -5.085
REMARK INTER:                  -5.058
REMARK INTRA:                  -0.027
REMARK UNBOUND:                -0.027
REMARK SMILES O=C([O-])c1ccc(O)cc1
REMARK SMILES IDX 4 1 5 2 10 3 6 4 9 5 7 6 2 7 1 8 3 9 8 10
REMARK H PARENT 8 11
REMARK Flexibility Score: inf
ROOT
ATOM      1  C   UNL     1     -14.131  33.516  -3.267  1.00  0.00    -0.003 A 
ATOM      2  C   UNL     1     -14.885  34.646  -2.906  1.00  0.00     0.014 A 
ATOM      3  C   UNL     1     -13.578  32.712  -2.253  1.00  0.00     0.014 A 
ATOM      4  C   UNL     1     -15.081  34.966  -1.560  1.00  0.00     0.047 A 
ATOM      5  C   UNL     1     -13.777  33.035  -0.907  1.00  0.00     0.047 A 
ATOM      6  C   UNL     1     -14.528  34.160  -0.557  1.00  0.00     0.115 A 
ENDROOT
BRANCH   1   7
ATOM      7  C   UNL     1     -13.924  33.179  -4.693  1.00  0.00     0.071 C 
ATOM      8  O   UNL     1     -14.678  32.355  -5.274  1.00  0.00    -0.545 OA
ATOM      9  O   UNL     1     -12.890  33.769  -5.413  1.00  0.00    -0.545 OA
ENDBRANCH   1   7
BRANCH   6  10
ATOM     10  O   UNL     1     -14.718  34.469   0.788  1.00  0.00    -0.508 OA
ATOM     11  H   UNL     1     -14.571  35.407   1.143  1.00  0.00     0.293 HD
ENDBRANCH   6  10
TORSDOF 2
ENDMDL
MODEL 4
REMARK VINA RESULT:    -4.485      7.768      8.784
REMARK INTER + INTRA:          -4.905
REMARK INTER:                  -4.870
REMARK INTRA:                  -0.036
REMARK UNBOUND:                -0.027
REMARK SMILES O=C([O-])c1ccc(O)cc1
REMARK SMILES IDX 4 1 5 2 10 3 6 4 9 5 7 6 2 7 1 8 3 9 8 10
REMARK H PARENT 8 11
REMARK Flexibility Score: inf
ROOT
ATOM      1  C   UNL     1     -14.181  38.097   3.099  1.00  0.00    -0.003 A 
ATOM      2  C   UNL     1     -13.424  38.187   4.281  1.00  0.00     0.014 A 
ATOM      3  C   UNL     1     -13.642  38.610   1.904  1.00  0.00     0.014 A 
ATOM      4  C   UNL     1     -12.157  38.777   4.268  1.00  0.00     0.047 A 
ATOM      5  C   UNL     1     -12.373  39.198   1.895  1.00  0.00     0.047 A 
ATOM      6  C   UNL     1     -11.628  39.283   3.074  1.00  0.00     0.115 A 
ENDROOT
BRANCH   1   7
ATOM      7  C   UNL     1     -15.521  37.472   3.115  1.00  0.00     0.071 C 
ATOM      8  O   UNL     1     -16.052  37.118   4.201  1.00  0.00    -0.545 OA
ATOM      9  O   UNL     1     -16.216  37.266   1.927  1.00  0.00    -0.545 OA
ENDBRANCH   1   7
BRANCH   6  10
ATOM     10  O   UNL     1     -10.366  39.873   3.050  1.00  0.00    -0.508 OA
ATOM     11  H   UNL     1      -9.571  39.441   3.505  1.00  0.00     0.293 HD
ENDBRANCH   6  10
TORSDOF 2
ENDMDL
MODEL 5
REMARK VINA RESULT:    -4.285      2.024      2.293
REMARK INTER + INTRA:          -4.688
REMARK INTER:                  -4.652
REMARK INTRA:                  -0.036
REMARK UNBOUND:                -0.027
REMARK SMILES O=C([O-])c1ccc(O)cc1
REMARK SMILES IDX 4 1 5 2 10 3 6 4 9 5 7 6 2 7 1 8 3 9 8 10
REMARK H PARENT 8 11
REMARK Flexibility Score: inf
ROOT
ATOM      1  C   UNL     1     -14.569  34.074  -2.594  1.00  0.00    -0.003 A 
ATOM      2  C   UNL     1     -15.360  35.226  -2.447  1.00  0.00     0.014 A 
ATOM      3  C   UNL     1     -14.097  33.728  -3.875  1.00  0.00     0.014 A 
ATOM      4  C   UNL     1     -15.674  36.016  -3.557  1.00  0.00     0.047 A 
ATOM      5  C   UNL     1     -14.412  34.522  -4.982  1.00  0.00     0.047 A 
ATOM      6  C   UNL     1     -15.199  35.666  -4.828  1.00  0.00     0.115 A 
ENDROOT
BRANCH   1   7
ATOM      7  C   UNL     1     -14.238  33.239  -1.418  1.00  0.00     0.071 C 
ATOM      8  O   UNL     1     -13.575  32.176  -1.552  1.00  0.00    -0.545 OA
ATOM      9  O   UNL     1     -14.657  33.616  -0.147  1.00  0.00    -0.545 OA
ENDBRANCH   1   7
BRANCH   6  10
ATOM     10  O   UNL     1     -15.505  36.446  -5.940  1.00  0.00    -0.508 OA
ATOM     11  H   UNL     1     -16.461  36.575  -6.251  1.00  0.00     0.293 HD
ENDBRANCH   6  10
TORSDOF 2
ENDMDL
MODEL 6
REMARK VINA RESULT:    -4.263     14.454     15.545
REMARK INTER + INTRA:          -4.665
REMARK INTER:                  -4.637
REMARK INTRA:                  -0.027
REMARK UNBOUND:                -0.027
REMARK SMILES O=C([O-])c1ccc(O)cc1
REMARK SMILES IDX 4 1 5 2 10 3 6 4 9 5 7 6 2 7 1 8 3 9 8 10
REMARK H PARENT 8 11
REMARK Flexibility Score: inf
ROOT
ATOM      1  C   UNL     1     -17.811  46.994   1.064  1.00  0.00    -0.003 A 
ATOM      2  C   UNL     1     -17.806  47.796   2.218  1.00  0.00     0.014 A 
ATOM      3  C   UNL     1     -18.534  45.785   1.076  1.00  0.00     0.014 A 
ATOM      4  C   UNL     1     -18.507  47.398   3.360  1.00  0.00     0.047 A 
ATOM      5  C   UNL     1     -19.235  45.392   2.220  1.00  0.00     0.047 A 
ATOM      6  C   UNL     1     -19.224  46.195   3.363  1.00  0.00     0.115 A 
ENDROOT
BRANCH   1   7
ATOM      7  C   UNL     1     -17.068  47.416  -0.144  1.00  0.00     0.071 C 
ATOM      8  O   UNL     1     -15.819  47.270  -0.214  1.00  0.00    -0.545 OA
ATOM      9  O   UNL     1     -17.740  47.983  -1.222  1.00  0.00    -0.545 OA
ENDBRANCH   1   7
BRANCH   6  10
ATOM     10  O   UNL     1     -19.926  45.789   4.495  1.00  0.00    -0.508 OA
ATOM     11  H   UNL     1     -20.302  46.460   5.155  1.00  0.00     0.293 HD
ENDBRANCH   6  10
TORSDOF 2
ENDMDL
MODEL 7
REMARK VINA RESULT:    -4.237      1.624      2.194
REMARK INTER + INTRA:          -4.636
REMARK INTER:                  -4.607
REMARK INTRA:                  -0.029
REMARK UNBOUND:                -0.027
REMARK SMILES O=C([O-])c1ccc(O)cc1
REMARK SMILES IDX 4 1 5 2 10 3 6 4 9 5 7 6 2 7 1 8 3 9 8 10
REMARK H PARENT 8 11
REMARK Flexibility Score: inf
ROOT
ATOM      1  C   UNL     1     -14.152  34.566  -1.945  1.00  0.00    -0.003 A 
ATOM      2  C   UNL     1     -14.793  33.594  -2.732  1.00  0.00     0.014 A 
ATOM      3  C   UNL     1     -12.968  35.160  -2.425  1.00  0.00     0.014 A 
ATOM      4  C   UNL     1     -14.262  33.222  -3.971  1.00  0.00     0.047 A 
ATOM      5  C   UNL     1     -12.441  34.785  -3.665  1.00  0.00     0.047 A 
ATOM      6  C   UNL     1     -13.085  33.818  -4.440  1.00  0.00     0.115 A 
ENDROOT
BRANCH   1   7
ATOM      7  C   UNL     1     -14.715  34.959  -0.635  1.00  0.00     0.071 C 
ATOM      8  O   UNL     1     -15.060  36.151  -0.415  1.00  0.00    -0.545 OA
ATOM      9  O   UNL     1     -14.869  34.017   0.376  1.00  0.00    -0.545 OA
ENDBRANCH   1   7
BRANCH   6  10
ATOM     10  O   UNL     1     -12.548  33.455  -5.673  1.00  0.00    -0.508 OA
ATOM     11  H   UNL     1     -11.551  33.487  -5.847  1.00  0.00     0.293 HD
ENDBRANCH   6  10
TORSDOF 2
ENDMDL
MODEL 8
REMARK VINA RESULT:    -4.184      3.420      4.976
REMARK INTER + INTRA:          -4.578
REMARK INTER:                  -4.548
REMARK INTRA:                  -0.030
REMARK UNBOUND:                -0.027
REMARK SMILES O=C([O-])c1ccc(O)cc1
REMARK SMILES IDX 4 1 5 2 10 3 6 4 9 5 7 6 2 7 1 8 3 9 8 10
REMARK H PARENT 8 11
REMARK Flexibility Score: inf
ROOT
ATOM      1  C   UNL     1     -11.666  35.983  -3.370  1.00  0.00    -0.003 A 
ATOM      2  C   UNL     1     -12.370  36.096  -2.159  1.00  0.00     0.014 A 
ATOM      3  C   UNL     1     -10.504  36.757  -3.559  1.00  0.00     0.014 A 
ATOM      4  C   UNL     1     -11.923  36.964  -1.158  1.00  0.00     0.047 A 
ATOM      5  C   UNL     1     -10.061  37.623  -2.555  1.00  0.00     0.047 A 
ATOM      6  C   UNL     1     -10.767  37.729  -1.354  1.00  0.00     0.115 A 
ENDROOT
BRANCH   1   7
ATOM      7  C   UNL     1     -12.140  35.064  -4.428  1.00  0.00     0.071 C 
ATOM      8  O   UNL     1     -12.417  33.865  -4.160  1.00  0.00    -0.545 OA
ATOM      9  O   UNL     1     -12.285  35.512  -5.737  1.00  0.00    -0.545 OA
ENDBRANCH   1   7
BRANCH   6  10
ATOM     10  O   UNL     1     -10.313  38.597  -0.363  1.00  0.00    -0.508 OA
ATOM     11  H   UNL     1     -10.846  38.762   0.482  1.00  0.00     0.293 HD
ENDBRANCH   6  10
TORSDOF 2
ENDMDL
MODEL 9
REMARK VINA RESULT:    -4.163      2.603      3.196
REMARK INTER + INTRA:          -4.556
REMARK INTER:                  -4.526
REMARK INTRA:                  -0.030
REMARK UNBOUND:                -0.027
REMARK SMILES O=C([O-])c1ccc(O)cc1
REMARK SMILES IDX 4 1 5 2 10 3 6 4 9 5 7 6 2 7 1 8 3 9 8 10
REMARK H PARENT 8 11
REMARK Flexibility Score: inf
ROOT
ATOM      1  C   UNL     1     -15.416  35.348  -2.954  1.00  0.00    -0.003 A 
ATOM      2  C   UNL     1     -15.053  35.884  -4.202  1.00  0.00     0.014 A 
ATOM      3  C   UNL     1     -15.020  34.034  -2.635  1.00  0.00     0.014 A 
ATOM      4  C   UNL     1     -14.313  35.124  -5.111  1.00  0.00     0.047 A 
ATOM      5  C   UNL     1     -14.279  33.278  -3.548  1.00  0.00     0.047 A 
ATOM      6  C   UNL     1     -13.923  33.819  -4.786  1.00  0.00     0.115 A 
ENDROOT
BRANCH   1   7
ATOM      7  C   UNL     1     -16.199  36.153  -1.992  1.00  0.00     0.071 C 
ATOM      8  O   UNL     1     -17.284  36.693  -2.340  1.00  0.00    -0.545 OA
ATOM      9  O   UNL     1     -15.748  36.328  -0.688  1.00  0.00    -0.545 OA
ENDBRANCH   1   7
BRANCH   6  10
ATOM     10  O   UNL     1     -13.185  33.053  -5.685  1.00  0.00    -0.508 OA
ATOM     11  H   UNL     1     -13.328  32.054  -5.774  1.00  0.00     0.293 HD
ENDBRANCH   6  10
TORSDOF 2
ENDMDL
