MODEL 1
REMARK VINA RESULT:    -4.223      0.000      0.000
REMARK INTER + INTRA:          -5.298
REMARK INTER:                  -5.087
REMARK INTRA:                  -0.211
REMARK UNBOUND:                -0.211
REMARK SMILES [NH3+][C@@H](Cc1c[nH]c2ccccc12)C(=O)[O-]
REMARK SMILES IDX 3 1 2 2 1 3 13 7 14 8 15 9 4 10 12 11 5 12 7 13 11 14 6 15
REMARK SMILES IDX 8 16 10 17 9 19
REMARK H PARENT 1 4 1 5 1 6 6 18
REMARK Flexibility Score: inf
ROOT
ATOM      1  C   UNL     1       7.330 -34.088 -11.200  1.00  0.00     0.109 C 
ENDROOT
BRANCH   1   2
ATOM      2  C   UNL     1       6.526 -34.679 -12.379  1.00  0.00     0.232 C 
BRANCH   2   3
ATOM      3  N   UNL     1       5.153 -34.157 -12.423  1.00  0.00    -0.350 N 
ATOM      4  H   UNL     1       4.632 -34.385 -11.546  1.00  0.00     0.345 HD
ATOM      5  H   UNL     1       4.645 -34.578 -13.235  1.00  0.00     0.345 HD
ATOM      6  H   UNL     1       5.172 -33.119 -12.552  1.00  0.00     0.345 HD
ENDBRANCH   2   3
BRANCH   2   7
ATOM      7  C   UNL     1       6.541 -36.187 -12.359  1.00  0.00     0.099 C 
ATOM      8  O   UNL     1       5.750 -36.830 -11.617  1.00  0.00    -0.544 OA
ATOM      9  O   UNL     1       7.471 -36.877 -13.125  1.00  0.00    -0.544 OA
ENDBRANCH   2   7
ENDBRANCH   1   2
BRANCH   1  10
ATOM     10  C   UNL     1       8.817 -34.086 -11.426  1.00  0.00    -0.016 A 
ATOM     11  C   UNL     1       9.724 -35.077 -11.101  1.00  0.00     0.003 A 
ATOM     12  C   UNL     1       9.570 -33.054 -11.977  1.00  0.00     0.087 A 
ATOM     13  C   UNL     1      10.964 -34.614 -11.463  1.00  0.00     0.046 A 
ATOM     14  C   UNL     1       9.551 -36.335 -10.522  1.00  0.00     0.010 A 
ATOM     15  N   UNL     1      10.882 -33.383 -11.998  1.00  0.00    -0.361 N 
ATOM     16  C   UNL     1      12.116 -35.375 -11.268  1.00  0.00     0.026 A 
ATOM     17  C   UNL     1      10.697 -37.125 -10.312  1.00  0.00     0.001 A 
ATOM     18  H   UNL     1      11.668 -32.796 -12.354  1.00  0.00     0.166 HD
ATOM     19  C   UNL     1      11.974 -36.646 -10.683  1.00  0.00     0.002 A 
ENDBRANCH   1  10
TORSDOF 4
ENDMDL
MODEL 2
REMARK VINA RESULT:    -3.204      2.751      4.591
REMARK INTER + INTRA:          -4.071
REMARK INTER:                  -4.600
REMARK INTRA:                   0.529
REMARK UNBOUND:                -0.211
REMARK SMILES [NH3+][C@@H](Cc1c[nH]c2ccccc12)C(=O)[O-]
REMARK SMILES IDX 3 1 2 2 1 3 13 7 14 8 15 9 4 10 12 11 5 12 7 13 11 14 6 15
REMARK SMILES IDX 8 16 10 17 9 19
REMARK H PARENT 1 4 1 5 1 6 6 18
REMARK Flexibility Score: inf
ROOT
ATOM      1  C   UNL     1       8.583 -32.897 -10.145  1.00  0.00     0.109 C 
ENDROOT
BRANCH   1   2
ATOM      2  C   UNL     1       9.862 -32.202 -10.664  1.00  0.00     0.232 C 
BRANCH   2   3
ATOM      3  N   UNL     1       9.568 -30.894 -11.267  1.00  0.00    -0.350 N 
ATOM      4  H   UNL     1       9.474 -30.967 -12.305  1.00  0.00     0.345 HD
ATOM      5  H   UNL     1      10.342 -30.226 -11.045  1.00  0.00     0.345 HD
ATOM      6  H   UNL     1       8.681 -30.510 -10.867  1.00  0.00     0.345 HD
ENDBRANCH   2   3
BRANCH   2   7
ATOM      7  C   UNL     1      10.626 -33.087 -11.617  1.00  0.00     0.099 C 
ATOM      8  O   UNL     1      11.754 -33.552 -11.302  1.00  0.00    -0.544 OA
ATOM      9  O   UNL     1      10.106 -33.352 -12.877  1.00  0.00    -0.544 OA
ENDBRANCH   2   7
ENDBRANCH   1   2
BRANCH   1  10
ATOM     10  C   UNL     1       8.455 -34.329 -10.587  1.00  0.00    -0.016 A 
ATOM     11  C   UNL     1       7.545 -34.861 -11.480  1.00  0.00     0.003 A 
ATOM     12  C   UNL     1       9.217 -35.405 -10.142  1.00  0.00     0.087 A 
ATOM     13  C   UNL     1       7.788 -36.210 -11.539  1.00  0.00     0.046 A 
ATOM     14  C   UNL     1       6.533 -34.265 -12.235  1.00  0.00     0.010 A 
ATOM     15  N   UNL     1       8.805 -36.552 -10.728  1.00  0.00    -0.361 N 
ATOM     16  C   UNL     1       7.037 -37.056 -12.353  1.00  0.00     0.026 A 
ATOM     17  C   UNL     1       5.757 -35.095 -13.065  1.00  0.00     0.001 A 
ATOM     18  H   UNL     1       9.197 -37.508 -10.576  1.00  0.00     0.166 HD
ATOM     19  C   UNL     1       6.008 -36.485 -13.124  1.00  0.00     0.002 A 
ENDBRANCH   1  10
TORSDOF 4
ENDMDL
MODEL 3
REMARK VINA RESULT:    -2.159      1.887      2.933
REMARK INTER + INTRA:          -2.812
REMARK INTER:                  -3.224
REMARK INTRA:                   0.412
REMARK UNBOUND:                -0.211
REMARK SMILES [NH3+][C@@H](Cc1c[nH]c2ccccc12)C(=O)[O-]
REMARK SMILES IDX 3 1 2 2 1 3 13 7 14 8 15 9 4 10 12 11 5 12 7 13 11 14 6 15
REMARK SMILES IDX 8 16 10 17 9 19
REMARK H PARENT 1 4 1 5 1 6 6 18
REMARK Flexibility Score: inf
ROOT
ATOM      1  C   UNL     1       7.447 -36.246 -10.816  1.00  0.00     0.109 C 
ENDROOT
BRANCH   1   2
ATOM      2  C   UNL     1       6.448 -36.204 -11.994  1.00  0.00     0.232 C 
BRANCH   2   3
ATOM      3  N   UNL     1       6.895 -37.034 -13.121  1.00  0.00    -0.350 N 
ATOM      4  H   UNL     1       7.777 -36.660 -13.541  1.00  0.00     0.345 HD
ATOM      5  H   UNL     1       6.153 -37.053 -13.858  1.00  0.00     0.345 HD
ATOM      6  H   UNL     1       7.059 -38.015 -12.797  1.00  0.00     0.345 HD
ENDBRANCH   2   3
BRANCH   2   7
ATOM      7  C   UNL     1       6.166 -34.788 -12.431  1.00  0.00     0.099 C 
ATOM      8  O   UNL     1       7.003 -34.147 -13.120  1.00  0.00    -0.544 OA
ATOM      9  O   UNL     1       4.994 -34.164 -12.026  1.00  0.00    -0.544 OA
ENDBRANCH   2   7
ENDBRANCH   1   2
BRANCH   1  10
ATOM     10  C   UNL     1       8.833 -35.794 -11.186  1.00  0.00    -0.016 A 
ATOM     11  C   UNL     1       9.365 -34.523 -11.082  1.00  0.00     0.003 A 
ATOM     12  C   UNL     1       9.837 -36.577 -11.747  1.00  0.00     0.087 A 
ATOM     13  C   UNL     1      10.645 -34.587 -11.573  1.00  0.00     0.046 A 
ATOM     14  C   UNL     1       8.823 -33.331 -10.599  1.00  0.00     0.010 A 
ATOM     15  N   UNL     1      10.943 -35.833 -11.981  1.00  0.00    -0.361 N 
ATOM     16  C   UNL     1      11.470 -33.464 -11.617  1.00  0.00     0.026 A 
ATOM     17  C   UNL     1       9.634 -32.180 -10.632  1.00  0.00     0.001 A 
ATOM     18  H   UNL     1      11.842 -36.163 -12.396  1.00  0.00     0.166 HD
ATOM     19  C   UNL     1      10.951 -32.247 -11.139  1.00  0.00     0.002 A 
ENDBRANCH   1  10
TORSDOF 4
ENDMDL
MODEL 4
REMARK VINA RESULT:    -1.680      3.663      4.982
REMARK INTER + INTRA:          -2.234
REMARK INTER:                  -2.771
REMARK INTRA:                   0.537
REMARK UNBOUND:                -0.211
REMARK SMILES [NH3+][C@@H](Cc1c[nH]c2ccccc12)C(=O)[O-]
REMARK SMILES IDX 3 1 2 2 1 3 13 7 14 8 15 9 4 10 12 11 5 12 7 13 11 14 6 15
REMARK SMILES IDX 8 16 10 17 9 19
REMARK H PARENT 1 4 1 5 1 6 6 18
REMARK Flexibility Score: inf
ROOT
ATOM      1  C   UNL     1       8.699 -32.124 -11.144  1.00  0.00     0.109 C 
ENDROOT
BRANCH   1   2
ATOM      2  C   UNL     1       9.939 -31.243 -10.875  1.00  0.00     0.232 C 
BRANCH   2   3
ATOM      3  N   UNL     1      11.094 -32.041 -10.441  1.00  0.00    -0.350 N 
ATOM      4  H   UNL     1      10.920 -32.487  -9.512  1.00  0.00     0.345 HD
ATOM      5  H   UNL     1      11.937 -31.425 -10.367  1.00  0.00     0.345 HD
ATOM      6  H   UNL     1      11.297 -32.786 -11.147  1.00  0.00     0.345 HD
ENDBRANCH   2   3
BRANCH   2   7
ATOM      7  C   UNL     1       9.634 -30.139  -9.894  1.00  0.00     0.099 C 
ATOM      8  O   UNL     1      10.077 -28.973 -10.074  1.00  0.00    -0.544 OA
ATOM      9  O   UNL     1       8.900 -30.420  -8.749  1.00  0.00    -0.544 OA
ENDBRANCH   2   7
ENDBRANCH   1   2
BRANCH   1  10
ATOM     10  C   UNL     1       9.015 -33.401 -11.872  1.00  0.00    -0.016 A 
ATOM     11  C   UNL     1       8.185 -34.487 -12.077  1.00  0.00     0.003 A 
ATOM     12  C   UNL     1      10.233 -33.746 -12.450  1.00  0.00     0.087 A 
ATOM     13  C   UNL     1       8.919 -35.425 -12.757  1.00  0.00     0.046 A 
ATOM     14  C   UNL     1       6.855 -34.714 -11.718  1.00  0.00     0.010 A 
ATOM     15  N   UNL     1      10.168 -34.985 -12.990  1.00  0.00    -0.361 N 
ATOM     16  C   UNL     1       8.376 -36.656 -13.123  1.00  0.00     0.026 A 
ATOM     17  C   UNL     1       6.281 -35.949 -12.074  1.00  0.00     0.001 A 
ATOM     18  H   UNL     1      10.935 -35.493 -13.483  1.00  0.00     0.166 HD
ATOM     19  C   UNL     1       7.039 -36.915 -12.774  1.00  0.00     0.002 A 
ENDBRANCH   1  10
TORSDOF 4
ENDMDL
MODEL 5
REMARK VINA RESULT:    -1.336      3.431      4.639
REMARK INTER + INTRA:          -1.820
REMARK INTER:                  -1.990
REMARK INTRA:                   0.170
REMARK UNBOUND:                -0.211
REMARK SMILES [NH3+][C@@H](Cc1c[nH]c2ccccc12)C(=O)[O-]
REMARK SMILES IDX 3 1 2 2 1 3 13 7 14 8 15 9 4 10 12 11 5 12 7 13 11 14 6 15
REMARK SMILES IDX 8 16 10 17 9 19
REMARK H PARENT 1 4 1 5 1 6 6 18
REMARK Flexibility Score: inf
ROOT
ATOM      1  C   UNL     1       8.689 -32.753 -10.138  1.00  0.00     0.109 C 
ENDROOT
BRANCH   1   2
ATOM      2  C   UNL     1       9.609 -31.699 -10.793  1.00  0.00     0.232 C 
BRANCH   2   3
ATOM      3  N   UNL     1      10.965 -32.218 -11.015  1.00  0.00    -0.350 N 
ATOM      4  H   UNL     1      11.238 -32.900 -10.271  1.00  0.00     0.345 HD
ATOM      5  H   UNL     1      11.648 -31.425 -11.010  1.00  0.00     0.345 HD
ATOM      6  H   UNL     1      11.018 -32.688 -11.948  1.00  0.00     0.345 HD
ENDBRANCH   2   3
BRANCH   2   7
ATOM      7  C   UNL     1       9.634 -30.416 -10.000  1.00  0.00     0.099 C 
ATOM      8  O   UNL     1       9.930 -29.322 -10.551  1.00  0.00    -0.544 OA
ATOM      9  O   UNL     1       9.380 -30.446  -8.635  1.00  0.00    -0.544 OA
ENDBRANCH   2   7
ENDBRANCH   1   2
BRANCH   1  10
ATOM     10  C   UNL     1       8.250 -33.838 -11.083  1.00  0.00    -0.016 A 
ATOM     11  C   UNL     1       9.003 -34.885 -11.580  1.00  0.00     0.003 A 
ATOM     12  C   UNL     1       6.994 -33.967 -11.670  1.00  0.00     0.087 A 
ATOM     13  C   UNL     1       8.189 -35.591 -12.429  1.00  0.00     0.046 A 
ATOM     14  C   UNL     1      10.327 -35.261 -11.351  1.00  0.00     0.010 A 
ATOM     15  N   UNL     1       6.964 -35.042 -12.492  1.00  0.00    -0.361 N 
ATOM     16  C   UNL     1       8.644 -36.720 -13.110  1.00  0.00     0.026 A 
ATOM     17  C   UNL     1      10.814 -36.397 -12.025  1.00  0.00     0.001 A 
ATOM     18  H   UNL     1       6.153 -35.371 -13.060  1.00  0.00     0.166 HD
ATOM     19  C   UNL     1       9.975 -37.123 -12.900  1.00  0.00     0.002 A 
ENDBRANCH   1  10
TORSDOF 4
ENDMDL
