MODEL 1
REMARK VINA RESULT:    -4.726      0.000      0.000
REMARK INTER + INTRA:         -12.585
REMARK INTER:                 -10.805
REMARK INTRA:                  -1.781
REMARK UNBOUND:                -1.781
REMARK SMILES CCCCCCCCCCCCCCCCCCCCCCCC(=O)[O-]
REMARK SMILES IDX 13 1 14 2 15 3 16 4 17 5 18 6 19 7 20 8 21 9 22 10 23 11
REMARK SMILES IDX 24 12 25 13 26 14 12 15 11 16 10 17 9 18 8 19 7 20 6 21 5 22
REMARK SMILES IDX 4 23 3 24 2 25 1 26
REMARK H PARENT
REMARK Flexibility Score: inf
ROOT
ATOM      1  C   UNL     1       5.119  -2.530   5.543  1.00  0.00     0.000 C 
ENDROOT
BRANCH   1   2
ATOM      2  C   UNL     1       4.485  -1.510   6.502  1.00  0.00     0.000 C 
BRANCH   2   3
ATOM      3  C   UNL     1       4.126  -0.186   5.805  1.00  0.00     0.000 C 
BRANCH   3   4
ATOM      4  C   UNL     1       3.027   0.595   6.543  1.00  0.00     0.000 C 
BRANCH   4   5
ATOM      5  C   UNL     1       2.223  -0.291   7.508  1.00  0.00     0.000 C 
BRANCH   5   6
ATOM      6  C   UNL     1       0.705  -0.047   7.420  1.00  0.00     0.000 C 
BRANCH   6   7
ATOM      7  C   UNL     1       0.189   1.164   8.224  1.00  0.00     0.000 C 
BRANCH   7   8
ATOM      8  C   UNL     1      -0.916   1.988   7.534  1.00  0.00     0.000 C 
BRANCH   8   9
ATOM      9  C   UNL     1      -0.515   2.614   6.186  1.00  0.00     0.000 C 
BRANCH   9  10
ATOM     10  C   UNL     1       0.699   3.552   6.301  1.00  0.00     0.006 C 
BRANCH  10  11
ATOM     11  C   UNL     1       0.390   4.798   7.141  1.00  0.00     0.053 C 
BRANCH  11  12
ATOM     12  C   UNL     1       1.488   5.813   7.056  1.00  0.00     0.041 C 
ATOM     13  O   UNL     1       2.478   5.742   7.831  1.00  0.00    -0.550 OA
ATOM     14  O   UNL     1       1.432   6.820   6.102  1.00  0.00    -0.550 OA
ENDBRANCH  11  12
ENDBRANCH  10  11
ENDBRANCH   9  10
ENDBRANCH   8   9
ENDBRANCH   7   8
ENDBRANCH   6   7
ENDBRANCH   5   6
ENDBRANCH   4   5
ENDBRANCH   3   4
ENDBRANCH   2   3
ENDBRANCH   1   2
BRANCH   1  15
ATOM     15  C   UNL     1       4.376  -2.619   4.202  1.00  0.00     0.000 C 
BRANCH  15  16
ATOM     16  C   UNL     1       4.001  -4.073   3.877  1.00  0.00     0.000 C 
BRANCH  16  17
ATOM     17  C   UNL     1       4.222  -4.428   2.398  1.00  0.00     0.000 C 
BRANCH  17  18
ATOM     18  C   UNL     1       3.000  -4.097   1.521  1.00  0.00    -0.000 C 
BRANCH  18  19
ATOM     19  C   UNL     1       1.827  -5.061   1.760  1.00  0.00    -0.000 C 
BRANCH  19  20
ATOM     20  C   UNL     1       0.459  -4.380   1.593  1.00  0.00    -0.000 C 
BRANCH  20  21
ATOM     21  C   UNL     1       0.573  -2.924   1.106  1.00  0.00    -0.000 C 
BRANCH  21  22
ATOM     22  C   UNL     1      -0.497  -2.532   0.064  1.00  0.00    -0.000 C 
BRANCH  22  23
ATOM     23  C   UNL     1      -1.891  -3.074   0.427  1.00  0.00    -0.000 C 
BRANCH  23  24
ATOM     24  C   UNL     1      -2.651  -2.137   1.390  1.00  0.00    -0.000 C 
BRANCH  24  25
ATOM     25  C   UNL     1      -3.901  -2.778   2.015  1.00  0.00    -0.003 C 
ATOM     26  C   UNL     1      -3.589  -4.041   2.814  1.00  0.00     0.004 C 
ENDBRANCH  24  25
ENDBRANCH  23  24
ENDBRANCH  22  23
ENDBRANCH  21  22
ENDBRANCH  20  21
ENDBRANCH  19  20
ENDBRANCH  18  19
ENDBRANCH  17  18
ENDBRANCH  16  17
ENDBRANCH  15  16
ENDBRANCH   1  15
TORSDOF 22
ENDMDL
MODEL 2
REMARK VINA RESULT:    -4.711      6.108      9.447
REMARK INTER + INTRA:         -12.551
REMARK INTER:                  -9.358
REMARK INTRA:                  -3.193
REMARK UNBOUND:                -1.781
REMARK SMILES CCCCCCCCCCCCCCCCCCCCCCCC(=O)[O-]
REMARK SMILES IDX 13 1 14 2 15 3 16 4 17 5 18 6 19 7 20 8 21 9 22 10 23 11
REMARK SMILES IDX 24 12 25 13 26 14 12 15 11 16 10 17 9 18 8 19 7 20 6 21 5 22
REMARK SMILES IDX 4 23 3 24 2 25 1 26
REMARK H PARENT
REMARK Flexibility Score: inf
ROOT
ATOM      1  C   UNL     1      -3.422  -4.457   2.385  1.00  0.00     0.000 C 
ENDROOT
BRANCH   1   2
ATOM      2  C   UNL     1      -4.092  -3.158   1.908  1.00  0.00     0.000 C 
BRANCH   2   3
ATOM      3  C   UNL     1      -3.079  -2.130   1.376  1.00  0.00     0.000 C 
BRANCH   3   4
ATOM      4  C   UNL     1      -1.642  -2.674   1.347  1.00  0.00     0.000 C 
BRANCH   4   5
ATOM      5  C   UNL     1      -0.885  -2.270   0.071  1.00  0.00     0.000 C 
BRANCH   5   6
ATOM      6  C   UNL     1      -1.139  -3.232  -1.104  1.00  0.00     0.000 C 
BRANCH   6   7
ATOM      7  C   UNL     1      -1.240  -4.722  -0.720  1.00  0.00     0.000 C 
BRANCH   7   8
ATOM      8  C   UNL     1       0.086  -5.383  -0.294  1.00  0.00     0.000 C 
BRANCH   8   9
ATOM      9  C   UNL     1       0.051  -6.090   1.074  1.00  0.00     0.000 C 
BRANCH   9  10
ATOM     10  C   UNL     1       0.784  -5.301   2.173  1.00  0.00     0.006 C 
BRANCH  10  11
ATOM     11  C   UNL     1       1.766  -4.275   1.591  1.00  0.00     0.053 C 
BRANCH  11  12
ATOM     12  C   UNL     1       3.148  -4.455   2.141  1.00  0.00     0.041 C 
ATOM     13  O   UNL     1       3.318  -4.665   3.371  1.00  0.00    -0.550 OA
ATOM     14  O   UNL     1       4.245  -4.417   1.291  1.00  0.00    -0.550 OA
ENDBRANCH  11  12
ENDBRANCH  10  11
ENDBRANCH   9  10
ENDBRANCH   8   9
ENDBRANCH   7   8
ENDBRANCH   6   7
ENDBRANCH   5   6
ENDBRANCH   4   5
ENDBRANCH   3   4
ENDBRANCH   2   3
ENDBRANCH   1   2
BRANCH   1  15
ATOM     15  C   UNL     1      -4.402  -5.397   3.104  1.00  0.00     0.000 C 
BRANCH  15  16
ATOM     16  C   UNL     1      -4.567  -6.713   2.329  1.00  0.00     0.000 C 
BRANCH  16  17
ATOM     17  C   UNL     1      -4.196  -6.580   0.844  1.00  0.00     0.000 C 
BRANCH  17  18
ATOM     18  C   UNL     1      -5.400  -6.197  -0.035  1.00  0.00    -0.000 C 
BRANCH  18  19
ATOM     19  C   UNL     1      -6.741  -6.387   0.691  1.00  0.00    -0.000 C 
BRANCH  19  20
ATOM     20  C   UNL     1      -7.474  -5.057   0.934  1.00  0.00    -0.000 C 
BRANCH  20  21
ATOM     21  C   UNL     1      -7.468  -4.138  -0.300  1.00  0.00    -0.000 C 
BRANCH  21  22
ATOM     22  C   UNL     1      -8.871  -3.651  -0.720  1.00  0.00    -0.000 C 
BRANCH  22  23
ATOM     23  C   UNL     1      -9.597  -4.668  -1.618  1.00  0.00    -0.000 C 
BRANCH  23  24
ATOM     24  C   UNL     1     -11.047  -4.928  -1.155  1.00  0.00    -0.000 C 
BRANCH  24  25
ATOM     25  C   UNL     1     -11.322  -4.479   0.290  1.00  0.00    -0.003 C 
ATOM     26  C   UNL     1     -11.401  -5.645   1.272  1.00  0.00     0.004 C 
ENDBRANCH  24  25
ENDBRANCH  23  24
ENDBRANCH  22  23
ENDBRANCH  21  22
ENDBRANCH  20  21
ENDBRANCH  19  20
ENDBRANCH  18  19
ENDBRANCH  17  18
ENDBRANCH  16  17
ENDBRANCH  15  16
ENDBRANCH   1  15
TORSDOF 22
ENDMDL
MODEL 3
REMARK VINA RESULT:    -4.659      7.440     10.704
REMARK INTER + INTRA:         -12.431
REMARK INTER:                  -9.071
REMARK INTRA:                  -3.359
REMARK UNBOUND:                -1.781
REMARK SMILES CCCCCCCCCCCCCCCCCCCCCCCC(=O)[O-]
REMARK SMILES IDX 13 1 14 2 15 3 16 4 17 5 18 6 19 7 20 8 21 9 22 10 23 11
REMARK SMILES IDX 24 12 25 13 26 14 12 15 11 16 10 17 9 18 8 19 7 20 6 21 5 22
REMARK SMILES IDX 4 23 3 24 2 25 1 26
REMARK H PARENT
REMARK Flexibility Score: inf
ROOT
ATOM      1  C   UNL     1       0.230  -6.073   0.230  1.00  0.00     0.000 C 
ENDROOT
BRANCH   1   2
ATOM      2  C   UNL     1      -0.210  -5.776  -1.213  1.00  0.00     0.000 C 
BRANCH   2   3
ATOM      3  C   UNL     1      -1.736  -5.623  -1.346  1.00  0.00     0.000 C 
BRANCH   3   4
ATOM      4  C   UNL     1      -2.504  -6.341  -0.225  1.00  0.00     0.000 C 
BRANCH   4   5
ATOM      5  C   UNL     1      -3.397  -7.475  -0.756  1.00  0.00     0.000 C 
BRANCH   5   6
ATOM      6  C   UNL     1      -4.829  -7.010  -1.074  1.00  0.00     0.000 C 
BRANCH   6   7
ATOM      7  C   UNL     1      -5.184  -6.964  -2.574  1.00  0.00     0.000 C 
BRANCH   7   8
ATOM      8  C   UNL     1      -6.587  -6.411  -2.900  1.00  0.00     0.000 C 
BRANCH   8   9
ATOM      9  C   UNL     1      -7.285  -5.681  -1.739  1.00  0.00     0.000 C 
BRANCH   9  10
ATOM     10  C   UNL     1      -8.027  -4.412  -2.192  1.00  0.00     0.006 C 
BRANCH  10  11
ATOM     11  C   UNL     1      -8.712  -3.693  -1.022  1.00  0.00     0.053 C 
BRANCH  11  12
ATOM     12  C   UNL     1      -9.956  -4.403  -0.585  1.00  0.00     0.041 C 
ATOM     13  O   UNL     1     -10.951  -4.470  -1.354  1.00  0.00    -0.550 OA
ATOM     14  O   UNL     1     -10.006  -5.015   0.661  1.00  0.00    -0.550 OA
ENDBRANCH  11  12
ENDBRANCH  10  11
ENDBRANCH   9  10
ENDBRANCH   8   9
ENDBRANCH   7   8
ENDBRANCH   6   7
ENDBRANCH   5   6
ENDBRANCH   4   5
ENDBRANCH   3   4
ENDBRANCH   2   3
ENDBRANCH   1   2
BRANCH   1  15
ATOM     15  C   UNL     1       1.050  -4.927   0.843  1.00  0.00     0.000 C 
BRANCH  15  16
ATOM     16  C   UNL     1       0.130  -3.875   1.481  1.00  0.00     0.000 C 
BRANCH  16  17
ATOM     17  C   UNL     1      -0.028  -2.617   0.611  1.00  0.00     0.000 C 
BRANCH  17  18
ATOM     18  C   UNL     1      -1.502  -2.240   0.378  1.00  0.00    -0.000 C 
BRANCH  18  19
ATOM     19  C   UNL     1      -2.437  -2.846   1.436  1.00  0.00    -0.000 C 
BRANCH  19  20
ATOM     20  C   UNL     1      -3.621  -1.924   1.775  1.00  0.00    -0.000 C 
BRANCH  20  21
ATOM     21  C   UNL     1      -4.983  -2.624   1.630  1.00  0.00    -0.000 C 
BRANCH  21  22
ATOM     22  C   UNL     1      -4.878  -4.130   1.307  1.00  0.00    -0.000 C 
BRANCH  22  23
ATOM     23  C   UNL     1      -6.245  -4.835   1.364  1.00  0.00    -0.000 C 
BRANCH  23  24
ATOM     24  C   UNL     1      -6.281  -5.956   2.425  1.00  0.00    -0.000 C 
BRANCH  24  25
ATOM     25  C   UNL     1      -4.909  -6.597   2.691  1.00  0.00    -0.003 C 
ATOM     26  C   UNL     1      -4.479  -6.501   4.153  1.00  0.00     0.004 C 
ENDBRANCH  24  25
ENDBRANCH  23  24
ENDBRANCH  22  23
ENDBRANCH  21  22
ENDBRANCH  20  21
ENDBRANCH  19  20
ENDBRANCH  18  19
ENDBRANCH  17  18
ENDBRANCH  16  17
ENDBRANCH  15  16
ENDBRANCH   1  15
TORSDOF 22
ENDMDL
MODEL 4
REMARK VINA RESULT:    -4.657      7.323     10.528
REMARK INTER + INTRA:         -12.426
REMARK INTER:                  -9.054
REMARK INTRA:                  -3.372
REMARK UNBOUND:                -1.781
REMARK SMILES CCCCCCCCCCCCCCCCCCCCCCCC(=O)[O-]
REMARK SMILES IDX 13 1 14 2 15 3 16 4 17 5 18 6 19 7 20 8 21 9 22 10 23 11
REMARK SMILES IDX 24 12 25 13 26 14 12 15 11 16 10 17 9 18 8 19 7 20 6 21 5 22
REMARK SMILES IDX 4 23 3 24 2 25 1 26
REMARK H PARENT
REMARK Flexibility Score: inf
ROOT
ATOM      1  C   UNL     1      -2.815  -2.241   1.266  1.00  0.00     0.000 C 
ENDROOT
BRANCH   1   2
ATOM      2  C   UNL     1      -3.874  -3.309   1.585  1.00  0.00     0.000 C 
BRANCH   2   3
ATOM      3  C   UNL     1      -3.837  -3.758   3.056  1.00  0.00     0.000 C 
BRANCH   3   4
ATOM      4  C   UNL     1      -3.922  -5.284   3.213  1.00  0.00     0.000 C 
BRANCH   4   5
ATOM      5  C   UNL     1      -5.336  -5.825   2.944  1.00  0.00     0.000 C 
BRANCH   5   6
ATOM      6  C   UNL     1      -5.393  -6.778   1.737  1.00  0.00     0.000 C 
BRANCH   6   7
ATOM      7  C   UNL     1      -5.827  -6.126   0.408  1.00  0.00     0.000 C 
BRANCH   7   8
ATOM      8  C   UNL     1      -7.254  -5.543   0.398  1.00  0.00     0.000 C 
BRANCH   8   9
ATOM      9  C   UNL     1      -7.338  -4.029   0.132  1.00  0.00     0.000 C 
BRANCH   9  10
ATOM     10  C   UNL     1      -8.374  -3.668  -0.946  1.00  0.00     0.006 C 
BRANCH  10  11
ATOM     11  C   UNL     1      -9.800  -4.051  -0.529  1.00  0.00     0.053 C 
BRANCH  11  12
ATOM     12  C   UNL     1     -10.464  -4.920  -1.553  1.00  0.00     0.041 C 
ATOM     13  O   UNL     1      -9.836  -5.878  -2.075  1.00  0.00    -0.550 OA
ATOM     14  O   UNL     1     -11.787  -4.689  -1.909  1.00  0.00    -0.550 OA
ENDBRANCH  11  12
ENDBRANCH  10  11
ENDBRANCH   9  10
ENDBRANCH   8   9
ENDBRANCH   7   8
ENDBRANCH   6   7
ENDBRANCH   5   6
ENDBRANCH   4   5
ENDBRANCH   3   4
ENDBRANCH   2   3
ENDBRANCH   1   2
BRANCH   1  15
ATOM     15  C   UNL     1      -1.381  -2.763   1.439  1.00  0.00     0.000 C 
BRANCH  15  16
ATOM     16  C   UNL     1      -0.544  -2.499   0.179  1.00  0.00     0.000 C 
BRANCH  16  17
ATOM     17  C   UNL     1      -1.080  -3.239  -1.057  1.00  0.00     0.000 C 
BRANCH  17  18
ATOM     18  C   UNL     1      -0.708  -4.733  -1.060  1.00  0.00    -0.000 C 
BRANCH  18  19
ATOM     19  C   UNL     1      -1.924  -5.641  -0.819  1.00  0.00    -0.000 C 
BRANCH  19  20
ATOM     20  C   UNL     1      -1.927  -6.264   0.587  1.00  0.00    -0.000 C 
BRANCH  20  21
ATOM     21  C   UNL     1      -0.956  -7.451   0.717  1.00  0.00    -0.000 C 
BRANCH  21  22
ATOM     22  C   UNL     1      -0.029  -7.364   1.948  1.00  0.00    -0.000 C 
BRANCH  22  23
ATOM     23  C   UNL     1       0.318  -5.910   2.315  1.00  0.00    -0.000 C 
BRANCH  23  24
ATOM     24  C   UNL     1       1.836  -5.637   2.253  1.00  0.00    -0.000 C 
BRANCH  24  25
ATOM     25  C   UNL     1       2.192  -4.265   1.657  1.00  0.00    -0.003 C 
ATOM     26  C   UNL     1       3.438  -3.645   2.286  1.00  0.00     0.004 C 
ENDBRANCH  24  25
ENDBRANCH  23  24
ENDBRANCH  22  23
ENDBRANCH  21  22
ENDBRANCH  20  21
ENDBRANCH  19  20
ENDBRANCH  18  19
ENDBRANCH  17  18
ENDBRANCH  16  17
ENDBRANCH  15  16
ENDBRANCH   1  15
TORSDOF 22
ENDMDL
MODEL 5
REMARK VINA RESULT:    -4.628      6.755      9.829
REMARK INTER + INTRA:         -12.362
REMARK INTER:                  -8.582
REMARK INTRA:                  -3.779
REMARK UNBOUND:                -1.781
REMARK SMILES CCCCCCCCCCCCCCCCCCCCCCCC(=O)[O-]
REMARK SMILES IDX 13 1 14 2 15 3 16 4 17 5 18 6 19 7 20 8 21 9 22 10 23 11
REMARK SMILES IDX 24 12 25 13 26 14 12 15 11 16 10 17 9 18 8 19 7 20 6 21 5 22
REMARK SMILES IDX 4 23 3 24 2 25 1 26
REMARK H PARENT
REMARK Flexibility Score: inf
ROOT
ATOM      1  C   UNL     1      -4.044  -2.594   1.864  1.00  0.00     0.000 C 
ENDROOT
BRANCH   1   2
ATOM      2  C   UNL     1      -2.747  -2.065   1.229  1.00  0.00     0.000 C 
BRANCH   2   3
ATOM      3  C   UNL     1      -1.524  -2.934   1.570  1.00  0.00     0.000 C 
BRANCH   3   4
ATOM      4  C   UNL     1      -0.402  -2.815   0.527  1.00  0.00     0.000 C 
BRANCH   4   5
ATOM      5  C   UNL     1      -0.938  -2.509  -0.882  1.00  0.00     0.000 C 
BRANCH   5   6
ATOM      6  C   UNL     1      -1.380  -3.773  -1.641  1.00  0.00     0.000 C 
BRANCH   6   7
ATOM      7  C   UNL     1      -0.685  -5.078  -1.201  1.00  0.00     0.000 C 
BRANCH   7   8
ATOM      8  C   UNL     1      -1.633  -6.248  -0.870  1.00  0.00     0.000 C 
BRANCH   8   9
ATOM      9  C   UNL     1      -1.950  -6.426   0.626  1.00  0.00     0.000 C 
BRANCH   9  10
ATOM     10  C   UNL     1      -0.686  -6.566   1.491  1.00  0.00     0.006 C 
BRANCH  10  11
ATOM     11  C   UNL     1      -0.951  -6.219   2.963  1.00  0.00     0.053 C 
BRANCH  11  12
ATOM     12  C   UNL     1       0.306  -6.251   3.777  1.00  0.00     0.041 C 
ATOM     13  O   UNL     1       0.254  -6.476   5.014  1.00  0.00    -0.550 OA
ATOM     14  O   UNL     1       1.537  -6.060   3.162  1.00  0.00    -0.550 OA
ENDBRANCH  11  12
ENDBRANCH  10  11
ENDBRANCH   9  10
ENDBRANCH   8   9
ENDBRANCH   7   8
ENDBRANCH   6   7
ENDBRANCH   5   6
ENDBRANCH   4   5
ENDBRANCH   3   4
ENDBRANCH   2   3
ENDBRANCH   1   2
BRANCH   1  15
ATOM     15  C   UNL     1      -3.809  -3.840   2.732  1.00  0.00     0.000 C 
BRANCH  15  16
ATOM     16  C   UNL     1      -4.812  -4.949   2.381  1.00  0.00     0.000 C 
BRANCH  16  17
ATOM     17  C   UNL     1      -5.355  -4.829   0.948  1.00  0.00     0.000 C 
BRANCH  17  18
ATOM     18  C   UNL     1      -6.889  -4.940   0.886  1.00  0.00    -0.000 C 
BRANCH  18  19
ATOM     19  C   UNL     1      -7.509  -3.956  -0.119  1.00  0.00    -0.000 C 
BRANCH  19  20
ATOM     20  C   UNL     1      -8.951  -4.330  -0.499  1.00  0.00    -0.000 C 
BRANCH  20  21
ATOM     21  C   UNL     1      -9.043  -5.061  -1.849  1.00  0.00    -0.000 C 
BRANCH  21  22
ATOM     22  C   UNL     1      -7.855  -4.776  -2.793  1.00  0.00    -0.000 C 
BRANCH  22  23
ATOM     23  C   UNL     1      -7.226  -6.068  -3.344  1.00  0.00    -0.000 C 
BRANCH  23  24
ATOM     24  C   UNL     1      -6.692  -6.984  -2.222  1.00  0.00    -0.000 C 
BRANCH  24  25
ATOM     25  C   UNL     1      -5.167  -6.910  -2.039  1.00  0.00    -0.003 C 
ATOM     26  C   UNL     1      -4.425  -6.587  -3.334  1.00  0.00     0.004 C 
ENDBRANCH  24  25
ENDBRANCH  23  24
ENDBRANCH  22  23
ENDBRANCH  21  22
ENDBRANCH  20  21
ENDBRANCH  19  20
ENDBRANCH  18  19
ENDBRANCH  17  18
ENDBRANCH  16  17
ENDBRANCH  15  16
ENDBRANCH   1  15
TORSDOF 22
ENDMDL
MODEL 6
REMARK VINA RESULT:    -4.627      6.107      9.016
REMARK INTER + INTRA:         -12.359
REMARK INTER:                  -8.935
REMARK INTRA:                  -3.423
REMARK UNBOUND:                -1.781
REMARK SMILES CCCCCCCCCCCCCCCCCCCCCCCC(=O)[O-]
REMARK SMILES IDX 13 1 14 2 15 3 16 4 17 5 18 6 19 7 20 8 21 9 22 10 23 11
REMARK SMILES IDX 24 12 25 13 26 14 12 15 11 16 10 17 9 18 8 19 7 20 6 21 5 22
REMARK SMILES IDX 4 23 3 24 2 25 1 26
REMARK H PARENT
REMARK Flexibility Score: inf
ROOT
ATOM      1  C   UNL     1      -0.545  -2.626  -0.422  1.00  0.00     0.000 C 
ENDROOT
BRANCH   1   2
ATOM      2  C   UNL     1      -1.307  -3.436  -1.483  1.00  0.00     0.000 C 
BRANCH   2   3
ATOM      3  C   UNL     1      -0.970  -4.937  -1.436  1.00  0.00     0.000 C 
BRANCH   3   4
ATOM      4  C   UNL     1      -2.142  -5.794  -0.933  1.00  0.00     0.000 C 
BRANCH   4   5
ATOM      5  C   UNL     1      -1.769  -6.638   0.297  1.00  0.00     0.000 C 
BRANCH   5   6
ATOM      6  C   UNL     1      -0.250  -6.704   0.539  1.00  0.00     0.000 C 
BRANCH   6   7
ATOM      7  C   UNL     1       0.175  -6.754   2.020  1.00  0.00     0.000 C 
BRANCH   7   8
ATOM      8  C   UNL     1       1.094  -5.604   2.480  1.00  0.00     0.000 C 
BRANCH   8   9
ATOM      9  C   UNL     1       1.998  -5.015   1.382  1.00  0.00     0.000 C 
BRANCH   9  10
ATOM     10  C   UNL     1       2.631  -3.672   1.787  1.00  0.00     0.006 C 
BRANCH  10  11
ATOM     11  C   UNL     1       3.934  -3.861   2.575  1.00  0.00     0.053 C 
BRANCH  11  12
ATOM     12  C   UNL     1       5.018  -4.448   1.725  1.00  0.00     0.041 C 
ATOM     13  O   UNL     1       5.676  -5.441   2.133  1.00  0.00    -0.550 OA
ATOM     14  O   UNL     1       5.282  -3.916   0.469  1.00  0.00    -0.550 OA
ENDBRANCH  11  12
ENDBRANCH  10  11
ENDBRANCH   9  10
ENDBRANCH   8   9
ENDBRANCH   7   8
ENDBRANCH   6   7
ENDBRANCH   5   6
ENDBRANCH   4   5
ENDBRANCH   3   4
ENDBRANCH   2   3
ENDBRANCH   1   2
BRANCH   1  15
ATOM     15  C   UNL     1      -1.434  -2.223   0.764  1.00  0.00     0.000 C 
BRANCH  15  16
ATOM     16  C   UNL     1      -1.494  -3.345   1.812  1.00  0.00     0.000 C 
BRANCH  16  17
ATOM     17  C   UNL     1      -2.933  -3.707   2.214  1.00  0.00     0.000 C 
BRANCH  17  18
ATOM     18  C   UNL     1      -3.981  -2.804   1.540  1.00  0.00    -0.000 C 
BRANCH  18  19
ATOM     19  C   UNL     1      -5.313  -3.530   1.296  1.00  0.00    -0.000 C 
BRANCH  19  20
ATOM     20  C   UNL     1      -5.305  -4.973   1.827  1.00  0.00    -0.000 C 
BRANCH  20  21
ATOM     21  C   UNL     1      -6.111  -5.939   0.942  1.00  0.00    -0.000 C 
BRANCH  21  22
ATOM     22  C   UNL     1      -7.562  -6.159   1.423  1.00  0.00    -0.000 C 
BRANCH  22  23
ATOM     23  C   UNL     1      -8.566  -6.181   0.256  1.00  0.00    -0.000 C 
BRANCH  23  24
ATOM     24  C   UNL     1      -9.682  -5.128   0.426  1.00  0.00    -0.000 C 
BRANCH  24  25
ATOM     25  C   UNL     1      -9.731  -4.094  -0.712  1.00  0.00    -0.003 C 
ATOM     26  C   UNL     1      -8.383  -3.426  -0.971  1.00  0.00     0.004 C 
ENDBRANCH  24  25
ENDBRANCH  23  24
ENDBRANCH  22  23
ENDBRANCH  21  22
ENDBRANCH  20  21
ENDBRANCH  19  20
ENDBRANCH  18  19
ENDBRANCH  17  18
ENDBRANCH  16  17
ENDBRANCH  15  16
ENDBRANCH   1  15
TORSDOF 22
ENDMDL
MODEL 7
REMARK VINA RESULT:    -4.623      7.357     10.849
REMARK INTER + INTRA:         -12.349
REMARK INTER:                 -10.015
REMARK INTRA:                  -2.334
REMARK UNBOUND:                -1.781
REMARK SMILES CCCCCCCCCCCCCCCCCCCCCCCC(=O)[O-]
REMARK SMILES IDX 13 1 14 2 15 3 16 4 17 5 18 6 19 7 20 8 21 9 22 10 23 11
REMARK SMILES IDX 24 12 25 13 26 14 12 15 11 16 10 17 9 18 8 19 7 20 6 21 5 22
REMARK SMILES IDX 4 23 3 24 2 25 1 26
REMARK H PARENT
REMARK Flexibility Score: inf
ROOT
ATOM      1  C   UNL     1      -3.410  -2.181   1.832  1.00  0.00     0.000 C 
ENDROOT
BRANCH   1   2
ATOM      2  C   UNL     1      -2.185  -3.003   1.399  1.00  0.00     0.000 C 
BRANCH   2   3
ATOM      3  C   UNL     1      -1.235  -2.210   0.484  1.00  0.00     0.000 C 
BRANCH   3   4
ATOM      4  C   UNL     1      -1.079  -2.849  -0.905  1.00  0.00     0.000 C 
BRANCH   4   5
ATOM      5  C   UNL     1      -1.475  -4.335  -0.917  1.00  0.00     0.000 C 
BRANCH   5   6
ATOM      6  C   UNL     1      -0.467  -5.217  -1.676  1.00  0.00     0.000 C 
BRANCH   6   7
ATOM      7  C   UNL     1      -1.013  -5.885  -2.954  1.00  0.00     0.000 C 
BRANCH   7   8
ATOM      8  C   UNL     1      -2.006  -5.032  -3.768  1.00  0.00     0.000 C 
BRANCH   8   9
ATOM      9  C   UNL     1      -1.385  -3.826  -4.496  1.00  0.00     0.000 C 
BRANCH   9  10
ATOM     10  C   UNL     1      -2.406  -2.714  -4.788  1.00  0.00     0.006 C 
BRANCH  10  11
ATOM     11  C   UNL     1      -1.877  -1.326  -4.402  1.00  0.00     0.053 C 
BRANCH  11  12
ATOM     12  C   UNL     1      -2.536  -0.240  -5.195  1.00  0.00     0.041 C 
ATOM     13  O   UNL     1      -3.428   0.477  -4.670  1.00  0.00    -0.550 OA
ATOM     14  O   UNL     1      -2.144  -0.000  -6.506  1.00  0.00    -0.550 OA
ENDBRANCH  11  12
ENDBRANCH  10  11
ENDBRANCH   9  10
ENDBRANCH   8   9
ENDBRANCH   7   8
ENDBRANCH   6   7
ENDBRANCH   5   6
ENDBRANCH   4   5
ENDBRANCH   3   4
ENDBRANCH   2   3
ENDBRANCH   1   2
BRANCH   1  15
ATOM     15  C   UNL     1      -4.736  -2.886   1.508  1.00  0.00     0.000 C 
BRANCH  15  16
ATOM     16  C   UNL     1      -4.557  -4.411   1.493  1.00  0.00     0.000 C 
BRANCH  16  17
ATOM     17  C   UNL     1      -5.805  -5.151   0.983  1.00  0.00     0.000 C 
BRANCH  17  18
ATOM     18  C   UNL     1      -6.867  -4.195   0.411  1.00  0.00    -0.000 C 
BRANCH  18  19
ATOM     19  C   UNL     1      -8.242  -4.866   0.262  1.00  0.00    -0.000 C 
BRANCH  19  20
ATOM     20  C   UNL     1      -9.174  -4.097  -0.689  1.00  0.00    -0.000 C 
BRANCH  20  21
ATOM     21  C   UNL     1      -9.658  -4.952  -1.872  1.00  0.00    -0.000 C 
BRANCH  21  22
ATOM     22  C   UNL     1      -8.559  -5.849  -2.482  1.00  0.00    -0.000 C 
BRANCH  22  23
ATOM     23  C   UNL     1      -7.563  -5.048  -3.340  1.00  0.00    -0.000 C 
BRANCH  23  24
ATOM     24  C   UNL     1      -7.978  -4.998  -4.826  1.00  0.00    -0.000 C 
BRANCH  24  25
ATOM     25  C   UNL     1      -7.106  -4.060  -5.678  1.00  0.00    -0.003 C 
ATOM     26  C   UNL     1      -5.624  -4.421  -5.638  1.00  0.00     0.004 C 
ENDBRANCH  24  25
ENDBRANCH  23  24
ENDBRANCH  22  23
ENDBRANCH  21  22
ENDBRANCH  20  21
ENDBRANCH  19  20
ENDBRANCH  18  19
ENDBRANCH  17  18
ENDBRANCH  16  17
ENDBRANCH  15  16
ENDBRANCH   1  15
TORSDOF 22
ENDMDL
MODEL 8
REMARK VINA RESULT:    -4.612      6.832     10.166
REMARK INTER + INTRA:         -12.325
REMARK INTER:                  -9.638
REMARK INTRA:                  -2.687
REMARK UNBOUND:                -1.781
REMARK SMILES CCCCCCCCCCCCCCCCCCCCCCCC(=O)[O-]
REMARK SMILES IDX 13 1 14 2 15 3 16 4 17 5 18 6 19 7 20 8 21 9 22 10 23 11
REMARK SMILES IDX 24 12 25 13 26 14 12 15 11 16 10 17 9 18 8 19 7 20 6 21 5 22
REMARK SMILES IDX 4 23 3 24 2 25 1 26
REMARK H PARENT
REMARK Flexibility Score: inf
ROOT
ATOM      1  C   UNL     1      -0.209  -2.761   0.170  1.00  0.00     0.000 C 
ENDROOT
BRANCH   1   2
ATOM      2  C   UNL     1       0.039  -3.636   1.410  1.00  0.00     0.000 C 
BRANCH   2   3
ATOM      3  C   UNL     1       0.019  -5.141   1.086  1.00  0.00     0.000 C 
BRANCH   3   4
ATOM      4  C   UNL     1      -0.057  -5.422  -0.423  1.00  0.00     0.000 C 
BRANCH   4   5
ATOM      5  C   UNL     1      -1.281  -6.272  -0.803  1.00  0.00     0.000 C 
BRANCH   5   6
ATOM      6  C   UNL     1      -1.935  -5.823  -2.122  1.00  0.00     0.000 C 
BRANCH   6   7
ATOM      7  C   UNL     1      -1.111  -4.818  -2.952  1.00  0.00     0.000 C 
BRANCH   7   8
ATOM      8  C   UNL     1      -0.962  -5.167  -4.447  1.00  0.00     0.000 C 
BRANCH   8   9
ATOM      9  C   UNL     1      -1.202  -3.996  -5.416  1.00  0.00     0.000 C 
BRANCH   9  10
ATOM     10  C   UNL     1      -2.486  -3.211  -5.098  1.00  0.00     0.006 C 
BRANCH  10  11
ATOM     11  C   UNL     1      -2.188  -1.796  -4.584  1.00  0.00     0.053 C 
BRANCH  11  12
ATOM     12  C   UNL     1      -3.098  -0.778  -5.199  1.00  0.00     0.041 C 
ATOM     13  O   UNL     1      -3.108   0.405  -4.769  1.00  0.00    -0.550 OA
ATOM     14  O   UNL     1      -3.916  -1.130  -6.265  1.00  0.00    -0.550 OA
ENDBRANCH  11  12
ENDBRANCH  10  11
ENDBRANCH   9  10
ENDBRANCH   8   9
ENDBRANCH   7   8
ENDBRANCH   6   7
ENDBRANCH   5   6
ENDBRANCH   4   5
ENDBRANCH   3   4
ENDBRANCH   2   3
ENDBRANCH   1   2
BRANCH   1  15
ATOM     15  C   UNL     1      -1.642  -2.212   0.114  1.00  0.00     0.000 C 
BRANCH  15  16
ATOM     16  C   UNL     1      -2.299  -2.249   1.502  1.00  0.00     0.000 C 
BRANCH  16  17
ATOM     17  C   UNL     1      -3.783  -2.649   1.448  1.00  0.00     0.000 C 
BRANCH  17  18
ATOM     18  C   UNL     1      -4.105  -3.849   2.356  1.00  0.00    -0.000 C 
BRANCH  18  19
ATOM     19  C   UNL     1      -3.862  -5.196   1.656  1.00  0.00    -0.000 C 
BRANCH  19  20
ATOM     20  C   UNL     1      -5.016  -5.592   0.720  1.00  0.00    -0.000 C 
BRANCH  20  21
ATOM     21  C   UNL     1      -6.291  -5.993   1.481  1.00  0.00    -0.000 C 
BRANCH  21  22
ATOM     22  C   UNL     1      -7.548  -5.210   1.044  1.00  0.00    -0.000 C 
BRANCH  22  23
ATOM     23  C   UNL     1      -7.441  -4.695  -0.402  1.00  0.00    -0.000 C 
BRANCH  23  24
ATOM     24  C   UNL     1      -8.570  -3.703  -0.755  1.00  0.00    -0.000 C 
BRANCH  24  25
ATOM     25  C   UNL     1      -9.907  -4.385  -1.092  1.00  0.00    -0.003 C 
ATOM     26  C   UNL     1     -10.886  -4.391   0.079  1.00  0.00     0.004 C 
ENDBRANCH  24  25
ENDBRANCH  23  24
ENDBRANCH  22  23
ENDBRANCH  21  22
ENDBRANCH  20  21
ENDBRANCH  19  20
ENDBRANCH  18  19
ENDBRANCH  17  18
ENDBRANCH  16  17
ENDBRANCH  15  16
ENDBRANCH   1  15
TORSDOF 22
ENDMDL
MODEL 9
REMARK VINA RESULT:    -4.593      7.703     11.669
REMARK INTER + INTRA:         -12.281
REMARK INTER:                  -9.447
REMARK INTRA:                  -2.834
REMARK UNBOUND:                -1.781
REMARK SMILES CCCCCCCCCCCCCCCCCCCCCCCC(=O)[O-]
REMARK SMILES IDX 13 1 14 2 15 3 16 4 17 5 18 6 19 7 20 8 21 9 22 10 23 11
REMARK SMILES IDX 24 12 25 13 26 14 12 15 11 16 10 17 9 18 8 19 7 20 6 21 5 22
REMARK SMILES IDX 4 23 3 24 2 25 1 26
REMARK H PARENT
REMARK Flexibility Score: inf
ROOT
ATOM      1  C   UNL     1      -3.086  -2.285   1.458  1.00  0.00     0.000 C 
ENDROOT
BRANCH   1   2
ATOM      2  C   UNL     1      -4.050  -3.330   2.043  1.00  0.00     0.000 C 
BRANCH   2   3
ATOM      3  C   UNL     1      -5.334  -3.483   1.208  1.00  0.00     0.000 C 
BRANCH   3   4
ATOM      4  C   UNL     1      -5.873  -4.922   1.208  1.00  0.00     0.000 C 
BRANCH   4   5
ATOM      5  C   UNL     1      -7.353  -4.995   0.796  1.00  0.00     0.000 C 
BRANCH   5   6
ATOM      6  C   UNL     1      -7.610  -4.429  -0.613  1.00  0.00     0.000 C 
BRANCH   6   7
ATOM      7  C   UNL     1      -8.957  -3.700  -0.789  1.00  0.00     0.000 C 
BRANCH   7   8
ATOM      8  C   UNL     1     -10.171  -4.395  -0.140  1.00  0.00     0.000 C 
BRANCH   8   9
ATOM      9  C   UNL     1     -11.460  -4.375  -0.982  1.00  0.00     0.000 C 
BRANCH   9  10
ATOM     10  C   UNL     1     -11.776  -5.737  -1.623  1.00  0.00     0.006 C 
BRANCH  10  11
ATOM     11  C   UNL     1     -11.430  -5.767  -3.118  1.00  0.00     0.053 C 
BRANCH  11  12
ATOM     12  C   UNL     1      -9.993  -6.121  -3.349  1.00  0.00     0.041 C 
ATOM     13  O   UNL     1      -9.353  -5.588  -4.293  1.00  0.00    -0.550 OA
ATOM     14  O   UNL     1      -9.353  -7.018  -2.503  1.00  0.00    -0.550 OA
ENDBRANCH  11  12
ENDBRANCH  10  11
ENDBRANCH   9  10
ENDBRANCH   8   9
ENDBRANCH   7   8
ENDBRANCH   6   7
ENDBRANCH   5   6
ENDBRANCH   4   5
ENDBRANCH   3   4
ENDBRANCH   2   3
ENDBRANCH   1   2
BRANCH   1  15
ATOM     15  C   UNL     1      -1.627  -2.768   1.448  1.00  0.00     0.000 C 
BRANCH  15  16
ATOM     16  C   UNL     1      -0.884  -2.247   0.209  1.00  0.00     0.000 C 
BRANCH  16  17
ATOM     17  C   UNL     1      -1.173  -3.079  -1.051  1.00  0.00     0.000 C 
BRANCH  17  18
ATOM     18  C   UNL     1      -0.762  -4.554  -0.892  1.00  0.00    -0.000 C 
BRANCH  18  19
ATOM     19  C   UNL     1      -1.811  -5.521  -1.465  1.00  0.00    -0.000 C 
BRANCH  19  20
ATOM     20  C   UNL     1      -2.506  -6.352  -0.373  1.00  0.00    -0.000 C 
BRANCH  20  21
ATOM     21  C   UNL     1      -1.904  -6.125   1.024  1.00  0.00    -0.000 C 
BRANCH  21  22
ATOM     22  C   UNL     1      -1.009  -7.284   1.512  1.00  0.00    -0.000 C 
BRANCH  22  23
ATOM     23  C   UNL     1       0.469  -6.870   1.631  1.00  0.00    -0.000 C 
BRANCH  23  24
ATOM     24  C   UNL     1       0.649  -5.578   2.456  1.00  0.00    -0.000 C 
BRANCH  24  25
ATOM     25  C   UNL     1       1.617  -4.568   1.815  1.00  0.00    -0.003 C 
ATOM     26  C   UNL     1       2.919  -5.208   1.340  1.00  0.00     0.004 C 
ENDBRANCH  24  25
ENDBRANCH  23  24
ENDBRANCH  22  23
ENDBRANCH  21  22
ENDBRANCH  20  21
ENDBRANCH  19  20
ENDBRANCH  18  19
ENDBRANCH  17  18
ENDBRANCH  16  17
ENDBRANCH  15  16
ENDBRANCH   1  15
TORSDOF 22
ENDMDL
