MODEL 1
REMARK VINA RESULT:    -5.140      0.000      0.000
REMARK INTER + INTRA:          -5.626
REMARK INTER:                  -5.591
REMARK INTRA:                  -0.035
REMARK UNBOUND:                -0.035
REMARK SMILES O=C([O-])c1ccc(O)cc1
REMARK SMILES IDX 4 1 5 2 10 3 6 4 9 5 7 6 2 7 1 8 3 9 8 10
REMARK H PARENT 8 11
REMARK Flexibility Score: inf
ROOT
ATOM      1  C   UNL     1     -33.065  11.068 -33.560  1.00  0.00    -0.003 A 
ATOM      2  C   UNL     1     -33.662  11.876 -34.544  1.00  0.00     0.014 A 
ATOM      3  C   UNL     1     -32.342   9.929 -33.958  1.00  0.00     0.014 A 
ATOM      4  C   UNL     1     -33.538  11.550 -35.899  1.00  0.00     0.047 A 
ATOM      5  C   UNL     1     -32.220   9.606 -35.313  1.00  0.00     0.047 A 
ATOM      6  C   UNL     1     -32.815  10.414 -36.286  1.00  0.00     0.115 A 
ENDROOT
BRANCH   1   7
ATOM      7  C   UNL     1     -33.194  11.408 -32.126  1.00  0.00     0.071 C 
ATOM      8  O   UNL     1     -32.379  10.951 -31.281  1.00  0.00    -0.545 OA
ATOM      9  O   UNL     1     -34.219  12.241 -31.690  1.00  0.00    -0.545 OA
ENDBRANCH   1   7
BRANCH   6  10
ATOM     10  O   UNL     1     -32.685  10.078 -37.632  1.00  0.00    -0.508 OA
ATOM     11  H   UNL     1     -33.496   9.929 -38.221  1.00  0.00     0.293 HD
ENDBRANCH   6  10
TORSDOF 2
ENDMDL
MODEL 2
REMARK VINA RESULT:    -5.132      0.025      1.532
REMARK INTER + INTRA:          -5.617
REMARK INTER:                  -5.583
REMARK INTRA:                  -0.034
REMARK UNBOUND:                -0.035
REMARK SMILES O=C([O-])c1ccc(O)cc1
REMARK SMILES IDX 4 1 5 2 10 3 6 4 9 5 7 6 2 7 1 8 3 9 8 10
REMARK H PARENT 8 11
REMARK Flexibility Score: inf
ROOT
ATOM      1  C   UNL     1     -33.067  11.072 -33.553  1.00  0.00    -0.003 A 
ATOM      2  C   UNL     1     -32.361   9.921 -33.949  1.00  0.00     0.014 A 
ATOM      3  C   UNL     1     -33.645  11.891 -34.540  1.00  0.00     0.014 A 
ATOM      4  C   UNL     1     -32.238   9.597 -35.304  1.00  0.00     0.047 A 
ATOM      5  C   UNL     1     -33.520  11.563 -35.894  1.00  0.00     0.047 A 
ATOM      6  C   UNL     1     -32.818  10.418 -36.280  1.00  0.00     0.115 A 
ENDROOT
BRANCH   1   7
ATOM      7  C   UNL     1     -33.199  11.420 -32.121  1.00  0.00     0.071 C 
ATOM      8  O   UNL     1     -32.367  10.993 -31.277  1.00  0.00    -0.545 OA
ATOM      9  O   UNL     1     -34.246  12.225 -31.687  1.00  0.00    -0.545 OA
ENDBRANCH   1   7
BRANCH   6  10
ATOM     10  O   UNL     1     -32.703  10.105 -37.632  1.00  0.00    -0.508 OA
ATOM     11  H   UNL     1     -32.510   9.159 -37.942  1.00  0.00     0.293 HD
ENDBRANCH   6  10
TORSDOF 2
ENDMDL
MODEL 3
REMARK VINA RESULT:    -4.978      1.196      4.298
REMARK INTER + INTRA:          -5.450
REMARK INTER:                  -5.414
REMARK INTRA:                  -0.036
REMARK UNBOUND:                -0.035
REMARK SMILES O=C([O-])c1ccc(O)cc1
REMARK SMILES IDX 4 1 5 2 10 3 6 4 9 5 7 6 2 7 1 8 3 9 8 10
REMARK H PARENT 8 11
REMARK Flexibility Score: inf
ROOT
ATOM      1  C   UNL     1     -33.166  10.626 -34.835  1.00  0.00    -0.003 A 
ATOM      2  C   UNL     1     -32.424   9.519 -34.383  1.00  0.00     0.014 A 
ATOM      3  C   UNL     1     -33.698  11.521 -33.890  1.00  0.00     0.014 A 
ATOM      4  C   UNL     1     -32.219   9.314 -33.015  1.00  0.00     0.047 A 
ATOM      5  C   UNL     1     -33.491  11.314 -32.523  1.00  0.00     0.047 A 
ATOM      6  C   UNL     1     -32.753  10.212 -32.081  1.00  0.00     0.115 A 
ENDROOT
BRANCH   1   7
ATOM      7  C   UNL     1     -33.385  10.846 -36.281  1.00  0.00     0.071 C 
ATOM      8  O   UNL     1     -32.945  10.027 -37.130  1.00  0.00    -0.545 OA
ATOM      9  O   UNL     1     -34.083  11.965 -36.724  1.00  0.00    -0.545 OA
ENDBRANCH   1   7
BRANCH   6  10
ATOM     10  O   UNL     1     -32.556  10.019 -30.716  1.00  0.00    -0.508 OA
ATOM     11  H   UNL     1     -33.217  10.369 -30.031  1.00  0.00     0.293 HD
ENDBRANCH   6  10
TORSDOF 2
ENDMDL
MODEL 4
REMARK VINA RESULT:    -4.960      1.190      4.052
REMARK INTER + INTRA:          -5.429
REMARK INTER:                  -5.393
REMARK INTRA:                  -0.036
REMARK UNBOUND:                -0.035
REMARK SMILES O=C([O-])c1ccc(O)cc1
REMARK SMILES IDX 4 1 5 2 10 3 6 4 9 5 7 6 2 7 1 8 3 9 8 10
REMARK H PARENT 8 11
REMARK Flexibility Score: inf
ROOT
ATOM      1  C   UNL     1     -33.154  10.599 -34.832  1.00  0.00    -0.003 A 
ATOM      2  C   UNL     1     -33.689  11.512 -33.905  1.00  0.00     0.014 A 
ATOM      3  C   UNL     1     -32.413   9.501 -34.358  1.00  0.00     0.014 A 
ATOM      4  C   UNL     1     -33.487  11.329 -32.533  1.00  0.00     0.047 A 
ATOM      5  C   UNL     1     -32.213   9.322 -32.986  1.00  0.00     0.047 A 
ATOM      6  C   UNL     1     -32.749  10.232 -32.070  1.00  0.00     0.115 A 
ENDROOT
BRANCH   1   7
ATOM      7  C   UNL     1     -33.364  10.788 -36.284  1.00  0.00     0.071 C 
ATOM      8  O   UNL     1     -32.912   9.955 -37.112  1.00  0.00    -0.545 OA
ATOM      9  O   UNL     1     -34.067  11.892 -36.755  1.00  0.00    -0.545 OA
ENDBRANCH   1   7
BRANCH   6  10
ATOM     10  O   UNL     1     -32.541  10.040 -30.706  1.00  0.00    -0.508 OA
ATOM     11  H   UNL     1     -33.189   9.499 -30.144  1.00  0.00     0.293 HD
ENDBRANCH   6  10
TORSDOF 2
ENDMDL
MODEL 5
REMARK VINA RESULT:    -4.728      1.801      4.285
REMARK INTER + INTRA:          -5.177
REMARK INTER:                  -5.144
REMARK INTRA:                  -0.033
REMARK UNBOUND:                -0.035
REMARK SMILES O=C([O-])c1ccc(O)cc1
REMARK SMILES IDX 4 1 5 2 10 3 6 4 9 5 7 6 2 7 1 8 3 9 8 10
REMARK H PARENT 8 11
REMARK Flexibility Score: inf
ROOT
ATOM      1  C   UNL     1     -33.614  10.848 -36.101  1.00  0.00    -0.003 A 
ATOM      2  C   UNL     1     -32.789   9.717 -36.236  1.00  0.00     0.014 A 
ATOM      3  C   UNL     1     -33.690  11.492 -34.853  1.00  0.00     0.014 A 
ATOM      4  C   UNL     1     -32.055   9.241 -35.144  1.00  0.00     0.047 A 
ATOM      5  C   UNL     1     -32.955  11.014 -33.764  1.00  0.00     0.047 A 
ATOM      6  C   UNL     1     -32.136   9.890 -33.905  1.00  0.00     0.115 A 
ENDROOT
BRANCH   1   7
ATOM      7  C   UNL     1     -34.393  11.355 -37.253  1.00  0.00     0.071 C 
ATOM      8  O   UNL     1     -34.630  12.585 -37.376  1.00  0.00    -0.545 OA
ATOM      9  O   UNL     1     -34.874  10.476 -38.217  1.00  0.00    -0.545 OA
ENDBRANCH   1   7
BRANCH   6  10
ATOM     10  O   UNL     1     -31.411   9.426 -32.810  1.00  0.00    -0.508 OA
ATOM     11  H   UNL     1     -30.404   9.539 -32.756  1.00  0.00     0.293 HD
ENDBRANCH   6  10
TORSDOF 2
ENDMDL
MODEL 6
REMARK VINA RESULT:    -4.714      1.437      4.212
REMARK INTER + INTRA:          -5.163
REMARK INTER:                  -5.132
REMARK INTRA:                  -0.030
REMARK UNBOUND:                -0.035
REMARK SMILES O=C([O-])c1ccc(O)cc1
REMARK SMILES IDX 4 1 5 2 10 3 6 4 9 5 7 6 2 7 1 8 3 9 8 10
REMARK H PARENT 8 11
REMARK Flexibility Score: inf
ROOT
ATOM      1  C   UNL     1     -32.892   9.939 -34.029  1.00  0.00    -0.003 A 
ATOM      2  C   UNL     1     -33.661  11.108 -33.878  1.00  0.00     0.014 A 
ATOM      3  C   UNL     1     -32.135   9.475 -32.939  1.00  0.00     0.014 A 
ATOM      4  C   UNL     1     -33.670  11.796 -32.661  1.00  0.00     0.047 A 
ATOM      5  C   UNL     1     -32.147  10.166 -31.723  1.00  0.00     0.047 A 
ATOM      6  C   UNL     1     -32.913  11.326 -31.580  1.00  0.00     0.115 A 
ENDROOT
BRANCH   1   7
ATOM      7  C   UNL     1     -32.878   9.207 -35.315  1.00  0.00     0.071 C 
ATOM      8  O   UNL     1     -31.789   8.875 -35.853  1.00  0.00    -0.545 OA
ATOM      9  O   UNL     1     -34.071   8.875 -35.948  1.00  0.00    -0.545 OA
ENDBRANCH   1   7
BRANCH   6  10
ATOM     10  O   UNL     1     -32.915  12.004 -30.362  1.00  0.00    -0.508 OA
ATOM     11  H   UNL     1     -32.463  12.906 -30.258  1.00  0.00     0.293 HD
ENDBRANCH   6  10
TORSDOF 2
ENDMDL
MODEL 7
REMARK VINA RESULT:    -4.707      1.814      4.113
REMARK INTER + INTRA:          -5.154
REMARK INTER:                  -5.120
REMARK INTRA:                  -0.034
REMARK UNBOUND:                -0.035
REMARK SMILES O=C([O-])c1ccc(O)cc1
REMARK SMILES IDX 4 1 5 2 10 3 6 4 9 5 7 6 2 7 1 8 3 9 8 10
REMARK H PARENT 8 11
REMARK Flexibility Score: inf
ROOT
ATOM      1  C   UNL     1     -33.618  10.812 -36.110  1.00  0.00    -0.003 A 
ATOM      2  C   UNL     1     -33.664  11.492 -34.879  1.00  0.00     0.014 A 
ATOM      3  C   UNL     1     -32.819   9.661 -36.224  1.00  0.00     0.014 A 
ATOM      4  C   UNL     1     -32.925  11.028 -33.786  1.00  0.00     0.047 A 
ATOM      5  C   UNL     1     -32.081   9.200 -35.129  1.00  0.00     0.047 A 
ATOM      6  C   UNL     1     -32.132   9.880 -33.909  1.00  0.00     0.115 A 
ENDROOT
BRANCH   1   7
ATOM      7  C   UNL     1     -34.398  11.300 -37.270  1.00  0.00     0.071 C 
ATOM      8  O   UNL     1     -34.677  12.522 -37.387  1.00  0.00    -0.545 OA
ATOM      9  O   UNL     1     -34.833  10.412 -38.248  1.00  0.00    -0.545 OA
ENDBRANCH   1   7
BRANCH   6  10
ATOM     10  O   UNL     1     -31.392   9.408 -32.827  1.00  0.00    -0.508 OA
ATOM     11  H   UNL     1     -30.446   9.062 -32.945  1.00  0.00     0.293 HD
ENDBRANCH   6  10
TORSDOF 2
ENDMDL
MODEL 8
REMARK VINA RESULT:    -4.482      1.783      2.331
REMARK INTER + INTRA:          -4.910
REMARK INTER:                  -4.880
REMARK INTRA:                  -0.030
REMARK UNBOUND:                -0.035
REMARK SMILES O=C([O-])c1ccc(O)cc1
REMARK SMILES IDX 4 1 5 2 10 3 6 4 9 5 7 6 2 7 1 8 3 9 8 10
REMARK H PARENT 8 11
REMARK Flexibility Score: inf
ROOT
ATOM      1  C   UNL     1     -33.578  10.771 -35.024  1.00  0.00    -0.003 A 
ATOM      2  C   UNL     1     -33.842  12.030 -35.592  1.00  0.00     0.014 A 
ATOM      3  C   UNL     1     -33.877   9.612 -35.762  1.00  0.00     0.014 A 
ATOM      4  C   UNL     1     -34.393  12.127 -36.875  1.00  0.00     0.047 A 
ATOM      5  C   UNL     1     -34.427   9.713 -37.044  1.00  0.00     0.047 A 
ATOM      6  C   UNL     1     -34.686  10.967 -37.604  1.00  0.00     0.115 A 
ENDROOT
BRANCH   1   7
ATOM      7  C   UNL     1     -32.996  10.664 -33.667  1.00  0.00     0.071 C 
ATOM      8  O   UNL     1     -33.510  11.281 -32.697  1.00  0.00    -0.545 OA
ATOM      9  O   UNL     1     -31.871   9.878 -33.445  1.00  0.00    -0.545 OA
ENDBRANCH   1   7
BRANCH   6  10
ATOM     10  O   UNL     1     -35.235  11.050 -38.882  1.00  0.00    -0.508 OA
ATOM     11  H   UNL     1     -36.156  10.680 -39.087  1.00  0.00     0.293 HD
ENDBRANCH   6  10
TORSDOF 2
ENDMDL
MODEL 9
REMARK VINA RESULT:    -4.262      1.249      2.143
REMARK INTER + INTRA:          -4.671
REMARK INTER:                  -4.637
REMARK INTRA:                  -0.034
REMARK UNBOUND:                -0.035
REMARK SMILES O=C([O-])c1ccc(O)cc1
REMARK SMILES IDX 4 1 5 2 10 3 6 4 9 5 7 6 2 7 1 8 3 9 8 10
REMARK H PARENT 8 11
REMARK Flexibility Score: inf
ROOT
ATOM      1  C   UNL     1     -32.923  11.124 -32.327  1.00  0.00    -0.003 A 
ATOM      2  C   UNL     1     -32.140   9.955 -32.301  1.00  0.00     0.014 A 
ATOM      3  C   UNL     1     -33.507  11.526 -33.541  1.00  0.00     0.014 A 
ATOM      4  C   UNL     1     -31.948   9.205 -33.466  1.00  0.00     0.047 A 
ATOM      5  C   UNL     1     -33.312  10.774 -34.704  1.00  0.00     0.047 A 
ATOM      6  C   UNL     1     -32.534   9.613 -34.670  1.00  0.00     0.115 A 
ENDROOT
BRANCH   1   7
ATOM      7  C   UNL     1     -33.129  11.920 -31.098  1.00  0.00     0.071 C 
ATOM      8  O   UNL     1     -32.255  11.941 -30.191  1.00  0.00    -0.545 OA
ATOM      9  O   UNL     1     -34.295  12.660 -30.926  1.00  0.00    -0.545 OA
ENDBRANCH   1   7
BRANCH   6  10
ATOM     10  O   UNL     1     -32.349   8.875 -35.838  1.00  0.00    -0.508 OA
ATOM     11  H   UNL     1     -32.390   7.862 -35.835  1.00  0.00     0.293 HD
ENDBRANCH   6  10
TORSDOF 2
ENDMDL
