MODEL 1
REMARK VINA RESULT:    -5.002      0.000      0.000
REMARK INTER + INTRA:          -5.502
REMARK INTER:                  -5.441
REMARK INTRA:                  -0.061
REMARK UNBOUND:                -0.061
REMARK SMILES C[C@H]1[C@H](C)CC[C@@]2(C(=O)[O-])CC[C@]3(C)C(=CC[C@H]4[C@@]5(C)CC[C@@H](O)C(C)(C)[C@H]5CC[C@@]43C)[C@@H]12
REMARK SMILES IDX 7 1 6 2 11 3 33 4 5 5 12 6 15 7 2 8 3 9 13 10 16 11 1 12
REMARK SMILES IDX 4 13 14 14 31 15 17 16 18 17 30 18 32 19 19 20 29 21 28 22
REMARK SMILES IDX 21 23 20 24 25 25 22 26 23 27 26 28 27 29 8 30 9 31 10 32
REMARK SMILES IDX 24 33
REMARK H PARENT 24 34
REMARK Flexibility Score: inf
ROOT
ATOM      1  C   UNL     1      10.993 -16.188  -8.752  1.00  0.00     0.017 C 
ATOM      2  C   UNL     1      12.123 -16.374  -7.705  1.00  0.00     0.014 C 
ATOM      3  C   UNL     1      11.147 -17.325  -9.870  1.00  0.00     0.014 C 
ATOM      4  C   UNL     1       9.628 -16.261  -7.997  1.00  0.00     0.030 C 
ATOM      5  C   UNL     1      12.057 -15.416  -6.484  1.00  0.00     0.004 C 
ATOM      6  C   UNL     1      10.298 -18.651  -9.739  1.00  0.00     0.013 C 
ATOM      7  C   UNL     1       9.223 -17.719  -7.817  1.00  0.00    -0.063 C 
ATOM      8  C   UNL     1       9.491 -15.316  -6.766  1.00  0.00    -0.003 C 
ATOM      9  C   UNL     1      10.692 -15.332  -5.773  1.00  0.00    -0.011 C 
ATOM     10  C   UNL     1       8.870 -18.474  -9.097  1.00  0.00    -0.006 C 
ATOM     11  C   UNL     1       9.574 -18.438  -6.700  1.00  0.00    -0.027 C 
ATOM     12  C   UNL     1       8.136 -15.556  -6.062  1.00  0.00     0.008 C 
ATOM     13  C   UNL     1      10.654 -14.074  -4.884  1.00  0.00     0.008 C 
ATOM     14  C   UNL     1       8.040 -17.617 -10.122  1.00  0.00     0.017 C 
ATOM     15  C   UNL     1       8.009 -19.766  -8.674  1.00  0.00    -0.020 C 
ATOM     16  C   UNL     1       9.379 -19.928  -6.505  1.00  0.00     0.032 C 
ATOM     17  C   UNL     1       8.909 -20.691  -7.774  1.00  0.00     0.006 C 
ATOM     18  C   UNL     1       7.457 -20.572  -9.896  1.00  0.00     0.008 C 
ATOM     19  C   UNL     1       6.771 -19.224  -7.856  1.00  0.00     0.012 C 
ATOM     20  C   UNL     1       8.522 -22.257  -7.680  1.00  0.00    -0.025 C 
ATOM     21  C   UNL     1       6.769 -21.940  -9.580  1.00  0.00     0.005 C 
ATOM     22  C   UNL     1       7.073 -22.609  -8.205  1.00  0.00     0.003 C 
ATOM     23  C   UNL     1       8.764 -22.848  -6.261  1.00  0.00     0.010 C 
ATOM     24  C   UNL     1       9.544 -23.047  -8.627  1.00  0.00     0.012 C 
ATOM     25  C   UNL     1       5.836 -22.872  -7.200  1.00  0.00    -0.006 C 
ATOM     26  C   UNL     1       7.567 -22.683  -5.320  1.00  0.00     0.033 C 
ATOM     27  C   UNL     1       6.370 -23.466  -5.863  1.00  0.00     0.120 C 
ATOM     28  C   UNL     1       4.926 -21.659  -6.908  1.00  0.00     0.014 C 
ATOM     29  C   UNL     1       4.876 -23.938  -7.820  1.00  0.00     0.014 C 
ENDROOT
BRANCH   1  30
ATOM     30  C   UNL     1      11.087 -14.813  -9.463  1.00  0.00     0.048 C 
ATOM     31  O   UNL     1      12.125 -14.100  -9.361  1.00  0.00    -0.550 OA
ATOM     32  O   UNL     1       9.989 -14.251 -10.093  1.00  0.00    -0.550 OA
ENDBRANCH   1  30
BRANCH  27  33
ATOM     33  O   UNL     1       5.362 -23.573  -4.879  1.00  0.00    -0.393 OA
ATOM     34  H   UNL     1       4.739 -24.311  -5.138  1.00  0.00     0.210 HD
ENDBRANCH  27  33
TORSDOF 2
ENDMDL
MODEL 2
REMARK VINA RESULT:    -3.828      1.734      3.864
REMARK INTER + INTRA:          -4.224
REMARK INTER:                  -4.207
REMARK INTRA:                  -0.018
REMARK UNBOUND:                -0.061
REMARK SMILES C[C@H]1[C@H](C)CC[C@@]2(C(=O)[O-])CC[C@]3(C)C(=CC[C@H]4[C@@]5(C)CC[C@@H](O)C(C)(C)[C@H]5CC[C@@]43C)[C@@H]12
REMARK SMILES IDX 7 1 6 2 11 3 33 4 5 5 12 6 15 7 2 8 3 9 13 10 16 11 1 12
REMARK SMILES IDX 4 13 14 14 31 15 17 16 18 17 30 18 32 19 19 20 29 21 28 22
REMARK SMILES IDX 21 23 20 24 25 25 22 26 23 27 26 28 27 29 8 30 9 31 10 32
REMARK SMILES IDX 24 33
REMARK H PARENT 24 34
REMARK Flexibility Score: inf
ROOT
ATOM      1  C   UNL     1      10.239 -15.377  -6.764  1.00  0.00     0.017 C 
ATOM      2  C   UNL     1       9.563 -14.555  -7.894  1.00  0.00     0.014 C 
ATOM      3  C   UNL     1       9.190 -15.546  -5.565  1.00  0.00     0.014 C 
ATOM      4  C   UNL     1      10.687 -16.743  -7.373  1.00  0.00     0.030 C 
ATOM      5  C   UNL     1      10.408 -14.391  -9.187  1.00  0.00     0.004 C 
ATOM      6  C   UNL     1       8.314 -16.859  -5.488  1.00  0.00     0.013 C 
ATOM      7  C   UNL     1       9.510 -17.711  -7.376  1.00  0.00    -0.063 C 
ATOM      8  C   UNL     1      11.548 -16.650  -8.668  1.00  0.00    -0.003 C 
ATOM      9  C   UNL     1      11.002 -15.689  -9.767  1.00  0.00    -0.011 C 
ATOM     10  C   UNL     1       9.022 -18.169  -6.002  1.00  0.00    -0.006 C 
ATOM     11  C   UNL     1       8.659 -17.818  -8.449  1.00  0.00    -0.027 C 
ATOM     12  C   UNL     1      11.843 -18.066  -9.212  1.00  0.00     0.008 C 
ATOM     13  C   UNL     1      12.125 -15.338 -10.762  1.00  0.00     0.008 C 
ATOM     14  C   UNL     1      10.189 -18.455  -4.986  1.00  0.00     0.017 C 
ATOM     15  C   UNL     1       8.170 -19.516  -6.217  1.00  0.00    -0.020 C 
ATOM     16  C   UNL     1       7.367 -18.609  -8.484  1.00  0.00     0.032 C 
ATOM     17  C   UNL     1       6.919 -19.177  -7.109  1.00  0.00     0.006 C 
ATOM     18  C   UNL     1       7.713 -20.183  -4.878  1.00  0.00     0.008 C 
ATOM     19  C   UNL     1       9.126 -20.532  -6.958  1.00  0.00     0.012 C 
ATOM     20  C   UNL     1       5.640 -20.161  -7.018  1.00  0.00    -0.025 C 
ATOM     21  C   UNL     1       6.726 -21.390  -4.995  1.00  0.00     0.005 C 
ATOM     22  C   UNL     1       5.928 -21.552  -6.324  1.00  0.00     0.003 C 
ATOM     23  C   UNL     1       4.936 -20.354  -8.392  1.00  0.00     0.010 C 
ATOM     24  C   UNL     1       4.550 -19.424  -6.105  1.00  0.00     0.012 C 
ATOM     25  C   UNL     1       6.141 -22.908  -7.176  1.00  0.00    -0.006 C 
ATOM     26  C   UNL     1       5.526 -21.497  -9.224  1.00  0.00     0.033 C 
ATOM     27  C   UNL     1       5.319 -22.827  -8.497  1.00  0.00     0.120 C 
ATOM     28  C   UNL     1       7.602 -23.293  -7.491  1.00  0.00     0.014 C 
ATOM     29  C   UNL     1       5.583 -24.125  -6.369  1.00  0.00     0.014 C 
ENDROOT
BRANCH   1  30
ATOM     30  C   UNL     1      11.490 -14.658  -6.197  1.00  0.00     0.048 C 
ATOM     31  O   UNL     1      12.124 -15.139  -5.216  1.00  0.00    -0.550 OA
ATOM     32  O   UNL     1      11.856 -13.396  -6.635  1.00  0.00    -0.550 OA
ENDBRANCH   1  30
BRANCH  27  33
ATOM     33  O   UNL     1       5.583 -23.910  -9.364  1.00  0.00    -0.393 OA
ATOM     34  H   UNL     1       6.019 -23.558 -10.192  1.00  0.00     0.210 HD
ENDBRANCH  27  33
TORSDOF 2
ENDMDL
MODEL 3
REMARK VINA RESULT:    -3.142      1.600      7.922
REMARK INTER + INTRA:          -3.478
REMARK INTER:                  -3.589
REMARK INTRA:                   0.110
REMARK UNBOUND:                -0.061
REMARK SMILES C[C@H]1[C@H](C)CC[C@@]2(C(=O)[O-])CC[C@]3(C)C(=CC[C@H]4[C@@]5(C)CC[C@@H](O)C(C)(C)[C@H]5CC[C@@]43C)[C@@H]12
REMARK SMILES IDX 7 1 6 2 11 3 33 4 5 5 12 6 15 7 2 8 3 9 13 10 16 11 1 12
REMARK SMILES IDX 4 13 14 14 31 15 17 16 18 17 30 18 32 19 19 20 29 21 28 22
REMARK SMILES IDX 21 23 20 24 25 25 22 26 23 27 26 28 27 29 8 30 9 31 10 32
REMARK SMILES IDX 24 33
REMARK H PARENT 24 34
REMARK Flexibility Score: inf
ROOT
ATOM      1  C   UNL     1       6.118 -22.321  -6.239  1.00  0.00     0.017 C 
ATOM      2  C   UNL     1       7.096 -23.453  -6.652  1.00  0.00     0.014 C 
ATOM      3  C   UNL     1       6.649 -21.667  -4.876  1.00  0.00     0.014 C 
ATOM      4  C   UNL     1       6.051 -21.297  -7.416  1.00  0.00     0.030 C 
ATOM      5  C   UNL     1       6.790 -24.125  -8.019  1.00  0.00     0.004 C 
ATOM      6  C   UNL     1       7.540 -20.363  -4.945  1.00  0.00     0.013 C 
ATOM      7  C   UNL     1       7.221 -20.326  -7.315  1.00  0.00    -0.063 C 
ATOM      8  C   UNL     1       5.736 -21.905  -8.816  1.00  0.00    -0.003 C 
ATOM      9  C   UNL     1       6.571 -23.163  -9.203  1.00  0.00    -0.011 C 
ATOM     10  C   UNL     1       7.193 -19.374  -6.120  1.00  0.00    -0.006 C 
ATOM     11  C   UNL     1       8.419 -20.563  -7.944  1.00  0.00    -0.027 C 
ATOM     12  C   UNL     1       5.791 -20.802  -9.897  1.00  0.00     0.008 C 
ATOM     13  C   UNL     1       5.880 -23.917 -10.354  1.00  0.00     0.008 C 
ATOM     14  C   UNL     1       5.759 -18.811  -5.801  1.00  0.00     0.017 C 
ATOM     15  C   UNL     1       8.175 -18.146  -6.459  1.00  0.00    -0.020 C 
ATOM     16  C   UNL     1       9.691 -19.761  -7.763  1.00  0.00     0.032 C 
ATOM     17  C   UNL     1       9.636 -18.707  -6.622  1.00  0.00     0.006 C 
ATOM     18  C   UNL     1       8.150 -17.014  -5.380  1.00  0.00     0.008 C 
ATOM     19  C   UNL     1       7.659 -17.527  -7.818  1.00  0.00     0.012 C 
ATOM     20  C   UNL     1      10.866 -17.681  -6.408  1.00  0.00    -0.025 C 
ATOM     21  C   UNL     1       9.208 -15.873  -5.534  1.00  0.00     0.005 C 
ATOM     22  C   UNL     1      10.459 -16.154  -6.421  1.00  0.00     0.003 C 
ATOM     23  C   UNL     1      12.049 -17.956  -7.380  1.00  0.00     0.010 C 
ATOM     24  C   UNL     1      11.465 -17.971  -4.951  1.00  0.00     0.012 C 
ATOM     25  C   UNL     1      10.699 -15.213  -7.713  1.00  0.00    -0.006 C 
ATOM     26  C   UNL     1      11.916 -17.229  -8.722  1.00  0.00     0.033 C 
ATOM     27  C   UNL     1      11.947 -15.716  -8.497  1.00  0.00     0.120 C 
ATOM     28  C   UNL     1       9.503 -15.058  -8.675  1.00  0.00     0.014 C 
ATOM     29  C   UNL     1      11.014 -13.755  -7.245  1.00  0.00     0.014 C 
ENDROOT
BRANCH   1  30
ATOM     30  C   UNL     1       4.689 -22.861  -5.976  1.00  0.00     0.048 C 
ATOM     31  O   UNL     1       3.883 -22.229  -5.236  1.00  0.00    -0.550 OA
ATOM     32  O   UNL     1       4.305 -24.121  -6.404  1.00  0.00    -0.550 OA
ENDBRANCH   1  30
BRANCH  27  33
ATOM     33  O   UNL     1      12.124 -15.038  -9.724  1.00  0.00    -0.393 OA
ATOM     34  H   UNL     1      11.533 -15.461 -10.411  1.00  0.00     0.210 HD
ENDBRANCH  27  33
TORSDOF 2
ENDMDL
