MODEL 1
REMARK VINA RESULT:    -4.265      0.000      0.000
REMARK INTER + INTRA:          -4.265
REMARK INTER:                  -4.265
REMARK INTRA:                   0.000
REMARK UNBOUND:                 0.000
REMARK SMILES CC1=CC[C@H]2C[C@@H]1C2(C)C
REMARK SMILES IDX 1 1 2 2 3 3 4 4 5 5 6 6 7 7 8 8 9 9 10 10
REMARK H PARENT
REMARK Flexibility Score: inf
ROOT
ATOM      1  C   UNL     1      -0.610  -0.380  15.256  1.00  0.00     0.039 C 
ATOM      2  C   UNL     1       0.648  -1.177  15.087  1.00  0.00    -0.074 C 
ATOM      3  C   UNL     1       0.721  -2.212  14.199  1.00  0.00    -0.027 C 
ATOM      4  C   UNL     1       2.036  -3.009  14.095  1.00  0.00     0.031 C 
ATOM      5  C   UNL     1       3.110  -2.404  15.066  1.00  0.00    -0.000 C 
ATOM      6  C   UNL     1       3.059  -0.878  14.845  1.00  0.00     0.013 C 
ATOM      7  C   UNL     1       1.921  -0.861  15.884  1.00  0.00     0.021 C 
ATOM      8  C   UNL     1       2.497  -2.175  16.475  1.00  0.00    -0.026 C 
ATOM      9  C   UNL     1       3.582  -1.911  17.549  1.00  0.00     0.012 C 
ATOM     10  C   UNL     1       1.504  -3.231  17.036  1.00  0.00     0.012 C 
ENDROOT
TORSDOF 0
ENDMDL
MODEL 2
REMARK VINA RESULT:    -4.163      3.026      5.275
REMARK INTER + INTRA:          -4.163
REMARK INTER:                  -4.163
REMARK INTRA:                   0.000
REMARK UNBOUND:                 0.000
REMARK SMILES CC1=CC[C@H]2C[C@@H]1C2(C)C
REMARK SMILES IDX 1 1 2 2 3 3 4 4 5 5 6 6 7 7 8 8 9 9 10 10
REMARK H PARENT
REMARK Flexibility Score: inf
ROOT
ATOM      1  C   UNL     1      -0.271  -6.168  20.088  1.00  0.00     0.039 C 
ATOM      2  C   UNL     1       0.758  -5.098  19.883  1.00  0.00    -0.074 C 
ATOM      3  C   UNL     1       1.564  -4.680  20.903  1.00  0.00    -0.027 C 
ATOM      4  C   UNL     1       2.583  -3.556  20.632  1.00  0.00     0.031 C 
ATOM      5  C   UNL     1       2.512  -3.118  19.127  1.00  0.00    -0.000 C 
ATOM      6  C   UNL     1       2.502  -4.427  18.312  1.00  0.00     0.013 C 
ATOM      7  C   UNL     1       0.974  -4.433  18.517  1.00  0.00     0.021 C 
ATOM      8  C   UNL     1       1.036  -2.892  18.699  1.00  0.00    -0.026 C 
ATOM      9  C   UNL     1       0.926  -2.136  17.351  1.00  0.00     0.012 C 
ATOM     10  C   UNL     1       0.059  -2.229  19.710  1.00  0.00     0.012 C 
ENDROOT
TORSDOF 0
ENDMDL
MODEL 3
REMARK VINA RESULT:    -4.111      0.990      3.311
REMARK INTER + INTRA:          -4.111
REMARK INTER:                  -4.111
REMARK INTRA:                   0.000
REMARK UNBOUND:                 0.000
REMARK SMILES CC1=CC[C@H]2C[C@@H]1C2(C)C
REMARK SMILES IDX 1 1 2 2 3 3 4 4 5 5 6 6 7 7 8 8 9 9 10 10
REMARK H PARENT
REMARK Flexibility Score: inf
ROOT
ATOM      1  C   UNL     1       2.393  -3.562  17.493  1.00  0.00     0.039 C 
ATOM      2  C   UNL     1       2.324  -2.607  16.340  1.00  0.00    -0.074 C 
ATOM      3  C   UNL     1       3.087  -1.475  16.306  1.00  0.00    -0.027 C 
ATOM      4  C   UNL     1       2.946  -0.521  15.103  1.00  0.00     0.031 C 
ATOM      5  C   UNL     1       1.915  -1.103  14.074  1.00  0.00    -0.000 C 
ATOM      6  C   UNL     1       2.292  -2.588  13.899  1.00  0.00     0.013 C 
ATOM      7  C   UNL     1       1.410  -2.860  15.133  1.00  0.00     0.021 C 
ATOM      8  C   UNL     1       0.623  -1.563  14.803  1.00  0.00    -0.026 C 
ATOM      9  C   UNL     1      -0.546  -1.819  13.819  1.00  0.00     0.012 C 
ATOM     10  C   UNL     1       0.087  -0.704  15.983  1.00  0.00     0.012 C 
ENDROOT
TORSDOF 0
ENDMDL
MODEL 4
REMARK VINA RESULT:    -4.040      1.107      2.732
REMARK INTER + INTRA:          -4.040
REMARK INTER:                  -4.040
REMARK INTRA:                   0.000
REMARK UNBOUND:                 0.000
REMARK SMILES CC1=CC[C@H]2C[C@@H]1C2(C)C
REMARK SMILES IDX 1 1 2 2 3 3 4 4 5 5 6 6 7 7 8 8 9 9 10 10
REMARK H PARENT
REMARK Flexibility Score: inf
ROOT
ATOM      1  C   UNL     1      -0.791  -0.017  15.725  1.00  0.00     0.039 C 
ATOM      2  C   UNL     1       0.276  -1.045  15.500  1.00  0.00    -0.074 C 
ATOM      3  C   UNL     1       0.862  -1.703  16.543  1.00  0.00    -0.027 C 
ATOM      4  C   UNL     1       1.973  -2.728  16.244  1.00  0.00     0.031 C 
ATOM      5  C   UNL     1       2.193  -2.845  14.695  1.00  0.00    -0.000 C 
ATOM      6  C   UNL     1       0.784  -2.965  14.081  1.00  0.00     0.013 C 
ATOM      7  C   UNL     1       0.751  -1.424  14.091  1.00  0.00     0.021 C 
ATOM      8  C   UNL     1       2.303  -1.433  14.056  1.00  0.00    -0.026 C 
ATOM      9  C   UNL     1       2.859  -1.486  12.611  1.00  0.00     0.012 C 
ATOM     10  C   UNL     1       3.065  -0.322  14.831  1.00  0.00     0.012 C 
ENDROOT
TORSDOF 0
ENDMDL
MODEL 5
REMARK VINA RESULT:    -4.017      1.079      2.784
REMARK INTER + INTRA:          -4.017
REMARK INTER:                  -4.017
REMARK INTRA:                   0.000
REMARK UNBOUND:                 0.000
REMARK SMILES CC1=CC[C@H]2C[C@@H]1C2(C)C
REMARK SMILES IDX 1 1 2 2 3 3 4 4 5 5 6 6 7 7 8 8 9 9 10 10
REMARK H PARENT
REMARK Flexibility Score: inf
ROOT
ATOM      1  C   UNL     1       0.239  -3.764  13.318  1.00  0.00     0.039 C 
ATOM      2  C   UNL     1       0.862  -2.769  14.249  1.00  0.00    -0.074 C 
ATOM      3  C   UNL     1       0.181  -1.664  14.672  1.00  0.00    -0.027 C 
ATOM      4  C   UNL     1       0.891  -0.666  15.607  1.00  0.00     0.031 C 
ATOM      5  C   UNL     1       2.337  -1.176  15.939  1.00  0.00    -0.000 C 
ATOM      6  C   UNL     1       2.180  -2.667  16.301  1.00  0.00     0.013 C 
ATOM      7  C   UNL     1       2.288  -2.949  14.790  1.00  0.00     0.021 C 
ATOM      8  C   UNL     1       3.067  -1.615  14.640  1.00  0.00    -0.026 C 
ATOM      9  C   UNL     1       4.591  -1.796  14.857  1.00  0.00     0.012 C 
ATOM     10  C   UNL     1       2.856  -0.778  13.347  1.00  0.00     0.012 C 
ENDROOT
TORSDOF 0
ENDMDL
MODEL 6
REMARK VINA RESULT:    -4.017      1.024      3.136
REMARK INTER + INTRA:          -4.017
REMARK INTER:                  -4.017
REMARK INTRA:                   0.000
REMARK UNBOUND:                 0.000
REMARK SMILES CC1=CC[C@H]2C[C@@H]1C2(C)C
REMARK SMILES IDX 1 1 2 2 3 3 4 4 5 5 6 6 7 7 8 8 9 9 10 10
REMARK H PARENT
REMARK Flexibility Score: inf
ROOT
ATOM      1  C   UNL     1       2.644  -3.408  17.493  1.00  0.00     0.039 C 
ATOM      2  C   UNL     1       2.146  -2.458  16.446  1.00  0.00    -0.074 C 
ATOM      3  C   UNL     1       1.048  -1.675  16.659  1.00  0.00    -0.027 C 
ATOM      4  C   UNL     1       0.573  -0.740  15.530  1.00  0.00     0.031 C 
ATOM      5  C   UNL     1       1.535  -0.854  14.297  1.00  0.00    -0.000 C 
ATOM      6  C   UNL     1       2.963  -0.779  14.873  1.00  0.00     0.013 C 
ATOM      7  C   UNL     1       2.853  -2.301  15.093  1.00  0.00     0.021 C 
ATOM      8  C   UNL     1       1.800  -2.346  13.954  1.00  0.00    -0.026 C 
ATOM      9  C   UNL     1       2.450  -2.520  12.558  1.00  0.00     0.012 C 
ATOM     10  C   UNL     1       0.626  -3.358  14.074  1.00  0.00     0.012 C 
ENDROOT
TORSDOF 0
ENDMDL
MODEL 7
REMARK VINA RESULT:    -3.933     12.922     14.836
REMARK INTER + INTRA:          -3.933
REMARK INTER:                  -3.933
REMARK INTRA:                   0.000
REMARK UNBOUND:                 0.000
REMARK SMILES CC1=CC[C@H]2C[C@@H]1C2(C)C
REMARK SMILES IDX 1 1 2 2 3 3 4 4 5 5 6 6 7 7 8 8 9 9 10 10
REMARK H PARENT
REMARK Flexibility Score: inf
ROOT
ATOM      1  C   UNL     1       9.004   1.218  25.693  1.00  0.00     0.039 C 
ATOM      2  C   UNL     1      10.198   0.415  26.111  1.00  0.00    -0.074 C 
ATOM      3  C   UNL     1      10.126  -0.488  27.133  1.00  0.00    -0.027 C 
ATOM      4  C   UNL     1      11.399  -1.261  27.531  1.00  0.00     0.031 C 
ATOM      5  C   UNL     1      12.589  -0.855  26.593  1.00  0.00    -0.000 C 
ATOM      6  C   UNL     1      12.023  -0.896  25.159  1.00  0.00     0.013 C 
ATOM      7  C   UNL     1      11.553   0.551  25.404  1.00  0.00     0.021 C 
ATOM      8  C   UNL     1      12.676   0.690  26.466  1.00  0.00    -0.026 C 
ATOM      9  C   UNL     1      14.019   1.153  25.846  1.00  0.00     0.012 C 
ATOM     10  C   UNL     1      12.397   1.558  27.726  1.00  0.00     0.012 C 
ENDROOT
TORSDOF 0
ENDMDL
MODEL 8
REMARK VINA RESULT:    -3.835      1.538      3.037
REMARK INTER + INTRA:          -3.835
REMARK INTER:                  -3.835
REMARK INTRA:                   0.000
REMARK UNBOUND:                 0.000
REMARK SMILES CC1=CC[C@H]2C[C@@H]1C2(C)C
REMARK SMILES IDX 1 1 2 2 3 3 4 4 5 5 6 6 7 7 8 8 9 9 10 10
REMARK H PARENT
REMARK Flexibility Score: inf
ROOT
ATOM      1  C   UNL     1       2.658  -0.722  11.542  1.00  0.00     0.039 C 
ATOM      2  C   UNL     1       2.355  -1.237  12.916  1.00  0.00    -0.074 C 
ATOM      3  C   UNL     1       2.714  -2.497  13.300  1.00  0.00    -0.027 C 
ATOM      4  C   UNL     1       2.347  -2.974  14.718  1.00  0.00     0.031 C 
ATOM      5  C   UNL     1       1.622  -1.824  15.501  1.00  0.00    -0.000 C 
ATOM      6  C   UNL     1       2.467  -0.557  15.258  1.00  0.00     0.013 C 
ATOM      7  C   UNL     1       1.646  -0.372  13.967  1.00  0.00     0.021 C 
ATOM      8  C   UNL     1       0.505  -1.193  14.625  1.00  0.00    -0.026 C 
ATOM      9  C   UNL     1      -0.457  -0.305  15.453  1.00  0.00     0.012 C 
ATOM     10  C   UNL     1      -0.348  -2.126  13.721  1.00  0.00     0.012 C 
ENDROOT
TORSDOF 0
ENDMDL
MODEL 9
REMARK VINA RESULT:    -3.803      3.360      5.231
REMARK INTER + INTRA:          -3.803
REMARK INTER:                  -3.803
REMARK INTRA:                   0.000
REMARK UNBOUND:                 0.000
REMARK SMILES CC1=CC[C@H]2C[C@@H]1C2(C)C
REMARK SMILES IDX 1 1 2 2 3 3 4 4 5 5 6 6 7 7 8 8 9 9 10 10
REMARK H PARENT
REMARK Flexibility Score: inf
ROOT
ATOM      1  C   UNL     1      -0.652  -6.431  11.864  1.00  0.00     0.039 C 
ATOM      2  C   UNL     1      -0.798  -4.997  12.274  1.00  0.00    -0.074 C 
ATOM      3  C   UNL     1      -2.025  -4.403  12.363  1.00  0.00    -0.027 C 
ATOM      4  C   UNL     1      -2.102  -2.916  12.762  1.00  0.00     0.031 C 
ATOM      5  C   UNL     1      -0.663  -2.360  13.044  1.00  0.00    -0.000 C 
ATOM      6  C   UNL     1       0.024  -3.412  13.938  1.00  0.00     0.013 C 
ATOM      7  C   UNL     1       0.416  -4.129  12.632  1.00  0.00     0.021 C 
ATOM      8  C   UNL     1       0.307  -2.764  11.900  1.00  0.00    -0.026 C 
ATOM      9  C   UNL     1       1.633  -1.965  11.946  1.00  0.00     0.012 C 
ATOM     10  C   UNL     1      -0.219  -2.751  10.438  1.00  0.00     0.012 C 
ENDROOT
TORSDOF 0
ENDMDL
