MODEL 1
REMARK VINA RESULT:    -2.989      0.000      0.000
REMARK INTER + INTRA:          -5.120
REMARK INTER:                  -4.562
REMARK INTRA:                  -0.558
REMARK UNBOUND:                -0.558
REMARK SMILES O=C([O-])CCCCCCCCC(=O)[O-]
REMARK SMILES IDX 7 1 6 2 5 3 4 4 2 5 1 6 3 7 8 8 9 9 10 10 11 11 12 12 13 13
REMARK SMILES IDX 14 14
REMARK H PARENT
REMARK Flexibility Score: inf
ROOT
ATOM      1  C   UNL     1       2.498   8.279   3.793  1.00  0.00     0.000 C 
ENDROOT
BRANCH   1   2
ATOM      2  C   UNL     1       3.800   8.507   4.578  1.00  0.00     0.000 C 
BRANCH   2   3
ATOM      3  C   UNL     1       4.927   7.555   4.149  1.00  0.00     0.006 C 
BRANCH   3   4
ATOM      4  C   UNL     1       4.376   6.390   3.323  1.00  0.00     0.053 C 
BRANCH   4   5
ATOM      5  C   UNL     1       5.474   5.443   2.955  1.00  0.00     0.041 C 
ATOM      6  O   UNL     1       5.323   4.203   3.120  1.00  0.00    -0.550 OA
ATOM      7  O   UNL     1       6.645   5.924   2.384  1.00  0.00    -0.550 OA
ENDBRANCH   4   5
ENDBRANCH   3   4
ENDBRANCH   2   3
ENDBRANCH   1   2
BRANCH   1   8
ATOM      8  C   UNL     1       1.243   8.506   4.654  1.00  0.00     0.000 C 
BRANCH   8   9
ATOM      9  C   UNL     1      -0.059   8.268   3.872  1.00  0.00     0.000 C 
BRANCH   9  10
ATOM     10  C   UNL     1      -0.032   6.962   3.058  1.00  0.00     0.006 C 
BRANCH  10  11
ATOM     11  C   UNL     1      -1.071   5.948   3.557  1.00  0.00     0.053 C 
BRANCH  11  12
ATOM     12  C   UNL     1      -0.427   4.799   4.271  1.00  0.00     0.041 C 
ATOM     13  O   UNL     1      -1.125   3.831   4.671  1.00  0.00    -0.550 OA
ATOM     14  O   UNL     1       0.938   4.814   4.525  1.00  0.00    -0.550 OA
ENDBRANCH  11  12
ENDBRANCH  10  11
ENDBRANCH   9  10
ENDBRANCH   8   9
ENDBRANCH   1   8
TORSDOF 9
ENDMDL
MODEL 2
REMARK VINA RESULT:    -2.908      1.238      4.986
REMARK INTER + INTRA:          -4.995
REMARK INTER:                  -4.170
REMARK INTRA:                  -0.825
REMARK UNBOUND:                -0.558
REMARK SMILES O=C([O-])CCCCCCCCC(=O)[O-]
REMARK SMILES IDX 7 1 6 2 5 3 4 4 2 5 1 6 3 7 8 8 9 9 10 10 11 11 12 12 13 13
REMARK SMILES IDX 14 14
REMARK H PARENT
REMARK Flexibility Score: inf
ROOT
ATOM      1  C   UNL     1       1.234   8.876   5.354  1.00  0.00     0.000 C 
ENDROOT
BRANCH   1   2
ATOM      2  C   UNL     1       0.395   9.077   4.082  1.00  0.00     0.000 C 
BRANCH   2   3
ATOM      3  C   UNL     1      -0.234   7.771   3.573  1.00  0.00     0.006 C 
BRANCH   3   4
ATOM      4  C   UNL     1       0.776   6.621   3.621  1.00  0.00     0.053 C 
BRANCH   4   5
ATOM      5  C   UNL     1       0.075   5.318   3.841  1.00  0.00     0.041 C 
ATOM      6  O   UNL     1      -0.755   4.894   2.994  1.00  0.00    -0.550 OA
ATOM      7  O   UNL     1       0.375   4.546   4.957  1.00  0.00    -0.550 OA
ENDBRANCH   4   5
ENDBRANCH   3   4
ENDBRANCH   2   3
ENDBRANCH   1   2
BRANCH   1   8
ATOM      8  C   UNL     1       2.659   9.444   5.218  1.00  0.00     0.000 C 
BRANCH   8   9
ATOM      9  C   UNL     1       3.048   9.713   3.756  1.00  0.00     0.000 C 
BRANCH   9  10
ATOM     10  C   UNL     1       3.964   8.622   3.174  1.00  0.00     0.006 C 
BRANCH  10  11
ATOM     11  C   UNL     1       4.701   7.840   4.271  1.00  0.00     0.053 C 
BRANCH  11  12
ATOM     12  C   UNL     1       5.057   6.456   3.823  1.00  0.00     0.041 C 
ATOM     13  O   UNL     1       6.259   6.148   3.613  1.00  0.00    -0.550 OA
ATOM     14  O   UNL     1       4.058   5.517   3.603  1.00  0.00    -0.550 OA
ENDBRANCH  11  12
ENDBRANCH  10  11
ENDBRANCH   9  10
ENDBRANCH   8   9
ENDBRANCH   1   8
TORSDOF 9
ENDMDL
MODEL 3
REMARK VINA RESULT:    -2.712      1.161      4.892
REMARK INTER + INTRA:          -4.696
REMARK INTER:                  -3.899
REMARK INTRA:                  -0.797
REMARK UNBOUND:                -0.558
REMARK SMILES O=C([O-])CCCCCCCCC(=O)[O-]
REMARK SMILES IDX 7 1 6 2 5 3 4 4 2 5 1 6 3 7 8 8 9 9 10 10 11 11 12 12 13 13
REMARK SMILES IDX 14 14
REMARK H PARENT
REMARK Flexibility Score: inf
ROOT
ATOM      1  C   UNL     1       1.787   8.966   5.443  1.00  0.00     0.000 C 
ENDROOT
BRANCH   1   2
ATOM      2  C   UNL     1       0.466   9.423   4.806  1.00  0.00     0.000 C 
BRANCH   2   3
ATOM      3  C   UNL     1       0.214   8.781   3.433  1.00  0.00     0.006 C 
BRANCH   3   4
ATOM      4  C   UNL     1      -0.651   7.525   3.566  1.00  0.00     0.053 C 
BRANCH   4   5
ATOM      5  C   UNL     1       0.171   6.296   3.339  1.00  0.00     0.041 C 
ATOM      6  O   UNL     1       0.458   5.538   4.303  1.00  0.00    -0.550 OA
ATOM      7  O   UNL     1       0.580   5.960   2.054  1.00  0.00    -0.550 OA
ENDBRANCH   4   5
ENDBRANCH   3   4
ENDBRANCH   2   3
ENDBRANCH   1   2
BRANCH   1   8
ATOM      8  C   UNL     1       3.020   9.439   4.651  1.00  0.00     0.000 C 
BRANCH   8   9
ATOM      9  C   UNL     1       4.078   8.335   4.493  1.00  0.00     0.000 C 
BRANCH   9  10
ATOM     10  C   UNL     1       3.925   7.549   3.180  1.00  0.00     0.006 C 
BRANCH  10  11
ATOM     11  C   UNL     1       3.923   6.031   3.411  1.00  0.00     0.053 C 
BRANCH  11  12
ATOM     12  C   UNL     1       5.274   5.431   3.169  1.00  0.00     0.041 C 
ATOM     13  O   UNL     1       5.396   4.188   3.013  1.00  0.00    -0.550 OA
ATOM     14  O   UNL     1       6.402   6.241   3.150  1.00  0.00    -0.550 OA
ENDBRANCH  11  12
ENDBRANCH  10  11
ENDBRANCH   9  10
ENDBRANCH   8   9
ENDBRANCH   1   8
TORSDOF 9
ENDMDL
MODEL 4
REMARK VINA RESULT:    -2.670      2.771      4.951
REMARK INTER + INTRA:          -4.633
REMARK INTER:                  -3.675
REMARK INTRA:                  -0.958
REMARK UNBOUND:                -0.558
REMARK SMILES O=C([O-])CCCCCCCCC(=O)[O-]
REMARK SMILES IDX 7 1 6 2 5 3 4 4 2 5 1 6 3 7 8 8 9 9 10 10 11 11 12 12 13 13
REMARK SMILES IDX 14 14
REMARK H PARENT
REMARK Flexibility Score: inf
ROOT
ATOM      1  C   UNL     1       3.793   6.137   3.416  1.00  0.00     0.000 C 
ENDROOT
BRANCH   1   2
ATOM      2  C   UNL     1       2.938   6.442   2.176  1.00  0.00     0.000 C 
BRANCH   2   3
ATOM      3  C   UNL     1       1.442   6.569   2.501  1.00  0.00     0.006 C 
BRANCH   3   4
ATOM      4  C   UNL     1       1.126   5.966   3.872  1.00  0.00     0.053 C 
BRANCH   4   5
ATOM      5  C   UNL     1      -0.081   5.086   3.792  1.00  0.00     0.041 C 
ATOM      6  O   UNL     1      -0.811   5.104   2.767  1.00  0.00    -0.550 OA
ATOM      7  O   UNL     1      -0.372   4.209   4.830  1.00  0.00    -0.550 OA
ENDBRANCH   4   5
ENDBRANCH   3   4
ENDBRANCH   2   3
ENDBRANCH   1   2
BRANCH   1   8
ATOM      8  C   UNL     1       4.966   7.119   3.582  1.00  0.00     0.000 C 
BRANCH   8   9
ATOM      9  C   UNL     1       4.563   8.572   3.288  1.00  0.00     0.000 C 
BRANCH   9  10
ATOM     10  C   UNL     1       3.868   9.250   4.482  1.00  0.00     0.006 C 
BRANCH  10  11
ATOM     11  C   UNL     1       2.467   9.763   4.120  1.00  0.00     0.053 C 
BRANCH  11  12
ATOM     12  C   UNL     1       1.461   9.420   5.176  1.00  0.00     0.041 C 
ATOM     13  O   UNL     1       0.240   9.331   4.882  1.00  0.00    -0.550 OA
ATOM     14  O   UNL     1       1.867   9.234   6.491  1.00  0.00    -0.550 OA
ENDBRANCH  11  12
ENDBRANCH  10  11
ENDBRANCH   9  10
ENDBRANCH   8   9
ENDBRANCH   1   8
TORSDOF 9
ENDMDL
MODEL 5
REMARK VINA RESULT:    -2.570      2.564      3.308
REMARK INTER + INTRA:          -4.480
REMARK INTER:                  -3.649
REMARK INTRA:                  -0.832
REMARK UNBOUND:                -0.558
REMARK SMILES O=C([O-])CCCCCCCCC(=O)[O-]
REMARK SMILES IDX 7 1 6 2 5 3 4 4 2 5 1 6 3 7 8 8 9 9 10 10 11 11 12 12 13 13
REMARK SMILES IDX 14 14
REMARK H PARENT
REMARK Flexibility Score: inf
ROOT
ATOM      1  C   UNL     1       1.602   6.670   2.002  1.00  0.00     0.000 C 
ENDROOT
BRANCH   1   2
ATOM      2  C   UNL     1       3.121   6.502   2.167  1.00  0.00     0.000 C 
BRANCH   2   3
ATOM      3  C   UNL     1       3.498   5.704   3.424  1.00  0.00     0.006 C 
BRANCH   3   4
ATOM      4  C   UNL     1       4.977   5.310   3.399  1.00  0.00     0.053 C 
BRANCH   4   5
ATOM      5  C   UNL     1       5.842   6.504   3.651  1.00  0.00     0.041 C 
ATOM      6  O   UNL     1       5.566   7.301   4.587  1.00  0.00    -0.550 OA
ATOM      7  O   UNL     1       6.982   6.712   2.884  1.00  0.00    -0.550 OA
ENDBRANCH   4   5
ENDBRANCH   3   4
ENDBRANCH   2   3
ENDBRANCH   1   2
BRANCH   1   8
ATOM      8  C   UNL     1       0.813   6.112   3.200  1.00  0.00     0.000 C 
BRANCH   8   9
ATOM      9  C   UNL     1      -0.229   7.107   3.734  1.00  0.00     0.000 C 
BRANCH   9  10
ATOM     10  C   UNL     1       0.083   8.562   3.341  1.00  0.00     0.006 C 
BRANCH  10  11
ATOM     11  C   UNL     1       0.337   9.450   4.567  1.00  0.00     0.053 C 
BRANCH  11  12
ATOM     12  C   UNL     1       1.701   9.222   5.145  1.00  0.00     0.041 C 
ATOM     13  O   UNL     1       1.842   9.044   6.383  1.00  0.00    -0.550 OA
ATOM     14  O   UNL     1       2.818   9.240   4.320  1.00  0.00    -0.550 OA
ENDBRANCH  11  12
ENDBRANCH  10  11
ENDBRANCH   9  10
ENDBRANCH   8   9
ENDBRANCH   1   8
TORSDOF 9
ENDMDL
MODEL 6
REMARK VINA RESULT:    -2.532      2.232      3.090
REMARK INTER + INTRA:          -4.422
REMARK INTER:                  -4.076
REMARK INTRA:                  -0.346
REMARK UNBOUND:                -0.558
REMARK SMILES O=C([O-])CCCCCCCCC(=O)[O-]
REMARK SMILES IDX 7 1 6 2 5 3 4 4 2 5 1 6 3 7 8 8 9 9 10 10 11 11 12 12 13 13
REMARK SMILES IDX 14 14
REMARK H PARENT
REMARK Flexibility Score: inf
ROOT
ATOM      1  C   UNL     1       4.729   7.485   3.933  1.00  0.00     0.000 C 
ENDROOT
BRANCH   1   2
ATOM      2  C   UNL     1       5.753   6.376   3.648  1.00  0.00     0.000 C 
BRANCH   2   3
ATOM      3  C   UNL     1       6.719   6.738   2.509  1.00  0.00     0.006 C 
BRANCH   3   4
ATOM      4  C   UNL     1       6.738   8.249   2.266  1.00  0.00     0.053 C 
BRANCH   4   5
ATOM      5  C   UNL     1       8.143   8.736   2.102  1.00  0.00     0.041 C 
ATOM      6  O   UNL     1       8.368   9.954   1.875  1.00  0.00    -0.550 OA
ATOM      7  O   UNL     1       9.206   7.854   2.248  1.00  0.00    -0.550 OA
ENDBRANCH   4   5
ENDBRANCH   3   4
ENDBRANCH   2   3
ENDBRANCH   1   2
BRANCH   1   8
ATOM      8  C   UNL     1       3.351   7.192   3.312  1.00  0.00     0.000 C 
BRANCH   8   9
ATOM      9  C   UNL     1       2.199   7.825   4.108  1.00  0.00     0.000 C 
BRANCH   9  10
ATOM     10  C   UNL     1       0.859   7.099   3.893  1.00  0.00     0.006 C 
BRANCH  10  11
ATOM     11  C   UNL     1       0.964   5.595   4.177  1.00  0.00     0.053 C 
BRANCH  11  12
ATOM     12  C   UNL     1      -0.311   4.878   3.852  1.00  0.00     0.041 C 
ATOM     13  O   UNL     1      -0.753   4.875   2.673  1.00  0.00    -0.550 OA
ATOM     14  O   UNL     1      -1.029   4.244   4.857  1.00  0.00    -0.550 OA
ENDBRANCH  11  12
ENDBRANCH  10  11
ENDBRANCH   9  10
ENDBRANCH   8   9
ENDBRANCH   1   8
TORSDOF 9
ENDMDL
MODEL 7
REMARK VINA RESULT:    -2.489      1.607      6.008
REMARK INTER + INTRA:          -4.356
REMARK INTER:                  -3.927
REMARK INTRA:                  -0.429
REMARK UNBOUND:                -0.558
REMARK SMILES O=C([O-])CCCCCCCCC(=O)[O-]
REMARK SMILES IDX 7 1 6 2 5 3 4 4 2 5 1 6 3 7 8 8 9 9 10 10 11 11 12 12 13 13
REMARK SMILES IDX 14 14
REMARK H PARENT
REMARK Flexibility Score: inf
ROOT
ATOM      1  C   UNL     1       1.337   6.800   2.183  1.00  0.00     0.000 C 
ENDROOT
BRANCH   1   2
ATOM      2  C   UNL     1       0.296   7.686   2.884  1.00  0.00     0.000 C 
BRANCH   2   3
ATOM      3  C   UNL     1      -0.864   6.877   3.487  1.00  0.00     0.006 C 
BRANCH   3   4
ATOM      4  C   UNL     1      -0.728   5.390   3.149  1.00  0.00     0.053 C 
BRANCH   4   5
ATOM      5  C   UNL     1      -0.379   4.605   4.374  1.00  0.00     0.041 C 
ATOM      6  O   UNL     1      -1.125   3.666   4.759  1.00  0.00    -0.550 OA
ATOM      7  O   UNL     1       0.797   4.876   5.063  1.00  0.00    -0.550 OA
ENDBRANCH   4   5
ENDBRANCH   3   4
ENDBRANCH   2   3
ENDBRANCH   1   2
BRANCH   1   8
ATOM      8  C   UNL     1       2.772   7.335   2.343  1.00  0.00     0.000 C 
BRANCH   8   9
ATOM      9  C   UNL     1       3.523   6.670   3.506  1.00  0.00     0.000 C 
BRANCH   9  10
ATOM     10  C   UNL     1       4.649   5.735   3.030  1.00  0.00     0.006 C 
BRANCH  10  11
ATOM     11  C   UNL     1       6.021   6.159   3.573  1.00  0.00     0.053 C 
BRANCH  11  12
ATOM     12  C   UNL     1       6.742   7.060   2.618  1.00  0.00     0.041 C 
ATOM     13  O   UNL     1       7.887   6.751   2.198  1.00  0.00    -0.550 OA
ATOM     14  O   UNL     1       6.164   8.259   2.221  1.00  0.00    -0.550 OA
ENDBRANCH  11  12
ENDBRANCH  10  11
ENDBRANCH   9  10
ENDBRANCH   8   9
ENDBRANCH   1   8
TORSDOF 9
ENDMDL
MODEL 8
REMARK VINA RESULT:    -2.341      2.552      5.696
REMARK INTER + INTRA:          -4.130
REMARK INTER:                  -3.441
REMARK INTRA:                  -0.690
REMARK UNBOUND:                -0.558
REMARK SMILES O=C([O-])CCCCCCCCC(=O)[O-]
REMARK SMILES IDX 7 1 6 2 5 3 4 4 2 5 1 6 3 7 8 8 9 9 10 10 11 11 12 12 13 13
REMARK SMILES IDX 14 14
REMARK H PARENT
REMARK Flexibility Score: inf
ROOT
ATOM      1  C   UNL     1       3.459   5.602   3.411  1.00  0.00     0.000 C 
ENDROOT
BRANCH   1   2
ATOM      2  C   UNL     1       2.543   6.411   2.480  1.00  0.00     0.000 C 
BRANCH   2   3
ATOM      3  C   UNL     1       1.164   6.689   3.098  1.00  0.00     0.006 C 
BRANCH   3   4
ATOM      4  C   UNL     1       0.813   5.635   4.152  1.00  0.00     0.053 C 
BRANCH   4   5
ATOM      5  C   UNL     1      -0.529   5.038   3.869  1.00  0.00     0.041 C 
ATOM      6  O   UNL     1      -1.125   5.300   2.791  1.00  0.00    -0.550 OA
ATOM      7  O   UNL     1      -1.101   4.152   4.774  1.00  0.00    -0.550 OA
ENDBRANCH   4   5
ENDBRANCH   3   4
ENDBRANCH   2   3
ENDBRANCH   1   2
BRANCH   1   8
ATOM      8  C   UNL     1       4.952   5.869   3.150  1.00  0.00     0.000 C 
BRANCH   8   9
ATOM      9  C   UNL     1       5.501   7.026   4.000  1.00  0.00     0.000 C 
BRANCH   9  10
ATOM     10  C   UNL     1       5.323   8.397   3.324  1.00  0.00     0.006 C 
BRANCH  10  11
ATOM     11  C   UNL     1       4.427   9.334   4.145  1.00  0.00     0.053 C 
BRANCH  11  12
ATOM     12  C   UNL     1       3.254   9.820   3.348  1.00  0.00     0.041 C 
ATOM     13  O   UNL     1       2.139   9.994   3.905  1.00  0.00    -0.550 OA
ATOM     14  O   UNL     1       3.385  10.046   1.984  1.00  0.00    -0.550 OA
ENDBRANCH  11  12
ENDBRANCH  10  11
ENDBRANCH   9  10
ENDBRANCH   8   9
ENDBRANCH   1   8
TORSDOF 9
ENDMDL
MODEL 9
REMARK VINA RESULT:    -2.217      3.042      5.774
REMARK INTER + INTRA:          -3.941
REMARK INTER:                  -2.990
REMARK INTRA:                  -0.951
REMARK UNBOUND:                -0.558
REMARK SMILES O=C([O-])CCCCCCCCC(=O)[O-]
REMARK SMILES IDX 7 1 6 2 5 3 4 4 2 5 1 6 3 7 8 8 9 9 10 10 11 11 12 12 13 13
REMARK SMILES IDX 14 14
REMARK H PARENT
REMARK Flexibility Score: inf
ROOT
ATOM      1  C   UNL     1       3.539   5.653   3.386  1.00  0.00     0.000 C 
ENDROOT
BRANCH   1   2
ATOM      2  C   UNL     1       3.054   6.194   2.032  1.00  0.00     0.000 C 
BRANCH   2   3
ATOM      3  C   UNL     1       1.635   6.778   2.099  1.00  0.00     0.006 C 
BRANCH   3   4
ATOM      4  C   UNL     1       1.195   6.983   3.551  1.00  0.00     0.053 C 
BRANCH   4   5
ATOM      5  C   UNL     1       0.041   7.933   3.620  1.00  0.00     0.041 C 
ATOM      6  O   UNL     1       0.035   8.862   4.470  1.00  0.00    -0.550 OA
ATOM      7  O   UNL     1      -1.007   7.821   2.715  1.00  0.00    -0.550 OA
ENDBRANCH   4   5
ENDBRANCH   3   4
ENDBRANCH   2   3
ENDBRANCH   1   2
BRANCH   1   8
ATOM      8  C   UNL     1       5.046   5.341   3.392  1.00  0.00     0.000 C 
BRANCH   8   9
ATOM      9  C   UNL     1       5.906   6.594   3.623  1.00  0.00     0.000 C 
BRANCH   9  10
ATOM     10  C   UNL     1       5.155   7.697   4.389  1.00  0.00     0.006 C 
BRANCH  10  11
ATOM     11  C   UNL     1       5.028   8.988   3.568  1.00  0.00     0.053 C 
BRANCH  11  12
ATOM     12  C   UNL     1       3.680   9.621   3.732  1.00  0.00     0.041 C 
ATOM     13  O   UNL     1       3.052  10.043   2.727  1.00  0.00    -0.550 OA
ATOM     14  O   UNL     1       3.134   9.776   5.000  1.00  0.00    -0.550 OA
ENDBRANCH  11  12
ENDBRANCH  10  11
ENDBRANCH   9  10
ENDBRANCH   8   9
ENDBRANCH   1   8
TORSDOF 9
ENDMDL
