MODEL 1
REMARK VINA RESULT:    -3.664      0.000      0.000
REMARK INTER + INTRA:          -5.296
REMARK INTER:                  -4.735
REMARK INTRA:                  -0.561
REMARK UNBOUND:                -0.561
REMARK SMILES C=CC(=O)CCCCC
REMARK SMILES IDX 6 1 7 2 8 3 9 4 5 5 3 6 4 7 2 8 1 9
REMARK H PARENT
REMARK Flexibility Score: inf
ROOT
ATOM      1  C   UNL     1     -43.941  29.045  24.337  1.00  0.00     0.008 C 
ENDROOT
BRANCH   1   2
ATOM      2  C   UNL     1     -44.375  30.511  24.515  1.00  0.00     0.000 C 
BRANCH   2   3
ATOM      3  C   UNL     1     -43.797  31.146  25.789  1.00  0.00    -0.003 C 
ATOM      4  C   UNL     1     -44.859  31.395  26.861  1.00  0.00     0.004 C 
ENDBRANCH   2   3
ENDBRANCH   1   2
BRANCH   1   5
ATOM      5  C   UNL     1     -42.863  28.633  25.348  1.00  0.00     0.080 C 
BRANCH   5   6
ATOM      6  C   UNL     1     -43.308  27.488  26.212  1.00  0.00     0.155 C 
ATOM      7  O   UNL     1     -42.464  26.629  26.585  1.00  0.00    -0.295 OA
BRANCH   6   8
ATOM      8  C   UNL     1     -44.718  27.388  26.638  1.00  0.00     0.039 C 
ATOM      9  C   UNL     1     -45.125  27.745  27.855  1.00  0.00     0.012 C 
ENDBRANCH   6   8
ENDBRANCH   5   6
ENDBRANCH   1   5
TORSDOF 5
ENDMDL
MODEL 2
REMARK VINA RESULT:    -3.479      2.179      3.825
REMARK INTER + INTRA:          -5.056
REMARK INTER:                  -4.670
REMARK INTRA:                  -0.387
REMARK UNBOUND:                -0.561
REMARK SMILES C=CC(=O)CCCCC
REMARK SMILES IDX 6 1 7 2 8 3 9 4 5 5 3 6 4 7 2 8 1 9
REMARK H PARENT
REMARK Flexibility Score: inf
ROOT
ATOM      1  C   UNL     1     -44.289  28.386  24.369  1.00  0.00     0.008 C 
ENDROOT
BRANCH   1   2
ATOM      2  C   UNL     1     -44.288  27.133  25.261  1.00  0.00     0.000 C 
BRANCH   2   3
ATOM      3  C   UNL     1     -43.535  27.352  26.583  1.00  0.00    -0.003 C 
ATOM      4  C   UNL     1     -42.255  26.520  26.681  1.00  0.00     0.004 C 
ENDBRANCH   2   3
ENDBRANCH   1   2
BRANCH   1   5
ATOM      5  C   UNL     1     -43.319  29.461  24.878  1.00  0.00     0.080 C 
BRANCH   5   6
ATOM      6  C   UNL     1     -43.960  30.818  24.931  1.00  0.00     0.155 C 
ATOM      7  O   UNL     1     -44.166  31.449  23.858  1.00  0.00    -0.295 OA
BRANCH   6   8
ATOM      8  C   UNL     1     -44.367  31.393  26.228  1.00  0.00     0.039 C 
ATOM      9  C   UNL     1     -45.080  30.709  27.122  1.00  0.00     0.012 C 
ENDBRANCH   6   8
ENDBRANCH   5   6
ENDBRANCH   1   5
TORSDOF 5
ENDMDL
MODEL 3
REMARK VINA RESULT:    -3.293     12.010     13.206
REMARK INTER + INTRA:          -4.816
REMARK INTER:                  -4.333
REMARK INTRA:                  -0.483
REMARK UNBOUND:                -0.561
REMARK SMILES C=CC(=O)CCCCC
REMARK SMILES IDX 6 1 7 2 8 3 9 4 5 5 3 6 4 7 2 8 1 9
REMARK H PARENT
REMARK Flexibility Score: inf
ROOT
ATOM      1  C   UNL     1     -33.537  25.199  30.544  1.00  0.00     0.008 C 
ENDROOT
BRANCH   1   2
ATOM      2  C   UNL     1     -32.003  25.145  30.653  1.00  0.00     0.000 C 
BRANCH   2   3
ATOM      3  C   UNL     1     -31.364  24.286  29.550  1.00  0.00    -0.003 C 
ATOM      4  C   UNL     1     -31.935  22.868  29.498  1.00  0.00     0.004 C 
ENDBRANCH   2   3
ENDBRANCH   1   2
BRANCH   1   5
ATOM      5  C   UNL     1     -34.212  25.302  31.918  1.00  0.00     0.080 C 
BRANCH   5   6
ATOM      6  C   UNL     1     -34.620  23.956  32.447  1.00  0.00     0.155 C 
ATOM      7  O   UNL     1     -35.763  23.501  32.167  1.00  0.00    -0.295 OA
BRANCH   6   8
ATOM      8  C   UNL     1     -33.678  23.167  33.263  1.00  0.00     0.039 C 
ATOM      9  C   UNL     1     -33.184  21.998  32.857  1.00  0.00     0.012 C 
ENDBRANCH   6   8
ENDBRANCH   5   6
ENDBRANCH   1   5
TORSDOF 5
ENDMDL
MODEL 4
REMARK VINA RESULT:    -3.279     12.078     13.547
REMARK INTER + INTRA:          -4.798
REMARK INTER:                  -4.532
REMARK INTRA:                  -0.266
REMARK UNBOUND:                -0.561
REMARK SMILES C=CC(=O)CCCCC
REMARK SMILES IDX 6 1 7 2 8 3 9 4 5 5 3 6 4 7 2 8 1 9
REMARK H PARENT
REMARK Flexibility Score: inf
ROOT
ATOM      1  C   UNL     1     -31.636  24.369  29.604  1.00  0.00     0.008 C 
ENDROOT
BRANCH   1   2
ATOM      2  C   UNL     1     -31.896  22.856  29.508  1.00  0.00     0.000 C 
BRANCH   2   3
ATOM      3  C   UNL     1     -30.985  22.166  28.480  1.00  0.00    -0.003 C 
ATOM      4  C   UNL     1     -29.505  22.230  28.864  1.00  0.00     0.004 C 
ENDBRANCH   2   3
ENDBRANCH   1   2
BRANCH   1   5
ATOM      5  C   UNL     1     -31.945  24.923  31.002  1.00  0.00     0.080 C 
BRANCH   5   6
ATOM      6  C   UNL     1     -33.420  24.954  31.282  1.00  0.00     0.155 C 
ATOM      7  O   UNL     1     -33.923  24.088  32.048  1.00  0.00    -0.295 OA
BRANCH   6   8
ATOM      8  C   UNL     1     -34.264  26.006  30.684  1.00  0.00     0.039 C 
ATOM      9  C   UNL     1     -35.357  25.730  29.974  1.00  0.00     0.012 C 
ENDBRANCH   6   8
ENDBRANCH   5   6
ENDBRANCH   1   5
TORSDOF 5
ENDMDL
MODEL 5
REMARK VINA RESULT:    -3.270     11.816     13.146
REMARK INTER + INTRA:          -4.786
REMARK INTER:                  -4.173
REMARK INTRA:                  -0.613
REMARK UNBOUND:                -0.561
REMARK SMILES C=CC(=O)CCCCC
REMARK SMILES IDX 6 1 7 2 8 3 9 4 5 5 3 6 4 7 2 8 1 9
REMARK H PARENT
REMARK Flexibility Score: inf
ROOT
ATOM      1  C   UNL     1     -33.263  24.946  30.139  1.00  0.00     0.008 C 
ENDROOT
BRANCH   1   2
ATOM      2  C   UNL     1     -31.798  25.028  30.601  1.00  0.00     0.000 C 
BRANCH   2   3
ATOM      3  C   UNL     1     -31.151  23.643  30.756  1.00  0.00    -0.003 C 
ATOM      4  C   UNL     1     -31.966  22.531  30.094  1.00  0.00     0.004 C 
ENDBRANCH   2   3
ENDBRANCH   1   2
BRANCH   1   5
ATOM      5  C   UNL     1     -34.212  25.692  31.087  1.00  0.00     0.080 C 
BRANCH   5   6
ATOM      6  C   UNL     1     -34.398  24.962  32.386  1.00  0.00     0.155 C 
ATOM      7  O   UNL     1     -34.059  25.521  33.465  1.00  0.00    -0.295 OA
BRANCH   6   8
ATOM      8  C   UNL     1     -34.997  23.613  32.397  1.00  0.00     0.039 C 
ATOM      9  C   UNL     1     -34.398  22.568  32.966  1.00  0.00     0.012 C 
ENDBRANCH   6   8
ENDBRANCH   5   6
ENDBRANCH   1   5
TORSDOF 5
ENDMDL
MODEL 6
REMARK VINA RESULT:    -3.233     11.945     13.389
REMARK INTER + INTRA:          -4.739
REMARK INTER:                  -4.446
REMARK INTRA:                  -0.293
REMARK UNBOUND:                -0.561
REMARK SMILES C=CC(=O)CCCCC
REMARK SMILES IDX 6 1 7 2 8 3 9 4 5 5 3 6 4 7 2 8 1 9
REMARK H PARENT
REMARK Flexibility Score: inf
ROOT
ATOM      1  C   UNL     1     -32.089  24.215  29.620  1.00  0.00     0.008 C 
ENDROOT
BRANCH   1   2
ATOM      2  C   UNL     1     -32.047  22.762  30.124  1.00  0.00     0.000 C 
BRANCH   2   3
ATOM      3  C   UNL     1     -30.849  21.978  29.566  1.00  0.00    -0.003 C 
ATOM      4  C   UNL     1     -30.180  22.682  28.384  1.00  0.00     0.004 C 
ENDBRANCH   2   3
ENDBRANCH   1   2
BRANCH   1   5
ATOM      5  C   UNL     1     -32.368  25.213  30.751  1.00  0.00     0.080 C 
BRANCH   5   6
ATOM      6  C   UNL     1     -33.838  25.358  31.025  1.00  0.00     0.155 C 
ATOM      7  O   UNL     1     -34.574  25.919  30.168  1.00  0.00    -0.295 OA
BRANCH   6   8
ATOM      8  C   UNL     1     -34.413  24.825  32.274  1.00  0.00     0.039 C 
ATOM      9  C   UNL     1     -35.355  23.883  32.284  1.00  0.00     0.012 C 
ENDBRANCH   6   8
ENDBRANCH   5   6
ENDBRANCH   1   5
TORSDOF 5
ENDMDL
MODEL 7
REMARK VINA RESULT:    -3.199      2.446      4.154
REMARK INTER + INTRA:          -4.695
REMARK INTER:                  -4.463
REMARK INTRA:                  -0.232
REMARK UNBOUND:                -0.561
REMARK SMILES C=CC(=O)CCCCC
REMARK SMILES IDX 6 1 7 2 8 3 9 4 5 5 3 6 4 7 2 8 1 9
REMARK H PARENT
REMARK Flexibility Score: inf
ROOT
ATOM      1  C   UNL     1     -45.093  27.259  24.253  1.00  0.00     0.008 C 
ENDROOT
BRANCH   1   2
ATOM      2  C   UNL     1     -44.604  26.271  23.179  1.00  0.00     0.000 C 
BRANCH   2   3
ATOM      3  C   UNL     1     -44.725  26.840  21.757  1.00  0.00    -0.003 C 
ATOM      4  C   UNL     1     -44.347  25.823  20.678  1.00  0.00     0.004 C 
ENDBRANCH   2   3
ENDBRANCH   1   2
BRANCH   1   5
ATOM      5  C   UNL     1     -44.608  26.875  25.658  1.00  0.00     0.080 C 
BRANCH   5   6
ATOM      6  C   UNL     1     -43.280  27.496  25.985  1.00  0.00     0.155 C 
ATOM      7  O   UNL     1     -42.464  26.867  26.711  1.00  0.00    -0.295 OA
BRANCH   6   8
ATOM      8  C   UNL     1     -42.930  28.821  25.436  1.00  0.00     0.039 C 
ATOM      9  C   UNL     1     -42.824  29.907  26.201  1.00  0.00     0.012 C 
ENDBRANCH   6   8
ENDBRANCH   5   6
ENDBRANCH   1   5
TORSDOF 5
ENDMDL
MODEL 8
REMARK VINA RESULT:    -3.185     12.395     13.695
REMARK INTER + INTRA:          -4.676
REMARK INTER:                  -4.453
REMARK INTRA:                  -0.223
REMARK UNBOUND:                -0.561
REMARK SMILES C=CC(=O)CCCCC
REMARK SMILES IDX 6 1 7 2 8 3 9 4 5 5 3 6 4 7 2 8 1 9
REMARK H PARENT
REMARK Flexibility Score: inf
ROOT
ATOM      1  C   UNL     1     -32.027  24.983  30.851  1.00  0.00     0.008 C 
ENDROOT
BRANCH   1   2
ATOM      2  C   UNL     1     -33.473  25.507  30.802  1.00  0.00     0.000 C 
BRANCH   2   3
ATOM      3  C   UNL     1     -34.208  25.333  32.141  1.00  0.00    -0.003 C 
ATOM      4  C   UNL     1     -34.957  24.003  32.237  1.00  0.00     0.004 C 
ENDBRANCH   2   3
ENDBRANCH   1   2
BRANCH   1   5
ATOM      5  C   UNL     1     -31.609  24.312  29.536  1.00  0.00     0.080 C 
BRANCH   5   6
ATOM      6  C   UNL     1     -31.609  22.814  29.643  1.00  0.00     0.155 C 
ATOM      7  O   UNL     1     -32.344  22.255  30.502  1.00  0.00    -0.295 OA
BRANCH   6   8
ATOM      8  C   UNL     1     -30.775  22.008  28.732  1.00  0.00     0.039 C 
ATOM      9  C   UNL     1     -29.921  22.557  27.869  1.00  0.00     0.012 C 
ENDBRANCH   6   8
ENDBRANCH   5   6
ENDBRANCH   1   5
TORSDOF 5
ENDMDL
MODEL 9
REMARK VINA RESULT:    -3.155     12.294     13.471
REMARK INTER + INTRA:          -4.638
REMARK INTER:                  -4.044
REMARK INTRA:                  -0.594
REMARK UNBOUND:                -0.561
REMARK SMILES C=CC(=O)CCCCC
REMARK SMILES IDX 6 1 7 2 8 3 9 4 5 5 3 6 4 7 2 8 1 9
REMARK H PARENT
REMARK Flexibility Score: inf
ROOT
ATOM      1  C   UNL     1     -32.327  25.338  30.783  1.00  0.00     0.008 C 
ENDROOT
BRANCH   1   2
ATOM      2  C   UNL     1     -33.843  25.414  30.528  1.00  0.00     0.000 C 
BRANCH   2   3
ATOM      3  C   UNL     1     -34.664  24.791  31.668  1.00  0.00    -0.003 C 
ATOM      4  C   UNL     1     -34.059  25.059  33.048  1.00  0.00     0.004 C 
ENDBRANCH   2   3
ENDBRANCH   1   2
BRANCH   1   5
ATOM      5  C   UNL     1     -31.600  24.513  29.712  1.00  0.00     0.080 C 
BRANCH   5   6
ATOM      6  C   UNL     1     -31.591  23.047  30.040  1.00  0.00     0.155 C 
ATOM      7  O   UNL     1     -31.718  22.204  29.110  1.00  0.00    -0.295 OA
BRANCH   6   8
ATOM      8  C   UNL     1     -31.410  22.604  31.435  1.00  0.00     0.039 C 
ATOM      9  C   UNL     1     -32.288  21.818  32.056  1.00  0.00     0.012 C 
ENDBRANCH   6   8
ENDBRANCH   5   6
ENDBRANCH   1   5
TORSDOF 5
ENDMDL
