MODEL 1
REMARK VINA RESULT:    15.503      0.000      0.000
REMARK INTER + INTRA:          20.669
REMARK INTER:                  20.940
REMARK INTRA:                  -0.271
REMARK UNBOUND:                -0.271
REMARK SMILES O=c1c(-c2ccc(O)cc2)coc2c([C@@H]3O[C@@H](CO)[C@@H](O)[C@H](O)[C@H]3O)c(O)ccc12
REMARK SMILES IDX 3 1 11 2 12 3 13 4 30 5 2 6 1 7 29 8 28 9 26 10 14 11 4 12
REMARK SMILES IDX 5 13 6 14 7 15 10 16 9 17 8 18 15 20 24 21 16 22 22 23 17 24
REMARK SMILES IDX 20 25 25 26 23 28 18 30 19 31 21 33 27 35
REMARK H PARENT 8 19 25 27 23 29 19 32 21 34 27 36
REMARK Flexibility Score: inf
ROOT
ATOM      1  C   UNL     1      13.195  -7.870 -28.084  1.00  0.00     0.065 A 
ATOM      2  C   UNL     1      12.144  -8.375 -27.307  1.00  0.00     0.208 A 
ATOM      3  O   UNL     1      12.176  -9.619 -26.844  1.00  0.00    -0.463 OA
ATOM      4  C   UNL     1      13.181 -10.459 -27.074  1.00  0.00     0.147 A 
ATOM      5  C   UNL     1      14.288 -10.027 -27.841  1.00  0.00     0.066 A 
ATOM      6  C   UNL     1      14.289  -8.714 -28.346  1.00  0.00     0.200 A 
ATOM      7  O   UNL     1      15.274  -8.288 -29.012  1.00  0.00    -0.288 OA
ATOM      8  C   UNL     1      15.355 -10.905 -28.072  1.00  0.00     0.020 A 
ATOM      9  C   UNL     1      15.338 -12.187 -27.532  1.00  0.00     0.047 A 
ATOM     10  C   UNL     1      14.261 -12.629 -26.757  1.00  0.00     0.125 A 
ATOM     11  C   UNL     1      13.139 -11.778 -26.549  1.00  0.00     0.069 A 
ENDROOT
BRANCH   1  12
ATOM     12  C   UNL     1      13.132  -6.479 -28.598  1.00  0.00    -0.011 A 
ATOM     13  C   UNL     1      12.028  -6.042 -29.352  1.00  0.00     0.013 A 
ATOM     14  C   UNL     1      11.970  -4.729 -29.827  1.00  0.00     0.047 A 
ATOM     15  C   UNL     1      13.010  -3.834 -29.551  1.00  0.00     0.115 A 
ATOM     16  C   UNL     1      14.170  -5.572 -28.320  1.00  0.00     0.013 A 
ATOM     17  C   UNL     1      14.110  -4.259 -28.796  1.00  0.00     0.047 A 
BRANCH  15  18
ATOM     18  O   UNL     1      12.938  -2.528 -30.031  1.00  0.00    -0.508 OA
ATOM     19  H   UNL     1      13.355  -1.755 -29.525  1.00  0.00     0.293 HD
ENDBRANCH  15  18
ENDBRANCH   1  12
BRANCH  11  20
ATOM     20  C   UNL     1      11.916 -12.230 -25.755  1.00  0.00     0.188 C 
ATOM     21  C   UNL     1      11.275 -13.465 -26.434  1.00  0.00     0.179 C 
ATOM     22  O   UNL     1      12.314 -12.526 -24.423  1.00  0.00    -0.362 OA
ATOM     23  C   UNL     1      10.057 -13.943 -25.622  1.00  0.00     0.177 C 
ATOM     24  C   UNL     1      11.241 -12.933 -23.584  1.00  0.00     0.176 C 
ATOM     25  C   UNL     1      10.452 -14.147 -24.149  1.00  0.00     0.177 C 
BRANCH  21  26
ATOM     26  O   UNL     1      10.905 -13.184 -27.763  1.00  0.00    -0.387 OA
ATOM     27  H   UNL     1      11.155 -12.242 -27.953  1.00  0.00     0.211 HD
ENDBRANCH  21  26
BRANCH  23  28
ATOM     28  O   UNL     1       9.524 -15.125 -26.165  1.00  0.00    -0.387 OA
ATOM     29  H   UNL     1      10.187 -15.852 -26.026  1.00  0.00     0.211 HD
ENDBRANCH  23  28
BRANCH  24  30
ATOM     30  C   UNL     1      10.385 -11.742 -23.092  1.00  0.00     0.191 C 
BRANCH  30  31
ATOM     31  O   UNL     1      10.733 -10.543 -23.726  1.00  0.00    -0.394 OA
ATOM     32  H   UNL     1       9.910  -9.989 -23.742  1.00  0.00     0.210 HD
ENDBRANCH  30  31
ENDBRANCH  24  30
BRANCH  25  33
ATOM     33  O   UNL     1       9.301 -14.399 -23.386  1.00  0.00    -0.388 OA
ATOM     34  H   UNL     1       8.707 -13.611 -23.496  1.00  0.00     0.211 HD
ENDBRANCH  25  33
ENDBRANCH  11  20
BRANCH  10  35
ATOM     35  O   UNL     1      14.366 -13.912 -26.212  1.00  0.00    -0.507 OA
ATOM     36  H   UNL     1      14.189 -14.148 -25.247  1.00  0.00     0.293 HD
ENDBRANCH  10  35
TORSDOF 9
ENDMDL
MODEL 2
REMARK VINA RESULT:    16.012      1.917      3.014
REMARK INTER + INTRA:          21.358
REMARK INTER:                  21.253
REMARK INTRA:                   0.105
REMARK UNBOUND:                -0.271
REMARK SMILES O=c1c(-c2ccc(O)cc2)coc2c([C@@H]3O[C@@H](CO)[C@@H](O)[C@H](O)[C@H]3O)c(O)ccc12
REMARK SMILES IDX 3 1 11 2 12 3 13 4 30 5 2 6 1 7 29 8 28 9 26 10 14 11 4 12
REMARK SMILES IDX 5 13 6 14 7 15 10 16 9 17 8 18 15 20 24 21 16 22 22 23 17 24
REMARK SMILES IDX 20 25 25 26 23 28 18 30 19 31 21 33 27 35
REMARK H PARENT 8 19 25 27 23 29 19 32 21 34 27 36
REMARK Flexibility Score: inf
ROOT
ATOM      1  C   UNL     1      12.880  -8.151 -28.137  1.00  0.00     0.065 A 
ATOM      2  C   UNL     1      13.149  -8.885 -26.973  1.00  0.00     0.208 A 
ATOM      3  O   UNL     1      12.719 -10.133 -26.841  1.00  0.00    -0.463 OA
ATOM      4  C   UNL     1      12.019 -10.769 -27.777  1.00  0.00     0.147 A 
ATOM      5  C   UNL     1      11.712 -10.105 -28.988  1.00  0.00     0.066 A 
ATOM      6  C   UNL     1      12.154  -8.782 -29.163  1.00  0.00     0.200 A 
ATOM      7  O   UNL     1      11.921  -8.169 -30.243  1.00  0.00    -0.288 OA
ATOM      8  C   UNL     1      10.989 -10.777 -29.982  1.00  0.00     0.020 A 
ATOM      9  C   UNL     1      10.593 -12.097 -29.789  1.00  0.00     0.047 A 
ATOM     10  C   UNL     1      10.899 -12.778 -28.606  1.00  0.00     0.125 A 
ATOM     11  C   UNL     1      11.588 -12.104 -27.558  1.00  0.00     0.069 A 
ENDROOT
BRANCH   1  12
ATOM     12  C   UNL     1      13.364  -6.753 -28.258  1.00  0.00    -0.011 A 
ATOM     13  C   UNL     1      13.282  -5.869 -27.168  1.00  0.00     0.013 A 
ATOM     14  C   UNL     1      13.747  -4.556 -27.285  1.00  0.00     0.047 A 
ATOM     15  C   UNL     1      14.304  -4.111 -28.489  1.00  0.00     0.115 A 
ATOM     16  C   UNL     1      13.931  -6.301 -29.463  1.00  0.00     0.013 A 
ATOM     17  C   UNL     1      14.396  -4.987 -29.577  1.00  0.00     0.047 A 
BRANCH  15  18
ATOM     18  O   UNL     1      14.763  -2.800 -28.590  1.00  0.00    -0.508 OA
ATOM     19  H   UNL     1      14.613  -2.250 -29.428  1.00  0.00     0.293 HD
ENDBRANCH  15  18
ENDBRANCH   1  12
BRANCH  11  20
ATOM     20  C   UNL     1      11.901 -12.784 -26.227  1.00  0.00     0.188 C 
ATOM     21  C   UNL     1      10.936 -12.269 -25.133  1.00  0.00     0.179 C 
ATOM     22  O   UNL     1      11.786 -14.192 -26.391  1.00  0.00    -0.362 OA
ATOM     23  C   UNL     1      11.228 -12.973 -23.795  1.00  0.00     0.177 C 
ATOM     24  C   UNL     1      12.086 -14.928 -25.213  1.00  0.00     0.176 C 
ATOM     25  C   UNL     1      11.229 -14.499 -23.990  1.00  0.00     0.177 C 
BRANCH  21  26
ATOM     26  O   UNL     1      11.025 -10.872 -24.988  1.00  0.00    -0.387 OA
ATOM     27  H   UNL     1      10.258 -10.468 -25.473  1.00  0.00     0.211 HD
ENDBRANCH  21  26
BRANCH  23  28
ATOM     28  O   UNL     1      10.294 -12.595 -22.814  1.00  0.00    -0.387 OA
ATOM     29  H   UNL     1      10.624 -12.921 -21.936  1.00  0.00     0.211 HD
ENDBRANCH  23  28
BRANCH  24  30
ATOM     30  C   UNL     1      13.607 -15.055 -24.960  1.00  0.00     0.191 C 
BRANCH  30  31
ATOM     31  O   UNL     1      14.347 -15.003 -26.148  1.00  0.00    -0.394 OA
ATOM     32  H   UNL     1      14.947 -15.794 -26.135  1.00  0.00     0.210 HD
ENDBRANCH  30  31
ENDBRANCH  24  30
BRANCH  25  33
ATOM     33  O   UNL     1      11.679 -15.122 -22.815  1.00  0.00    -0.388 OA
ATOM     34  H   UNL     1      12.622 -14.840 -22.686  1.00  0.00     0.211 HD
ENDBRANCH  25  33
ENDBRANCH  11  20
BRANCH  10  35
ATOM     35  O   UNL     1      10.508 -14.118 -28.535  1.00  0.00    -0.507 OA
ATOM     36  H   UNL     1      10.847 -14.853 -29.138  1.00  0.00     0.293 HD
ENDBRANCH  10  35
TORSDOF 9
ENDMDL
MODEL 3
REMARK VINA RESULT:    16.592      1.940      3.570
REMARK INTER + INTRA:          22.141
REMARK INTER:                  21.732
REMARK INTRA:                   0.409
REMARK UNBOUND:                -0.271
REMARK SMILES O=c1c(-c2ccc(O)cc2)coc2c([C@@H]3O[C@@H](CO)[C@@H](O)[C@H](O)[C@H]3O)c(O)ccc12
REMARK SMILES IDX 3 1 11 2 12 3 13 4 30 5 2 6 1 7 29 8 28 9 26 10 14 11 4 12
REMARK SMILES IDX 5 13 6 14 7 15 10 16 9 17 8 18 15 20 24 21 16 22 22 23 17 24
REMARK SMILES IDX 20 25 25 26 23 28 18 30 19 31 21 33 27 35
REMARK H PARENT 8 19 25 27 23 29 19 32 21 34 27 36
REMARK Flexibility Score: inf
ROOT
ATOM      1  C   UNL     1      13.116  -7.091 -28.606  1.00  0.00     0.065 A 
ATOM      2  C   UNL     1      13.882  -7.948 -27.804  1.00  0.00     0.208 A 
ATOM      3  O   UNL     1      13.565  -9.231 -27.684  1.00  0.00    -0.463 OA
ATOM      4  C   UNL     1      12.526  -9.790 -28.301  1.00  0.00     0.147 A 
ATOM      5  C   UNL     1      11.707  -8.998 -29.139  1.00  0.00     0.066 A 
ATOM      6  C   UNL     1      12.014  -7.634 -29.291  1.00  0.00     0.200 A 
ATOM      7  O   UNL     1      11.319  -6.905 -30.053  1.00  0.00    -0.288 OA
ATOM      8  C   UNL     1      10.621  -9.586 -29.801  1.00  0.00     0.020 A 
ATOM      9  C   UNL     1      10.363 -10.945 -29.653  1.00  0.00     0.047 A 
ATOM     10  C   UNL     1      11.170 -11.750 -28.842  1.00  0.00     0.125 A 
ATOM     11  C   UNL     1      12.248 -11.170 -28.116  1.00  0.00     0.069 A 
ENDROOT
BRANCH   1  12
ATOM     12  C   UNL     1      13.484  -5.657 -28.718  1.00  0.00    -0.011 A 
ATOM     13  C   UNL     1      14.075  -4.983 -27.635  1.00  0.00     0.013 A 
ATOM     14  C   UNL     1      14.428  -3.635 -27.748  1.00  0.00     0.047 A 
ATOM     15  C   UNL     1      14.201  -2.945 -28.944  1.00  0.00     0.115 A 
ATOM     16  C   UNL     1      13.265  -4.960 -29.919  1.00  0.00     0.013 A 
ATOM     17  C   UNL     1      13.619  -3.612 -30.030  1.00  0.00     0.047 A 
BRANCH  15  18
ATOM     18  O   UNL     1      14.557  -1.603 -29.042  1.00  0.00    -0.508 OA
ATOM     19  H   UNL     1      14.064  -0.968 -29.660  1.00  0.00     0.293 HD
ENDBRANCH  15  18
ENDBRANCH   1  12
BRANCH  11  20
ATOM     20  C   UNL     1      13.127 -11.993 -27.177  1.00  0.00     0.188 C 
ATOM     21  C   UNL     1      12.240 -12.834 -26.228  1.00  0.00     0.179 C 
ATOM     22  O   UNL     1      13.979 -12.824 -27.954  1.00  0.00    -0.362 OA
ATOM     23  C   UNL     1      13.121 -13.687 -25.298  1.00  0.00     0.177 C 
ATOM     24  C   UNL     1      14.865 -13.618 -27.175  1.00  0.00     0.176 C 
ATOM     25  C   UNL     1      14.132 -14.499 -26.125  1.00  0.00     0.177 C 
BRANCH  21  26
ATOM     26  O   UNL     1      11.374 -12.016 -25.478  1.00  0.00    -0.387 OA
ATOM     27  H   UNL     1      10.490 -12.018 -25.929  1.00  0.00     0.211 HD
ENDBRANCH  21  26
BRANCH  23  28
ATOM     28  O   UNL     1      12.333 -14.535 -24.499  1.00  0.00    -0.387 OA
ATOM     29  H   UNL     1      12.651 -15.466 -24.636  1.00  0.00     0.211 HD
ENDBRANCH  23  28
BRANCH  24  30
ATOM     30  C   UNL     1      16.080 -12.816 -26.652  1.00  0.00     0.191 C 
BRANCH  30  31
ATOM     31  O   UNL     1      15.756 -11.480 -26.382  1.00  0.00    -0.394 OA
ATOM     32  H   UNL     1      15.619 -11.422 -25.401  1.00  0.00     0.210 HD
ENDBRANCH  30  31
ENDBRANCH  24  30
BRANCH  25  33
ATOM     33  O   UNL     1      15.047 -15.125 -25.265  1.00  0.00    -0.388 OA
ATOM     34  H   UNL     1      15.808 -14.496 -25.151  1.00  0.00     0.211 HD
ENDBRANCH  25  33
ENDBRANCH  11  20
BRANCH  10  35
ATOM     35  O   UNL     1      10.862 -13.113 -28.807  1.00  0.00    -0.507 OA
ATOM     36  H   UNL     1      10.219 -13.545 -28.160  1.00  0.00     0.293 HD
ENDBRANCH  10  35
TORSDOF 9
ENDMDL
MODEL 4
REMARK VINA RESULT:    17.759      1.850      2.847
REMARK INTER + INTRA:          23.717
REMARK INTER:                  19.781
REMARK INTRA:                   3.936
REMARK UNBOUND:                -0.271
REMARK SMILES O=c1c(-c2ccc(O)cc2)coc2c([C@@H]3O[C@@H](CO)[C@@H](O)[C@H](O)[C@H]3O)c(O)ccc12
REMARK SMILES IDX 3 1 11 2 12 3 13 4 30 5 2 6 1 7 29 8 28 9 26 10 14 11 4 12
REMARK SMILES IDX 5 13 6 14 7 15 10 16 9 17 8 18 15 20 24 21 16 22 22 23 17 24
REMARK SMILES IDX 20 25 25 26 23 28 18 30 19 31 21 33 27 35
REMARK H PARENT 8 19 25 27 23 29 19 32 21 34 27 36
REMARK Flexibility Score: inf
ROOT
ATOM      1  C   UNL     1      13.168  -7.829 -28.382  1.00  0.00     0.065 A 
ATOM      2  C   UNL     1      11.990  -8.569 -28.550  1.00  0.00     0.208 A 
ATOM      3  O   UNL     1      11.959  -9.869 -28.284  1.00  0.00    -0.463 OA
ATOM      4  C   UNL     1      13.015 -10.552 -27.848  1.00  0.00     0.147 A 
ATOM      5  C   UNL     1      14.242  -9.880 -27.640  1.00  0.00     0.066 A 
ATOM      6  C   UNL     1      14.310  -8.501 -27.911  1.00  0.00     0.200 A 
ATOM      7  O   UNL     1      15.383  -7.865 -27.711  1.00  0.00    -0.288 OA
ATOM      8  C   UNL     1      15.351 -10.593 -27.167  1.00  0.00     0.020 A 
ATOM      9  C   UNL     1      15.240 -11.949 -26.880  1.00  0.00     0.047 A 
ATOM     10  C   UNL     1      14.033 -12.631 -27.062  1.00  0.00     0.125 A 
ATOM     11  C   UNL     1      12.904 -11.944 -27.592  1.00  0.00     0.069 A 
ENDROOT
BRANCH   1  12
ATOM     12  C   UNL     1      13.181  -6.378 -28.695  1.00  0.00    -0.011 A 
ATOM     13  C   UNL     1      14.265  -5.571 -28.304  1.00  0.00     0.013 A 
ATOM     14  C   UNL     1      14.276  -4.206 -28.609  1.00  0.00     0.047 A 
ATOM     15  C   UNL     1      13.210  -3.632 -29.310  1.00  0.00     0.115 A 
ATOM     16  C   UNL     1      12.117  -5.795 -29.405  1.00  0.00     0.013 A 
ATOM     17  C   UNL     1      12.131  -4.430 -29.708  1.00  0.00     0.047 A 
BRANCH  15  18
ATOM     18  O   UNL     1      13.235  -2.271 -29.606  1.00  0.00    -0.508 OA
ATOM     19  H   UNL     1      14.103  -1.793 -29.821  1.00  0.00     0.293 HD
ENDBRANCH  15  18
ENDBRANCH   1  12
BRANCH  11  20
ATOM     20  C   UNL     1      11.578 -12.653 -27.859  1.00  0.00     0.188 C 
ATOM     21  C   UNL     1      11.030 -12.240 -29.246  1.00  0.00     0.179 C 
ATOM     22  O   UNL     1      11.783 -14.057 -27.785  1.00  0.00    -0.362 OA
ATOM     23  C   UNL     1       9.708 -12.973 -29.533  1.00  0.00     0.177 C 
ATOM     24  C   UNL     1      10.599 -14.817 -27.991  1.00  0.00     0.176 C 
ATOM     25  C   UNL     1       9.889 -14.488 -29.334  1.00  0.00     0.177 C 
BRANCH  21  26
ATOM     26  O   UNL     1      10.854 -10.846 -29.333  1.00  0.00    -0.387 OA
ATOM     27  H   UNL     1      10.541 -10.638 -30.252  1.00  0.00     0.211 HD
ENDBRANCH  21  26
BRANCH  23  28
ATOM     28  O   UNL     1       9.248 -12.691 -30.832  1.00  0.00    -0.387 OA
ATOM     29  H   UNL     1       9.803 -13.211 -31.472  1.00  0.00     0.211 HD
ENDBRANCH  23  28
BRANCH  24  30
ATOM     30  C   UNL     1       9.691 -14.858 -26.740  1.00  0.00     0.191 C 
BRANCH  30  31
ATOM     31  O   UNL     1      10.297 -14.260 -25.628  1.00  0.00    -0.394 OA
ATOM     32  H   UNL     1       9.741 -13.469 -25.402  1.00  0.00     0.210 HD
ENDBRANCH  30  31
ENDBRANCH  24  30
BRANCH  25  33
ATOM     33  O   UNL     1       8.641 -15.125 -29.413  1.00  0.00    -0.388 OA
ATOM     34  H   UNL     1       8.006 -14.463 -29.794  1.00  0.00     0.211 HD
ENDBRANCH  25  33
ENDBRANCH  11  20
BRANCH  10  35
ATOM     35  O   UNL     1      14.011 -13.978 -26.689  1.00  0.00    -0.507 OA
ATOM     36  H   UNL     1      13.849 -14.317 -25.752  1.00  0.00     0.293 HD
ENDBRANCH  10  35
TORSDOF 9
ENDMDL
