MODEL 1
REMARK VINA RESULT:    -3.209      0.000      0.000
REMARK INTER + INTRA:          -4.649
REMARK INTER:                  -4.241
REMARK INTRA:                  -0.408
REMARK UNBOUND:                -0.408
REMARK SMILES CCCCCCCO
REMARK SMILES IDX 5 1 4 2 3 3 2 4 1 5 6 6 7 7 8 8
REMARK H PARENT 8 9
REMARK Flexibility Score: inf
ROOT
ATOM      1  C   UNL     1      -0.777  32.222 -45.202  1.00  0.00     0.002 C 
ENDROOT
BRANCH   1   2
ATOM      2  C   UNL     1      -0.106  32.132 -43.823  1.00  0.00     0.000 C 
BRANCH   2   3
ATOM      3  C   UNL     1      -1.117  32.203 -42.668  1.00  0.00    -0.000 C 
BRANCH   3   4
ATOM      4  C   UNL     1      -1.628  30.817 -42.243  1.00  0.00    -0.003 C 
ATOM      5  C   UNL     1      -0.526  29.768 -42.361  1.00  0.00     0.004 C 
ENDBRANCH   3   4
ENDBRANCH   2   3
ENDBRANCH   1   2
BRANCH   1   6
ATOM      6  C   UNL     1      -0.570  30.926 -45.999  1.00  0.00     0.028 C 
BRANCH   6   7
ATOM      7  C   UNL     1      -1.765  29.976 -45.873  1.00  0.00     0.156 C 
BRANCH   7   8
ATOM      8  O   UNL     1      -2.959  30.699 -45.735  1.00  0.00    -0.396 OA
ATOM      9  H   UNL     1      -3.143  31.124 -46.614  1.00  0.00     0.210 HD
ENDBRANCH   7   8
ENDBRANCH   6   7
ENDBRANCH   1   6
TORSDOF 6
ENDMDL
MODEL 2
REMARK VINA RESULT:    -3.122      1.247      2.512
REMARK INTER + INTRA:          -4.534
REMARK INTER:                  -4.164
REMARK INTRA:                  -0.369
REMARK UNBOUND:                -0.408
REMARK SMILES CCCCCCCO
REMARK SMILES IDX 5 1 4 2 3 3 2 4 1 5 6 6 7 7 8 8
REMARK H PARENT 8 9
REMARK Flexibility Score: inf
ROOT
ATOM      1  C   UNL     1      -1.819  28.964 -43.213  1.00  0.00     0.002 C 
ENDROOT
BRANCH   1   2
ATOM      2  C   UNL     1      -1.100  30.137 -42.527  1.00  0.00     0.000 C 
BRANCH   2   3
ATOM      3  C   UNL     1       0.032  30.721 -43.387  1.00  0.00    -0.000 C 
BRANCH   3   4
ATOM      4  C   UNL     1      -0.160  32.216 -43.681  1.00  0.00    -0.003 C 
ATOM      5  C   UNL     1      -1.269  32.807 -42.814  1.00  0.00     0.004 C 
ENDBRANCH   3   4
ENDBRANCH   2   3
ENDBRANCH   1   2
BRANCH   1   6
ATOM      6  C   UNL     1      -1.548  28.964 -44.723  1.00  0.00     0.028 C 
BRANCH   6   7
ATOM      7  C   UNL     1      -2.785  29.372 -45.529  1.00  0.00     0.156 C 
BRANCH   7   8
ATOM      8  O   UNL     1      -2.881  30.769 -45.616  1.00  0.00    -0.396 OA
ATOM      9  H   UNL     1      -2.952  31.112 -44.687  1.00  0.00     0.210 HD
ENDBRANCH   7   8
ENDBRANCH   6   7
ENDBRANCH   1   6
TORSDOF 6
ENDMDL
MODEL 3
REMARK VINA RESULT:    -3.023     11.998     12.970
REMARK INTER + INTRA:          -4.403
REMARK INTER:                  -4.246
REMARK INTRA:                  -0.158
REMARK UNBOUND:                -0.408
REMARK SMILES CCCCCCCO
REMARK SMILES IDX 5 1 4 2 3 3 2 4 1 5 6 6 7 7 8 8
REMARK H PARENT 8 9
REMARK Flexibility Score: inf
ROOT
ATOM      1  C   UNL     1     -10.804  27.111 -36.805  1.00  0.00     0.002 C 
ENDROOT
BRANCH   1   2
ATOM      2  C   UNL     1     -10.748  28.404 -37.632  1.00  0.00     0.000 C 
BRANCH   2   3
ATOM      3  C   UNL     1      -9.888  29.493 -36.970  1.00  0.00    -0.000 C 
BRANCH   3   4
ATOM      4  C   UNL     1     -10.576  30.867 -36.964  1.00  0.00    -0.003 C 
ATOM      5  C   UNL     1      -9.585  31.974 -36.616  1.00  0.00     0.004 C 
ENDBRANCH   3   4
ENDBRANCH   2   3
ENDBRANCH   1   2
BRANCH   1   6
ATOM      6  C   UNL     1     -10.344  27.362 -35.362  1.00  0.00     0.028 C 
BRANCH   6   7
ATOM      7  C   UNL     1      -9.490  26.211 -34.823  1.00  0.00     0.156 C 
BRANCH   7   8
ATOM      8  O   UNL     1      -9.970  25.780 -33.577  1.00  0.00    -0.396 OA
ATOM      9  H   UNL     1      -9.367  26.162 -32.887  1.00  0.00     0.210 HD
ENDBRANCH   7   8
ENDBRANCH   6   7
ENDBRANCH   1   6
TORSDOF 6
ENDMDL
MODEL 4
REMARK VINA RESULT:    -3.000     12.108     13.059
REMARK INTER + INTRA:          -4.372
REMARK INTER:                  -4.146
REMARK INTRA:                  -0.226
REMARK UNBOUND:                -0.408
REMARK SMILES CCCCCCCO
REMARK SMILES IDX 5 1 4 2 3 3 2 4 1 5 6 6 7 7 8 8
REMARK H PARENT 8 9
REMARK Flexibility Score: inf
ROOT
ATOM      1  C   UNL     1     -10.405  26.976 -36.903  1.00  0.00     0.002 C 
ENDROOT
BRANCH   1   2
ATOM      2  C   UNL     1     -10.461  28.273 -37.725  1.00  0.00     0.000 C 
BRANCH   2   3
ATOM      3  C   UNL     1      -9.845  29.471 -36.984  1.00  0.00    -0.000 C 
BRANCH   3   4
ATOM      4  C   UNL     1     -10.741  30.718 -37.030  1.00  0.00    -0.003 C 
ATOM      5  C   UNL     1     -11.960  30.484 -37.917  1.00  0.00     0.004 C 
ENDBRANCH   3   4
ENDBRANCH   2   3
ENDBRANCH   1   2
BRANCH   1   6
ATOM      6  C   UNL     1     -10.140  27.277 -35.422  1.00  0.00     0.028 C 
BRANCH   6   7
ATOM      7  C   UNL     1      -9.428  26.118 -34.718  1.00  0.00     0.156 C 
BRANCH   7   8
ATOM      8  O   UNL     1     -10.065  25.808 -33.507  1.00  0.00    -0.396 OA
ATOM      9  H   UNL     1      -9.609  25.008 -33.136  1.00  0.00     0.210 HD
ENDBRANCH   7   8
ENDBRANCH   6   7
ENDBRANCH   1   6
TORSDOF 6
ENDMDL
MODEL 5
REMARK VINA RESULT:    -2.982      1.482      3.066
REMARK INTER + INTRA:          -4.349
REMARK INTER:                  -4.005
REMARK INTRA:                  -0.344
REMARK UNBOUND:                -0.408
REMARK SMILES CCCCCCCO
REMARK SMILES IDX 5 1 4 2 3 3 2 4 1 5 6 6 7 7 8 8
REMARK H PARENT 8 9
REMARK Flexibility Score: inf
ROOT
ATOM      1  C   UNL     1      -1.554  30.543 -42.335  1.00  0.00     0.002 C 
ENDROOT
BRANCH   1   2
ATOM      2  C   UNL     1      -0.231  29.766 -42.255  1.00  0.00     0.000 C 
BRANCH   2   3
ATOM      3  C   UNL     1      -0.299  28.405 -42.966  1.00  0.00    -0.000 C 
BRANCH   3   4
ATOM      4  C   UNL     1      -1.742  27.936 -43.206  1.00  0.00    -0.003 C 
ATOM      5  C   UNL     1      -1.965  27.580 -44.673  1.00  0.00     0.004 C 
ENDBRANCH   3   4
ENDBRANCH   2   3
ENDBRANCH   1   2
BRANCH   1   6
ATOM      6  C   UNL     1      -1.328  31.955 -42.893  1.00  0.00     0.028 C 
BRANCH   6   7
ATOM      7  C   UNL     1      -1.268  31.965 -44.423  1.00  0.00     0.156 C 
BRANCH   7   8
ATOM      8  O   UNL     1      -2.276  31.154 -44.964  1.00  0.00    -0.396 OA
ATOM      9  H   UNL     1      -2.181  30.258 -44.548  1.00  0.00     0.210 HD
ENDBRANCH   7   8
ENDBRANCH   6   7
ENDBRANCH   1   6
TORSDOF 6
ENDMDL
MODEL 6
REMARK VINA RESULT:    -2.913     12.062     13.314
REMARK INTER + INTRA:          -4.257
REMARK INTER:                  -4.073
REMARK INTRA:                  -0.184
REMARK UNBOUND:                -0.408
REMARK SMILES CCCCCCCO
REMARK SMILES IDX 5 1 4 2 3 3 2 4 1 5 6 6 7 7 8 8
REMARK H PARENT 8 9
REMARK Flexibility Score: inf
ROOT
ATOM      1  C   UNL     1      -9.614  25.019 -36.722  1.00  0.00     0.002 C 
ENDROOT
BRANCH   1   2
ATOM      2  C   UNL     1      -9.434  25.798 -35.410  1.00  0.00     0.000 C 
BRANCH   2   3
ATOM      3  C   UNL     1     -10.019  27.218 -35.479  1.00  0.00    -0.000 C 
BRANCH   3   4
ATOM      4  C   UNL     1     -10.294  27.674 -36.920  1.00  0.00    -0.003 C 
ATOM      5  C   UNL     1      -9.985  29.158 -37.094  1.00  0.00     0.004 C 
ENDBRANCH   3   4
ENDBRANCH   2   3
ENDBRANCH   1   2
BRANCH   1   6
ATOM      6  C   UNL     1      -9.288  23.532 -36.526  1.00  0.00     0.028 C 
BRANCH   6   7
ATOM      7  C   UNL     1      -8.799  23.234 -35.105  1.00  0.00     0.156 C 
BRANCH   7   8
ATOM      8  O   UNL     1      -7.583  22.534 -35.137  1.00  0.00    -0.396 OA
ATOM      9  H   UNL     1      -7.735  21.715 -35.678  1.00  0.00     0.210 HD
ENDBRANCH   7   8
ENDBRANCH   6   7
ENDBRANCH   1   6
TORSDOF 6
ENDMDL
MODEL 7
REMARK VINA RESULT:    -2.905     12.152     13.273
REMARK INTER + INTRA:          -4.246
REMARK INTER:                  -3.965
REMARK INTRA:                  -0.281
REMARK UNBOUND:                -0.408
REMARK SMILES CCCCCCCO
REMARK SMILES IDX 5 1 4 2 3 3 2 4 1 5 6 6 7 7 8 8
REMARK H PARENT 8 9
REMARK Flexibility Score: inf
ROOT
ATOM      1  C   UNL     1     -11.062  27.379 -36.018  1.00  0.00     0.002 C 
ENDROOT
BRANCH   1   2
ATOM      2  C   UNL     1     -10.099  27.653 -37.183  1.00  0.00     0.000 C 
BRANCH   2   3
ATOM      3  C   UNL     1     -10.373  26.755 -38.401  1.00  0.00    -0.000 C 
BRANCH   3   4
ATOM      4  C   UNL     1      -9.397  25.573 -38.495  1.00  0.00    -0.003 C 
ATOM      5  C   UNL     1     -10.033  24.292 -37.962  1.00  0.00     0.004 C 
ENDBRANCH   3   4
ENDBRANCH   2   3
ENDBRANCH   1   2
BRANCH   1   6
ATOM      6  C   UNL     1     -10.298  27.250 -34.694  1.00  0.00     0.028 C 
BRANCH   6   7
ATOM      7  C   UNL     1      -9.369  26.032 -34.683  1.00  0.00     0.156 C 
BRANCH   7   8
ATOM      8  O   UNL     1      -9.526  25.300 -33.496  1.00  0.00    -0.396 OA
ATOM      9  H   UNL     1      -8.677  25.387 -32.988  1.00  0.00     0.210 HD
ENDBRANCH   7   8
ENDBRANCH   6   7
ENDBRANCH   1   6
TORSDOF 6
ENDMDL
MODEL 8
REMARK VINA RESULT:    -2.831      1.451      3.280
REMARK INTER + INTRA:          -4.149
REMARK INTER:                  -3.791
REMARK INTRA:                  -0.358
REMARK UNBOUND:                -0.408
REMARK SMILES CCCCCCCO
REMARK SMILES IDX 5 1 4 2 3 3 2 4 1 5 6 6 7 7 8 8
REMARK H PARENT 8 9
REMARK Flexibility Score: inf
ROOT
ATOM      1  C   UNL     1      -1.007  32.335 -44.120  1.00  0.00     0.002 C 
ENDROOT
BRANCH   1   2
ATOM      2  C   UNL     1      -0.078  31.229 -44.643  1.00  0.00     0.000 C 
BRANCH   2   3
ATOM      3  C   UNL     1      -0.590  30.593 -45.946  1.00  0.00    -0.000 C 
BRANCH   3   4
ATOM      4  C   UNL     1      -1.244  29.222 -45.716  1.00  0.00    -0.003 C 
ATOM      5  C   UNL     1      -2.766  29.333 -45.720  1.00  0.00     0.004 C 
ENDBRANCH   3   4
ENDBRANCH   2   3
ENDBRANCH   1   2
BRANCH   1   6
ATOM      6  C   UNL     1      -1.351  32.107 -42.642  1.00  0.00     0.028 C 
BRANCH   6   7
ATOM      7  C   UNL     1      -1.417  30.618 -42.290  1.00  0.00     0.156 C 
BRANCH   7   8
ATOM      8  O   UNL     1      -2.739  30.153 -42.346  1.00  0.00    -0.396 OA
ATOM      9  H   UNL     1      -2.879  29.789 -43.259  1.00  0.00     0.210 HD
ENDBRANCH   7   8
ENDBRANCH   6   7
ENDBRANCH   1   6
TORSDOF 6
ENDMDL
MODEL 9
REMARK VINA RESULT:    -2.750     12.719     13.576
REMARK INTER + INTRA:          -4.042
REMARK INTER:                  -3.793
REMARK INTRA:                  -0.250
REMARK UNBOUND:                -0.408
REMARK SMILES CCCCCCCO
REMARK SMILES IDX 5 1 4 2 3 3 2 4 1 5 6 6 7 7 8 8
REMARK H PARENT 8 9
REMARK Flexibility Score: inf
ROOT
ATOM      1  C   UNL     1     -10.291  26.979 -36.866  1.00  0.00     0.002 C 
ENDROOT
BRANCH   1   2
ATOM      2  C   UNL     1      -9.541  25.704 -37.280  1.00  0.00     0.000 C 
BRANCH   2   3
ATOM      3  C   UNL     1     -10.440  24.705 -38.028  1.00  0.00    -0.000 C 
BRANCH   3   4
ATOM      4  C   UNL     1     -10.485  23.328 -37.349  1.00  0.00    -0.003 C 
ATOM      5  C   UNL     1      -9.235  23.091 -36.506  1.00  0.00     0.004 C 
ENDBRANCH   3   4
ENDBRANCH   2   3
ENDBRANCH   1   2
BRANCH   1   6
ATOM      6  C   UNL     1     -10.037  27.310 -35.389  1.00  0.00     0.028 C 
BRANCH   6   7
ATOM      7  C   UNL     1      -9.317  26.171 -34.661  1.00  0.00     0.156 C 
BRANCH   7   8
ATOM      8  O   UNL     1     -10.061  25.745 -33.550  1.00  0.00    -0.396 OA
ATOM      9  H   UNL     1     -10.899  25.343 -33.900  1.00  0.00     0.210 HD
ENDBRANCH   7   8
ENDBRANCH   6   7
ENDBRANCH   1   6
TORSDOF 6
ENDMDL
