MODEL 1
REMARK VINA RESULT:    -4.040      0.000      0.000
REMARK INTER + INTRA:         -12.950
REMARK INTER:                  -9.235
REMARK INTRA:                  -3.715
REMARK UNBOUND:                -3.715
REMARK SMILES CCCCCCCCCCCCCCCCCCCCCCCC(=O)[O-]
REMARK SMILES IDX 13 1 14 2 15 3 16 4 17 5 18 6 19 7 20 8 21 9 22 10 23 11
REMARK SMILES IDX 24 12 25 13 26 14 12 15 11 16 10 17 9 18 8 19 7 20 6 21 5 22
REMARK SMILES IDX 4 23 3 24 2 25 1 26
REMARK H PARENT
REMARK Flexibility Score: inf
ROOT
ATOM      1  C   UNL     1      31.087  -7.514  24.468  1.00  0.00     0.000 C 
ENDROOT
BRANCH   1   2
ATOM      2  C   UNL     1      30.149  -7.078  23.328  1.00  0.00     0.000 C 
BRANCH   2   3
ATOM      3  C   UNL     1      29.970  -8.175  22.267  1.00  0.00     0.000 C 
BRANCH   3   4
ATOM      4  C   UNL     1      30.938  -9.352  22.472  1.00  0.00     0.000 C 
BRANCH   4   5
ATOM      5  C   UNL     1      31.371 -10.005  21.149  1.00  0.00     0.000 C 
BRANCH   5   6
ATOM      6  C   UNL     1      31.667 -11.514  21.279  1.00  0.00     0.000 C 
BRANCH   6   7
ATOM      7  C   UNL     1      31.417 -12.272  19.964  1.00  0.00     0.000 C 
BRANCH   7   8
ATOM      8  C   UNL     1      30.400 -13.414  20.120  1.00  0.00     0.000 C 
BRANCH   8   9
ATOM      9  C   UNL     1      29.665 -13.374  21.468  1.00  0.00     0.000 C 
BRANCH   9  10
ATOM     10  C   UNL     1      28.171 -13.685  21.290  1.00  0.00     0.006 C 
BRANCH  10  11
ATOM     11  C   UNL     1      27.736 -14.922  22.088  1.00  0.00     0.053 C 
BRANCH  11  12
ATOM     12  C   UNL     1      28.304 -16.183  21.512  1.00  0.00     0.041 C 
ATOM     13  O   UNL     1      29.139 -16.860  22.171  1.00  0.00    -0.550 OA
ATOM     14  O   UNL     1      27.878 -16.635  20.272  1.00  0.00    -0.550 OA
ENDBRANCH  11  12
ENDBRANCH  10  11
ENDBRANCH   9  10
ENDBRANCH   8   9
ENDBRANCH   7   8
ENDBRANCH   6   7
ENDBRANCH   5   6
ENDBRANCH   4   5
ENDBRANCH   3   4
ENDBRANCH   2   3
ENDBRANCH   1   2
BRANCH   1  15
ATOM     15  C   UNL     1      32.301  -6.584  24.624  1.00  0.00     0.000 C 
BRANCH  15  16
ATOM     16  C   UNL     1      33.548  -7.123  23.903  1.00  0.00     0.000 C 
BRANCH  16  17
ATOM     17  C   UNL     1      33.803  -6.445  22.544  1.00  0.00     0.000 C 
BRANCH  17  18
ATOM     18  C   UNL     1      33.946  -7.399  21.343  1.00  0.00    -0.000 C 
BRANCH  18  19
ATOM     19  C   UNL     1      33.612  -6.732  19.998  1.00  0.00    -0.000 C 
BRANCH  19  20
ATOM     20  C   UNL     1      32.123  -6.373  19.864  1.00  0.00    -0.000 C 
BRANCH  20  21
ATOM     21  C   UNL     1      31.348  -7.285  18.889  1.00  0.00    -0.000 C 
BRANCH  21  22
ATOM     22  C   UNL     1      31.724  -7.011  17.421  1.00  0.00    -0.000 C 
BRANCH  22  23
ATOM     23  C   UNL     1      32.023  -8.298  16.634  1.00  0.00    -0.000 C 
BRANCH  23  24
ATOM     24  C   UNL     1      32.378  -9.481  17.552  1.00  0.00    -0.000 C 
BRANCH  24  25
ATOM     25  C   UNL     1      33.886  -9.775  17.577  1.00  0.00    -0.003 C 
ATOM     26  C   UNL     1      34.371 -10.277  18.937  1.00  0.00     0.004 C 
ENDBRANCH  24  25
ENDBRANCH  23  24
ENDBRANCH  22  23
ENDBRANCH  21  22
ENDBRANCH  20  21
ENDBRANCH  19  20
ENDBRANCH  18  19
ENDBRANCH  17  18
ENDBRANCH  16  17
ENDBRANCH  15  16
ENDBRANCH   1  15
TORSDOF 22
ENDMDL
MODEL 2
REMARK VINA RESULT:    -3.916      1.828      4.785
REMARK INTER + INTRA:         -12.669
REMARK INTER:                  -8.972
REMARK INTRA:                  -3.696
REMARK UNBOUND:                -3.715
REMARK SMILES CCCCCCCCCCCCCCCCCCCCCCCC(=O)[O-]
REMARK SMILES IDX 13 1 14 2 15 3 16 4 17 5 18 6 19 7 20 8 21 9 22 10 23 11
REMARK SMILES IDX 24 12 25 13 26 14 12 15 11 16 10 17 9 18 8 19 7 20 6 21 5 22
REMARK SMILES IDX 4 23 3 24 2 25 1 26
REMARK H PARENT
REMARK Flexibility Score: inf
ROOT
ATOM      1  C   UNL     1      32.603  -7.011  15.982  1.00  0.00     0.000 C 
ENDROOT
BRANCH   1   2
ATOM      2  C   UNL     1      31.739  -7.251  17.233  1.00  0.00     0.000 C 
BRANCH   2   3
ATOM      3  C   UNL     1      31.991  -8.630  17.861  1.00  0.00     0.000 C 
BRANCH   3   4
ATOM      4  C   UNL     1      32.613  -9.623  16.865  1.00  0.00     0.000 C 
BRANCH   4   5
ATOM      5  C   UNL     1      33.375 -10.764  17.559  1.00  0.00     0.000 C 
BRANCH   5   6
ATOM      6  C   UNL     1      32.449 -11.786  18.251  1.00  0.00     0.000 C 
BRANCH   6   7
ATOM      7  C   UNL     1      32.650 -11.815  19.777  1.00  0.00     0.000 C 
BRANCH   7   8
ATOM      8  C   UNL     1      31.633 -10.942  20.527  1.00  0.00     0.000 C 
BRANCH   8   9
ATOM      9  C   UNL     1      30.712 -11.758  21.447  1.00  0.00     0.000 C 
BRANCH   9  10
ATOM     10  C   UNL     1      29.713 -12.590  20.629  1.00  0.00     0.006 C 
BRANCH  10  11
ATOM     11  C   UNL     1      29.840 -14.093  20.910  1.00  0.00     0.053 C 
BRANCH  11  12
ATOM     12  C   UNL     1      28.506 -14.729  21.149  1.00  0.00     0.041 C 
ATOM     13  O   UNL     1      27.553 -14.047  21.616  1.00  0.00    -0.550 OA
ATOM     14  O   UNL     1      28.298 -16.059  20.813  1.00  0.00    -0.550 OA
ENDBRANCH  11  12
ENDBRANCH  10  11
ENDBRANCH   9  10
ENDBRANCH   8   9
ENDBRANCH   7   8
ENDBRANCH   6   7
ENDBRANCH   5   6
ENDBRANCH   4   5
ENDBRANCH   3   4
ENDBRANCH   2   3
ENDBRANCH   1   2
BRANCH   1  15
ATOM     15  C   UNL     1      33.843  -6.151  16.276  1.00  0.00     0.000 C 
BRANCH  15  16
ATOM     16  C   UNL     1      35.139  -6.979  16.295  1.00  0.00     0.000 C 
BRANCH  16  17
ATOM     17  C   UNL     1      36.285  -6.292  17.062  1.00  0.00     0.000 C 
BRANCH  17  18
ATOM     18  C   UNL     1      36.511  -6.789  18.503  1.00  0.00    -0.000 C 
BRANCH  18  19
ATOM     19  C   UNL     1      35.743  -8.082  18.823  1.00  0.00    -0.000 C 
BRANCH  19  20
ATOM     20  C   UNL     1      34.732  -7.906  19.970  1.00  0.00    -0.000 C 
BRANCH  20  21
ATOM     21  C   UNL     1      34.441  -6.431  20.322  1.00  0.00    -0.000 C 
BRANCH  21  22
ATOM     22  C   UNL     1      32.944  -6.186  20.585  1.00  0.00    -0.000 C 
BRANCH  22  23
ATOM     23  C   UNL     1      32.283  -7.333  21.367  1.00  0.00    -0.000 C 
BRANCH  23  24
ATOM     24  C   UNL     1      30.759  -7.387  21.157  1.00  0.00    -0.000 C 
BRANCH  24  25
ATOM     25  C   UNL     1      30.030  -8.096  22.308  1.00  0.00    -0.003 C 
ATOM     26  C   UNL     1      30.073  -7.304  23.615  1.00  0.00     0.004 C 
ENDBRANCH  24  25
ENDBRANCH  23  24
ENDBRANCH  22  23
ENDBRANCH  21  22
ENDBRANCH  20  21
ENDBRANCH  19  20
ENDBRANCH  18  19
ENDBRANCH  17  18
ENDBRANCH  16  17
ENDBRANCH  15  16
ENDBRANCH   1  15
TORSDOF 22
ENDMDL
MODEL 3
REMARK VINA RESULT:    -3.908      3.062      7.444
REMARK INTER + INTRA:         -12.650
REMARK INTER:                  -8.805
REMARK INTRA:                  -3.845
REMARK UNBOUND:                -3.715
REMARK SMILES CCCCCCCCCCCCCCCCCCCCCCCC(=O)[O-]
REMARK SMILES IDX 13 1 14 2 15 3 16 4 17 5 18 6 19 7 20 8 21 9 22 10 23 11
REMARK SMILES IDX 24 12 25 13 26 14 12 15 11 16 10 17 9 18 8 19 7 20 6 21 5 22
REMARK SMILES IDX 4 23 3 24 2 25 1 26
REMARK H PARENT
REMARK Flexibility Score: inf
ROOT
ATOM      1  C   UNL     1      33.008  -9.863  18.448  1.00  0.00     0.000 C 
ENDROOT
BRANCH   1   2
ATOM      2  C   UNL     1      32.325  -9.408  17.146  1.00  0.00     0.000 C 
BRANCH   2   3
ATOM      3  C   UNL     1      32.277  -7.877  17.018  1.00  0.00     0.000 C 
BRANCH   3   4
ATOM      4  C   UNL     1      31.397  -7.225  18.097  1.00  0.00     0.000 C 
BRANCH   4   5
ATOM      5  C   UNL     1      32.201  -6.348  19.071  1.00  0.00     0.000 C 
BRANCH   5   6
ATOM      6  C   UNL     1      32.024  -6.754  20.549  1.00  0.00     0.000 C 
BRANCH   6   7
ATOM      7  C   UNL     1      30.767  -7.613  20.771  1.00  0.00     0.000 C 
BRANCH   7   8
ATOM      8  C   UNL     1      30.435  -7.808  22.259  1.00  0.00     0.000 C 
BRANCH   8   9
ATOM      9  C   UNL     1      30.287  -9.288  22.645  1.00  0.00     0.000 C 
BRANCH   9  10
ATOM     10  C   UNL     1      31.429  -9.731  23.572  1.00  0.00     0.006 C 
BRANCH  10  11
ATOM     11  C   UNL     1      32.597 -10.356  22.797  1.00  0.00     0.053 C 
BRANCH  11  12
ATOM     12  C   UNL     1      33.731  -9.392  22.628  1.00  0.00     0.041 C 
ATOM     13  O   UNL     1      34.559  -9.547  21.691  1.00  0.00    -0.550 OA
ATOM     14  O   UNL     1      33.846  -8.297  23.473  1.00  0.00    -0.550 OA
ENDBRANCH  11  12
ENDBRANCH  10  11
ENDBRANCH   9  10
ENDBRANCH   8   9
ENDBRANCH   7   8
ENDBRANCH   6   7
ENDBRANCH   5   6
ENDBRANCH   4   5
ENDBRANCH   3   4
ENDBRANCH   2   3
ENDBRANCH   1   2
BRANCH   1  15
ATOM     15  C   UNL     1      32.096 -10.745  19.317  1.00  0.00     0.000 C 
BRANCH  15  16
ATOM     16  C   UNL     1      32.279 -12.244  19.024  1.00  0.00     0.000 C 
BRANCH  16  17
ATOM     17  C   UNL     1      31.515 -13.151  20.007  1.00  0.00     0.000 C 
BRANCH  17  18
ATOM     18  C   UNL     1      30.269 -12.521  20.660  1.00  0.00    -0.000 C 
BRANCH  18  19
ATOM     19  C   UNL     1      28.979 -13.311  20.386  1.00  0.00    -0.000 C 
BRANCH  19  20
ATOM     20  C   UNL     1      29.107 -14.803  20.735  1.00  0.00    -0.000 C 
BRANCH  20  21
ATOM     21  C   UNL     1      27.975 -15.329  21.644  1.00  0.00    -0.000 C 
BRANCH  21  22
ATOM     22  C   UNL     1      28.367 -15.291  23.133  1.00  0.00    -0.000 C 
BRANCH  22  23
ATOM     23  C   UNL     1      28.151 -13.908  23.770  1.00  0.00    -0.000 C 
BRANCH  23  24
ATOM     24  C   UNL     1      29.475 -13.226  24.160  1.00  0.00    -0.000 C 
BRANCH  24  25
ATOM     25  C   UNL     1      30.597 -14.236  24.443  1.00  0.00    -0.003 C 
ATOM     26  C   UNL     1      31.872 -13.945  23.651  1.00  0.00     0.004 C 
ENDBRANCH  24  25
ENDBRANCH  23  24
ENDBRANCH  22  23
ENDBRANCH  21  22
ENDBRANCH  20  21
ENDBRANCH  19  20
ENDBRANCH  18  19
ENDBRANCH  17  18
ENDBRANCH  16  17
ENDBRANCH  15  16
ENDBRANCH   1  15
TORSDOF 22
ENDMDL
MODEL 4
REMARK VINA RESULT:    -3.897      5.742     10.130
REMARK INTER + INTRA:         -12.624
REMARK INTER:                  -8.821
REMARK INTRA:                  -3.803
REMARK UNBOUND:                -3.715
REMARK SMILES CCCCCCCCCCCCCCCCCCCCCCCC(=O)[O-]
REMARK SMILES IDX 13 1 14 2 15 3 16 4 17 5 18 6 19 7 20 8 21 9 22 10 23 11
REMARK SMILES IDX 24 12 25 13 26 14 12 15 11 16 10 17 9 18 8 19 7 20 6 21 5 22
REMARK SMILES IDX 4 23 3 24 2 25 1 26
REMARK H PARENT
REMARK Flexibility Score: inf
ROOT
ATOM      1  C   UNL     1      28.426 -18.827  25.762  1.00  0.00     0.000 C 
ENDROOT
BRANCH   1   2
ATOM      2  C   UNL     1      27.287 -19.609  26.440  1.00  0.00     0.000 C 
BRANCH   2   3
ATOM      3  C   UNL     1      26.981 -20.933  25.723  1.00  0.00     0.000 C 
BRANCH   3   4
ATOM      4  C   UNL     1      27.821 -22.101  26.265  1.00  0.00     0.000 C 
BRANCH   4   5
ATOM      5  C   UNL     1      28.390 -22.993  25.149  1.00  0.00     0.000 C 
BRANCH   5   6
ATOM      6  C   UNL     1      29.500 -22.309  24.325  1.00  0.00     0.000 C 
BRANCH   6   7
ATOM      7  C   UNL     1      29.158 -22.245  22.826  1.00  0.00     0.000 C 
BRANCH   7   8
ATOM      8  C   UNL     1      28.551 -20.896  22.412  1.00  0.00     0.000 C 
BRANCH   8   9
ATOM      9  C   UNL     1      29.615 -19.816  22.165  1.00  0.00     0.000 C 
BRANCH   9  10
ATOM     10  C   UNL     1      30.844 -20.406  21.457  1.00  0.00     0.006 C 
BRANCH  10  11
ATOM     11  C   UNL     1      32.149 -20.093  22.202  1.00  0.00     0.053 C 
BRANCH  11  12
ATOM     12  C   UNL     1      33.114 -19.340  21.339  1.00  0.00     0.041 C 
ATOM     13  O   UNL     1      33.396 -19.763  20.185  1.00  0.00    -0.550 OA
ATOM     14  O   UNL     1      33.666 -18.148  21.787  1.00  0.00    -0.550 OA
ENDBRANCH  11  12
ENDBRANCH  10  11
ENDBRANCH   9  10
ENDBRANCH   8   9
ENDBRANCH   7   8
ENDBRANCH   6   7
ENDBRANCH   5   6
ENDBRANCH   4   5
ENDBRANCH   3   4
ENDBRANCH   2   3
ENDBRANCH   1   2
BRANCH   1  15
ATOM     15  C   UNL     1      29.763 -18.961  26.509  1.00  0.00     0.000 C 
BRANCH  15  16
ATOM     16  C   UNL     1      30.956 -19.123  25.552  1.00  0.00     0.000 C 
BRANCH  16  17
ATOM     17  C   UNL     1      31.685 -17.798  25.262  1.00  0.00     0.000 C 
BRANCH  17  18
ATOM     18  C   UNL     1      31.126 -16.978  24.083  1.00  0.00    -0.000 C 
BRANCH  18  19
ATOM     19  C   UNL     1      30.894 -15.499  24.431  1.00  0.00    -0.000 C 
BRANCH  19  20
ATOM     20  C   UNL     1      29.856 -15.305  25.549  1.00  0.00    -0.000 C 
BRANCH  20  21
ATOM     21  C   UNL     1      28.404 -15.182  25.036  1.00  0.00    -0.000 C 
BRANCH  21  22
ATOM     22  C   UNL     1      28.337 -14.499  23.657  1.00  0.00    -0.000 C 
BRANCH  22  23
ATOM     23  C   UNL     1      28.025 -15.486  22.520  1.00  0.00    -0.000 C 
BRANCH  23  24
ATOM     24  C   UNL     1      28.225 -14.862  21.128  1.00  0.00    -0.000 C 
BRANCH  24  25
ATOM     25  C   UNL     1      29.107 -13.605  21.167  1.00  0.00    -0.003 C 
ATOM     26  C   UNL     1      30.212 -13.620  20.110  1.00  0.00     0.004 C 
ENDBRANCH  24  25
ENDBRANCH  23  24
ENDBRANCH  22  23
ENDBRANCH  21  22
ENDBRANCH  20  21
ENDBRANCH  19  20
ENDBRANCH  18  19
ENDBRANCH  17  18
ENDBRANCH  16  17
ENDBRANCH  15  16
ENDBRANCH   1  15
TORSDOF 22
ENDMDL
MODEL 5
REMARK VINA RESULT:    -3.850      1.254      4.807
REMARK INTER + INTRA:         -12.516
REMARK INTER:                  -8.867
REMARK INTRA:                  -3.649
REMARK UNBOUND:                -3.715
REMARK SMILES CCCCCCCCCCCCCCCCCCCCCCCC(=O)[O-]
REMARK SMILES IDX 13 1 14 2 15 3 16 4 17 5 18 6 19 7 20 8 21 9 22 10 23 11
REMARK SMILES IDX 24 12 25 13 26 14 12 15 11 16 10 17 9 18 8 19 7 20 6 21 5 22
REMARK SMILES IDX 4 23 3 24 2 25 1 26
REMARK H PARENT
REMARK Flexibility Score: inf
ROOT
ATOM      1  C   UNL     1      31.378  -7.319  17.438  1.00  0.00     0.000 C 
ENDROOT
BRANCH   1   2
ATOM      2  C   UNL     1      32.056  -7.944  16.206  1.00  0.00     0.000 C 
BRANCH   2   3
ATOM      3  C   UNL     1      32.466  -9.406  16.445  1.00  0.00     0.000 C 
BRANCH   3   4
ATOM      4  C   UNL     1      33.775  -9.525  17.243  1.00  0.00     0.000 C 
BRANCH   4   5
ATOM      5  C   UNL     1      33.661 -10.488  18.435  1.00  0.00     0.000 C 
BRANCH   5   6
ATOM      6  C   UNL     1      32.209 -10.916  18.739  1.00  0.00     0.000 C 
BRANCH   6   7
ATOM      7  C   UNL     1      32.113 -11.795  19.998  1.00  0.00     0.000 C 
BRANCH   7   8
ATOM      8  C   UNL     1      31.268 -11.152  21.110  1.00  0.00     0.000 C 
BRANCH   8   9
ATOM      9  C   UNL     1      30.205 -12.106  21.674  1.00  0.00     0.000 C 
BRANCH   9  10
ATOM     10  C   UNL     1      29.605 -12.982  20.564  1.00  0.00     0.006 C 
BRANCH  10  11
ATOM     11  C   UNL     1      28.402 -13.799  21.055  1.00  0.00     0.053 C 
BRANCH  11  12
ATOM     12  C   UNL     1      28.775 -15.222  21.338  1.00  0.00     0.041 C 
ATOM     13  O   UNL     1      28.060 -16.163  20.902  1.00  0.00    -0.550 OA
ATOM     14  O   UNL     1      29.936 -15.511  22.042  1.00  0.00    -0.550 OA
ENDBRANCH  11  12
ENDBRANCH  10  11
ENDBRANCH   9  10
ENDBRANCH   8   9
ENDBRANCH   7   8
ENDBRANCH   6   7
ENDBRANCH   5   6
ENDBRANCH   4   5
ENDBRANCH   3   4
ENDBRANCH   2   3
ENDBRANCH   1   2
BRANCH   1  15
ATOM     15  C   UNL     1      32.232  -6.217  18.088  1.00  0.00     0.000 C 
BRANCH  15  16
ATOM     16  C   UNL     1      32.454  -6.457  19.590  1.00  0.00     0.000 C 
BRANCH  16  17
ATOM     17  C   UNL     1      31.402  -7.392  20.216  1.00  0.00     0.000 C 
BRANCH  17  18
ATOM     18  C   UNL     1      31.180  -7.222  21.731  1.00  0.00    -0.000 C 
BRANCH  18  19
ATOM     19  C   UNL     1      29.943  -7.974  22.249  1.00  0.00    -0.000 C 
BRANCH  19  20
ATOM     20  C   UNL     1      30.163  -8.601  23.636  1.00  0.00    -0.000 C 
BRANCH  20  21
ATOM     21  C   UNL     1      30.552  -7.579  24.726  1.00  0.00    -0.000 C 
BRANCH  21  22
ATOM     22  C   UNL     1      31.880  -7.947  25.414  1.00  0.00    -0.000 C 
BRANCH  22  23
ATOM     23  C   UNL     1      32.603  -9.115  24.724  1.00  0.00    -0.000 C 
BRANCH  23  24
ATOM     24  C   UNL     1      33.833  -8.655  23.922  1.00  0.00    -0.000 C 
BRANCH  24  25
ATOM     25  C   UNL     1      34.113  -9.551  22.706  1.00  0.00    -0.003 C 
ATOM     26  C   UNL     1      34.618  -8.767  21.494  1.00  0.00     0.004 C 
ENDBRANCH  24  25
ENDBRANCH  23  24
ENDBRANCH  22  23
ENDBRANCH  21  22
ENDBRANCH  20  21
ENDBRANCH  19  20
ENDBRANCH  18  19
ENDBRANCH  17  18
ENDBRANCH  16  17
ENDBRANCH  15  16
ENDBRANCH   1  15
TORSDOF 22
ENDMDL
MODEL 6
REMARK VINA RESULT:    -3.847      1.702      4.627
REMARK INTER + INTRA:         -12.511
REMARK INTER:                  -8.449
REMARK INTRA:                  -4.062
REMARK UNBOUND:                -3.715
REMARK SMILES CCCCCCCCCCCCCCCCCCCCCCCC(=O)[O-]
REMARK SMILES IDX 13 1 14 2 15 3 16 4 17 5 18 6 19 7 20 8 21 9 22 10 23 11
REMARK SMILES IDX 24 12 25 13 26 14 12 15 11 16 10 17 9 18 8 19 7 20 6 21 5 22
REMARK SMILES IDX 4 23 3 24 2 25 1 26
REMARK H PARENT
REMARK Flexibility Score: inf
ROOT
ATOM      1  C   UNL     1      34.150 -11.416  19.816  1.00  0.00     0.000 C 
ENDROOT
BRANCH   1   2
ATOM      2  C   UNL     1      34.253 -10.031  20.478  1.00  0.00     0.000 C 
BRANCH   2   3
ATOM      3  C   UNL     1      34.425 -10.124  22.002  1.00  0.00     0.000 C 
BRANCH   3   4
ATOM      4  C   UNL     1      33.083 -10.291  22.734  1.00  0.00     0.000 C 
BRANCH   4   5
ATOM      5  C   UNL     1      32.736 -11.763  23.012  1.00  0.00     0.000 C 
BRANCH   5   6
ATOM      6  C   UNL     1      31.224 -12.061  22.927  1.00  0.00     0.000 C 
BRANCH   6   7
ATOM      7  C   UNL     1      30.572 -11.423  21.688  1.00  0.00     0.000 C 
BRANCH   7   8
ATOM      8  C   UNL     1      30.065 -12.466  20.679  1.00  0.00     0.000 C 
BRANCH   8   9
ATOM      9  C   UNL     1      29.739 -13.816  21.335  1.00  0.00     0.000 C 
BRANCH   9  10
ATOM     10  C   UNL     1      28.224 -13.992  21.512  1.00  0.00     0.006 C 
BRANCH  10  11
ATOM     11  C   UNL     1      27.765 -13.674  22.941  1.00  0.00     0.053 C 
BRANCH  11  12
ATOM     12  C   UNL     1      28.376 -14.607  23.941  1.00  0.00     0.041 C 
ATOM     13  O   UNL     1      28.323 -15.854  23.760  1.00  0.00    -0.550 OA
ATOM     14  O   UNL     1      29.045 -14.102  25.047  1.00  0.00    -0.550 OA
ENDBRANCH  11  12
ENDBRANCH  10  11
ENDBRANCH   9  10
ENDBRANCH   8   9
ENDBRANCH   7   8
ENDBRANCH   6   7
ENDBRANCH   5   6
ENDBRANCH   4   5
ENDBRANCH   3   4
ENDBRANCH   2   3
ENDBRANCH   1   2
BRANCH   1  15
ATOM     15  C   UNL     1      33.033 -11.487  18.762  1.00  0.00     0.000 C 
BRANCH  15  16
ATOM     16  C   UNL     1      32.296 -10.147  18.599  1.00  0.00     0.000 C 
BRANCH  16  17
ATOM     17  C   UNL     1      32.459  -9.533  17.196  1.00  0.00     0.000 C 
BRANCH  17  18
ATOM     18  C   UNL     1      32.250  -8.009  17.110  1.00  0.00    -0.000 C 
BRANCH  18  19
ATOM     19  C   UNL     1      31.401  -7.449  18.263  1.00  0.00    -0.000 C 
BRANCH  19  20
ATOM     20  C   UNL     1      32.167  -6.437  19.131  1.00  0.00    -0.000 C 
BRANCH  20  21
ATOM     21  C   UNL     1      32.349  -6.886  20.598  1.00  0.00    -0.000 C 
BRANCH  21  22
ATOM     22  C   UNL     1      31.143  -7.700  21.105  1.00  0.00    -0.000 C 
BRANCH  22  23
ATOM     23  C   UNL     1      30.424  -7.025  22.283  1.00  0.00    -0.000 C 
BRANCH  23  24
ATOM     24  C   UNL     1      30.818  -7.634  23.641  1.00  0.00    -0.000 C 
BRANCH  24  25
ATOM     25  C   UNL     1      29.863  -8.753  24.084  1.00  0.00    -0.003 C 
ATOM     26  C   UNL     1      30.283  -9.405  25.402  1.00  0.00     0.004 C 
ENDBRANCH  24  25
ENDBRANCH  23  24
ENDBRANCH  22  23
ENDBRANCH  21  22
ENDBRANCH  20  21
ENDBRANCH  19  20
ENDBRANCH  18  19
ENDBRANCH  17  18
ENDBRANCH  16  17
ENDBRANCH  15  16
ENDBRANCH   1  15
TORSDOF 22
ENDMDL
MODEL 7
REMARK VINA RESULT:    -3.833      1.755      2.674
REMARK INTER + INTRA:         -12.478
REMARK INTER:                  -9.189
REMARK INTRA:                  -3.289
REMARK UNBOUND:                -3.715
REMARK SMILES CCCCCCCCCCCCCCCCCCCCCCCC(=O)[O-]
REMARK SMILES IDX 13 1 14 2 15 3 16 4 17 5 18 6 19 7 20 8 21 9 22 10 23 11
REMARK SMILES IDX 24 12 25 13 26 14 12 15 11 16 10 17 9 18 8 19 7 20 6 21 5 22
REMARK SMILES IDX 4 23 3 24 2 25 1 26
REMARK H PARENT
REMARK Flexibility Score: inf
ROOT
ATOM      1  C   UNL     1      30.312  -9.667  23.360  1.00  0.00     0.000 C 
ENDROOT
BRANCH   1   2
ATOM      2  C   UNL     1      31.729  -9.726  23.958  1.00  0.00     0.000 C 
BRANCH   2   3
ATOM      3  C   UNL     1      32.638 -10.711  23.206  1.00  0.00     0.000 C 
BRANCH   3   4
ATOM      4  C   UNL     1      33.268 -10.085  21.951  1.00  0.00     0.000 C 
BRANCH   4   5
ATOM      5  C   UNL     1      32.722 -10.689  20.646  1.00  0.00     0.000 C 
BRANCH   5   6
ATOM      6  C   UNL     1      32.677 -12.231  20.658  1.00  0.00     0.000 C 
BRANCH   6   7
ATOM      7  C   UNL     1      31.394 -12.782  20.011  1.00  0.00     0.000 C 
BRANCH   7   8
ATOM      8  C   UNL     1      30.117 -12.296  20.715  1.00  0.00     0.000 C 
BRANCH   8   9
ATOM      9  C   UNL     1      28.928 -13.246  20.509  1.00  0.00     0.000 C 
BRANCH   9  10
ATOM     10  C   UNL     1      29.032 -14.470  21.431  1.00  0.00     0.006 C 
BRANCH  10  11
ATOM     11  C   UNL     1      28.571 -14.160  22.861  1.00  0.00     0.053 C 
BRANCH  11  12
ATOM     12  C   UNL     1      28.749 -15.338  23.770  1.00  0.00     0.041 C 
ATOM     13  O   UNL     1      29.634 -16.200  23.523  1.00  0.00    -0.550 OA
ATOM     14  O   UNL     1      27.972 -15.458  24.914  1.00  0.00    -0.550 OA
ENDBRANCH  11  12
ENDBRANCH  10  11
ENDBRANCH   9  10
ENDBRANCH   8   9
ENDBRANCH   7   8
ENDBRANCH   6   7
ENDBRANCH   5   6
ENDBRANCH   4   5
ENDBRANCH   3   4
ENDBRANCH   2   3
ENDBRANCH   1   2
BRANCH   1  15
ATOM     15  C   UNL     1      29.885  -8.236  22.992  1.00  0.00     0.000 C 
BRANCH  15  16
ATOM     16  C   UNL     1      30.310  -7.847  21.566  1.00  0.00     0.000 C 
BRANCH  16  17
ATOM     17  C   UNL     1      31.530  -6.907  21.534  1.00  0.00     0.000 C 
BRANCH  17  18
ATOM     18  C   UNL     1      32.174  -6.702  20.149  1.00  0.00    -0.000 C 
BRANCH  18  19
ATOM     19  C   UNL     1      31.387  -7.373  19.012  1.00  0.00    -0.000 C 
BRANCH  19  20
ATOM     20  C   UNL     1      31.850  -6.918  17.617  1.00  0.00    -0.000 C 
BRANCH  20  21
ATOM     21  C   UNL     1      32.054  -8.080  16.620  1.00  0.00    -0.000 C 
BRANCH  21  22
ATOM     22  C   UNL     1      32.191  -9.437  17.335  1.00  0.00    -0.000 C 
BRANCH  22  23
ATOM     23  C   UNL     1      32.684 -10.554  16.401  1.00  0.00    -0.000 C 
BRANCH  23  24
ATOM     24  C   UNL     1      33.849 -11.357  17.006  1.00  0.00    -0.000 C 
BRANCH  24  25
ATOM     25  C   UNL     1      33.593 -12.872  16.987  1.00  0.00    -0.003 C 
ATOM     26  C   UNL     1      32.590 -13.292  15.913  1.00  0.00     0.004 C 
ENDBRANCH  24  25
ENDBRANCH  23  24
ENDBRANCH  22  23
ENDBRANCH  21  22
ENDBRANCH  20  21
ENDBRANCH  19  20
ENDBRANCH  18  19
ENDBRANCH  17  18
ENDBRANCH  16  17
ENDBRANCH  15  16
ENDBRANCH   1  15
TORSDOF 22
ENDMDL
MODEL 8
REMARK VINA RESULT:    -3.805      2.801      7.095
REMARK INTER + INTRA:         -12.415
REMARK INTER:                  -9.072
REMARK INTRA:                  -3.343
REMARK UNBOUND:                -3.715
REMARK SMILES CCCCCCCCCCCCCCCCCCCCCCCC(=O)[O-]
REMARK SMILES IDX 13 1 14 2 15 3 16 4 17 5 18 6 19 7 20 8 21 9 22 10 23 11
REMARK SMILES IDX 24 12 25 13 26 14 12 15 11 16 10 17 9 18 8 19 7 20 6 21 5 22
REMARK SMILES IDX 4 23 3 24 2 25 1 26
REMARK H PARENT
REMARK Flexibility Score: inf
ROOT
ATOM      1  C   UNL     1      33.440 -10.446  17.526  1.00  0.00     0.000 C 
ENDROOT
BRANCH   1   2
ATOM      2  C   UNL     1      32.135  -9.630  17.522  1.00  0.00     0.000 C 
BRANCH   2   3
ATOM      3  C   UNL     1      32.129  -8.544  16.434  1.00  0.00     0.000 C 
BRANCH   3   4
ATOM      4  C   UNL     1      31.776  -7.156  16.994  1.00  0.00     0.000 C 
BRANCH   4   5
ATOM      5  C   UNL     1      31.546  -7.168  18.514  1.00  0.00     0.000 C 
BRANCH   5   6
ATOM      6  C   UNL     1      32.579  -6.331  19.296  1.00  0.00     0.000 C 
BRANCH   6   7
ATOM      7  C   UNL     1      32.460  -6.531  20.818  1.00  0.00     0.000 C 
BRANCH   7   8
ATOM      8  C   UNL     1      31.068  -7.023  21.245  1.00  0.00     0.000 C 
BRANCH   8   9
ATOM      9  C   UNL     1      31.066  -7.654  22.646  1.00  0.00     0.000 C 
BRANCH   9  10
ATOM     10  C   UNL     1      29.845  -8.565  22.838  1.00  0.00     0.006 C 
BRANCH  10  11
ATOM     11  C   UNL     1      30.167  -9.795  23.696  1.00  0.00     0.053 C 
BRANCH  11  12
ATOM     12  C   UNL     1      30.565  -9.413  25.088  1.00  0.00     0.041 C 
ATOM     13  O   UNL     1      31.642  -9.845  25.581  1.00  0.00    -0.550 OA
ATOM     14  O   UNL     1      29.773  -8.543  25.825  1.00  0.00    -0.550 OA
ENDBRANCH  11  12
ENDBRANCH  10  11
ENDBRANCH   9  10
ENDBRANCH   8   9
ENDBRANCH   7   8
ENDBRANCH   6   7
ENDBRANCH   5   6
ENDBRANCH   4   5
ENDBRANCH   3   4
ENDBRANCH   2   3
ENDBRANCH   1   2
BRANCH   1  15
ATOM     15  C   UNL     1      33.793 -10.991  18.920  1.00  0.00     0.000 C 
BRANCH  15  16
ATOM     16  C   UNL     1      33.250 -10.101  20.051  1.00  0.00     0.000 C 
BRANCH  16  17
ATOM     17  C   UNL     1      32.438 -10.883  21.100  1.00  0.00     0.000 C 
BRANCH  17  18
ATOM     18  C   UNL     1      31.801 -12.195  20.603  1.00  0.00    -0.000 C 
BRANCH  18  19
ATOM     19  C   UNL     1      30.271 -12.222  20.760  1.00  0.00    -0.000 C 
BRANCH  19  20
ATOM     20  C   UNL     1      29.620 -13.419  20.047  1.00  0.00    -0.000 C 
BRANCH  20  21
ATOM     21  C   UNL     1      29.129 -14.524  21.007  1.00  0.00    -0.000 C 
BRANCH  21  22
ATOM     22  C   UNL     1      27.714 -14.235  21.542  1.00  0.00    -0.000 C 
BRANCH  22  23
ATOM     23  C   UNL     1      27.708 -13.857  23.033  1.00  0.00    -0.000 C 
BRANCH  23  24
ATOM     24  C   UNL     1      28.972 -14.339  23.768  1.00  0.00    -0.000 C 
BRANCH  24  25
ATOM     25  C   UNL     1      29.785 -13.180  24.364  1.00  0.00    -0.003 C 
ATOM     26  C   UNL     1      31.136 -13.627  24.920  1.00  0.00     0.004 C 
ENDBRANCH  24  25
ENDBRANCH  23  24
ENDBRANCH  22  23
ENDBRANCH  21  22
ENDBRANCH  20  21
ENDBRANCH  19  20
ENDBRANCH  18  19
ENDBRANCH  17  18
ENDBRANCH  16  17
ENDBRANCH  15  16
ENDBRANCH   1  15
TORSDOF 22
ENDMDL
MODEL 9
REMARK VINA RESULT:    -3.790      1.379      4.675
REMARK INTER + INTRA:         -12.379
REMARK INTER:                  -8.598
REMARK INTRA:                  -3.782
REMARK UNBOUND:                -3.715
REMARK SMILES CCCCCCCCCCCCCCCCCCCCCCCC(=O)[O-]
REMARK SMILES IDX 13 1 14 2 15 3 16 4 17 5 18 6 19 7 20 8 21 9 22 10 23 11
REMARK SMILES IDX 24 12 25 13 26 14 12 15 11 16 10 17 9 18 8 19 7 20 6 21 5 22
REMARK SMILES IDX 4 23 3 24 2 25 1 26
REMARK H PARENT
REMARK Flexibility Score: inf
ROOT
ATOM      1  C   UNL     1      31.652  -7.317  17.284  1.00  0.00     0.000 C 
ENDROOT
BRANCH   1   2
ATOM      2  C   UNL     1      32.221  -8.705  16.941  1.00  0.00     0.000 C 
BRANCH   2   3
ATOM      3  C   UNL     1      32.136  -9.680  18.126  1.00  0.00     0.000 C 
BRANCH   3   4
ATOM      4  C   UNL     1      33.339 -10.635  18.187  1.00  0.00     0.000 C 
BRANCH   4   5
ATOM      5  C   UNL     1      32.960 -12.092  17.874  1.00  0.00     0.000 C 
BRANCH   5   6
ATOM      6  C   UNL     1      33.310 -13.073  19.013  1.00  0.00     0.000 C 
BRANCH   6   7
ATOM      7  C   UNL     1      32.219 -13.120  20.097  1.00  0.00     0.000 C 
BRANCH   7   8
ATOM      8  C   UNL     1      30.815 -13.362  19.519  1.00  0.00     0.000 C 
BRANCH   8   9
ATOM      9  C   UNL     1      29.696 -12.932  20.479  1.00  0.00     0.000 C 
BRANCH   9  10
ATOM     10  C   UNL     1      30.153 -13.039  21.942  1.00  0.00     0.006 C 
BRANCH  10  11
ATOM     11  C   UNL     1      29.635 -14.314  22.620  1.00  0.00     0.053 C 
BRANCH  11  12
ATOM     12  C   UNL     1      28.170 -14.515  22.383  1.00  0.00     0.041 C 
ATOM     13  O   UNL     1      27.768 -15.484  21.684  1.00  0.00    -0.550 OA
ATOM     14  O   UNL     1      27.246 -13.661  22.970  1.00  0.00    -0.550 OA
ENDBRANCH  11  12
ENDBRANCH  10  11
ENDBRANCH   9  10
ENDBRANCH   8   9
ENDBRANCH   7   8
ENDBRANCH   6   7
ENDBRANCH   5   6
ENDBRANCH   4   5
ENDBRANCH   3   4
ENDBRANCH   2   3
ENDBRANCH   1   2
BRANCH   1  15
ATOM     15  C   UNL     1      31.721  -7.003  18.787  1.00  0.00     0.000 C 
BRANCH  15  16
ATOM     16  C   UNL     1      32.934  -6.129  19.147  1.00  0.00     0.000 C 
BRANCH  16  17
ATOM     17  C   UNL     1      33.995  -6.877  19.976  1.00  0.00     0.000 C 
BRANCH  17  18
ATOM     18  C   UNL     1      33.489  -7.510  21.286  1.00  0.00    -0.000 C 
BRANCH  18  19
ATOM     19  C   UNL     1      33.862  -8.995  21.423  1.00  0.00    -0.000 C 
BRANCH  19  20
ATOM     20  C   UNL     1      32.745  -9.834  22.066  1.00  0.00    -0.000 C 
BRANCH  20  21
ATOM     21  C   UNL     1      31.384  -9.714  21.345  1.00  0.00    -0.000 C 
BRANCH  21  22
ATOM     22  C   UNL     1      30.312  -9.068  22.241  1.00  0.00    -0.000 C 
BRANCH  22  23
ATOM     23  C   UNL     1      30.560  -9.316  23.738  1.00  0.00    -0.000 C 
BRANCH  23  24
ATOM     24  C   UNL     1      30.095  -8.140  24.615  1.00  0.00    -0.000 C 
BRANCH  24  25
ATOM     25  C   UNL     1      30.401  -6.774  23.981  1.00  0.00    -0.003 C 
ATOM     26  C   UNL     1      31.829  -6.300  24.253  1.00  0.00     0.004 C 
ENDBRANCH  24  25
ENDBRANCH  23  24
ENDBRANCH  22  23
ENDBRANCH  21  22
ENDBRANCH  20  21
ENDBRANCH  19  20
ENDBRANCH  18  19
ENDBRANCH  17  18
ENDBRANCH  16  17
ENDBRANCH  15  16
ENDBRANCH   1  15
TORSDOF 22
ENDMDL
