MODEL 1
REMARK VINA RESULT:    -5.502      0.000      0.000
REMARK INTER + INTRA:          -7.009
REMARK INTER:                  -6.789
REMARK INTRA:                  -0.220
REMARK UNBOUND:                -0.220
REMARK SMILES COC(=O)c1ccccc1C(=O)OC
REMARK SMILES IDX 5 1 6 2 7 3 8 4 9 5 10 6 3 7 4 8 2 9 1 10 11 11 12 12 13 13
REMARK SMILES IDX 14 14
REMARK H PARENT
REMARK Flexibility Score: inf
ROOT
ATOM      1  C   UNL     1      51.424  51.965  22.260  1.00  0.00     0.074 A 
ATOM      2  C   UNL     1      52.729  52.432  22.018  1.00  0.00     0.016 A 
ATOM      3  C   UNL     1      53.260  53.484  22.763  1.00  0.00     0.001 A 
ATOM      4  C   UNL     1      52.498  54.086  23.763  1.00  0.00     0.001 A 
ATOM      5  C   UNL     1      51.194  53.654  24.005  1.00  0.00     0.016 A 
ATOM      6  C   UNL     1      50.630  52.610  23.250  1.00  0.00     0.074 A 
ENDROOT
BRANCH   1   7
ATOM      7  C   UNL     1      50.967  50.772  21.510  1.00  0.00     0.338 C 
ATOM      8  O   UNL     1      50.408  50.901  20.386  1.00  0.00    -0.246 OA
BRANCH   7   9
ATOM      9  O   UNL     1      51.106  49.504  22.083  1.00  0.00    -0.465 OA
ATOM     10  C   UNL     1      50.119  48.934  22.935  1.00  0.00     0.282 C 
ENDBRANCH   7   9
ENDBRANCH   1   7
BRANCH   6  11
ATOM     11  C   UNL     1      49.206  52.279  23.483  1.00  0.00     0.338 C 
ATOM     12  O   UNL     1      48.357  52.434  22.562  1.00  0.00    -0.246 OA
BRANCH  11  13
ATOM     13  O   UNL     1      48.797  51.849  24.750  1.00  0.00    -0.465 OA
ATOM     14  C   UNL     1      48.014  52.658  25.619  1.00  0.00     0.282 C 
ENDBRANCH  11  13
ENDBRANCH   6  11
TORSDOF 4
ENDMDL
MODEL 2
REMARK VINA RESULT:    -5.484      1.287      3.571
REMARK INTER + INTRA:          -6.986
REMARK INTER:                  -6.801
REMARK INTRA:                  -0.185
REMARK UNBOUND:                -0.220
REMARK SMILES COC(=O)c1ccccc1C(=O)OC
REMARK SMILES IDX 5 1 6 2 7 3 8 4 9 5 10 6 3 7 4 8 2 9 1 10 11 11 12 12 13 13
REMARK SMILES IDX 14 14
REMARK H PARENT
REMARK Flexibility Score: inf
ROOT
ATOM      1  C   UNL     1      50.341  52.403  22.814  1.00  0.00     0.074 A 
ATOM      2  C   UNL     1      50.983  53.626  22.546  1.00  0.00     0.016 A 
ATOM      3  C   UNL     1      52.057  53.689  21.658  1.00  0.00     0.001 A 
ATOM      4  C   UNL     1      52.506  52.533  21.021  1.00  0.00     0.001 A 
ATOM      5  C   UNL     1      51.898  51.306  21.289  1.00  0.00     0.016 A 
ATOM      6  C   UNL     1      50.829  51.216  22.198  1.00  0.00     0.074 A 
ENDROOT
BRANCH   1   7
ATOM      7  C   UNL     1      49.139  52.429  23.677  1.00  0.00     0.338 C 
ATOM      8  O   UNL     1      48.011  52.110  23.210  1.00  0.00    -0.246 OA
BRANCH   7   9
ATOM      9  O   UNL     1      49.251  52.867  25.001  1.00  0.00    -0.465 OA
ATOM     10  C   UNL     1      48.148  52.881  25.900  1.00  0.00     0.282 C 
ENDBRANCH   7   9
ENDBRANCH   1   7
BRANCH   6  11
ATOM     11  C   UNL     1      50.306  49.868  22.519  1.00  0.00     0.338 C 
ATOM     12  O   UNL     1      49.406  49.346  21.805  1.00  0.00    -0.246 OA
BRANCH  11  13
ATOM     13  O   UNL     1      50.775  49.200  23.656  1.00  0.00    -0.465 OA
ATOM     14  C   UNL     1      50.703  47.787  23.799  1.00  0.00     0.282 C 
ENDBRANCH  11  13
ENDBRANCH   6  11
TORSDOF 4
ENDMDL
MODEL 3
REMARK VINA RESULT:    -5.483      0.079      3.296
REMARK INTER + INTRA:          -6.986
REMARK INTER:                  -6.766
REMARK INTRA:                  -0.220
REMARK UNBOUND:                -0.220
REMARK SMILES COC(=O)c1ccccc1C(=O)OC
REMARK SMILES IDX 5 1 6 2 7 3 8 4 9 5 10 6 3 7 4 8 2 9 1 10 11 11 12 12 13 13
REMARK SMILES IDX 14 14
REMARK H PARENT
REMARK Flexibility Score: inf
ROOT
ATOM      1  C   UNL     1      50.683  52.626  23.241  1.00  0.00     0.074 A 
ATOM      2  C   UNL     1      51.262  53.661  23.997  1.00  0.00     0.016 A 
ATOM      3  C   UNL     1      52.580  54.058  23.771  1.00  0.00     0.001 A 
ATOM      4  C   UNL     1      53.340  53.431  22.785  1.00  0.00     0.001 A 
ATOM      5  C   UNL     1      52.792  52.388  22.039  1.00  0.00     0.016 A 
ATOM      6  C   UNL     1      51.474  51.955  22.265  1.00  0.00     0.074 A 
ENDROOT
BRANCH   1   7
ATOM      7  C   UNL     1      49.248  52.333  23.456  1.00  0.00     0.338 C 
ATOM      8  O   UNL     1      48.419  52.481  22.516  1.00  0.00    -0.246 OA
BRANCH   7   9
ATOM      9  O   UNL     1      48.806  51.947  24.726  1.00  0.00    -0.465 OA
ATOM     10  C   UNL     1      48.021  52.795  25.556  1.00  0.00     0.282 C 
ENDBRANCH   7   9
ENDBRANCH   1   7
BRANCH   6  11
ATOM     11  C   UNL     1      50.996  50.770  21.517  1.00  0.00     0.338 C 
ATOM     12  O   UNL     1      50.452  50.907  20.386  1.00  0.00    -0.246 OA
BRANCH  11  13
ATOM     13  O   UNL     1      51.099  49.501  22.097  1.00  0.00    -0.465 OA
ATOM     14  C   UNL     1      50.076  48.946  22.915  1.00  0.00     0.282 C 
ENDBRANCH  11  13
ENDBRANCH   6  11
TORSDOF 4
ENDMDL
MODEL 4
REMARK VINA RESULT:    -5.400      1.700      3.801
REMARK INTER + INTRA:          -6.883
REMARK INTER:                  -6.513
REMARK INTRA:                  -0.370
REMARK UNBOUND:                -0.220
REMARK SMILES COC(=O)c1ccccc1C(=O)OC
REMARK SMILES IDX 5 1 6 2 7 3 8 4 9 5 10 6 3 7 4 8 2 9 1 10 11 11 12 12 13 13
REMARK SMILES IDX 14 14
REMARK H PARENT
REMARK Flexibility Score: inf
ROOT
ATOM      1  C   UNL     1      50.016  49.821  22.936  1.00  0.00     0.074 A 
ATOM      2  C   UNL     1      50.858  48.700  23.045  1.00  0.00     0.016 A 
ATOM      3  C   UNL     1      50.479  47.593  23.805  1.00  0.00     0.001 A 
ATOM      4  C   UNL     1      49.252  47.588  24.466  1.00  0.00     0.001 A 
ATOM      5  C   UNL     1      48.412  48.698  24.390  1.00  0.00     0.016 A 
ATOM      6  C   UNL     1      48.784  49.834  23.648  1.00  0.00     0.074 A 
ENDROOT
BRANCH   1   7
ATOM      7  C   UNL     1      50.431  50.910  22.022  1.00  0.00     0.338 C 
ATOM      8  O   UNL     1      50.290  50.784  20.775  1.00  0.00    -0.246 OA
BRANCH   7   9
ATOM      9  O   UNL     1      51.036  52.057  22.547  1.00  0.00    -0.465 OA
ATOM     10  C   UNL     1      50.601  53.372  22.221  1.00  0.00     0.282 C 
ENDBRANCH   7   9
ENDBRANCH   1   7
BRANCH   6  11
ATOM     11  C   UNL     1      47.897  51.018  23.703  1.00  0.00     0.338 C 
ATOM     12  O   UNL     1      46.885  51.092  22.952  1.00  0.00    -0.246 OA
BRANCH  11  13
ATOM     13  O   UNL     1      48.219  52.082  24.553  1.00  0.00    -0.465 OA
ATOM     14  C   UNL     1      47.346  52.535  25.580  1.00  0.00     0.282 C 
ENDBRANCH  11  13
ENDBRANCH   6  11
TORSDOF 4
ENDMDL
MODEL 5
REMARK VINA RESULT:    -5.391      1.736      4.701
REMARK INTER + INTRA:          -6.872
REMARK INTER:                  -6.496
REMARK INTRA:                  -0.376
REMARK UNBOUND:                -0.220
REMARK SMILES COC(=O)c1ccccc1C(=O)OC
REMARK SMILES IDX 5 1 6 2 7 3 8 4 9 5 10 6 3 7 4 8 2 9 1 10 11 11 12 12 13 13
REMARK SMILES IDX 14 14
REMARK H PARENT
REMARK Flexibility Score: inf
ROOT
ATOM      1  C   UNL     1      48.763  49.844  23.654  1.00  0.00     0.074 A 
ATOM      2  C   UNL     1      48.401  48.699  24.386  1.00  0.00     0.016 A 
ATOM      3  C   UNL     1      49.252  47.595  24.451  1.00  0.00     0.001 A 
ATOM      4  C   UNL     1      50.478  47.619  23.789  1.00  0.00     0.001 A 
ATOM      5  C   UNL     1      50.847  48.735  23.040  1.00  0.00     0.016 A 
ATOM      6  C   UNL     1      49.994  49.850  22.941  1.00  0.00     0.074 A 
ENDROOT
BRANCH   1   7
ATOM      7  C   UNL     1      47.864  51.019  23.721  1.00  0.00     0.338 C 
ATOM      8  O   UNL     1      46.878  51.113  22.938  1.00  0.00    -0.246 OA
BRANCH   7   9
ATOM      9  O   UNL     1      48.148  52.053  24.619  1.00  0.00    -0.465 OA
ATOM     10  C   UNL     1      47.258  52.428  25.664  1.00  0.00     0.282 C 
ENDBRANCH   7   9
ENDBRANCH   1   7
BRANCH   6  11
ATOM     11  C   UNL     1      50.398  50.951  22.038  1.00  0.00     0.338 C 
ATOM     12  O   UNL     1      50.275  50.829  20.788  1.00  0.00    -0.246 OA
BRANCH  11  13
ATOM     13  O   UNL     1      50.972  52.108  22.576  1.00  0.00    -0.465 OA
ATOM     14  C   UNL     1      50.460  53.410  22.320  1.00  0.00     0.282 C 
ENDBRANCH  11  13
ENDBRANCH   6  11
TORSDOF 4
ENDMDL
MODEL 6
REMARK VINA RESULT:    -5.283      2.213      4.378
REMARK INTER + INTRA:          -6.739
REMARK INTER:                  -7.058
REMARK INTRA:                   0.319
REMARK UNBOUND:                -0.220
REMARK SMILES COC(=O)c1ccccc1C(=O)OC
REMARK SMILES IDX 5 1 6 2 7 3 8 4 9 5 10 6 3 7 4 8 2 9 1 10 11 11 12 12 13 13
REMARK SMILES IDX 14 14
REMARK H PARENT
REMARK Flexibility Score: inf
ROOT
ATOM      1  C   UNL     1      50.596  52.354  23.000  1.00  0.00     0.074 A 
ATOM      2  C   UNL     1      49.948  51.119  22.818  1.00  0.00     0.016 A 
ATOM      3  C   UNL     1      50.378  50.225  21.837  1.00  0.00     0.001 A 
ATOM      4  C   UNL     1      51.463  50.549  21.025  1.00  0.00     0.001 A 
ATOM      5  C   UNL     1      52.106  51.778  21.173  1.00  0.00     0.016 A 
ATOM      6  C   UNL     1      51.675  52.704  22.140  1.00  0.00     0.074 A 
ENDROOT
BRANCH   1   7
ATOM      7  C   UNL     1      50.160  53.202  24.133  1.00  0.00     0.338 C 
ATOM      8  O   UNL     1      50.981  53.967  24.710  1.00  0.00    -0.246 OA
BRANCH   7   9
ATOM      9  O   UNL     1      48.844  53.108  24.598  1.00  0.00    -0.465 OA
ATOM     10  C   UNL     1      48.527  52.948  25.976  1.00  0.00     0.282 C 
ENDBRANCH   7   9
ENDBRANCH   1   7
BRANCH   6  11
ATOM     11  C   UNL     1      52.329  54.031  22.166  1.00  0.00     0.338 C 
ATOM     12  O   UNL     1      51.944  54.948  21.389  1.00  0.00    -0.246 OA
BRANCH  11  13
ATOM     13  O   UNL     1      53.418  54.246  23.018  1.00  0.00    -0.465 OA
ATOM     14  C   UNL     1      54.149  53.181  23.613  1.00  0.00     0.282 C 
ENDBRANCH  11  13
ENDBRANCH   6  11
TORSDOF 4
ENDMDL
MODEL 7
REMARK VINA RESULT:    -5.191      1.963      3.800
REMARK INTER + INTRA:          -6.625
REMARK INTER:                  -6.437
REMARK INTRA:                  -0.189
REMARK UNBOUND:                -0.220
REMARK SMILES COC(=O)c1ccccc1C(=O)OC
REMARK SMILES IDX 5 1 6 2 7 3 8 4 9 5 10 6 3 7 4 8 2 9 1 10 11 11 12 12 13 13
REMARK SMILES IDX 14 14
REMARK H PARENT
REMARK Flexibility Score: inf
ROOT
ATOM      1  C   UNL     1      49.982  51.736  23.319  1.00  0.00     0.074 A 
ATOM      2  C   UNL     1      50.569  50.689  22.585  1.00  0.00     0.016 A 
ATOM      3  C   UNL     1      50.033  49.402  22.625  1.00  0.00     0.001 A 
ATOM      4  C   UNL     1      48.901  49.140  23.394  1.00  0.00     0.001 A 
ATOM      5  C   UNL     1      48.316  50.158  24.147  1.00  0.00     0.016 A 
ATOM      6  C   UNL     1      48.854  51.457  24.141  1.00  0.00     0.074 A 
ENDROOT
BRANCH   1   7
ATOM      7  C   UNL     1      50.534  53.098  23.142  1.00  0.00     0.338 C 
ATOM      8  O   UNL     1      50.234  53.780  22.124  1.00  0.00    -0.246 OA
BRANCH   7   9
ATOM      9  O   UNL     1      51.439  53.602  24.082  1.00  0.00    -0.465 OA
ATOM     10  C   UNL     1      52.654  54.243  23.711  1.00  0.00     0.282 C 
ENDBRANCH   7   9
ENDBRANCH   1   7
BRANCH   6  11
ATOM     11  C   UNL     1      48.251  52.459  25.050  1.00  0.00     0.338 C 
ATOM     12  O   UNL     1      48.909  52.911  26.027  1.00  0.00    -0.246 OA
BRANCH  11  13
ATOM     13  O   UNL     1      46.925  52.859  24.852  1.00  0.00    -0.465 OA
ATOM     14  C   UNL     1      46.156  53.494  25.866  1.00  0.00     0.282 C 
ENDBRANCH  11  13
ENDBRANCH   6  11
TORSDOF 4
ENDMDL
MODEL 8
REMARK VINA RESULT:    -5.177      2.227      3.417
REMARK INTER + INTRA:          -6.608
REMARK INTER:                  -6.869
REMARK INTRA:                   0.261
REMARK UNBOUND:                -0.220
REMARK SMILES COC(=O)c1ccccc1C(=O)OC
REMARK SMILES IDX 5 1 6 2 7 3 8 4 9 5 10 6 3 7 4 8 2 9 1 10 11 11 12 12 13 13
REMARK SMILES IDX 14 14
REMARK H PARENT
REMARK Flexibility Score: inf
ROOT
ATOM      1  C   UNL     1      51.732  52.708  22.172  1.00  0.00     0.074 A 
ATOM      2  C   UNL     1      52.161  51.812  21.176  1.00  0.00     0.016 A 
ATOM      3  C   UNL     1      51.474  50.620  20.945  1.00  0.00     0.001 A 
ATOM      4  C   UNL     1      50.347  50.306  21.702  1.00  0.00     0.001 A 
ATOM      5  C   UNL     1      49.917  51.170  22.708  1.00  0.00     0.016 A 
ATOM      6  C   UNL     1      50.608  52.365  22.975  1.00  0.00     0.074 A 
ENDROOT
BRANCH   1   7
ATOM      7  C   UNL     1      52.440  54.004  22.286  1.00  0.00     0.338 C 
ATOM      8  O   UNL     1      51.994  55.028  21.699  1.00  0.00    -0.246 OA
BRANCH   7   9
ATOM      9  O   UNL     1      53.640  54.073  23.001  1.00  0.00    -0.465 OA
ATOM     10  C   UNL     1      54.094  53.018  23.843  1.00  0.00     0.282 C 
ENDBRANCH   7   9
ENDBRANCH   1   7
BRANCH   6  11
ATOM     11  C   UNL     1      50.165  53.178  24.130  1.00  0.00     0.338 C 
ATOM     12  O   UNL     1      50.982  53.923  24.737  1.00  0.00    -0.246 OA
BRANCH  11  13
ATOM     13  O   UNL     1      48.845  53.070  24.583  1.00  0.00    -0.465 OA
ATOM     14  C   UNL     1      48.512  52.987  25.963  1.00  0.00     0.282 C 
ENDBRANCH  11  13
ENDBRANCH   6  11
TORSDOF 4
ENDMDL
MODEL 9
REMARK VINA RESULT:    -5.164      1.953      4.641
REMARK INTER + INTRA:          -6.591
REMARK INTER:                  -6.375
REMARK INTRA:                  -0.217
REMARK UNBOUND:                -0.220
REMARK SMILES COC(=O)c1ccccc1C(=O)OC
REMARK SMILES IDX 5 1 6 2 7 3 8 4 9 5 10 6 3 7 4 8 2 9 1 10 11 11 12 12 13 13
REMARK SMILES IDX 14 14
REMARK H PARENT
REMARK Flexibility Score: inf
ROOT
ATOM      1  C   UNL     1      48.929  51.472  24.112  1.00  0.00     0.074 A 
ATOM      2  C   UNL     1      48.434  50.155  24.127  1.00  0.00     0.016 A 
ATOM      3  C   UNL     1      49.054  49.151  23.383  1.00  0.00     0.001 A 
ATOM      4  C   UNL     1      50.180  49.445  22.615  1.00  0.00     0.001 A 
ATOM      5  C   UNL     1      50.674  50.749  22.569  1.00  0.00     0.016 A 
ATOM      6  C   UNL     1      50.050  51.781  23.293  1.00  0.00     0.074 A 
ENDROOT
BRANCH   1   7
ATOM      7  C   UNL     1      48.290  52.459  25.012  1.00  0.00     0.338 C 
ATOM      8  O   UNL     1      48.919  52.916  26.006  1.00  0.00    -0.246 OA
BRANCH   7   9
ATOM      9  O   UNL     1      46.963  52.839  24.788  1.00  0.00    -0.465 OA
ATOM     10  C   UNL     1      46.107  53.289  25.831  1.00  0.00     0.282 C 
ENDBRANCH   7   9
ENDBRANCH   1   7
BRANCH   6  11
ATOM     11  C   UNL     1      50.559  53.159  23.109  1.00  0.00     0.338 C 
ATOM     12  O   UNL     1      50.249  53.821  22.080  1.00  0.00    -0.246 OA
BRANCH  11  13
ATOM     13  O   UNL     1      51.433  53.703  24.055  1.00  0.00    -0.465 OA
ATOM     14  C   UNL     1      52.781  54.041  23.751  1.00  0.00     0.282 C 
ENDBRANCH  11  13
ENDBRANCH   6  11
TORSDOF 4
ENDMDL
