MODEL 1
REMARK VINA RESULT:    -4.112      0.000      0.000
REMARK INTER + INTRA:          -5.250
REMARK INTER:                  -5.074
REMARK INTRA:                  -0.177
REMARK UNBOUND:                -0.177
REMARK SMILES CCCCCC(=O)[O-]
REMARK SMILES IDX 4 1 5 2 6 3 7 4 8 5 3 6 2 7 1 8
REMARK H PARENT
REMARK Flexibility Score: inf
ROOT
ATOM      1  C   UNL     1     -30.327   3.310  34.011  1.00  0.00     0.006 C 
ENDROOT
BRANCH   1   2
ATOM      2  C   UNL     1     -28.895   3.776  33.739  1.00  0.00     0.053 C 
BRANCH   2   3
ATOM      3  C   UNL     1     -27.972   2.603  33.630  1.00  0.00     0.041 C 
ATOM      4  O   UNL     1     -26.755   2.777  33.357  1.00  0.00    -0.550 OA
ATOM      5  O   UNL     1     -28.467   1.314  33.779  1.00  0.00    -0.550 OA
ENDBRANCH   2   3
ENDBRANCH   1   2
BRANCH   1   6
ATOM      6  C   UNL     1     -31.169   3.348  32.728  1.00  0.00     0.000 C 
BRANCH   6   7
ATOM      7  C   UNL     1     -32.291   2.297  32.726  1.00  0.00    -0.003 C 
ATOM      8  C   UNL     1     -32.009   1.130  33.672  1.00  0.00     0.004 C 
ENDBRANCH   6   7
ENDBRANCH   1   6
TORSDOF 4
ENDMDL
MODEL 2
REMARK VINA RESULT:    -4.074      2.531      4.054
REMARK INTER + INTRA:          -5.203
REMARK INTER:                  -5.033
REMARK INTRA:                  -0.171
REMARK UNBOUND:                -0.177
REMARK SMILES CCCCCC(=O)[O-]
REMARK SMILES IDX 4 1 5 2 6 3 7 4 8 5 3 6 2 7 1 8
REMARK H PARENT
REMARK Flexibility Score: inf
ROOT
ATOM      1  C   UNL     1     -29.783   3.113  34.010  1.00  0.00     0.006 C 
ENDROOT
BRANCH   1   2
ATOM      2  C   UNL     1     -31.309   3.135  34.125  1.00  0.00     0.053 C 
BRANCH   2   3
ATOM      3  C   UNL     1     -31.938   2.625  32.866  1.00  0.00     0.041 C 
ATOM      4  O   UNL     1     -32.751   1.664  32.908  1.00  0.00    -0.550 OA
ATOM      5  O   UNL     1     -31.587   3.176  31.641  1.00  0.00    -0.550 OA
ENDBRANCH   2   3
ENDBRANCH   1   2
BRANCH   1   6
ATOM      6  C   UNL     1     -29.257   1.670  33.974  1.00  0.00     0.000 C 
BRANCH   6   7
ATOM      7  C   UNL     1     -28.080   1.495  33.001  1.00  0.00    -0.003 C 
ATOM      8  C   UNL     1     -27.113   2.678  33.023  1.00  0.00     0.004 C 
ENDBRANCH   6   7
ENDBRANCH   1   6
TORSDOF 4
ENDMDL
MODEL 3
REMARK VINA RESULT:    -3.982     10.353     10.696
REMARK INTER + INTRA:          -5.090
REMARK INTER:                  -4.824
REMARK INTRA:                  -0.266
REMARK UNBOUND:                -0.177
REMARK SMILES CCCCCC(=O)[O-]
REMARK SMILES IDX 4 1 5 2 6 3 7 4 8 5 3 6 2 7 1 8
REMARK H PARENT
REMARK Flexibility Score: inf
ROOT
ATOM      1  C   UNL     1     -28.250  -2.243  24.120  1.00  0.00     0.006 C 
ENDROOT
BRANCH   1   2
ATOM      2  C   UNL     1     -27.060  -1.308  24.352  1.00  0.00     0.053 C 
BRANCH   2   3
ATOM      3  C   UNL     1     -27.471   0.119  24.173  1.00  0.00     0.041 C 
ATOM      4  O   UNL     1     -28.479   0.570  24.779  1.00  0.00    -0.550 OA
ATOM      5  O   UNL     1     -26.771   0.939  23.297  1.00  0.00    -0.550 OA
ENDBRANCH   2   3
ENDBRANCH   1   2
BRANCH   1   6
ATOM      6  C   UNL     1     -28.678  -2.229  22.645  1.00  0.00     0.000 C 
BRANCH   6   7
ATOM      7  C   UNL     1     -30.164  -1.879  22.466  1.00  0.00    -0.003 C 
ATOM      8  C   UNL     1     -30.952  -1.956  23.773  1.00  0.00     0.004 C 
ENDBRANCH   6   7
ENDBRANCH   1   6
TORSDOF 4
ENDMDL
MODEL 4
REMARK VINA RESULT:    -3.977     10.178     10.545
REMARK INTER + INTRA:          -5.084
REMARK INTER:                  -4.820
REMARK INTRA:                  -0.264
REMARK UNBOUND:                -0.177
REMARK SMILES CCCCCC(=O)[O-]
REMARK SMILES IDX 4 1 5 2 6 3 7 4 8 5 3 6 2 7 1 8
REMARK H PARENT
REMARK Flexibility Score: inf
ROOT
ATOM      1  C   UNL     1     -27.087   0.316  23.617  1.00  0.00     0.006 C 
ENDROOT
BRANCH   1   2
ATOM      2  C   UNL     1     -26.829  -1.144  24.000  1.00  0.00     0.053 C 
BRANCH   2   3
ATOM      3  C   UNL     1     -28.068  -1.764  24.567  1.00  0.00     0.041 C 
ATOM      4  O   UNL     1     -28.589  -1.296  25.614  1.00  0.00    -0.550 OA
ATOM      5  O   UNL     1     -28.618  -2.890  23.968  1.00  0.00    -0.550 OA
ENDBRANCH   2   3
ENDBRANCH   1   2
BRANCH   1   6
ATOM      6  C   UNL     1     -28.151   0.413  22.514  1.00  0.00     0.000 C 
BRANCH   6   7
ATOM      7  C   UNL     1     -29.358   1.267  22.933  1.00  0.00    -0.003 C 
ATOM      8  C   UNL     1     -30.655   0.463  23.007  1.00  0.00     0.004 C 
ENDBRANCH   6   7
ENDBRANCH   1   6
TORSDOF 4
ENDMDL
MODEL 5
REMARK VINA RESULT:    -3.929     10.113     10.617
REMARK INTER + INTRA:          -5.025
REMARK INTER:                  -4.766
REMARK INTRA:                  -0.258
REMARK UNBOUND:                -0.177
REMARK SMILES CCCCCC(=O)[O-]
REMARK SMILES IDX 4 1 5 2 6 3 7 4 8 5 3 6 2 7 1 8
REMARK H PARENT
REMARK Flexibility Score: inf
ROOT
ATOM      1  C   UNL     1     -30.168  -2.174  23.696  1.00  0.00     0.006 C 
ENDROOT
BRANCH   1   2
ATOM      2  C   UNL     1     -28.677  -2.513  23.635  1.00  0.00     0.053 C 
BRANCH   2   3
ATOM      3  C   UNL     1     -27.905  -1.657  24.590  1.00  0.00     0.041 C 
ATOM      4  O   UNL     1     -28.493  -1.078  25.540  1.00  0.00    -0.550 OA
ATOM      5  O   UNL     1     -26.543  -1.459  24.400  1.00  0.00    -0.550 OA
ENDBRANCH   2   3
ENDBRANCH   1   2
BRANCH   1   6
ATOM      6  C   UNL     1     -30.559  -1.214  22.562  1.00  0.00     0.000 C 
BRANCH   6   7
ATOM      7  C   UNL     1     -30.889   0.198  23.073  1.00  0.00    -0.003 C 
ATOM      8  C   UNL     1     -29.729   1.177  22.897  1.00  0.00     0.004 C 
ENDBRANCH   6   7
ENDBRANCH   1   6
TORSDOF 4
ENDMDL
MODEL 6
REMARK VINA RESULT:    -3.903     10.808     11.491
REMARK INTER + INTRA:          -4.992
REMARK INTER:                  -4.737
REMARK INTRA:                  -0.255
REMARK UNBOUND:                -0.177
REMARK SMILES CCCCCC(=O)[O-]
REMARK SMILES IDX 4 1 5 2 6 3 7 4 8 5 3 6 2 7 1 8
REMARK H PARENT
REMARK Flexibility Score: inf
ROOT
ATOM      1  C   UNL     1     -29.549   0.847  22.625  1.00  0.00     0.006 C 
ENDROOT
BRANCH   1   2
ATOM      2  C   UNL     1     -30.800   0.015  22.920  1.00  0.00     0.053 C 
BRANCH   2   3
ATOM      3  C   UNL     1     -30.513  -1.443  22.750  1.00  0.00     0.041 C 
ATOM      4  O   UNL     1     -30.897  -2.270  23.619  1.00  0.00    -0.550 OA
ATOM      5  O   UNL     1     -29.776  -1.884  21.658  1.00  0.00    -0.550 OA
ENDBRANCH   2   3
ENDBRANCH   1   2
BRANCH   1   6
ATOM      6  C   UNL     1     -28.518   0.706  23.755  1.00  0.00     0.000 C 
BRANCH   6   7
ATOM      7  C   UNL     1     -27.129   0.301  23.238  1.00  0.00    -0.003 C 
ATOM      8  C   UNL     1     -26.709  -1.094  23.699  1.00  0.00     0.004 C 
ENDBRANCH   6   7
ENDBRANCH   1   6
TORSDOF 4
ENDMDL
MODEL 7
REMARK VINA RESULT:    -3.897     10.722     11.416
REMARK INTER + INTRA:          -4.985
REMARK INTER:                  -4.740
REMARK INTRA:                  -0.244
REMARK UNBOUND:                -0.177
REMARK SMILES CCCCCC(=O)[O-]
REMARK SMILES IDX 4 1 5 2 6 3 7 4 8 5 3 6 2 7 1 8
REMARK H PARENT
REMARK Flexibility Score: inf
ROOT
ATOM      1  C   UNL     1     -28.948  -2.240  23.287  1.00  0.00     0.006 C 
ENDROOT
BRANCH   1   2
ATOM      2  C   UNL     1     -30.368  -1.792  22.929  1.00  0.00     0.053 C 
BRANCH   2   3
ATOM      3  C   UNL     1     -30.398  -0.325  22.635  1.00  0.00     0.041 C 
ATOM      4  O   UNL     1     -31.382   0.373  22.994  1.00  0.00    -0.550 OA
ATOM      5  O   UNL     1     -29.361   0.262  21.921  1.00  0.00    -0.550 OA
ENDBRANCH   2   3
ENDBRANCH   1   2
BRANCH   1   6
ATOM      6  C   UNL     1     -28.592  -1.836  24.725  1.00  0.00     0.000 C 
BRANCH   6   7
ATOM      7  C   UNL     1     -27.362  -0.917  24.793  1.00  0.00    -0.003 C 
ATOM      8  C   UNL     1     -26.367  -1.176  23.662  1.00  0.00     0.004 C 
ENDBRANCH   6   7
ENDBRANCH   1   6
TORSDOF 4
ENDMDL
MODEL 8
REMARK VINA RESULT:    -3.892      2.519      3.945
REMARK INTER + INTRA:          -4.978
REMARK INTER:                  -4.740
REMARK INTRA:                  -0.238
REMARK UNBOUND:                -0.177
REMARK SMILES CCCCCC(=O)[O-]
REMARK SMILES IDX 4 1 5 2 6 3 7 4 8 5 3 6 2 7 1 8
REMARK H PARENT
REMARK Flexibility Score: inf
ROOT
ATOM      1  C   UNL     1     -30.435   1.850  31.176  1.00  0.00     0.006 C 
ENDROOT
BRANCH   1   2
ATOM      2  C   UNL     1     -31.146   3.048  31.810  1.00  0.00     0.053 C 
BRANCH   2   3
ATOM      3  C   UNL     1     -31.950   2.615  32.995  1.00  0.00     0.041 C 
ATOM      4  O   UNL     1     -31.754   3.143  34.122  1.00  0.00    -0.550 OA
ATOM      5  O   UNL     1     -32.881   1.592  32.867  1.00  0.00    -0.550 OA
ENDBRANCH   2   3
ENDBRANCH   1   2
BRANCH   1   6
ATOM      6  C   UNL     1     -29.256   1.388  32.046  1.00  0.00     0.000 C 
BRANCH   6   7
ATOM      7  C   UNL     1     -28.322   2.546  32.436  1.00  0.00    -0.003 C 
ATOM      8  C   UNL     1     -27.895   2.493  33.902  1.00  0.00     0.004 C 
ENDBRANCH   6   7
ENDBRANCH   1   6
TORSDOF 4
ENDMDL
MODEL 9
REMARK VINA RESULT:    -3.883     10.447     11.004
REMARK INTER + INTRA:          -4.968
REMARK INTER:                  -4.751
REMARK INTRA:                  -0.217
REMARK UNBOUND:                -0.177
REMARK SMILES CCCCCC(=O)[O-]
REMARK SMILES IDX 4 1 5 2 6 3 7 4 8 5 3 6 2 7 1 8
REMARK H PARENT
REMARK Flexibility Score: inf
ROOT
ATOM      1  C   UNL     1     -28.360   0.127  22.471  1.00  0.00     0.006 C 
ENDROOT
BRANCH   1   2
ATOM      2  C   UNL     1     -29.440   1.162  22.796  1.00  0.00     0.053 C 
BRANCH   2   3
ATOM      3  C   UNL     1     -30.642   0.497  23.390  1.00  0.00     0.041 C 
ATOM      4  O   UNL     1     -31.653   0.261  22.677  1.00  0.00    -0.550 OA
ATOM      5  O   UNL     1     -30.665   0.183  24.743  1.00  0.00    -0.550 OA
ENDBRANCH   2   3
ENDBRANCH   1   2
BRANCH   1   6
ATOM      6  C   UNL     1     -27.160   0.271  23.418  1.00  0.00     0.000 C 
BRANCH   6   7
ATOM      7  C   UNL     1     -26.791  -1.052  24.108  1.00  0.00    -0.003 C 
ATOM      8  C   UNL     1     -27.941  -2.059  24.110  1.00  0.00     0.004 C 
ENDBRANCH   6   7
ENDBRANCH   1   6
TORSDOF 4
ENDMDL
