MODEL 1
REMARK VINA RESULT:    -3.369      0.000      0.000
REMARK INTER + INTRA:          -4.766
REMARK INTER:                  -4.354
REMARK INTRA:                  -0.412
REMARK UNBOUND:                -0.412
REMARK SMILES CCO[C@@H]1O[C@@H](CO)[C@@H](O)[C@H](O)[C@H]1O
REMARK SMILES IDX 4 1 13 2 11 3 9 4 6 5 5 6 3 7 2 8 1 9 14 10 12 12 7 14 8 15
REMARK SMILES IDX 10 17
REMARK H PARENT 14 11 12 13 8 16 10 18
REMARK Flexibility Score: inf
ROOT
ATOM      1  C   UNL     1       7.651   6.529   1.933  1.00  0.00     0.281 C 
ATOM      2  C   UNL     1       8.954   6.048   2.644  1.00  0.00     0.202 C 
ATOM      3  C   UNL     1       9.433   4.715   2.034  1.00  0.00     0.179 C 
ATOM      4  C   UNL     1       8.319   3.638   2.086  1.00  0.00     0.177 C 
ATOM      5  C   UNL     1       6.916   4.305   2.068  1.00  0.00     0.178 C 
ATOM      6  O   UNL     1       6.954   5.476   1.273  1.00  0.00    -0.341 OA
ENDROOT
BRANCH   1   7
ATOM      7  O   UNL     1       6.774   7.141   2.866  1.00  0.00    -0.350 OA
BRANCH   7   8
ATOM      8  C   UNL     1       6.744   8.542   2.689  1.00  0.00     0.160 C 
ATOM      9  C   UNL     1       6.910   8.860   1.211  1.00  0.00     0.035 C 
ENDBRANCH   7   8
ENDBRANCH   1   7
BRANCH   2  10
ATOM     10  O   UNL     1       9.954   7.026   2.508  1.00  0.00    -0.385 OA
ATOM     11  H   UNL     1       9.933   7.331   1.563  1.00  0.00     0.211 HD
ENDBRANCH   2  10
BRANCH   3  12
ATOM     12  O   UNL     1      10.602   4.255   2.665  1.00  0.00    -0.387 OA
ATOM     13  H   UNL     1      11.190   5.041   2.819  1.00  0.00     0.211 HD
ENDBRANCH   3  12
BRANCH   5  14
ATOM     14  C   UNL     1       5.814   3.377   1.542  1.00  0.00     0.191 C 
BRANCH  14  15
ATOM     15  O   UNL     1       5.676   3.530   0.155  1.00  0.00    -0.394 OA
ATOM     16  H   UNL     1       6.235   4.312  -0.092  1.00  0.00     0.210 HD
ENDBRANCH  14  15
ENDBRANCH   5  14
BRANCH   4  17
ATOM     17  O   UNL     1       8.470   2.764   0.995  1.00  0.00    -0.387 OA
ATOM     18  H   UNL     1       9.397   2.883   0.660  1.00  0.00     0.211 HD
ENDBRANCH   4  17
TORSDOF 7
ENDMDL
MODEL 2
REMARK VINA RESULT:    -3.306      1.471      4.092
REMARK INTER + INTRA:          -4.684
REMARK INTER:                  -4.316
REMARK INTRA:                  -0.369
REMARK UNBOUND:                -0.412
REMARK SMILES CCO[C@@H]1O[C@@H](CO)[C@@H](O)[C@H](O)[C@H]1O
REMARK SMILES IDX 4 1 13 2 11 3 9 4 6 5 5 6 3 7 2 8 1 9 14 10 12 12 7 14 8 15
REMARK SMILES IDX 10 17
REMARK H PARENT 14 11 12 13 8 16 10 18
REMARK Flexibility Score: inf
ROOT
ATOM      1  C   UNL     1       6.668   3.839   2.127  1.00  0.00     0.281 C 
ATOM      2  C   UNL     1       7.843   4.043   1.120  1.00  0.00     0.202 C 
ATOM      3  C   UNL     1       8.808   5.128   1.640  1.00  0.00     0.179 C 
ATOM      4  C   UNL     1       8.061   6.456   1.929  1.00  0.00     0.177 C 
ATOM      5  C   UNL     1       6.575   6.177   2.286  1.00  0.00     0.178 C 
ATOM      6  O   UNL     1       6.474   4.954   2.991  1.00  0.00    -0.341 OA
ENDROOT
BRANCH   1   7
ATOM      7  O   UNL     1       5.458   3.585   1.431  1.00  0.00    -0.350 OA
BRANCH   7   8
ATOM      8  C   UNL     1       4.641   2.684   2.149  1.00  0.00     0.160 C 
ATOM      9  C   UNL     1       3.192   3.133   2.041  1.00  0.00     0.035 C 
ENDBRANCH   7   8
ENDBRANCH   1   7
BRANCH   2  10
ATOM     10  O   UNL     1       8.531   2.830   0.947  1.00  0.00    -0.385 OA
ATOM     11  H   UNL     1       8.989   2.633   1.805  1.00  0.00     0.211 HD
ENDBRANCH   2  10
BRANCH   3  12
ATOM     12  O   UNL     1       9.872   5.338   0.745  1.00  0.00    -0.387 OA
ATOM     13  H   UNL     1      10.680   4.908   1.133  1.00  0.00     0.211 HD
ENDBRANCH   3  12
BRANCH   5  14
ATOM     14  C   UNL     1       5.937   7.294   3.123  1.00  0.00     0.191 C 
BRANCH  14  15
ATOM     15  O   UNL     1       6.297   8.547   2.610  1.00  0.00    -0.394 OA
ATOM     16  H   UNL     1       5.527   9.148   2.787  1.00  0.00     0.210 HD
ENDBRANCH  14  15
ENDBRANCH   5  14
BRANCH   4  17
ATOM     17  O   UNL     1       8.709   7.131   2.979  1.00  0.00    -0.387 OA
ATOM     18  H   UNL     1       9.243   7.858   2.564  1.00  0.00     0.211 HD
ENDBRANCH   4  17
TORSDOF 7
ENDMDL
MODEL 3
REMARK VINA RESULT:    -3.028      3.103      5.008
REMARK INTER + INTRA:          -4.326
REMARK INTER:                  -3.901
REMARK INTRA:                  -0.424
REMARK UNBOUND:                -0.412
REMARK SMILES CCO[C@@H]1O[C@@H](CO)[C@@H](O)[C@H](O)[C@H]1O
REMARK SMILES IDX 4 1 13 2 11 3 9 4 6 5 5 6 3 7 2 8 1 9 14 10 12 12 7 14 8 15
REMARK SMILES IDX 10 17
REMARK H PARENT 14 11 12 13 8 16 10 18
REMARK Flexibility Score: inf
ROOT
ATOM      1  C   UNL     1      12.290   6.839   1.538  1.00  0.00     0.281 C 
ATOM      2  C   UNL     1      11.959   5.546   2.345  1.00  0.00     0.202 C 
ATOM      3  C   UNL     1      10.541   5.048   1.996  1.00  0.00     0.179 C 
ATOM      4  C   UNL     1       9.482   6.157   2.227  1.00  0.00     0.177 C 
ATOM      5  C   UNL     1      10.122   7.563   2.066  1.00  0.00     0.178 C 
ATOM      6  O   UNL     1      11.128   7.518   1.071  1.00  0.00    -0.341 OA
ENDROOT
BRANCH   1   7
ATOM      7  O   UNL     1      13.054   7.735   2.330  1.00  0.00    -0.350 OA
BRANCH   7   8
ATOM      8  C   UNL     1      14.158   8.237   1.605  1.00  0.00     0.160 C 
ATOM      9  C   UNL     1      15.248   7.177   1.562  1.00  0.00     0.035 C 
ENDBRANCH   7   8
ENDBRANCH   1   7
BRANCH   2  10
ATOM     10  O   UNL     1      12.904   4.549   2.048  1.00  0.00    -0.385 OA
ATOM     11  H   UNL     1      13.105   4.622   1.078  1.00  0.00     0.211 HD
ENDBRANCH   2  10
BRANCH   3  12
ATOM     12  O   UNL     1      10.214   3.887   2.718  1.00  0.00    -0.387 OA
ATOM     13  H   UNL     1      11.009   3.290   2.704  1.00  0.00     0.211 HD
ENDBRANCH   3  12
BRANCH   5  14
ATOM     14  C   UNL     1       9.103   8.651   1.701  1.00  0.00     0.191 C 
BRANCH  14  15
ATOM     15  O   UNL     1       8.788   8.578   0.338  1.00  0.00    -0.394 OA
ATOM     16  H   UNL     1       7.972   8.016   0.274  1.00  0.00     0.210 HD
ENDBRANCH  14  15
ENDBRANCH   5  14
BRANCH   4  17
ATOM     17  O   UNL     1       8.424   5.982   1.316  1.00  0.00    -0.387 OA
ATOM     18  H   UNL     1       8.194   5.016   1.328  1.00  0.00     0.211 HD
ENDBRANCH   4  17
TORSDOF 7
ENDMDL
MODEL 4
REMARK VINA RESULT:    -3.024      2.602      5.121
REMARK INTER + INTRA:          -4.320
REMARK INTER:                  -3.861
REMARK INTRA:                  -0.460
REMARK UNBOUND:                -0.412
REMARK SMILES CCO[C@@H]1O[C@@H](CO)[C@@H](O)[C@H](O)[C@H]1O
REMARK SMILES IDX 4 1 13 2 11 3 9 4 6 5 5 6 3 7 2 8 1 9 14 10 12 12 7 14 8 15
REMARK SMILES IDX 10 17
REMARK H PARENT 14 11 12 13 8 16 10 18
REMARK Flexibility Score: inf
ROOT
ATOM      1  C   UNL     1       9.949   5.576   1.917  1.00  0.00     0.281 C 
ATOM      2  C   UNL     1       9.888   7.135   1.866  1.00  0.00     0.202 C 
ATOM      3  C   UNL     1      11.215   7.703   1.324  1.00  0.00     0.179 C 
ATOM      4  C   UNL     1      12.425   7.202   2.155  1.00  0.00     0.177 C 
ATOM      5  C   UNL     1      12.109   5.824   2.799  1.00  0.00     0.178 C 
ATOM      6  O   UNL     1      11.280   5.071   1.933  1.00  0.00    -0.341 OA
ENDROOT
BRANCH   1   7
ATOM      7  O   UNL     1       9.264   5.091   3.062  1.00  0.00    -0.350 OA
BRANCH   7   8
ATOM      8  C   UNL     1       8.625   3.863   2.787  1.00  0.00     0.160 C 
ATOM      9  C   UNL     1       7.921   3.959   1.442  1.00  0.00     0.035 C 
ENDBRANCH   7   8
ENDBRANCH   1   7
BRANCH   2  10
ATOM     10  O   UNL     1       8.822   7.538   1.045  1.00  0.00    -0.385 OA
ATOM     11  H   UNL     1       8.199   6.767   0.980  1.00  0.00     0.211 HD
ENDBRANCH   2  10
BRANCH   3  12
ATOM     12  O   UNL     1      11.190   9.108   1.276  1.00  0.00    -0.387 OA
ATOM     13  H   UNL     1      11.061   9.437   2.205  1.00  0.00     0.211 HD
ENDBRANCH   3  12
BRANCH   5  14
ATOM     14  C   UNL     1      13.367   5.008   3.124  1.00  0.00     0.191 C 
BRANCH  14  15
ATOM     15  O   UNL     1      13.760   4.261   2.006  1.00  0.00    -0.394 OA
ATOM     16  H   UNL     1      13.474   3.328   2.185  1.00  0.00     0.210 HD
ENDBRANCH  14  15
ENDBRANCH   5  14
BRANCH   4  17
ATOM     17  O   UNL     1      13.554   7.117   1.322  1.00  0.00    -0.387 OA
ATOM     18  H   UNL     1      13.326   6.479   0.595  1.00  0.00     0.211 HD
ENDBRANCH   4  17
TORSDOF 7
ENDMDL
MODEL 5
REMARK VINA RESULT:    -2.984      1.382      4.012
REMARK INTER + INTRA:          -4.268
REMARK INTER:                  -4.044
REMARK INTRA:                  -0.224
REMARK UNBOUND:                -0.412
REMARK SMILES CCO[C@@H]1O[C@@H](CO)[C@@H](O)[C@H](O)[C@H]1O
REMARK SMILES IDX 4 1 13 2 11 3 9 4 6 5 5 6 3 7 2 8 1 9 14 10 12 12 7 14 8 15
REMARK SMILES IDX 10 17
REMARK H PARENT 14 11 12 13 8 16 10 18
REMARK Flexibility Score: inf
ROOT
ATOM      1  C   UNL     1       7.295   4.723   2.386  1.00  0.00     0.281 C 
ATOM      2  C   UNL     1       8.649   4.578   1.625  1.00  0.00     0.202 C 
ATOM      3  C   UNL     1       9.569   5.775   1.939  1.00  0.00     0.179 C 
ATOM      4  C   UNL     1       8.870   7.122   1.617  1.00  0.00     0.177 C 
ATOM      5  C   UNL     1       7.329   6.978   1.742  1.00  0.00     0.178 C 
ATOM      6  O   UNL     1       7.015   6.064   2.776  1.00  0.00    -0.341 OA
ENDROOT
BRANCH   1   7
ATOM      7  O   UNL     1       6.223   4.248   1.586  1.00  0.00    -0.350 OA
BRANCH   7   8
ATOM      8  C   UNL     1       5.835   2.948   1.979  1.00  0.00     0.160 C 
ATOM      9  C   UNL     1       4.366   2.745   1.645  1.00  0.00     0.035 C 
ENDBRANCH   7   8
ENDBRANCH   1   7
BRANCH   2  10
ATOM     10  O   UNL     1       9.276   3.378   2.003  1.00  0.00    -0.385 OA
ATOM     11  H   UNL     1      10.066   3.625   2.551  1.00  0.00     0.211 HD
ENDBRANCH   2  10
BRANCH   3  12
ATOM     12  O   UNL     1      10.794   5.673   1.256  1.00  0.00    -0.387 OA
ATOM     13  H   UNL     1      10.601   5.730   0.283  1.00  0.00     0.211 HD
ENDBRANCH   3  12
BRANCH   5  14
ATOM     14  C   UNL     1       6.619   8.310   2.018  1.00  0.00     0.191 C 
BRANCH  14  15
ATOM     15  O   UNL     1       6.654   9.121   0.875  1.00  0.00    -0.394 OA
ATOM     16  H   UNL     1       5.886   8.838   0.314  1.00  0.00     0.210 HD
ENDBRANCH  14  15
ENDBRANCH   5  14
BRANCH   4  17
ATOM     17  O   UNL     1       9.351   8.112   2.493  1.00  0.00    -0.387 OA
ATOM     18  H   UNL     1       9.760   8.819   1.928  1.00  0.00     0.211 HD
ENDBRANCH   4  17
TORSDOF 7
ENDMDL
MODEL 6
REMARK VINA RESULT:    -2.959      1.508      3.145
REMARK INTER + INTRA:          -4.235
REMARK INTER:                  -4.051
REMARK INTRA:                  -0.184
REMARK UNBOUND:                -0.412
REMARK SMILES CCO[C@@H]1O[C@@H](CO)[C@@H](O)[C@H](O)[C@H]1O
REMARK SMILES IDX 4 1 13 2 11 3 9 4 6 5 5 6 3 7 2 8 1 9 14 10 12 12 7 14 8 15
REMARK SMILES IDX 10 17
REMARK H PARENT 14 11 12 13 8 16 10 18
REMARK Flexibility Score: inf
ROOT
ATOM      1  C   UNL     1       7.093   6.264   2.634  1.00  0.00     0.281 C 
ATOM      2  C   UNL     1       6.557   4.825   2.359  1.00  0.00     0.202 C 
ATOM      3  C   UNL     1       7.633   3.778   2.711  1.00  0.00     0.179 C 
ATOM      4  C   UNL     1       8.956   4.053   1.950  1.00  0.00     0.177 C 
ATOM      5  C   UNL     1       9.093   5.566   1.625  1.00  0.00     0.178 C 
ATOM      6  O   UNL     1       8.516   6.332   2.666  1.00  0.00    -0.341 OA
ENDROOT
BRANCH   1   7
ATOM      7  O   UNL     1       6.616   7.167   1.649  1.00  0.00    -0.350 OA
BRANCH   7   8
ATOM      8  C   UNL     1       6.994   8.494   1.952  1.00  0.00     0.160 C 
ATOM      9  C   UNL     1       7.639   9.120   0.725  1.00  0.00     0.035 C 
ENDBRANCH   7   8
ENDBRANCH   1   7
BRANCH   2  10
ATOM     10  O   UNL     1       5.400   4.599   3.125  1.00  0.00    -0.385 OA
ATOM     11  H   UNL     1       4.702   4.267   2.502  1.00  0.00     0.211 HD
ENDBRANCH   2  10
BRANCH   3  12
ATOM     12  O   UNL     1       7.177   2.472   2.463  1.00  0.00    -0.387 OA
ATOM     13  H   UNL     1       7.751   2.083   1.751  1.00  0.00     0.211 HD
ENDBRANCH   3  12
BRANCH   5  14
ATOM     14  C   UNL     1      10.547   6.010   1.422  1.00  0.00     0.191 C 
BRANCH  14  15
ATOM     15  O   UNL     1      10.875   5.980   0.060  1.00  0.00    -0.394 OA
ATOM     16  H   UNL     1      10.041   6.203  -0.429  1.00  0.00     0.210 HD
ENDBRANCH  14  15
ENDBRANCH   5  14
BRANCH   4  17
ATOM     17  O   UNL     1      10.039   3.611   2.731  1.00  0.00    -0.387 OA
ATOM     18  H   UNL     1      10.615   3.062   2.137  1.00  0.00     0.211 HD
ENDBRANCH   4  17
TORSDOF 7
ENDMDL
MODEL 7
REMARK VINA RESULT:    -2.938      1.938      4.637
REMARK INTER + INTRA:          -4.209
REMARK INTER:                  -3.766
REMARK INTRA:                  -0.443
REMARK UNBOUND:                -0.412
REMARK SMILES CCO[C@@H]1O[C@@H](CO)[C@@H](O)[C@H](O)[C@H]1O
REMARK SMILES IDX 4 1 13 2 11 3 9 4 6 5 5 6 3 7 2 8 1 9 14 10 12 12 7 14 8 15
REMARK SMILES IDX 10 17
REMARK H PARENT 14 11 12 13 8 16 10 18
REMARK Flexibility Score: inf
ROOT
ATOM      1  C   UNL     1       8.486   5.441   1.569  1.00  0.00     0.281 C 
ATOM      2  C   UNL     1       7.990   6.755   2.247  1.00  0.00     0.202 C 
ATOM      3  C   UNL     1       8.922   7.928   1.883  1.00  0.00     0.179 C 
ATOM      4  C   UNL     1      10.395   7.613   2.251  1.00  0.00     0.177 C 
ATOM      5  C   UNL     1      10.648   6.081   2.219  1.00  0.00     0.178 C 
ATOM      6  O   UNL     1       9.862   5.488   1.202  1.00  0.00    -0.341 OA
ENDROOT
BRANCH   1   7
ATOM      7  O   UNL     1       8.282   4.331   2.431  1.00  0.00    -0.350 OA
BRANCH   7   8
ATOM      8  C   UNL     1       7.822   3.208   1.710  1.00  0.00     0.160 C 
ATOM      9  C   UNL     1       6.551   3.582   0.963  1.00  0.00     0.035 C 
ENDBRANCH   7   8
ENDBRANCH   1   7
BRANCH   2  10
ATOM     10  O   UNL     1       6.678   7.035   1.828  1.00  0.00    -0.385 OA
ATOM     11  H   UNL     1       6.071   6.725   2.549  1.00  0.00     0.211 HD
ENDBRANCH   2  10
BRANCH   3  12
ATOM     12  O   UNL     1       8.501   9.125   2.490  1.00  0.00    -0.387 OA
ATOM     13  H   UNL     1       9.215   9.801   2.348  1.00  0.00     0.211 HD
ENDBRANCH   3  12
BRANCH   5  14
ATOM     14  C   UNL     1      12.121   5.717   1.992  1.00  0.00     0.191 C 
BRANCH  14  15
ATOM     15  O   UNL     1      12.370   5.551   0.623  1.00  0.00    -0.394 OA
ATOM     16  H   UNL     1      11.481   5.534   0.181  1.00  0.00     0.210 HD
ENDBRANCH  14  15
ENDBRANCH   5  14
BRANCH   4  17
ATOM     17  O   UNL     1      11.248   8.278   1.352  1.00  0.00    -0.387 OA
ATOM     18  H   UNL     1      10.723   9.024   0.958  1.00  0.00     0.211 HD
ENDBRANCH   4  17
TORSDOF 7
ENDMDL
