MODEL 1
REMARK VINA RESULT:    -5.597      0.000      0.000
REMARK INTER + INTRA:          -7.049
REMARK INTER:                  -6.743
REMARK INTRA:                  -0.307
REMARK UNBOUND:                -0.307
REMARK SMILES Oc1cc(O)c2cc(O)c(-c3ccc(O)c(O)c3)[o+]c2c1.[Cl-]
REMARK SMILES IDX 10 1 19 2 20 3 21 4 2 5 3 6 4 7 6 8 7 9 8 10 11 11 12 12
REMARK SMILES IDX 13 13 14 14 18 15 16 16 15 17 17 19 9 21 1 23 5 25
REMARK H PARENT 15 18 17 20 9 22 1 24 5 26
REMARK Flexibility Score: inf
ROOT
ATOM      1  C   UNL     1      -4.721   8.222  -5.945  1.00  0.00     0.402 A 
ATOM      2  O   UNL     1      -5.288   7.158  -6.507  1.00  0.00    -0.202 OA
ATOM      3  C   UNL     1      -6.563   6.828  -6.322  1.00  0.00     0.368 A 
ATOM      4  C   UNL     1      -7.070   5.693  -6.959  1.00  0.00     0.162 A 
ATOM      5  C   UNL     1      -8.407   5.324  -6.785  1.00  0.00     0.128 A 
ATOM      6  C   UNL     1      -9.241   6.095  -5.971  1.00  0.00     0.093 A 
ATOM      7  C   UNL     1      -8.756   7.238  -5.323  1.00  0.00     0.136 A 
ATOM      8  C   UNL     1      -7.399   7.614  -5.494  1.00  0.00     0.125 A 
ATOM      9  C   UNL     1      -6.824   8.736  -4.873  1.00  0.00     0.078 A 
ATOM     10  C   UNL     1      -5.477   9.041  -5.086  1.00  0.00     0.223 A 
ENDROOT
BRANCH   1  11
ATOM     11  C   UNL     1      -3.294   8.489  -6.236  1.00  0.00     0.087 A 
ATOM     12  C   UNL     1      -2.890   9.055  -7.458  1.00  0.00     0.022 A 
ATOM     13  C   UNL     1      -1.535   9.277  -7.720  1.00  0.00     0.051 A 
ATOM     14  C   UNL     1      -0.565   8.927  -6.776  1.00  0.00     0.157 A 
ATOM     15  C   UNL     1      -2.316   8.120  -5.299  1.00  0.00     0.068 A 
ATOM     16  C   UNL     1      -0.956   8.343  -5.559  1.00  0.00     0.158 A 
BRANCH  14  17
ATOM     17  O   UNL     1       0.779   9.163  -7.064  1.00  0.00    -0.504 OA
ATOM     18  H   UNL     1       1.141  10.096  -7.217  1.00  0.00     0.293 HD
ENDBRANCH  14  17
BRANCH  16  19
ATOM     19  O   UNL     1       0.006   7.983  -4.616  1.00  0.00    -0.504 OA
ATOM     20  H   UNL     1      -0.191   8.003  -3.623  1.00  0.00     0.293 HD
ENDBRANCH  16  19
ENDBRANCH   1  11
BRANCH  10  21
ATOM     21  O   UNL     1      -4.893  10.125  -4.430  1.00  0.00    -0.500 OA
ATOM     22  H   UNL     1      -4.025  10.031  -3.916  1.00  0.00     0.294 HD
ENDBRANCH  10  21
BRANCH   5  23
ATOM     23  O   UNL     1      -8.920   4.192  -7.416  1.00  0.00    -0.507 OA
ATOM     24  H   UNL     1      -9.393   4.253  -8.311  1.00  0.00     0.293 HD
ENDBRANCH   5  23
BRANCH   7  25
ATOM     25  O   UNL     1      -9.655   7.956  -4.529  1.00  0.00    -0.507 OA
ATOM     26  H   UNL     1     -10.055   8.848  -4.783  1.00  0.00     0.293 HD
ENDBRANCH   7  25
TORSDOF 6
ENDMDL
MODEL 2
REMARK VINA RESULT:    -5.207      0.998      2.611
REMARK INTER + INTRA:          -6.578
REMARK INTER:                  -6.252
REMARK INTRA:                  -0.326
REMARK UNBOUND:                -0.307
REMARK SMILES Oc1cc(O)c2cc(O)c(-c3ccc(O)c(O)c3)[o+]c2c1.[Cl-]
REMARK SMILES IDX 10 1 19 2 20 3 21 4 2 5 3 6 4 7 6 8 7 9 8 10 11 11 12 12
REMARK SMILES IDX 13 13 14 14 18 15 16 16 15 17 17 19 9 21 1 23 5 25
REMARK H PARENT 15 18 17 20 9 22 1 24 5 26
REMARK Flexibility Score: inf
ROOT
ATOM      1  C   UNL     1      -4.557   7.449  -6.831  1.00  0.00     0.402 A 
ATOM      2  O   UNL     1      -5.547   7.955  -6.100  1.00  0.00    -0.202 OA
ATOM      3  C   UNL     1      -6.764   7.423  -6.050  1.00  0.00     0.368 A 
ATOM      4  C   UNL     1      -7.737   8.025  -5.249  1.00  0.00     0.162 A 
ATOM      5  C   UNL     1      -9.024   7.484  -5.176  1.00  0.00     0.128 A 
ATOM      6  C   UNL     1      -9.339   6.336  -5.907  1.00  0.00     0.093 A 
ATOM      7  C   UNL     1      -8.380   5.714  -6.717  1.00  0.00     0.136 A 
ATOM      8  C   UNL     1      -7.074   6.260  -6.796  1.00  0.00     0.125 A 
ATOM      9  C   UNL     1      -6.054   5.711  -7.591  1.00  0.00     0.078 A 
ATOM     10  C   UNL     1      -4.791   6.309  -7.623  1.00  0.00     0.223 A 
ENDROOT
BRANCH   1  11
ATOM     11  C   UNL     1      -3.242   8.128  -6.795  1.00  0.00     0.087 A 
ATOM     12  C   UNL     1      -2.855   9.030  -7.802  1.00  0.00     0.022 A 
ATOM     13  C   UNL     1      -1.599   9.641  -7.759  1.00  0.00     0.051 A 
ATOM     14  C   UNL     1      -0.708   9.354  -6.721  1.00  0.00     0.157 A 
ATOM     15  C   UNL     1      -2.336   7.826  -5.765  1.00  0.00     0.068 A 
ATOM     16  C   UNL     1      -1.076   8.440  -5.719  1.00  0.00     0.158 A 
BRANCH  14  17
ATOM     17  O   UNL     1       0.538   9.981  -6.703  1.00  0.00    -0.504 OA
ATOM     18  H   UNL     1       0.761  10.714  -6.042  1.00  0.00     0.293 HD
ENDBRANCH  14  17
BRANCH  16  19
ATOM     19  O   UNL     1      -0.189   8.142  -4.685  1.00  0.00    -0.504 OA
ATOM     20  H   UNL     1      -0.217   8.637  -3.802  1.00  0.00     0.293 HD
ENDBRANCH  16  19
ENDBRANCH   1  11
BRANCH  10  21
ATOM     21  O   UNL     1      -3.793   5.794  -8.450  1.00  0.00    -0.500 OA
ATOM     22  H   UNL     1      -2.900   6.259  -8.559  1.00  0.00     0.294 HD
ENDBRANCH  10  21
BRANCH   5  23
ATOM     23  O   UNL     1     -10.001   8.080  -4.380  1.00  0.00    -0.507 OA
ATOM     24  H   UNL     1     -10.145   9.084  -4.381  1.00  0.00     0.293 HD
ENDBRANCH   5  23
BRANCH   7  25
ATOM     25  O   UNL     1      -8.774   4.567  -7.413  1.00  0.00    -0.507 OA
ATOM     26  H   UNL     1      -9.731   4.254  -7.501  1.00  0.00     0.293 HD
ENDBRANCH   7  25
TORSDOF 6
ENDMDL
MODEL 3
REMARK VINA RESULT:    -5.172      1.870      2.635
REMARK INTER + INTRA:          -6.536
REMARK INTER:                  -6.191
REMARK INTRA:                  -0.345
REMARK UNBOUND:                -0.307
REMARK SMILES Oc1cc(O)c2cc(O)c(-c3ccc(O)c(O)c3)[o+]c2c1.[Cl-]
REMARK SMILES IDX 10 1 19 2 20 3 21 4 2 5 3 6 4 7 6 8 7 9 8 10 11 11 12 12
REMARK SMILES IDX 13 13 14 14 18 15 16 16 15 17 17 19 9 21 1 23 5 25
REMARK H PARENT 15 18 17 20 9 22 1 24 5 26
REMARK Flexibility Score: inf
ROOT
ATOM      1  C   UNL     1      -5.932   7.892  -6.212  1.00  0.00     0.402 A 
ATOM      2  O   UNL     1      -6.552   6.818  -5.728  1.00  0.00    -0.202 OA
ATOM      3  C   UNL     1      -7.671   6.325  -6.249  1.00  0.00     0.368 A 
ATOM      4  C   UNL     1      -8.247   5.190  -5.672  1.00  0.00     0.162 A 
ATOM      5  C   UNL     1      -9.421   4.648  -6.202  1.00  0.00     0.128 A 
ATOM      6  C   UNL     1     -10.022   5.244  -7.313  1.00  0.00     0.093 A 
ATOM      7  C   UNL     1      -9.464   6.381  -7.910  1.00  0.00     0.136 A 
ATOM      8  C   UNL     1      -8.274   6.936  -7.374  1.00  0.00     0.125 A 
ATOM      9  C   UNL     1      -7.651   8.081  -7.899  1.00  0.00     0.078 A 
ATOM     10  C   UNL     1      -6.481   8.574  -7.314  1.00  0.00     0.223 A 
ENDROOT
BRANCH   1  11
ATOM     11  C   UNL     1      -4.686   8.338  -5.549  1.00  0.00     0.087 A 
ATOM     12  C   UNL     1      -4.715   9.213  -4.449  1.00  0.00     0.022 A 
ATOM     13  C   UNL     1      -3.524   9.639  -3.854  1.00  0.00     0.051 A 
ATOM     14  C   UNL     1      -2.290   9.212  -4.354  1.00  0.00     0.157 A 
ATOM     15  C   UNL     1      -3.444   7.927  -6.062  1.00  0.00     0.068 A 
ATOM     16  C   UNL     1      -2.248   8.354  -5.466  1.00  0.00     0.158 A 
BRANCH  14  17
ATOM     17  O   UNL     1      -1.119   9.652  -3.738  1.00  0.00    -0.504 OA
ATOM     18  H   UNL     1      -0.567   9.051  -3.140  1.00  0.00     0.293 HD
ENDBRANCH  14  17
BRANCH  16  19
ATOM     19  O   UNL     1      -1.022   7.930  -5.975  1.00  0.00    -0.504 OA
ATOM     20  H   UNL     1      -0.961   7.371  -6.818  1.00  0.00     0.293 HD
ENDBRANCH  16  19
ENDBRANCH   1  11
BRANCH  10  21
ATOM     21  O   UNL     1      -5.891   9.739  -7.803  1.00  0.00    -0.500 OA
ATOM     22  H   UNL     1      -6.290  10.653  -7.624  1.00  0.00     0.294 HD
ENDBRANCH  10  21
BRANCH   5  23
ATOM     23  O   UNL     1     -10.002   3.517  -5.631  1.00  0.00    -0.507 OA
ATOM     24  H   UNL     1      -9.690   2.583  -5.872  1.00  0.00     0.293 HD
ENDBRANCH   5  23
BRANCH   7  25
ATOM     25  O   UNL     1     -10.125   6.914  -9.020  1.00  0.00    -0.507 OA
ATOM     26  H   UNL     1     -10.937   7.514  -8.968  1.00  0.00     0.293 HD
ENDBRANCH   7  25
TORSDOF 6
ENDMDL
MODEL 4
REMARK VINA RESULT:    -5.000      1.683      6.630
REMARK INTER + INTRA:          -6.330
REMARK INTER:                  -5.983
REMARK INTRA:                  -0.347
REMARK UNBOUND:                -0.307
REMARK SMILES Oc1cc(O)c2cc(O)c(-c3ccc(O)c(O)c3)[o+]c2c1.[Cl-]
REMARK SMILES IDX 10 1 19 2 20 3 21 4 2 5 3 6 4 7 6 8 7 9 8 10 11 11 12 12
REMARK SMILES IDX 13 13 14 14 18 15 16 16 15 17 17 19 9 21 1 23 5 25
REMARK H PARENT 15 18 17 20 9 22 1 24 5 26
REMARK Flexibility Score: inf
ROOT
ATOM      1  C   UNL     1      -6.159   7.521  -6.549  1.00  0.00     0.402 A 
ATOM      2  O   UNL     1      -4.881   7.465  -6.916  1.00  0.00    -0.202 OA
ATOM      3  C   UNL     1      -3.886   7.924  -6.163  1.00  0.00     0.368 A 
ATOM      4  C   UNL     1      -2.574   7.817  -6.633  1.00  0.00     0.162 A 
ATOM      5  C   UNL     1      -1.508   8.288  -5.860  1.00  0.00     0.128 A 
ATOM      6  C   UNL     1      -1.755   8.868  -4.614  1.00  0.00     0.093 A 
ATOM      7  C   UNL     1      -3.061   8.985  -4.121  1.00  0.00     0.136 A 
ATOM      8  C   UNL     1      -4.146   8.511  -4.902  1.00  0.00     0.125 A 
ATOM      9  C   UNL     1      -5.488   8.600  -4.494  1.00  0.00     0.078 A 
ATOM     10  C   UNL     1      -6.505   8.115  -5.321  1.00  0.00     0.223 A 
ENDROOT
BRANCH   1  11
ATOM     11  C   UNL     1      -7.176   6.967  -7.472  1.00  0.00     0.087 A 
ATOM     12  C   UNL     1      -7.751   7.753  -8.486  1.00  0.00     0.022 A 
ATOM     13  C   UNL     1      -8.726   7.214  -9.329  1.00  0.00     0.051 A 
ATOM     14  C   UNL     1      -9.152   5.893  -9.167  1.00  0.00     0.157 A 
ATOM     15  C   UNL     1      -7.621   5.646  -7.298  1.00  0.00     0.068 A 
ATOM     16  C   UNL     1      -8.599   5.104  -8.144  1.00  0.00     0.158 A 
BRANCH  14  17
ATOM     17  O   UNL     1     -10.125   5.382 -10.025  1.00  0.00    -0.504 OA
ATOM     18  H   UNL     1     -10.640   5.973 -10.667  1.00  0.00     0.293 HD
ENDBRANCH  14  17
BRANCH  16  19
ATOM     19  O   UNL     1      -9.024   3.787  -7.970  1.00  0.00    -0.504 OA
ATOM     20  H   UNL     1      -9.363   3.232  -8.747  1.00  0.00     0.293 HD
ENDBRANCH  16  19
ENDBRANCH   1  11
BRANCH  10  21
ATOM     21  O   UNL     1      -7.840   8.248  -4.939  1.00  0.00    -0.500 OA
ATOM     22  H   UNL     1      -8.102   8.683  -4.063  1.00  0.00     0.294 HD
ENDBRANCH  10  21
BRANCH   5  23
ATOM     23  O   UNL     1      -0.197   8.186  -6.323  1.00  0.00    -0.507 OA
ATOM     24  H   UNL     1       0.007   7.926  -7.281  1.00  0.00     0.293 HD
ENDBRANCH   5  23
BRANCH   7  25
ATOM     25  O   UNL     1      -3.222   9.574  -2.864  1.00  0.00    -0.507 OA
ATOM     26  H   UNL     1      -2.463   9.929  -2.298  1.00  0.00     0.293 HD
ENDBRANCH   7  25
TORSDOF 6
ENDMDL
MODEL 5
REMARK VINA RESULT:    -4.940      2.241      3.915
REMARK INTER + INTRA:          -6.257
REMARK INTER:                  -5.946
REMARK INTRA:                  -0.311
REMARK UNBOUND:                -0.307
REMARK SMILES Oc1cc(O)c2cc(O)c(-c3ccc(O)c(O)c3)[o+]c2c1.[Cl-]
REMARK SMILES IDX 10 1 19 2 20 3 21 4 2 5 3 6 4 7 6 8 7 9 8 10 11 11 12 12
REMARK SMILES IDX 13 13 14 14 18 15 16 16 15 17 17 19 9 21 1 23 5 25
REMARK H PARENT 15 18 17 20 9 22 1 24 5 26
REMARK Flexibility Score: inf
ROOT
ATOM      1  C   UNL     1      -1.168   8.964  -6.460  1.00  0.00     0.402 A 
ATOM      2  O   UNL     1      -2.254   8.417  -7.000  1.00  0.00    -0.202 OA
ATOM      3  C   UNL     1      -3.453   8.459  -6.427  1.00  0.00     0.368 A 
ATOM      4  C   UNL     1      -4.537   7.858  -7.073  1.00  0.00     0.162 A 
ATOM      5  C   UNL     1      -5.809   7.889  -6.494  1.00  0.00     0.128 A 
ATOM      6  C   UNL     1      -5.998   8.524  -5.265  1.00  0.00     0.093 A 
ATOM      7  C   UNL     1      -4.928   9.134  -4.598  1.00  0.00     0.136 A 
ATOM      8  C   UNL     1      -3.635   9.103  -5.179  1.00  0.00     0.125 A 
ATOM      9  C   UNL     1      -2.503   9.676  -4.576  1.00  0.00     0.078 A 
ATOM     10  C   UNL     1      -1.258   9.601  -5.208  1.00  0.00     0.223 A 
ENDROOT
BRANCH   1  11
ATOM     11  C   UNL     1       0.109   8.860  -7.202  1.00  0.00     0.087 A 
ATOM     12  C   UNL     1       0.387   9.690  -8.302  1.00  0.00     0.022 A 
ATOM     13  C   UNL     1       1.590   9.557  -9.001  1.00  0.00     0.051 A 
ATOM     14  C   UNL     1       2.525   8.589  -8.623  1.00  0.00     0.157 A 
ATOM     15  C   UNL     1       1.042   7.875  -6.838  1.00  0.00     0.068 A 
ATOM     16  C   UNL     1       2.250   7.741  -7.537  1.00  0.00     0.158 A 
BRANCH  14  17
ATOM     17  O   UNL     1       3.718   8.482  -9.338  1.00  0.00    -0.504 OA
ATOM     18  H   UNL     1       3.753   8.588 -10.344  1.00  0.00     0.293 HD
ENDBRANCH  14  17
BRANCH  16  19
ATOM     19  O   UNL     1       3.175   6.768  -7.159  1.00  0.00    -0.504 OA
ATOM     20  H   UNL     1       3.455   6.028  -7.791  1.00  0.00     0.293 HD
ENDBRANCH  16  19
ENDBRANCH   1  11
BRANCH  10  21
ATOM     21  O   UNL     1      -0.125  10.125  -4.587  1.00  0.00    -0.500 OA
ATOM     22  H   UNL     1       0.475  10.795  -5.052  1.00  0.00     0.294 HD
ENDBRANCH  10  21
BRANCH   5  23
ATOM     23  O   UNL     1      -6.894   7.291  -7.133  1.00  0.00    -0.507 OA
ATOM     24  H   UNL     1      -7.191   7.583  -8.057  1.00  0.00     0.293 HD
ENDBRANCH   5  23
BRANCH   7  25
ATOM     25  O   UNL     1      -5.202   9.751  -3.373  1.00  0.00    -0.507 OA
ATOM     26  H   UNL     1      -4.536   9.842  -2.619  1.00  0.00     0.293 HD
ENDBRANCH   7  25
TORSDOF 6
ENDMDL
MODEL 6
REMARK VINA RESULT:    -4.875      3.703      6.034
REMARK INTER + INTRA:          -6.179
REMARK INTER:                  -6.255
REMARK INTRA:                   0.076
REMARK UNBOUND:                -0.307
REMARK SMILES Oc1cc(O)c2cc(O)c(-c3ccc(O)c(O)c3)[o+]c2c1.[Cl-]
REMARK SMILES IDX 10 1 19 2 20 3 21 4 2 5 3 6 4 7 6 8 7 9 8 10 11 11 12 12
REMARK SMILES IDX 13 13 14 14 18 15 16 16 15 17 17 19 9 21 1 23 5 25
REMARK H PARENT 15 18 17 20 9 22 1 24 5 26
REMARK Flexibility Score: inf
ROOT
ATOM      1  C   UNL     1       0.111   9.080  -7.953  1.00  0.00     0.402 A 
ATOM      2  O   UNL     1      -0.057   8.911  -6.644  1.00  0.00    -0.202 OA
ATOM      3  C   UNL     1      -1.238   9.010  -6.041  1.00  0.00     0.368 A 
ATOM      4  C   UNL     1      -1.314   8.813  -4.660  1.00  0.00     0.162 A 
ATOM      5  C   UNL     1      -2.543   8.908  -4.001  1.00  0.00     0.128 A 
ATOM      6  C   UNL     1      -3.701   9.202  -4.726  1.00  0.00     0.093 A 
ATOM      7  C   UNL     1      -3.650   9.403  -6.111  1.00  0.00     0.136 A 
ATOM      8  C   UNL     1      -2.405   9.310  -6.784  1.00  0.00     0.125 A 
ATOM      9  C   UNL     1      -2.257   9.510  -8.167  1.00  0.00     0.078 A 
ATOM     10  C   UNL     1      -0.996   9.406  -8.759  1.00  0.00     0.223 A 
ENDROOT
BRANCH   1  11
ATOM     11  C   UNL     1       1.476   8.933  -8.508  1.00  0.00     0.087 A 
ATOM     12  C   UNL     1       1.977   9.832  -9.466  1.00  0.00     0.022 A 
ATOM     13  C   UNL     1       3.260   9.660  -9.992  1.00  0.00     0.051 A 
ATOM     14  C   UNL     1       4.054   8.585  -9.584  1.00  0.00     0.157 A 
ATOM     15  C   UNL     1       2.269   7.843  -8.114  1.00  0.00     0.068 A 
ATOM     16  C   UNL     1       3.557   7.669  -8.642  1.00  0.00     0.158 A 
BRANCH  14  17
ATOM     17  O   UNL     1       5.332   8.440 -10.125  1.00  0.00    -0.504 OA
ATOM     18  H   UNL     1       6.069   7.945  -9.640  1.00  0.00     0.293 HD
ENDBRANCH  14  17
BRANCH  16  19
ATOM     19  O   UNL     1       4.340   6.590  -8.235  1.00  0.00    -0.504 OA
ATOM     20  H   UNL     1       4.871   6.039  -8.899  1.00  0.00     0.293 HD
ENDBRANCH  16  19
ENDBRANCH   1  11
BRANCH  10  21
ATOM     21  O   UNL     1      -0.841   9.654 -10.123  1.00  0.00    -0.500 OA
ATOM     22  H   UNL     1      -1.148  10.522 -10.545  1.00  0.00     0.294 HD
ENDBRANCH  10  21
BRANCH   5  23
ATOM     23  O   UNL     1      -2.627   8.713  -2.623  1.00  0.00    -0.507 OA
ATOM     24  H   UNL     1      -3.231   8.003  -2.224  1.00  0.00     0.293 HD
ENDBRANCH   5  23
BRANCH   7  25
ATOM     25  O   UNL     1      -4.853   9.689  -6.763  1.00  0.00    -0.507 OA
ATOM     26  H   UNL     1      -5.760   9.678  -6.317  1.00  0.00     0.293 HD
ENDBRANCH   7  25
TORSDOF 6
ENDMDL
MODEL 7
REMARK VINA RESULT:    -4.592      1.312      7.116
REMARK INTER + INTRA:          -5.838
REMARK INTER:                  -5.489
REMARK INTRA:                  -0.350
REMARK UNBOUND:                -0.307
REMARK SMILES Oc1cc(O)c2cc(O)c(-c3ccc(O)c(O)c3)[o+]c2c1.[Cl-]
REMARK SMILES IDX 10 1 19 2 20 3 21 4 2 5 3 6 4 7 6 8 7 9 8 10 11 11 12 12
REMARK SMILES IDX 13 13 14 14 18 15 16 16 15 17 17 19 9 21 1 23 5 25
REMARK H PARENT 15 18 17 20 9 22 1 24 5 26
REMARK Flexibility Score: inf
ROOT
ATOM      1  C   UNL     1      -4.919   8.146  -6.971  1.00  0.00     0.402 A 
ATOM      2  O   UNL     1      -3.926   7.864  -6.132  1.00  0.00    -0.202 OA
ATOM      3  C   UNL     1      -2.668   8.245  -6.334  1.00  0.00     0.368 A 
ATOM      4  C   UNL     1      -1.694   7.904  -5.393  1.00  0.00     0.162 A 
ATOM      5  C   UNL     1      -0.365   8.295  -5.579  1.00  0.00     0.128 A 
ATOM      6  C   UNL     1      -0.009   9.031  -6.712  1.00  0.00     0.093 A 
ATOM      7  C   UNL     1      -0.967   9.386  -7.670  1.00  0.00     0.136 A 
ATOM      8  C   UNL     1      -2.316   8.989  -7.486  1.00  0.00     0.125 A 
ATOM      9  C   UNL     1      -3.341   9.288  -8.400  1.00  0.00     0.078 A 
ATOM     10  C   UNL     1      -4.648   8.859  -8.154  1.00  0.00     0.223 A 
ENDROOT
BRANCH   1  11
ATOM     11  C   UNL     1      -6.279   7.673  -6.629  1.00  0.00     0.087 A 
ATOM     12  C   UNL     1      -7.146   8.448  -5.838  1.00  0.00     0.022 A 
ATOM     13  C   UNL     1      -8.417   7.971  -5.508  1.00  0.00     0.051 A 
ATOM     14  C   UNL     1      -8.838   6.713  -5.950  1.00  0.00     0.157 A 
ATOM     15  C   UNL     1      -6.697   6.402  -7.054  1.00  0.00     0.068 A 
ATOM     16  C   UNL     1      -7.973   5.922  -6.725  1.00  0.00     0.158 A 
BRANCH  14  17
ATOM     17  O   UNL     1     -10.113   6.264  -5.608  1.00  0.00    -0.504 OA
ATOM     18  H   UNL     1     -10.284   5.709  -4.779  1.00  0.00     0.293 HD
ENDBRANCH  14  17
BRANCH  16  19
ATOM     19  O   UNL     1      -8.382   4.663  -7.163  1.00  0.00    -0.504 OA
ATOM     20  H   UNL     1      -7.848   3.828  -6.954  1.00  0.00     0.293 HD
ENDBRANCH  16  19
ENDBRANCH   1  11
BRANCH  10  21
ATOM     21  O   UNL     1      -5.655   9.113  -9.085  1.00  0.00    -0.500 OA
ATOM     22  H   UNL     1      -6.210   8.366  -9.485  1.00  0.00     0.294 HD
ENDBRANCH  10  21
BRANCH   5  23
ATOM     23  O   UNL     1       0.612   7.957  -4.644  1.00  0.00    -0.507 OA
ATOM     24  H   UNL     1       0.392   7.858  -3.660  1.00  0.00     0.293 HD
ENDBRANCH   5  23
BRANCH   7  25
ATOM     25  O   UNL     1      -0.529  10.125  -8.772  1.00  0.00    -0.507 OA
ATOM     26  H   UNL     1      -0.370  11.123  -8.763  1.00  0.00     0.293 HD
ENDBRANCH   7  25
TORSDOF 6
ENDMDL
MODEL 8
REMARK VINA RESULT:    -4.497      2.315      6.765
REMARK INTER + INTRA:          -5.724
REMARK INTER:                  -5.372
REMARK INTRA:                  -0.352
REMARK UNBOUND:                -0.307
REMARK SMILES Oc1cc(O)c2cc(O)c(-c3ccc(O)c(O)c3)[o+]c2c1.[Cl-]
REMARK SMILES IDX 10 1 19 2 20 3 21 4 2 5 3 6 4 7 6 8 7 9 8 10 11 11 12 12
REMARK SMILES IDX 13 13 14 14 18 15 16 16 15 17 17 19 9 21 1 23 5 25
REMARK H PARENT 15 18 17 20 9 22 1 24 5 26
REMARK Flexibility Score: inf
ROOT
ATOM      1  C   UNL     1      -5.500   8.232  -6.536  1.00  0.00     0.402 A 
ATOM      2  O   UNL     1      -4.311   8.249  -7.131  1.00  0.00    -0.202 OA
ATOM      3  C   UNL     1      -3.169   8.433  -6.474  1.00  0.00     0.368 A 
ATOM      4  C   UNL     1      -1.968   8.431  -7.187  1.00  0.00     0.162 A 
ATOM      5  C   UNL     1      -0.752   8.619  -6.521  1.00  0.00     0.128 A 
ATOM      6  C   UNL     1      -0.739   8.809  -5.138  1.00  0.00     0.093 A 
ATOM      7  C   UNL     1      -1.930   8.815  -4.401  1.00  0.00     0.136 A 
ATOM      8  C   UNL     1      -3.166   8.627  -5.072  1.00  0.00     0.125 A 
ATOM      9  C   UNL     1      -4.409   8.630  -4.417  1.00  0.00     0.078 A 
ATOM     10  C   UNL     1      -5.586   8.444  -5.146  1.00  0.00     0.223 A 
ENDROOT
BRANCH   1  11
ATOM     11  C   UNL     1      -6.699   8.008  -7.375  1.00  0.00     0.087 A 
ATOM     12  C   UNL     1      -7.257   6.726  -7.528  1.00  0.00     0.022 A 
ATOM     13  C   UNL     1      -8.375   6.535  -8.344  1.00  0.00     0.051 A 
ATOM     14  C   UNL     1      -8.944   7.613  -9.028  1.00  0.00     0.157 A 
ATOM     15  C   UNL     1      -7.261   9.085  -8.080  1.00  0.00     0.068 A 
ATOM     16  C   UNL     1      -8.384   8.895  -8.899  1.00  0.00     0.158 A 
BRANCH  14  17
ATOM     17  O   UNL     1     -10.061   7.392  -9.834  1.00  0.00    -0.504 OA
ATOM     18  H   UNL     1     -10.236   7.934 -10.671  1.00  0.00     0.293 HD
ENDBRANCH  14  17
BRANCH  16  19
ATOM     19  O   UNL     1      -8.941   9.973  -9.584  1.00  0.00    -0.504 OA
ATOM     20  H   UNL     1      -9.869  10.317  -9.369  1.00  0.00     0.293 HD
ENDBRANCH  16  19
ENDBRANCH   1  11
BRANCH  10  21
ATOM     21  O   UNL     1      -6.824   8.497  -4.504  1.00  0.00    -0.500 OA
ATOM     22  H   UNL     1      -7.560   9.117  -4.820  1.00  0.00     0.294 HD
ENDBRANCH  10  21
BRANCH   5  23
ATOM     23  O   UNL     1       0.450   8.620  -7.226  1.00  0.00    -0.507 OA
ATOM     24  H   UNL     1       0.504   8.285  -8.181  1.00  0.00     0.293 HD
ENDBRANCH   5  23
BRANCH   7  25
ATOM     25  O   UNL     1      -1.831   9.008  -3.020  1.00  0.00    -0.507 OA
ATOM     26  H   UNL     1      -1.992   9.891  -2.555  1.00  0.00     0.293 HD
ENDBRANCH   7  25
TORSDOF 6
ENDMDL
