MODEL 1
REMARK VINA RESULT:    -0.218      0.000      0.000
REMARK INTER + INTRA:          -0.409
REMARK INTER:                  -0.256
REMARK INTRA:                  -0.153
REMARK UNBOUND:                -0.153
REMARK SMILES O=C([O-])C=Cc1ccc(O)c(O)c1
REMARK SMILES IDX 6 1 13 2 7 3 11 4 8 5 9 6 5 7 4 8 2 9 1 10 3 11 12 12 10 14
REMARK H PARENT 12 13 10 15
REMARK Flexibility Score: inf
ROOT
ATOM      1  C   UNL     1      25.801  26.093  47.051  1.00  0.00    -0.022 A 
ATOM      2  C   UNL     1      25.112  27.323  47.087  1.00  0.00     0.058 A 
ATOM      3  C   UNL     1      25.059  24.905  46.941  1.00  0.00     0.012 A 
ATOM      4  C   UNL     1      23.711  27.358  47.040  1.00  0.00     0.157 A 
ATOM      5  C   UNL     1      23.663  24.940  46.895  1.00  0.00     0.051 A 
ATOM      6  C   UNL     1      22.984  26.160  46.947  1.00  0.00     0.157 A 
ENDROOT
BRANCH   1   7
ATOM      7  C   UNL     1      27.281  26.005  47.087  1.00  0.00     0.010 C 
ATOM      8  C   UNL     1      27.964  24.865  46.907  1.00  0.00     0.025 C 
BRANCH   8   9
ATOM      9  C   UNL     1      29.435  24.817  46.938  1.00  0.00     0.064 C 
ATOM     10  O   UNL     1      30.053  23.719  46.906  1.00  0.00    -0.545 OA
ATOM     11  O   UNL     1      30.156  26.002  47.001  1.00  0.00    -0.545 OA
ENDBRANCH   8   9
ENDBRANCH   1   7
BRANCH   4  12
ATOM     12  O   UNL     1      23.039  28.579  47.078  1.00  0.00    -0.504 OA
ATOM     13  H   UNL     1      22.357  28.833  46.373  1.00  0.00     0.293 HD
ENDBRANCH   4  12
BRANCH   6  14
ATOM     14  O   UNL     1      21.590  26.162  46.901  1.00  0.00    -0.504 OA
ATOM     15  H   UNL     1      21.031  25.566  47.499  1.00  0.00     0.293 HD
ENDBRANCH   6  14
TORSDOF 4
ENDMDL
MODEL 2
REMARK VINA RESULT:    -0.212      2.310      5.031
REMARK INTER + INTRA:          -0.402
REMARK INTER:                  -0.249
REMARK INTRA:                  -0.153
REMARK UNBOUND:                -0.153
REMARK SMILES O=C([O-])C=Cc1ccc(O)c(O)c1
REMARK SMILES IDX 6 1 13 2 7 3 11 4 8 5 9 6 5 7 4 8 2 9 1 10 3 11 12 12 10 14
REMARK H PARENT 12 13 10 15
REMARK Flexibility Score: inf
ROOT
ATOM      1  C   UNL     1      25.356  25.908  47.053  1.00  0.00    -0.022 A 
ATOM      2  C   UNL     1      26.737  26.142  47.217  1.00  0.00     0.058 A 
ATOM      3  C   UNL     1      24.499  27.007  46.877  1.00  0.00     0.012 A 
ATOM      4  C   UNL     1      27.242  27.451  47.230  1.00  0.00     0.157 A 
ATOM      5  C   UNL     1      25.002  28.311  46.891  1.00  0.00     0.051 A 
ATOM      6  C   UNL     1      26.369  28.540  47.070  1.00  0.00     0.157 A 
ENDROOT
BRANCH   1   7
ATOM      7  C   UNL     1      24.776  24.544  47.021  1.00  0.00     0.010 C 
ATOM      8  C   UNL     1      23.460  24.294  46.957  1.00  0.00     0.025 C 
BRANCH   8   9
ATOM      9  C   UNL     1      22.919  22.926  46.915  1.00  0.00     0.064 C 
ATOM     10  O   UNL     1      21.677  22.715  46.910  1.00  0.00    -0.545 OA
ATOM     11  O   UNL     1      23.793  21.848  46.878  1.00  0.00    -0.545 OA
ENDBRANCH   8   9
ENDBRANCH   1   7
BRANCH   4  12
ATOM     12  O   UNL     1      28.609  27.673  47.396  1.00  0.00    -0.504 OA
ATOM     13  H   UNL     1      28.973  28.587  47.637  1.00  0.00     0.293 HD
ENDBRANCH   4  12
BRANCH   6  14
ATOM     14  O   UNL     1      26.841  29.851  47.082  1.00  0.00    -0.504 OA
ATOM     15  H   UNL     1      27.700  30.118  46.617  1.00  0.00     0.293 HD
ENDBRANCH   6  14
TORSDOF 4
ENDMDL
MODEL 3
REMARK VINA RESULT:    -0.183      2.766      4.021
REMARK INTER + INTRA:          -0.368
REMARK INTER:                  -0.217
REMARK INTRA:                  -0.151
REMARK UNBOUND:                -0.153
REMARK SMILES O=C([O-])C=Cc1ccc(O)c(O)c1
REMARK SMILES IDX 6 1 13 2 7 3 11 4 8 5 9 6 5 7 4 8 2 9 1 10 3 11 12 12 10 14
REMARK H PARENT 12 13 10 15
REMARK Flexibility Score: inf
ROOT
ATOM      1  C   UNL     1      25.320  26.912  47.120  1.00  0.00    -0.022 A 
ATOM      2  C   UNL     1      25.602  25.531  47.190  1.00  0.00     0.058 A 
ATOM      3  C   UNL     1      23.984  27.325  46.993  1.00  0.00     0.012 A 
ATOM      4  C   UNL     1      24.567  24.588  47.107  1.00  0.00     0.157 A 
ATOM      5  C   UNL     1      22.954  26.385  46.909  1.00  0.00     0.051 A 
ATOM      6  C   UNL     1      23.237  25.018  46.963  1.00  0.00     0.157 A 
ENDROOT
BRANCH   1   7
ATOM      7  C   UNL     1      26.378  27.948  47.214  1.00  0.00     0.010 C 
ATOM      8  C   UNL     1      26.129  29.251  47.407  1.00  0.00     0.025 C 
BRANCH   8   9
ATOM      9  C   UNL     1      27.205  30.251  47.507  1.00  0.00     0.064 C 
ATOM     10  O   UNL     1      27.141  31.343  46.881  1.00  0.00    -0.545 OA
ATOM     11  O   UNL     1      28.309  29.988  48.307  1.00  0.00    -0.545 OA
ENDBRANCH   8   9
ENDBRANCH   1   7
BRANCH   4  12
ATOM     12  O   UNL     1      24.855  23.225  47.174  1.00  0.00    -0.504 OA
ATOM     13  H   UNL     1      25.649  22.826  46.688  1.00  0.00     0.293 HD
ENDBRANCH   4  12
BRANCH   6  14
ATOM     14  O   UNL     1      22.189  24.104  46.875  1.00  0.00    -0.504 OA
ATOM     15  H   UNL     1      21.889  23.711  45.991  1.00  0.00     0.293 HD
ENDBRANCH   6  14
TORSDOF 4
ENDMDL
MODEL 4
REMARK VINA RESULT:    -0.182      2.886      4.750
REMARK INTER + INTRA:          -0.366
REMARK INTER:                  -0.215
REMARK INTRA:                  -0.151
REMARK UNBOUND:                -0.153
REMARK SMILES O=C([O-])C=Cc1ccc(O)c(O)c1
REMARK SMILES IDX 6 1 13 2 7 3 11 4 8 5 9 6 5 7 4 8 2 9 1 10 3 11 12 12 10 14
REMARK H PARENT 12 13 10 15
REMARK Flexibility Score: inf
ROOT
ATOM      1  C   UNL     1      24.270  25.554  47.453  1.00  0.00    -0.022 A 
ATOM      2  C   UNL     1      25.497  26.177  47.763  1.00  0.00     0.058 A 
ATOM      3  C   UNL     1      23.200  26.350  47.011  1.00  0.00     0.012 A 
ATOM      4  C   UNL     1      25.638  27.568  47.656  1.00  0.00     0.157 A 
ATOM      5  C   UNL     1      23.340  27.736  46.907  1.00  0.00     0.051 A 
ATOM      6  C   UNL     1      24.552  28.351  47.230  1.00  0.00     0.157 A 
ENDROOT
BRANCH   1   7
ATOM      7  C   UNL     1      24.075  24.086  47.539  1.00  0.00     0.010 C 
ATOM      8  C   UNL     1      23.059  23.434  46.956  1.00  0.00     0.025 C 
BRANCH   8   9
ATOM      9  C   UNL     1      22.903  21.974  47.053  1.00  0.00     0.064 C 
ATOM     10  O   UNL     1      21.762  21.438  47.057  1.00  0.00    -0.545 OA
ATOM     11  O   UNL     1      24.032  21.171  47.139  1.00  0.00    -0.545 OA
ENDBRANCH   8   9
ENDBRANCH   1   7
BRANCH   4  12
ATOM     12  O   UNL     1      26.854  28.175  47.967  1.00  0.00    -0.504 OA
ATOM     13  H   UNL     1      27.700  27.633  48.097  1.00  0.00     0.293 HD
ENDBRANCH   4  12
BRANCH   6  14
ATOM     14  O   UNL     1      24.661  29.736  47.117  1.00  0.00    -0.504 OA
ATOM     15  H   UNL     1      25.446  30.178  46.655  1.00  0.00     0.293 HD
ENDBRANCH   6  14
TORSDOF 4
ENDMDL
MODEL 5
REMARK VINA RESULT:    -0.177      1.768      2.202
REMARK INTER + INTRA:          -0.361
REMARK INTER:                  -0.208
REMARK INTRA:                  -0.153
REMARK UNBOUND:                -0.153
REMARK SMILES O=C([O-])C=Cc1ccc(O)c(O)c1
REMARK SMILES IDX 6 1 13 2 7 3 11 4 8 5 9 6 5 7 4 8 2 9 1 10 3 11 12 12 10 14
REMARK H PARENT 12 13 10 15
REMARK Flexibility Score: inf
ROOT
ATOM      1  C   UNL     1      26.022  26.907  47.162  1.00  0.00    -0.022 A 
ATOM      2  C   UNL     1      24.721  27.443  47.246  1.00  0.00     0.058 A 
ATOM      3  C   UNL     1      26.173  25.525  46.962  1.00  0.00     0.012 A 
ATOM      4  C   UNL     1      23.597  26.608  47.157  1.00  0.00     0.157 A 
ATOM      5  C   UNL     1      25.055  24.692  46.875  1.00  0.00     0.051 A 
ATOM      6  C   UNL     1      23.767  25.225  46.975  1.00  0.00     0.157 A 
ENDROOT
BRANCH   1   7
ATOM      7  C   UNL     1      27.240  27.750  47.239  1.00  0.00     0.010 C 
ATOM      8  C   UNL     1      28.486  27.274  47.102  1.00  0.00     0.025 C 
BRANCH   8   9
ATOM      9  C   UNL     1      29.672  28.143  47.173  1.00  0.00     0.064 C 
ATOM     10  O   UNL     1      30.835  27.671  47.051  1.00  0.00    -0.545 OA
ATOM     11  O   UNL     1      29.509  29.507  47.375  1.00  0.00    -0.545 OA
ENDBRANCH   8   9
ENDBRANCH   1   7
BRANCH   4  12
ATOM     12  O   UNL     1      22.315  27.147  47.244  1.00  0.00    -0.504 OA
ATOM     13  H   UNL     1      22.126  27.982  47.784  1.00  0.00     0.293 HD
ENDBRANCH   4  12
BRANCH   6  14
ATOM     14  O   UNL     1      22.670  24.369  46.885  1.00  0.00    -0.504 OA
ATOM     15  H   UNL     1      22.745  23.377  47.073  1.00  0.00     0.293 HD
ENDBRANCH   6  14
TORSDOF 4
ENDMDL
MODEL 6
REMARK VINA RESULT:    -0.172      3.529      5.385
REMARK INTER + INTRA:          -0.355
REMARK INTER:                  -0.203
REMARK INTRA:                  -0.152
REMARK UNBOUND:                -0.153
REMARK SMILES O=C([O-])C=Cc1ccc(O)c(O)c1
REMARK SMILES IDX 6 1 13 2 7 3 11 4 8 5 9 6 5 7 4 8 2 9 1 10 3 11 12 12 10 14
REMARK H PARENT 12 13 10 15
REMARK Flexibility Score: inf
ROOT
ATOM      1  C   UNL     1      23.213  26.459  47.582  1.00  0.00    -0.022 A 
ATOM      2  C   UNL     1      22.226  25.588  48.088  1.00  0.00     0.058 A 
ATOM      3  C   UNL     1      24.387  25.911  47.040  1.00  0.00     0.012 A 
ATOM      4  C   UNL     1      22.426  24.199  48.074  1.00  0.00     0.157 A 
ATOM      5  C   UNL     1      24.586  24.529  47.027  1.00  0.00     0.051 A 
ATOM      6  C   UNL     1      23.614  23.669  47.544  1.00  0.00     0.157 A 
ENDROOT
BRANCH   1   7
ATOM      7  C   UNL     1      23.043  27.933  47.564  1.00  0.00     0.010 C 
ATOM      8  C   UNL     1      23.856  28.769  46.902  1.00  0.00     0.025 C 
BRANCH   8   9
ATOM      9  C   UNL     1      23.651  30.226  46.897  1.00  0.00     0.064 C 
ATOM     10  O   UNL     1      24.628  31.023  46.907  1.00  0.00    -0.545 OA
ATOM     11  O   UNL     1      22.359  30.734  46.879  1.00  0.00    -0.545 OA
ENDBRANCH   8   9
ENDBRANCH   1   7
BRANCH   4  12
ATOM     12  O   UNL     1      21.446  23.346  48.579  1.00  0.00    -0.504 OA
ATOM     13  H   UNL     1      21.614  22.769  49.394  1.00  0.00     0.293 HD
ENDBRANCH   4  12
BRANCH   6  14
ATOM     14  O   UNL     1      23.842  22.294  47.518  1.00  0.00    -0.504 OA
ATOM     15  H   UNL     1      24.602  21.884  46.990  1.00  0.00     0.293 HD
ENDBRANCH   6  14
TORSDOF 4
ENDMDL
MODEL 7
REMARK VINA RESULT:    -0.170      3.118      4.140
REMARK INTER + INTRA:          -0.353
REMARK INTER:                  -0.203
REMARK INTRA:                  -0.150
REMARK UNBOUND:                -0.153
REMARK SMILES O=C([O-])C=Cc1ccc(O)c(O)c1
REMARK SMILES IDX 6 1 13 2 7 3 11 4 8 5 9 6 5 7 4 8 2 9 1 10 3 11 12 12 10 14
REMARK H PARENT 12 13 10 15
REMARK Flexibility Score: inf
ROOT
ATOM      1  C   UNL     1      25.733  28.880  47.048  1.00  0.00    -0.022 A 
ATOM      2  C   UNL     1      25.255  27.556  47.127  1.00  0.00     0.058 A 
ATOM      3  C   UNL     1      24.805  29.929  46.936  1.00  0.00     0.012 A 
ATOM      4  C   UNL     1      23.879  27.289  47.068  1.00  0.00     0.157 A 
ATOM      5  C   UNL     1      23.435  29.664  46.876  1.00  0.00     0.051 A 
ATOM      6  C   UNL     1      22.966  28.349  46.938  1.00  0.00     0.157 A 
ENDROOT
BRANCH   1   7
ATOM      7  C   UNL     1      27.176  29.213  47.117  1.00  0.00     0.010 C 
ATOM      8  C   UNL     1      27.647  30.420  47.466  1.00  0.00     0.025 C 
BRANCH   8   9
ATOM      9  C   UNL     1      29.088  30.712  47.535  1.00  0.00     0.064 C 
ATOM     10  O   UNL     1      29.877  29.958  48.167  1.00  0.00    -0.545 OA
ATOM     11  O   UNL     1      29.589  31.836  46.892  1.00  0.00    -0.545 OA
ENDBRANCH   8   9
ENDBRANCH   1   7
BRANCH   4  12
ATOM     12  O   UNL     1      23.416  25.977  47.144  1.00  0.00    -0.504 OA
ATOM     13  H   UNL     1      22.993  25.611  47.989  1.00  0.00     0.293 HD
ENDBRANCH   4  12
BRANCH   6  14
ATOM     14  O   UNL     1      21.593  28.116  46.875  1.00  0.00    -0.504 OA
ATOM     15  H   UNL     1      20.930  28.853  46.670  1.00  0.00     0.293 HD
ENDBRANCH   6  14
TORSDOF 4
ENDMDL
MODEL 8
REMARK VINA RESULT:    -0.165      1.354      2.470
REMARK INTER + INTRA:          -0.347
REMARK INTER:                  -0.212
REMARK INTRA:                  -0.136
REMARK UNBOUND:                -0.153
REMARK SMILES O=C([O-])C=Cc1ccc(O)c(O)c1
REMARK SMILES IDX 6 1 13 2 7 3 11 4 8 5 9 6 5 7 4 8 2 9 1 10 3 11 12 12 10 14
REMARK H PARENT 12 13 10 15
REMARK Flexibility Score: inf
ROOT
ATOM      1  C   UNL     1      24.984  26.925  47.146  1.00  0.00    -0.022 A 
ATOM      2  C   UNL     1      23.675  26.460  47.392  1.00  0.00     0.058 A 
ATOM      3  C   UNL     1      25.188  28.301  46.953  1.00  0.00     0.012 A 
ATOM      4  C   UNL     1      22.594  27.354  47.419  1.00  0.00     0.157 A 
ATOM      5  C   UNL     1      24.111  29.191  46.978  1.00  0.00     0.051 A 
ATOM      6  C   UNL     1      22.814  28.725  47.207  1.00  0.00     0.157 A 
ENDROOT
BRANCH   1   7
ATOM      7  C   UNL     1      26.160  26.022  47.120  1.00  0.00     0.010 C 
ATOM      8  C   UNL     1      27.225  26.162  47.923  1.00  0.00     0.025 C 
BRANCH   8   9
ATOM      9  C   UNL     1      28.371  25.239  47.877  1.00  0.00     0.064 C 
ATOM     10  O   UNL     1      29.168  25.236  46.900  1.00  0.00    -0.545 OA
ATOM     11  O   UNL     1      28.580  24.357  48.928  1.00  0.00    -0.545 OA
ENDBRANCH   8   9
ENDBRANCH   1   7
BRANCH   4  12
ATOM     12  O   UNL     1      21.304  26.885  47.661  1.00  0.00    -0.504 OA
ATOM     13  H   UNL     1      20.735  27.257  48.412  1.00  0.00     0.293 HD
ENDBRANCH   4  12
BRANCH   6  14
ATOM     14  O   UNL     1      21.759  29.636  47.225  1.00  0.00    -0.504 OA
ATOM     15  H   UNL     1      20.956  29.518  47.830  1.00  0.00     0.293 HD
ENDBRANCH   6  14
TORSDOF 4
ENDMDL
