MODEL 1
REMARK VINA RESULT:    -5.065      0.000      0.000
REMARK INTER + INTRA:          -7.701
REMARK INTER:                  -7.434
REMARK INTRA:                  -0.267
REMARK UNBOUND:                -0.267
REMARK SMILES CCCOC(=O)c1ccccc1C(=O)OCCC
REMARK SMILES IDX 7 1 8 2 9 3 10 4 11 5 12 6 5 7 6 8 4 9 3 10 2 11 1 12 13 13
REMARK SMILES IDX 14 14 15 15 16 16 17 17 18 18
REMARK H PARENT
REMARK Flexibility Score: inf
ROOT
ATOM      1  C   UNL     1     134.844 134.447 138.432  1.00  0.00     0.074 A 
ATOM      2  C   UNL     1     134.503 135.664 139.053  1.00  0.00     0.016 A 
ATOM      3  C   UNL     1     133.186 136.125 139.045  1.00  0.00     0.001 A 
ATOM      4  C   UNL     1     132.188 135.378 138.422  1.00  0.00     0.001 A 
ATOM      5  C   UNL     1     132.507 134.180 137.782  1.00  0.00     0.016 A 
ATOM      6  C   UNL     1     133.833 133.708 137.758  1.00  0.00     0.074 A 
ENDROOT
BRANCH   1   7
ATOM      7  C   UNL     1     136.231 133.952 138.576  1.00  0.00     0.339 C 
ATOM      8  O   UNL     1     137.000 133.946 137.575  1.00  0.00    -0.246 OA
BRANCH   7   9
ATOM      9  O   UNL     1     136.700 133.537 139.829  1.00  0.00    -0.462 OA
BRANCH   9  10
ATOM     10  C   UNL     1     137.982 133.886 140.346  1.00  0.00     0.233 C 
BRANCH  10  11
ATOM     11  C   UNL     1     138.865 132.642 140.475  1.00  0.00     0.038 C 
ATOM     12  C   UNL     1     140.128 132.942 141.277  1.00  0.00     0.007 C 
ENDBRANCH  10  11
ENDBRANCH   9  10
ENDBRANCH   7   9
ENDBRANCH   1   7
BRANCH   6  13
ATOM     13  C   UNL     1     134.120 132.490 136.967  1.00  0.00     0.339 C 
ATOM     14  O   UNL     1     134.831 132.559 135.927  1.00  0.00    -0.246 OA
BRANCH  13  15
ATOM     15  O   UNL     1     133.552 131.271 137.349  1.00  0.00    -0.462 OA
BRANCH  15  16
ATOM     16  C   UNL     1     132.261 130.855 136.915  1.00  0.00     0.233 C 
BRANCH  16  17
ATOM     17  C   UNL     1     131.343 130.708 138.127  1.00  0.00     0.038 C 
ATOM     18  C   UNL     1     131.148 129.241 138.500  1.00  0.00     0.007 C 
ENDBRANCH  16  17
ENDBRANCH  15  16
ENDBRANCH  13  15
ENDBRANCH   6  13
TORSDOF 8
ENDMDL
MODEL 2
REMARK VINA RESULT:    -4.796      0.182      5.464
REMARK INTER + INTRA:          -7.305
REMARK INTER:                  -7.070
REMARK INTRA:                  -0.235
REMARK UNBOUND:                -0.267
REMARK SMILES CCCOC(=O)c1ccccc1C(=O)OCCC
REMARK SMILES IDX 7 1 8 2 9 3 10 4 11 5 12 6 5 7 6 8 4 9 3 10 2 11 1 12 13 13
REMARK SMILES IDX 14 14 15 15 16 16 17 17 18 18
REMARK H PARENT
REMARK Flexibility Score: inf
ROOT
ATOM      1  C   UNL     1     133.882 133.811 137.746  1.00  0.00     0.074 A 
ATOM      2  C   UNL     1     132.555 134.281 137.769  1.00  0.00     0.016 A 
ATOM      3  C   UNL     1     132.217 135.428 138.488  1.00  0.00     0.001 A 
ATOM      4  C   UNL     1     133.196 136.125 139.193  1.00  0.00     0.001 A 
ATOM      5  C   UNL     1     134.513 135.664 139.202  1.00  0.00     0.016 A 
ATOM      6  C   UNL     1     134.872 134.498 138.502  1.00  0.00     0.074 A 
ENDROOT
BRANCH   1   7
ATOM      7  C   UNL     1     134.203 132.662 136.870  1.00  0.00     0.339 C 
ATOM      8  O   UNL     1     134.877 132.847 135.818  1.00  0.00    -0.246 OA
BRANCH   7   9
ATOM      9  O   UNL     1     133.801 131.371 137.232  1.00  0.00    -0.462 OA
BRANCH   9  10
ATOM     10  C   UNL     1     132.534 130.814 136.885  1.00  0.00     0.233 C 
BRANCH  10  11
ATOM     11  C   UNL     1     131.598 130.815 138.096  1.00  0.00     0.038 C 
ATOM     12  C   UNL     1     131.137 129.402 138.440  1.00  0.00     0.007 C 
ENDBRANCH  10  11
ENDBRANCH   9  10
ENDBRANCH   7   9
ENDBRANCH   1   7
BRANCH   6  13
ATOM     13  C   UNL     1     136.260 134.004 138.646  1.00  0.00     0.339 C 
ATOM     14  O   UNL     1     137.009 133.902 137.635  1.00  0.00    -0.246 OA
BRANCH  13  15
ATOM     15  O   UNL     1     136.719 133.598 139.903  1.00  0.00    -0.462 OA
BRANCH  15  16
ATOM     16  C   UNL     1     138.034 133.886 140.370  1.00  0.00     0.233 C 
BRANCH  16  17
ATOM     17  C   UNL     1     138.785 132.577 140.606  1.00  0.00     0.038 C 
ATOM     18  C   UNL     1     140.197 132.834 141.124  1.00  0.00     0.007 C 
ENDBRANCH  16  17
ENDBRANCH  15  16
ENDBRANCH  13  15
ENDBRANCH   6  13
TORSDOF 8
ENDMDL
MODEL 3
REMARK VINA RESULT:    -4.718      1.873      6.268
REMARK INTER + INTRA:          -7.191
REMARK INTER:                  -6.849
REMARK INTRA:                  -0.342
REMARK UNBOUND:                -0.267
REMARK SMILES CCCOC(=O)c1ccccc1C(=O)OCCC
REMARK SMILES IDX 7 1 8 2 9 3 10 4 11 5 12 6 5 7 6 8 4 9 3 10 2 11 1 12 13 13
REMARK SMILES IDX 14 14 15 15 16 16 17 17 18 18
REMARK H PARENT
REMARK Flexibility Score: inf
ROOT
ATOM      1  C   UNL     1     133.165 131.743 136.519  1.00  0.00     0.074 A 
ATOM      2  C   UNL     1     133.405 131.218 135.235  1.00  0.00     0.016 A 
ATOM      3  C   UNL     1     134.434 131.722 134.438  1.00  0.00     0.001 A 
ATOM      4  C   UNL     1     135.242 132.754 134.911  1.00  0.00     0.001 A 
ATOM      5  C   UNL     1     135.009 133.304 136.172  1.00  0.00     0.016 A 
ATOM      6  C   UNL     1     133.962 132.826 136.982  1.00  0.00     0.074 A 
ENDROOT
BRANCH   1   7
ATOM      7  C   UNL     1     132.140 131.089 137.363  1.00  0.00     0.339 C 
ATOM      8  O   UNL     1     131.136 131.748 137.750  1.00  0.00    -0.246 OA
BRANCH   7   9
ATOM      9  O   UNL     1     132.263 129.734 137.690  1.00  0.00    -0.462 OA
BRANCH   9  10
ATOM     10  C   UNL     1     131.194 128.949 138.213  1.00  0.00     0.233 C 
BRANCH  10  11
ATOM     11  C   UNL     1     131.116 127.601 137.493  1.00  0.00     0.038 C 
ATOM     12  C   UNL     1     130.909 126.457 138.481  1.00  0.00     0.007 C 
ENDBRANCH  10  11
ENDBRANCH   9  10
ENDBRANCH   7   9
ENDBRANCH   1   7
BRANCH   6  13
ATOM     13  C   UNL     1     133.700 133.529 138.259  1.00  0.00     0.339 C 
ATOM     14  O   UNL     1     132.704 134.295 138.372  1.00  0.00    -0.246 OA
BRANCH  13  15
ATOM     15  O   UNL     1     134.594 133.379 139.323  1.00  0.00    -0.462 OA
BRANCH  15  16
ATOM     16  C   UNL     1     135.452 134.429 139.759  1.00  0.00     0.233 C 
BRANCH  16  17
ATOM     17  C   UNL     1     136.870 134.167 139.253  1.00  0.00     0.038 C 
ATOM     18  C   UNL     1     137.772 133.654 140.372  1.00  0.00     0.007 C 
ENDBRANCH  16  17
ENDBRANCH  15  16
ENDBRANCH  13  15
ENDBRANCH   6  13
TORSDOF 8
ENDMDL
MODEL 4
REMARK VINA RESULT:    -4.600      1.862      3.363
REMARK INTER + INTRA:          -7.018
REMARK INTER:                  -6.815
REMARK INTRA:                  -0.204
REMARK UNBOUND:                -0.267
REMARK SMILES CCCOC(=O)c1ccccc1C(=O)OCCC
REMARK SMILES IDX 7 1 8 2 9 3 10 4 11 5 12 6 5 7 6 8 4 9 3 10 2 11 1 12 13 13
REMARK SMILES IDX 14 14 15 15 16 16 17 17 18 18
REMARK H PARENT
REMARK Flexibility Score: inf
ROOT
ATOM      1  C   UNL     1     134.099 132.888 136.959  1.00  0.00     0.074 A 
ATOM      2  C   UNL     1     135.109 133.354 136.096  1.00  0.00     0.016 A 
ATOM      3  C   UNL     1     135.287 132.787 134.834  1.00  0.00     0.001 A 
ATOM      4  C   UNL     1     134.459 131.749 134.411  1.00  0.00     0.001 A 
ATOM      5  C   UNL     1     133.466 131.257 135.258  1.00  0.00     0.016 A 
ATOM      6  C   UNL     1     133.283 131.799 136.544  1.00  0.00     0.074 A 
ENDROOT
BRANCH   1   7
ATOM      7  C   UNL     1     133.879 133.607 138.234  1.00  0.00     0.339 C 
ATOM      8  O   UNL     1     132.943 134.449 138.324  1.00  0.00    -0.246 OA
BRANCH   7   9
ATOM      9  O   UNL     1     134.678 133.318 139.347  1.00  0.00    -0.462 OA
BRANCH   9  10
ATOM     10  C   UNL     1     135.574 134.257 139.939  1.00  0.00     0.233 C 
BRANCH  10  11
ATOM     11  C   UNL     1     136.979 134.101 139.351  1.00  0.00     0.038 C 
ATOM     12  C   UNL     1     137.977 133.655 140.416  1.00  0.00     0.007 C 
ENDBRANCH  10  11
ENDBRANCH   9  10
ENDBRANCH   7   9
ENDBRANCH   1   7
BRANCH   6  13
ATOM     13  C   UNL     1     132.288 131.156 137.431  1.00  0.00     0.339 C 
ATOM     14  O   UNL     1     131.441 131.855 138.051  1.00  0.00    -0.246 OA
BRANCH  13  15
ATOM     15  O   UNL     1     132.327 129.771 137.620  1.00  0.00    -0.462 OA
BRANCH  15  16
ATOM     16  C   UNL     1     131.211 129.029 138.101  1.00  0.00     0.233 C 
BRANCH  16  17
ATOM     17  C   UNL     1     131.226 127.633 137.482  1.00  0.00     0.038 C 
ATOM     18  C   UNL     1     130.903 126.562 138.521  1.00  0.00     0.007 C 
ENDBRANCH  16  17
ENDBRANCH  15  16
ENDBRANCH  13  15
ENDBRANCH   6  13
TORSDOF 8
ENDMDL
MODEL 5
REMARK VINA RESULT:    -4.415      1.656      5.992
REMARK INTER + INTRA:          -6.746
REMARK INTER:                  -6.108
REMARK INTRA:                  -0.638
REMARK UNBOUND:                -0.267
REMARK SMILES CCCOC(=O)c1ccccc1C(=O)OCCC
REMARK SMILES IDX 7 1 8 2 9 3 10 4 11 5 12 6 5 7 6 8 4 9 3 10 2 11 1 12 13 13
REMARK SMILES IDX 14 14 15 15 16 16 17 17 18 18
REMARK H PARENT
REMARK Flexibility Score: inf
ROOT
ATOM      1  C   UNL     1     134.033 133.264 136.964  1.00  0.00     0.074 A 
ATOM      2  C   UNL     1     134.056 132.847 135.619  1.00  0.00     0.016 A 
ATOM      3  C   UNL     1     135.258 132.772 134.915  1.00  0.00     0.001 A 
ATOM      4  C   UNL     1     136.456 133.109 135.541  1.00  0.00     0.001 A 
ATOM      5  C   UNL     1     136.455 133.545 136.867  1.00  0.00     0.016 A 
ATOM      6  C   UNL     1     135.252 133.650 137.588  1.00  0.00     0.074 A 
ENDROOT
BRANCH   1   7
ATOM      7  C   UNL     1     132.747 133.207 137.694  1.00  0.00     0.339 C 
ATOM      8  O   UNL     1     132.070 134.262 137.849  1.00  0.00    -0.246 OA
BRANCH   7   9
ATOM      9  O   UNL     1     132.263 131.982 138.167  1.00  0.00    -0.462 OA
BRANCH   9  10
ATOM     10  C   UNL     1     131.501 131.075 137.372  1.00  0.00     0.233 C 
BRANCH  10  11
ATOM     11  C   UNL     1     131.882 129.628 137.697  1.00  0.00     0.038 C 
ATOM     12  C   UNL     1     130.897 129.006 138.683  1.00  0.00     0.007 C 
ENDBRANCH  10  11
ENDBRANCH   9  10
ENDBRANCH   7   9
ENDBRANCH   1   7
BRANCH   6  13
ATOM     13  C   UNL     1     135.310 134.226 138.951  1.00  0.00     0.339 C 
ATOM     14  O   UNL     1     134.934 135.412 139.157  1.00  0.00    -0.246 OA
BRANCH  13  15
ATOM     15  O   UNL     1     135.835 133.463 139.999  1.00  0.00    -0.462 OA
BRANCH  15  16
ATOM     16  C   UNL     1     136.918 133.911 140.808  1.00  0.00     0.233 C 
BRANCH  16  17
ATOM     17  C   UNL     1     138.225 133.338 140.266  1.00  0.00     0.038 C 
ATOM     18  C   UNL     1     139.409 133.729 141.146  1.00  0.00     0.007 C 
ENDBRANCH  16  17
ENDBRANCH  15  16
ENDBRANCH  13  15
ENDBRANCH   6  13
TORSDOF 8
ENDMDL
MODEL 6
REMARK VINA RESULT:    -4.391      1.691      2.655
REMARK INTER + INTRA:          -6.712
REMARK INTER:                  -6.049
REMARK INTRA:                  -0.663
REMARK UNBOUND:                -0.267
REMARK SMILES CCCOC(=O)c1ccccc1C(=O)OCCC
REMARK SMILES IDX 7 1 8 2 9 3 10 4 11 5 12 6 5 7 6 8 4 9 3 10 2 11 1 12 13 13
REMARK SMILES IDX 14 14 15 15 16 16 17 17 18 18
REMARK H PARENT
REMARK Flexibility Score: inf
ROOT
ATOM      1  C   UNL     1     135.191 133.850 137.647  1.00  0.00     0.074 A 
ATOM      2  C   UNL     1     136.431 133.722 136.992  1.00  0.00     0.016 A 
ATOM      3  C   UNL     1     136.515 133.126 135.733  1.00  0.00     0.001 A 
ATOM      4  C   UNL     1     135.365 132.650 135.107  1.00  0.00     0.001 A 
ATOM      5  C   UNL     1     134.128 132.747 135.748  1.00  0.00     0.016 A 
ATOM      6  C   UNL     1     134.024 133.325 137.026  1.00  0.00     0.074 A 
ENDROOT
BRANCH   1   7
ATOM      7  C   UNL     1     135.147 134.598 138.923  1.00  0.00     0.339 C 
ATOM      8  O   UNL     1     134.846 135.824 138.919  1.00  0.00    -0.246 OA
BRANCH   7   9
ATOM      9  O   UNL     1     135.394 133.937 140.132  1.00  0.00    -0.462 OA
BRANCH   9  10
ATOM     10  C   UNL     1     136.528 133.101 140.356  1.00  0.00     0.233 C 
BRANCH  10  11
ATOM     11  C   UNL     1     137.820 133.918 140.279  1.00  0.00     0.038 C 
ATOM     12  C   UNL     1     139.028 133.083 140.693  1.00  0.00     0.007 C 
ENDBRANCH  10  11
ENDBRANCH   9  10
ENDBRANCH   7   9
ENDBRANCH   1   7
BRANCH   6  13
ATOM     13  C   UNL     1     132.703 133.293 137.694  1.00  0.00     0.339 C 
ATOM     14  O   UNL     1     131.982 134.328 137.728  1.00  0.00    -0.246 OA
BRANCH  13  15
ATOM     15  O   UNL     1     132.284 132.123 138.335  1.00  0.00    -0.462 OA
BRANCH  15  16
ATOM     16  C   UNL     1     131.308 131.249 137.776  1.00  0.00     0.233 C 
BRANCH  16  17
ATOM     17  C   UNL     1     131.894 129.843 137.664  1.00  0.00     0.038 C 
ATOM     18  C   UNL     1     131.043 128.827 138.421  1.00  0.00     0.007 C 
ENDBRANCH  16  17
ENDBRANCH  15  16
ENDBRANCH  13  15
ENDBRANCH   6  13
TORSDOF 8
ENDMDL
MODEL 7
REMARK VINA RESULT:    -2.556      1.775      5.447
REMARK INTER + INTRA:          -4.018
REMARK INTER:                  -4.537
REMARK INTRA:                   0.519
REMARK UNBOUND:                -0.267
REMARK SMILES CCCOC(=O)c1ccccc1C(=O)OCCC
REMARK SMILES IDX 7 1 8 2 9 3 10 4 11 5 12 6 5 7 6 8 4 9 3 10 2 11 1 12 13 13
REMARK SMILES IDX 14 14 15 15 16 16 17 17 18 18
REMARK H PARENT
REMARK Flexibility Score: inf
ROOT
ATOM      1  C   UNL     1     134.058 133.922 137.826  1.00  0.00     0.074 A 
ATOM      2  C   UNL     1     132.695 134.249 137.701  1.00  0.00     0.016 A 
ATOM      3  C   UNL     1     132.157 135.341 138.384  1.00  0.00     0.001 A 
ATOM      4  C   UNL     1     132.970 136.124 139.199  1.00  0.00     0.001 A 
ATOM      5  C   UNL     1     134.320 135.806 139.355  1.00  0.00     0.016 A 
ATOM      6  C   UNL     1     134.878 134.696 138.694  1.00  0.00     0.074 A 
ENDROOT
BRANCH   1   7
ATOM      7  C   UNL     1     134.597 132.829 136.986  1.00  0.00     0.339 C 
ATOM      8  O   UNL     1     134.091 131.675 137.061  1.00  0.00    -0.246 OA
BRANCH   7   9
ATOM      9  O   UNL     1     135.631 133.088 136.078  1.00  0.00    -0.462 OA
BRANCH   9  10
ATOM     10  C   UNL     1     135.615 132.654 134.720  1.00  0.00     0.233 C 
BRANCH  10  11
ATOM     11  C   UNL     1     134.179 132.402 134.255  1.00  0.00     0.038 C 
ATOM     12  C   UNL     1     133.966 130.935 133.890  1.00  0.00     0.007 C 
ENDBRANCH  10  11
ENDBRANCH   9  10
ENDBRANCH   7   9
ENDBRANCH   1   7
BRANCH   6  13
ATOM     13  C   UNL     1     136.286 134.349 138.991  1.00  0.00     0.339 C 
ATOM     14  O   UNL     1     137.149 134.341 138.071  1.00  0.00    -0.246 OA
BRANCH  13  15
ATOM     15  O   UNL     1     136.643 133.978 140.292  1.00  0.00    -0.462 OA
BRANCH  15  16
ATOM     16  C   UNL     1     137.730 133.100 140.569  1.00  0.00     0.233 C 
BRANCH  16  17
ATOM     17  C   UNL     1     138.994 133.921 140.815  1.00  0.00     0.038 C 
ATOM     18  C   UNL     1     140.112 133.058 141.391  1.00  0.00     0.007 C 
ENDBRANCH  16  17
ENDBRANCH  15  16
ENDBRANCH  13  15
ENDBRANCH   6  13
TORSDOF 8
ENDMDL
