MODEL 1
REMARK VINA RESULT:    -5.555      0.000      0.000
REMARK INTER + INTRA:          -7.098
REMARK INTER:                  -6.691
REMARK INTRA:                  -0.407
REMARK UNBOUND:                -0.407
REMARK SMILES O=c1ccn([C@H]2O[C@@H](CO)[C@@H](O)[C@H]2O)c(=O)[nH]1
REMARK SMILES IDX 6 1 13 2 11 3 8 4 7 5 5 6 3 7 4 8 2 9 17 10 1 11 15 12 16 14
REMARK SMILES IDX 14 15 12 17 9 19 10 20
REMARK H PARENT 17 13 14 16 12 18 10 21
REMARK Flexibility Score: inf
ROOT
ATOM      1  C   UNL     1      38.495 -10.107  -1.597  1.00  0.00     0.255 C 
ATOM      2  C   UNL     1      39.279 -10.216  -0.277  1.00  0.00     0.196 C 
ATOM      3  C   UNL     1      39.443  -8.774   0.165  1.00  0.00     0.179 C 
ATOM      4  C   UNL     1      39.215  -8.014  -1.140  1.00  0.00     0.178 C 
ATOM      5  O   UNL     1      38.289  -8.744  -1.906  1.00  0.00    -0.347 OA
ENDROOT
BRANCH   1   6
ATOM      6  N   UNL     1      37.205 -10.834  -1.553  1.00  0.00    -0.271 N 
ATOM      7  C   UNL     1      35.954 -12.809  -2.091  1.00  0.00     0.090 A 
ATOM      8  C   UNL     1      37.136 -12.075  -2.125  1.00  0.00     0.099 A 
ATOM      9  C   UNL     1      34.847 -12.261  -1.453  1.00  0.00     0.253 A 
ATOM     10  N   UNL     1      34.938 -11.035  -0.877  1.00  0.00    -0.274 N 
ATOM     11  O   UNL     1      33.764 -12.903  -1.407  1.00  0.00    -0.269 OA
ATOM     12  C   UNL     1      36.100 -10.323  -0.913  1.00  0.00     0.330 A 
ATOM     13  H   UNL     1      34.104 -10.632  -0.392  1.00  0.00     0.175 HD
ATOM     14  O   UNL     1      36.144  -9.197  -0.348  1.00  0.00    -0.248 OA
ENDBRANCH   1   6
BRANCH   2  15
ATOM     15  O   UNL     1      38.608 -10.996   0.683  1.00  0.00    -0.386 OA
ATOM     16  H   UNL     1      38.214 -10.361   1.336  1.00  0.00     0.211 HD
ENDBRANCH   2  15
BRANCH   3  17
ATOM     17  O   UNL     1      38.475  -8.427   1.125  1.00  0.00    -0.387 OA
ATOM     18  H   UNL     1      38.465  -7.436   1.177  1.00  0.00     0.211 HD
ENDBRANCH   3  17
BRANCH   4  19
ATOM     19  C   UNL     1      38.717  -6.574  -0.946  1.00  0.00     0.191 C 
BRANCH  19  20
ATOM     20  O   UNL     1      37.365  -6.561  -0.574  1.00  0.00    -0.394 OA
ATOM     21  H   UNL     1      37.025  -7.484  -0.705  1.00  0.00     0.210 HD
ENDBRANCH  19  20
ENDBRANCH   4  19
TORSDOF 5
ENDMDL
MODEL 2
REMARK VINA RESULT:    -5.538      2.050      3.146
REMARK INTER + INTRA:          -7.078
REMARK INTER:                  -6.810
REMARK INTRA:                  -0.268
REMARK UNBOUND:                -0.407
REMARK SMILES O=c1ccn([C@H]2O[C@@H](CO)[C@@H](O)[C@H]2O)c(=O)[nH]1
REMARK SMILES IDX 6 1 13 2 11 3 8 4 7 5 5 6 3 7 4 8 2 9 17 10 1 11 15 12 16 14
REMARK SMILES IDX 14 15 12 17 9 19 10 20
REMARK H PARENT 17 13 14 16 12 18 10 21
REMARK Flexibility Score: inf
ROOT
ATOM      1  C   UNL     1      39.249  -8.249  -0.188  1.00  0.00     0.255 C 
ATOM      2  C   UNL     1      40.573  -8.179  -0.971  1.00  0.00     0.196 C 
ATOM      3  C   UNL     1      41.631  -8.428   0.086  1.00  0.00     0.179 C 
ATOM      4  C   UNL     1      40.877  -8.105   1.374  1.00  0.00     0.178 C 
ATOM      5  O   UNL     1      39.528  -8.456   1.181  1.00  0.00    -0.347 OA
ENDROOT
BRANCH   1   6
ATOM      6  N   UNL     1      38.342  -9.302  -0.700  1.00  0.00    -0.271 N 
ATOM      7  C   UNL     1      37.636 -11.595  -0.646  1.00  0.00     0.090 A 
ATOM      8  C   UNL     1      38.478 -10.574  -0.215  1.00  0.00     0.099 A 
ATOM      9  C   UNL     1      36.644 -11.294  -1.572  1.00  0.00     0.253 A 
ATOM     10  N   UNL     1      36.512 -10.022  -2.031  1.00  0.00    -0.274 N 
ATOM     11  O   UNL     1      35.868 -12.198  -1.980  1.00  0.00    -0.269 OA
ATOM     12  C   UNL     1      37.339  -9.028  -1.602  1.00  0.00     0.330 A 
ATOM     13  H   UNL     1      35.758  -9.802  -2.721  1.00  0.00     0.175 HD
ATOM     14  O   UNL     1      37.167  -7.859  -2.041  1.00  0.00    -0.248 OA
ENDBRANCH   1   6
BRANCH   2  15
ATOM     15  O   UNL     1      40.628  -9.119  -2.016  1.00  0.00    -0.386 OA
ATOM     16  H   UNL     1      40.180  -8.699  -2.797  1.00  0.00     0.211 HD
ENDBRANCH   2  15
BRANCH   3  17
ATOM     17  O   UNL     1      42.051  -9.771   0.072  1.00  0.00    -0.387 OA
ATOM     18  H   UNL     1      42.724  -9.868   0.796  1.00  0.00     0.211 HD
ENDBRANCH   3  17
BRANCH   4  19
ATOM     19  C   UNL     1      41.431  -8.814   2.618  1.00  0.00     0.191 C 
BRANCH  19  20
ATOM     20  O   UNL     1      40.424  -9.544   3.266  1.00  0.00    -0.394 OA
ATOM     21  H   UNL     1      40.280  -9.109   4.147  1.00  0.00     0.210 HD
ENDBRANCH  19  20
ENDBRANCH   4  19
TORSDOF 5
ENDMDL
MODEL 3
REMARK VINA RESULT:    -5.386      2.284      4.925
REMARK INTER + INTRA:          -6.895
REMARK INTER:                  -6.524
REMARK INTRA:                  -0.371
REMARK UNBOUND:                -0.407
REMARK SMILES O=c1ccn([C@H]2O[C@@H](CO)[C@@H](O)[C@H]2O)c(=O)[nH]1
REMARK SMILES IDX 6 1 13 2 11 3 8 4 7 5 5 6 3 7 4 8 2 9 17 10 1 11 15 12 16 14
REMARK SMILES IDX 14 15 12 17 9 19 10 20
REMARK H PARENT 17 13 14 16 12 18 10 21
REMARK Flexibility Score: inf
ROOT
ATOM      1  C   UNL     1      38.993  -9.780  -1.274  1.00  0.00     0.255 C 
ATOM      2  C   UNL     1      38.441  -8.468  -1.861  1.00  0.00     0.196 C 
ATOM      3  C   UNL     1      36.969  -8.762  -2.079  1.00  0.00     0.179 C 
ATOM      4  C   UNL     1      36.948 -10.289  -2.091  1.00  0.00     0.178 C 
ATOM      5  O   UNL     1      37.958 -10.740  -1.221  1.00  0.00    -0.347 OA
ENDROOT
BRANCH   1   6
ATOM      6  N   UNL     1      39.600  -9.592   0.064  1.00  0.00    -0.271 N 
ATOM      7  C   UNL     1      41.576  -9.254   1.381  1.00  0.00     0.090 A 
ATOM      8  C   UNL     1      40.959  -9.455   0.151  1.00  0.00     0.099 A 
ATOM      9  C   UNL     1      40.784  -9.182   2.522  1.00  0.00     0.253 A 
ATOM     10  N   UNL     1      39.435  -9.303   2.415  1.00  0.00    -0.274 N 
ATOM     11  O   UNL     1      41.315  -9.000   3.649  1.00  0.00    -0.269 OA
ATOM     12  C   UNL     1      38.838  -9.498   1.206  1.00  0.00     0.330 A 
ATOM     13  H   UNL     1      38.845  -9.240   3.276  1.00  0.00     0.175 HD
ATOM     14  O   UNL     1      37.581  -9.587   1.152  1.00  0.00    -0.248 OA
ENDBRANCH   1   6
BRANCH   2  15
ATOM     15  O   UNL     1      38.647  -7.370  -1.007  1.00  0.00    -0.386 OA
ATOM     16  H   UNL     1      38.185  -7.586  -0.155  1.00  0.00     0.211 HD
ENDBRANCH   2  15
BRANCH   3  17
ATOM     17  O   UNL     1      36.192  -8.256  -1.021  1.00  0.00    -0.387 OA
ATOM     18  H   UNL     1      35.248  -8.271  -1.327  1.00  0.00     0.211 HD
ENDBRANCH   3  17
BRANCH   4  19
ATOM     19  C   UNL     1      35.597 -10.899  -1.688  1.00  0.00     0.191 C 
BRANCH  19  20
ATOM     20  O   UNL     1      35.361 -10.725  -0.317  1.00  0.00    -0.394 OA
ATOM     21  H   UNL     1      35.714 -11.535   0.137  1.00  0.00     0.210 HD
ENDBRANCH  19  20
ENDBRANCH   4  19
TORSDOF 5
ENDMDL
MODEL 4
REMARK VINA RESULT:    -5.232      3.414      4.985
REMARK INTER + INTRA:          -6.709
REMARK INTER:                  -6.316
REMARK INTRA:                  -0.393
REMARK UNBOUND:                -0.407
REMARK SMILES O=c1ccn([C@H]2O[C@@H](CO)[C@@H](O)[C@H]2O)c(=O)[nH]1
REMARK SMILES IDX 6 1 13 2 11 3 8 4 7 5 5 6 3 7 4 8 2 9 17 10 1 11 15 12 16 14
REMARK SMILES IDX 14 15 12 17 9 19 10 20
REMARK H PARENT 17 13 14 16 12 18 10 21
REMARK Flexibility Score: inf
ROOT
ATOM      1  C   UNL     1      40.348  -7.875  -0.188  1.00  0.00     0.255 C 
ATOM      2  C   UNL     1      40.268  -9.239  -0.897  1.00  0.00     0.196 C 
ATOM      3  C   UNL     1      40.018 -10.219   0.233  1.00  0.00     0.179 C 
ATOM      4  C   UNL     1      40.485  -9.425   1.452  1.00  0.00     0.178 C 
ATOM      5  O   UNL     1      40.219  -8.065   1.206  1.00  0.00    -0.347 OA
ENDROOT
BRANCH   1   6
ATOM      6  N   UNL     1      39.329  -6.918  -0.680  1.00  0.00    -0.271 N 
ATOM      7  C   UNL     1      38.785  -5.071  -2.111  1.00  0.00     0.090 A 
ATOM      8  C   UNL     1      39.708  -5.978  -1.600  1.00  0.00     0.099 A 
ATOM      9  C   UNL     1      37.466  -5.146  -1.678  1.00  0.00     0.253 A 
ATOM     10  N   UNL     1      37.104  -6.096  -0.777  1.00  0.00    -0.274 N 
ATOM     11  O   UNL     1      36.609  -4.338  -2.124  1.00  0.00    -0.269 OA
ATOM     12  C   UNL     1      38.014  -6.982  -0.283  1.00  0.00     0.330 A 
ATOM     13  H   UNL     1      36.109  -6.152  -0.462  1.00  0.00     0.175 HD
ATOM     14  O   UNL     1      37.629  -7.858   0.538  1.00  0.00    -0.248 OA
ENDBRANCH   1   6
BRANCH   2  15
ATOM     15  O   UNL     1      39.254  -9.278  -1.872  1.00  0.00    -0.386 OA
ATOM     16  H   UNL     1      39.625  -9.781  -2.644  1.00  0.00     0.211 HD
ENDBRANCH   2  15
BRANCH   3  17
ATOM     17  O   UNL     1      38.651 -10.536   0.334  1.00  0.00    -0.387 OA
ATOM     18  H   UNL     1      38.512 -11.372  -0.183  1.00  0.00     0.211 HD
ENDBRANCH   3  17
BRANCH   4  19
ATOM     19  C   UNL     1      39.828  -9.858   2.770  1.00  0.00     0.191 C 
BRANCH  19  20
ATOM     20  O   UNL     1      38.491  -9.438   2.823  1.00  0.00    -0.394 OA
ATOM     21  H   UNL     1      38.343  -9.077   3.736  1.00  0.00     0.210 HD
ENDBRANCH  19  20
ENDBRANCH   4  19
TORSDOF 5
ENDMDL
MODEL 5
REMARK VINA RESULT:    -5.195      2.979      5.908
REMARK INTER + INTRA:          -6.665
REMARK INTER:                  -6.185
REMARK INTRA:                  -0.480
REMARK UNBOUND:                -0.407
REMARK SMILES O=c1ccn([C@H]2O[C@@H](CO)[C@@H](O)[C@H]2O)c(=O)[nH]1
REMARK SMILES IDX 6 1 13 2 11 3 8 4 7 5 5 6 3 7 4 8 2 9 17 10 1 11 15 12 16 14
REMARK SMILES IDX 14 15 12 17 9 19 10 20
REMARK H PARENT 17 13 14 16 12 18 10 21
REMARK Flexibility Score: inf
ROOT
ATOM      1  C   UNL     1      39.620  -8.374   0.638  1.00  0.00     0.255 C 
ATOM      2  C   UNL     1      40.107  -9.706   0.038  1.00  0.00     0.196 C 
ATOM      3  C   UNL     1      38.823 -10.430  -0.321  1.00  0.00     0.179 C 
ATOM      4  C   UNL     1      37.796  -9.706   0.548  1.00  0.00     0.178 C 
ATOM      5  O   UNL     1      38.208  -8.367   0.674  1.00  0.00    -0.347 OA
ENDROOT
BRANCH   1   6
ATOM      6  N   UNL     1      40.129  -7.197  -0.104  1.00  0.00    -0.271 N 
ATOM      7  C   UNL     1      39.700  -5.422  -1.661  1.00  0.00     0.090 A 
ATOM      8  C   UNL     1      39.279  -6.547  -0.957  1.00  0.00     0.099 A 
ATOM      9  C   UNL     1      40.999  -4.965  -1.472  1.00  0.00     0.253 A 
ATOM     10  N   UNL     1      41.824  -5.613  -0.609  1.00  0.00    -0.274 N 
ATOM     11  O   UNL     1      41.407  -3.950  -2.095  1.00  0.00    -0.269 OA
ATOM     12  C   UNL     1      41.403  -6.712   0.078  1.00  0.00     0.330 A 
ATOM     13  H   UNL     1      42.797  -5.258  -0.465  1.00  0.00     0.175 HD
ATOM     14  O   UNL     1      42.197  -7.271   0.883  1.00  0.00    -0.248 OA
ENDBRANCH   1   6
BRANCH   2  15
ATOM     15  O   UNL     1      40.944  -9.518  -1.077  1.00  0.00    -0.386 OA
ATOM     16  H   UNL     1      41.039 -10.406  -1.511  1.00  0.00     0.211 HD
ENDBRANCH   2  15
BRANCH   3  17
ATOM     17  O   UNL     1      38.522 -10.279  -1.687  1.00  0.00    -0.387 OA
ATOM     18  H   UNL     1      39.113 -10.905  -2.181  1.00  0.00     0.211 HD
ENDBRANCH   3  17
BRANCH   4  19
ATOM     19  C   UNL     1      36.362  -9.766   0.002  1.00  0.00     0.191 C 
BRANCH  19  20
ATOM     20  O   UNL     1      36.116  -8.695  -0.869  1.00  0.00    -0.394 OA
ATOM     21  H   UNL     1      35.948  -9.091  -1.764  1.00  0.00     0.210 HD
ENDBRANCH  19  20
ENDBRANCH   4  19
TORSDOF 5
ENDMDL
MODEL 6
REMARK VINA RESULT:    -5.194      2.950      4.544
REMARK INTER + INTRA:          -6.663
REMARK INTER:                  -6.282
REMARK INTRA:                  -0.381
REMARK UNBOUND:                -0.407
REMARK SMILES O=c1ccn([C@H]2O[C@@H](CO)[C@@H](O)[C@H]2O)c(=O)[nH]1
REMARK SMILES IDX 6 1 13 2 11 3 8 4 7 5 5 6 3 7 4 8 2 9 17 10 1 11 15 12 16 14
REMARK SMILES IDX 14 15 12 17 9 19 10 20
REMARK H PARENT 17 13 14 16 12 18 10 21
REMARK Flexibility Score: inf
ROOT
ATOM      1  C   UNL     1      38.645  -9.165  -0.467  1.00  0.00     0.255 C 
ATOM      2  C   UNL     1      38.473  -9.448   1.037  1.00  0.00     0.196 C 
ATOM      3  C   UNL     1      39.895  -9.622   1.535  1.00  0.00     0.179 C 
ATOM      4  C   UNL     1      40.649  -9.931   0.243  1.00  0.00     0.178 C 
ATOM      5  O   UNL     1      40.015  -9.233  -0.801  1.00  0.00    -0.347 OA
ENDROOT
BRANCH   1   6
ATOM      6  N   UNL     1      38.074  -7.858  -0.867  1.00  0.00    -0.271 N 
ATOM      7  C   UNL     1      38.442  -5.555  -1.431  1.00  0.00     0.090 A 
ATOM      8  C   UNL     1      38.924  -6.798  -1.033  1.00  0.00     0.099 A 
ATOM      9  C   UNL     1      37.080  -5.413  -1.669  1.00  0.00     0.253 A 
ATOM     10  N   UNL     1      36.253  -6.479  -1.516  1.00  0.00    -0.274 N 
ATOM     11  O   UNL     1      36.615  -4.299  -2.030  1.00  0.00    -0.269 OA
ATOM     12  C   UNL     1      36.733  -7.694  -1.128  1.00  0.00     0.330 A 
ATOM     13  H   UNL     1      35.230  -6.367  -1.705  1.00  0.00     0.175 HD
ATOM     14  O   UNL     1      35.931  -8.661  -1.017  1.00  0.00    -0.248 OA
ENDBRANCH   1   6
BRANCH   2  15
ATOM     15  O   UNL     1      37.797  -8.410   1.704  1.00  0.00    -0.386 OA
ATOM     16  H   UNL     1      37.793  -8.651   2.668  1.00  0.00     0.211 HD
ENDBRANCH   2  15
BRANCH   3  17
ATOM     17  O   UNL     1      40.372  -8.438   2.126  1.00  0.00    -0.387 OA
ATOM     18  H   UNL     1      41.024  -8.708   2.824  1.00  0.00     0.211 HD
ENDBRANCH   3  17
BRANCH   4  19
ATOM     19  C   UNL     1      42.141  -9.568   0.288  1.00  0.00     0.191 C 
BRANCH  19  20
ATOM     20  O   UNL     1      42.391  -8.398  -0.445  1.00  0.00    -0.394 OA
ATOM     21  H   UNL     1      43.124  -8.613  -1.080  1.00  0.00     0.210 HD
ENDBRANCH  19  20
ENDBRANCH   4  19
TORSDOF 5
ENDMDL
MODEL 7
REMARK VINA RESULT:    -5.113      3.230      4.753
REMARK INTER + INTRA:          -6.566
REMARK INTER:                  -6.273
REMARK INTRA:                  -0.293
REMARK UNBOUND:                -0.407
REMARK SMILES O=c1ccn([C@H]2O[C@@H](CO)[C@@H](O)[C@H]2O)c(=O)[nH]1
REMARK SMILES IDX 6 1 13 2 11 3 8 4 7 5 5 6 3 7 4 8 2 9 17 10 1 11 15 12 16 14
REMARK SMILES IDX 14 15 12 17 9 19 10 20
REMARK H PARENT 17 13 14 16 12 18 10 21
REMARK Flexibility Score: inf
ROOT
ATOM      1  C   UNL     1      38.444  -9.096  -0.486  1.00  0.00     0.255 C 
ATOM      2  C   UNL     1      38.216  -9.307   1.022  1.00  0.00     0.196 C 
ATOM      3  C   UNL     1      39.601  -9.616   1.557  1.00  0.00     0.179 C 
ATOM      4  C   UNL     1      40.342 -10.047   0.292  1.00  0.00     0.178 C 
ATOM      5  O   UNL     1      39.806  -9.322  -0.788  1.00  0.00    -0.347 OA
ENDROOT
BRANCH   1   6
ATOM      6  N   UNL     1      38.025  -7.750  -0.941  1.00  0.00    -0.271 N 
ATOM      7  C   UNL     1      36.321  -6.354  -1.892  1.00  0.00     0.090 A 
ATOM      8  C   UNL     1      36.773  -7.601  -1.471  1.00  0.00     0.099 A 
ATOM      9  C   UNL     1      37.165  -5.257  -1.752  1.00  0.00     0.253 A 
ATOM     10  N   UNL     1      38.399  -5.420  -1.208  1.00  0.00    -0.274 N 
ATOM     11  O   UNL     1      36.784  -4.117  -2.125  1.00  0.00    -0.269 OA
ATOM     12  C   UNL     1      38.832  -6.645  -0.797  1.00  0.00     0.330 A 
ATOM     13  H   UNL     1      39.025  -4.590  -1.098  1.00  0.00     0.175 HD
ATOM     14  O   UNL     1      39.978  -6.745  -0.280  1.00  0.00    -0.248 OA
ENDBRANCH   1   6
BRANCH   2  15
ATOM     15  O   UNL     1      37.643  -8.181   1.640  1.00  0.00    -0.386 OA
ATOM     16  H   UNL     1      37.542  -7.492   0.932  1.00  0.00     0.211 HD
ENDBRANCH   2  15
BRANCH   3  17
ATOM     17  O   UNL     1      40.192  -8.469   2.120  1.00  0.00    -0.387 OA
ATOM     18  H   UNL     1      41.040  -8.313   1.627  1.00  0.00     0.211 HD
ENDBRANCH   3  17
BRANCH   4  19
ATOM     19  C   UNL     1      41.863  -9.844   0.358  1.00  0.00     0.191 C 
BRANCH  19  20
ATOM     20  O   UNL     1      42.243  -8.692  -0.345  1.00  0.00    -0.394 OA
ATOM     21  H   UNL     1      43.235  -8.657  -0.319  1.00  0.00     0.210 HD
ENDBRANCH  19  20
ENDBRANCH   4  19
TORSDOF 5
ENDMDL
MODEL 8
REMARK VINA RESULT:    -4.926      2.604      5.592
REMARK INTER + INTRA:          -6.341
REMARK INTER:                  -5.896
REMARK INTRA:                  -0.445
REMARK UNBOUND:                -0.407
REMARK SMILES O=c1ccn([C@H]2O[C@@H](CO)[C@@H](O)[C@H]2O)c(=O)[nH]1
REMARK SMILES IDX 6 1 13 2 11 3 8 4 7 5 5 6 3 7 4 8 2 9 17 10 1 11 15 12 16 14
REMARK SMILES IDX 14 15 12 17 9 19 10 20
REMARK H PARENT 17 13 14 16 12 18 10 21
REMARK Flexibility Score: inf
ROOT
ATOM      1  C   UNL     1      38.189  -8.156  -1.840  1.00  0.00     0.255 C 
ATOM      2  C   UNL     1      36.964  -7.774  -0.989  1.00  0.00     0.196 C 
ATOM      3  C   UNL     1      36.303  -9.106  -0.689  1.00  0.00     0.179 C 
ATOM      4  C   UNL     1      36.887 -10.003  -1.779  1.00  0.00     0.178 C 
ATOM      5  O   UNL     1      38.191  -9.553  -2.053  1.00  0.00    -0.347 OA
ENDROOT
BRANCH   1   6
ATOM      6  N   UNL     1      39.464  -7.720  -1.226  1.00  0.00    -0.271 N 
ATOM      7  C   UNL     1      41.487  -8.311  -0.078  1.00  0.00     0.090 A 
ATOM      8  C   UNL     1      40.268  -8.665  -0.648  1.00  0.00     0.099 A 
ATOM      9  C   UNL     1      41.880  -6.978  -0.118  1.00  0.00     0.253 A 
ATOM     10  N   UNL     1      41.078  -6.056  -0.711  1.00  0.00    -0.274 N 
ATOM     11  O   UNL     1      42.978  -6.629   0.390  1.00  0.00    -0.269 OA
ATOM     12  C   UNL     1      39.886  -6.411  -1.269  1.00  0.00     0.330 A 
ATOM     13  H   UNL     1      41.384  -5.056  -0.745  1.00  0.00     0.175 HD
ATOM     14  O   UNL     1      39.184  -5.524  -1.825  1.00  0.00    -0.248 OA
ENDBRANCH   1   6
BRANCH   2  15
ATOM     15  O   UNL     1      37.319  -7.077   0.180  1.00  0.00    -0.386 OA
ATOM     16  H   UNL     1      36.548  -7.158   0.801  1.00  0.00     0.211 HD
ENDBRANCH   2  15
BRANCH   3  17
ATOM     17  O   UNL     1      36.662  -9.570   0.590  1.00  0.00    -0.387 OA
ATOM     18  H   UNL     1      36.069  -9.109   1.239  1.00  0.00     0.211 HD
ENDBRANCH   3  17
BRANCH   4  19
ATOM     19  C   UNL     1      36.913 -11.495  -1.414  1.00  0.00     0.191 C 
BRANCH  19  20
ATOM     20  O   UNL     1      37.977 -11.777  -0.545  1.00  0.00    -0.394 OA
ATOM     21  H   UNL     1      38.811 -11.676  -1.075  1.00  0.00     0.210 HD
ENDBRANCH  19  20
ENDBRANCH   4  19
TORSDOF 5
ENDMDL
MODEL 9
REMARK VINA RESULT:    -2.752      1.897      3.319
REMARK INTER + INTRA:          -3.722
REMARK INTER:                  -3.320
REMARK INTRA:                  -0.402
REMARK UNBOUND:                -0.407
REMARK SMILES O=c1ccn([C@H]2O[C@@H](CO)[C@@H](O)[C@H]2O)c(=O)[nH]1
REMARK SMILES IDX 6 1 13 2 11 3 8 4 7 5 5 6 3 7 4 8 2 9 17 10 1 11 15 12 16 14
REMARK SMILES IDX 14 15 12 17 9 19 10 20
REMARK H PARENT 17 13 14 16 12 18 10 21
REMARK Flexibility Score: inf
ROOT
ATOM      1  C   UNL     1      38.648  -8.101   0.214  1.00  0.00     0.255 C 
ATOM      2  C   UNL     1      38.840  -6.894  -0.723  1.00  0.00     0.196 C 
ATOM      3  C   UNL     1      40.346  -6.773  -0.851  1.00  0.00     0.179 C 
ATOM      4  C   UNL     1      40.833  -7.543   0.374  1.00  0.00     0.178 C 
ATOM      5  O   UNL     1      39.913  -8.578   0.625  1.00  0.00    -0.347 OA
ENDROOT
BRANCH   1   6
ATOM      6  N   UNL     1      37.860  -9.187  -0.413  1.00  0.00    -0.271 N 
ATOM      7  C   UNL     1      35.757 -10.322  -0.627  1.00  0.00     0.090 A 
ATOM      8  C   UNL     1      36.548  -9.332  -0.052  1.00  0.00     0.099 A 
ATOM      9  C   UNL     1      36.322 -11.154  -1.587  1.00  0.00     0.253 A 
ATOM     10  N   UNL     1      37.622 -10.984  -1.946  1.00  0.00    -0.274 N 
ATOM     11  O   UNL     1      35.631 -12.058  -2.125  1.00  0.00    -0.269 OA
ATOM     12  C   UNL     1      38.389 -10.011  -1.379  1.00  0.00     0.330 A 
ATOM     13  H   UNL     1      38.038 -11.608  -2.675  1.00  0.00     0.175 HD
ATOM     14  O   UNL     1      39.585  -9.879  -1.756  1.00  0.00    -0.248 OA
ENDBRANCH   1   6
BRANCH   2  15
ATOM     15  O   UNL     1      38.210  -7.076  -1.967  1.00  0.00    -0.386 OA
ATOM     16  H   UNL     1      38.288  -6.213  -2.451  1.00  0.00     0.211 HD
ENDBRANCH   2  15
BRANCH   3  17
ATOM     17  O   UNL     1      40.802  -7.375  -2.038  1.00  0.00    -0.387 OA
ATOM     18  H   UNL     1      39.997  -7.587  -2.580  1.00  0.00     0.211 HD
ENDBRANCH   3  17
BRANCH   4  19
ATOM     19  C   UNL     1      42.248  -8.123   0.228  1.00  0.00     0.191 C 
BRANCH  19  20
ATOM     20  O   UNL     1      42.199  -9.442  -0.246  1.00  0.00    -0.394 OA
ATOM     21  H   UNL     1      42.054  -9.386  -1.227  1.00  0.00     0.210 HD
ENDBRANCH  19  20
ENDBRANCH   4  19
TORSDOF 5
ENDMDL
