MODEL 1
REMARK VINA RESULT:    -6.649      0.000      0.000
REMARK INTER + INTRA:          -6.649
REMARK INTER:                  -6.649
REMARK INTRA:                   0.000
REMARK UNBOUND:                 0.000
REMARK SMILES c1ccc2ccccc2c1
REMARK SMILES IDX 2 1 1 2 10 3 9 4 8 5 7 6 6 7 5 8 4 9 3 10
REMARK H PARENT
REMARK Flexibility Score: inf
ROOT
ATOM      1  C   UNL     1      48.755  58.795  74.986  1.00  0.00     0.001 A 
ATOM      2  C   UNL     1      48.351  58.937  76.316  1.00  0.00     0.001 A 
ATOM      3  C   UNL     1      49.274  59.315  77.295  1.00  0.00     0.009 A 
ATOM      4  C   UNL     1      50.612  59.554  76.947  1.00  0.00    -0.018 A 
ATOM      5  C   UNL     1      51.549  59.934  77.921  1.00  0.00     0.009 A 
ATOM      6  C   UNL     1      52.878  60.170  77.559  1.00  0.00     0.001 A 
ATOM      7  C   UNL     1      53.283  60.029  76.229  1.00  0.00     0.001 A 
ATOM      8  C   UNL     1      52.360  59.651  75.249  1.00  0.00     0.009 A 
ATOM      9  C   UNL     1      51.022  59.411  75.597  1.00  0.00    -0.018 A 
ATOM     10  C   UNL     1      50.085  59.032  74.624  1.00  0.00     0.009 A 
ENDROOT
TORSDOF 0
ENDMDL
MODEL 2
REMARK VINA RESULT:    -6.643      0.093      2.083
REMARK INTER + INTRA:          -6.643
REMARK INTER:                  -6.643
REMARK INTRA:                   0.000
REMARK UNBOUND:                 0.000
REMARK SMILES c1ccc2ccccc2c1
REMARK SMILES IDX 2 1 1 2 10 3 9 4 8 5 7 6 6 7 5 8 4 9 3 10
REMARK H PARENT
REMARK Flexibility Score: inf
ROOT
ATOM      1  C   UNL     1      48.327  58.940  76.324  1.00  0.00     0.001 A 
ATOM      2  C   UNL     1      48.694  58.779  74.985  1.00  0.00     0.001 A 
ATOM      3  C   UNL     1      50.014  59.004  74.585  1.00  0.00     0.009 A 
ATOM      4  C   UNL     1      50.979  59.394  75.527  1.00  0.00    -0.018 A 
ATOM      5  C   UNL     1      52.308  59.624  75.139  1.00  0.00     0.009 A 
ATOM      6  C   UNL     1      53.258  60.010  76.089  1.00  0.00     0.001 A 
ATOM      7  C   UNL     1      52.892  60.171  77.427  1.00  0.00     0.001 A 
ATOM      8  C   UNL     1      51.571  59.946  77.827  1.00  0.00     0.009 A 
ATOM      9  C   UNL     1      50.606  59.556  76.885  1.00  0.00    -0.018 A 
ATOM     10  C   UNL     1      49.278  59.327  77.273  1.00  0.00     0.009 A 
ENDROOT
TORSDOF 0
ENDMDL
MODEL 3
REMARK VINA RESULT:    -6.638      0.038      4.018
REMARK INTER + INTRA:          -6.638
REMARK INTER:                  -6.638
REMARK INTRA:                   0.000
REMARK UNBOUND:                 0.000
REMARK SMILES c1ccc2ccccc2c1
REMARK SMILES IDX 2 1 1 2 10 3 9 4 8 5 7 6 6 7 5 8 4 9 3 10
REMARK H PARENT
REMARK Flexibility Score: inf
ROOT
ATOM      1  C   UNL     1      52.857  60.131  77.592  1.00  0.00     0.001 A 
ATOM      2  C   UNL     1      53.265  60.001  76.262  1.00  0.00     0.001 A 
ATOM      3  C   UNL     1      52.344  59.636  75.276  1.00  0.00     0.009 A 
ATOM      4  C   UNL     1      51.004  59.397  75.617  1.00  0.00    -0.018 A 
ATOM      5  C   UNL     1      50.069  59.030  74.638  1.00  0.00     0.009 A 
ATOM      6  C   UNL     1      48.737  58.796  74.992  1.00  0.00     0.001 A 
ATOM      7  C   UNL     1      48.329  58.926  76.323  1.00  0.00     0.001 A 
ATOM      8  C   UNL     1      49.250  59.291  77.309  1.00  0.00     0.009 A 
ATOM      9  C   UNL     1      50.590  59.530  76.967  1.00  0.00    -0.018 A 
ATOM     10  C   UNL     1      51.525  59.898  77.947  1.00  0.00     0.009 A 
ENDROOT
TORSDOF 0
ENDMDL
MODEL 4
REMARK VINA RESULT:    -6.627      0.043      3.436
REMARK INTER + INTRA:          -6.627
REMARK INTER:                  -6.627
REMARK INTRA:                   0.000
REMARK UNBOUND:                 0.000
REMARK SMILES c1ccc2ccccc2c1
REMARK SMILES IDX 2 1 1 2 10 3 9 4 8 5 7 6 6 7 5 8 4 9 3 10
REMARK H PARENT
REMARK Flexibility Score: inf
ROOT
ATOM      1  C   UNL     1      53.281  59.966  76.261  1.00  0.00     0.001 A 
ATOM      2  C   UNL     1      52.863  60.129  77.585  1.00  0.00     0.001 A 
ATOM      3  C   UNL     1      51.526  59.917  77.932  1.00  0.00     0.009 A 
ATOM      4  C   UNL     1      50.595  59.539  76.952  1.00  0.00    -0.018 A 
ATOM      5  C   UNL     1      49.250  59.323  77.287  1.00  0.00     0.009 A 
ATOM      6  C   UNL     1      48.334  58.945  76.300  1.00  0.00     0.001 A 
ATOM      7  C   UNL     1      48.752  58.782  74.976  1.00  0.00     0.001 A 
ATOM      8  C   UNL     1      50.089  58.995  74.629  1.00  0.00     0.009 A 
ATOM      9  C   UNL     1      51.020  59.373  75.609  1.00  0.00    -0.018 A 
ATOM     10  C   UNL     1      52.365  59.589  75.274  1.00  0.00     0.009 A 
ENDROOT
TORSDOF 0
ENDMDL
MODEL 5
REMARK VINA RESULT:    -6.132     12.002     13.269
REMARK INTER + INTRA:          -6.132
REMARK INTER:                  -6.132
REMARK INTRA:                   0.000
REMARK UNBOUND:                 0.000
REMARK SMILES c1ccc2ccccc2c1
REMARK SMILES IDX 2 1 1 2 10 3 9 4 8 5 7 6 6 7 5 8 4 9 3 10
REMARK H PARENT
REMARK Flexibility Score: inf
ROOT
ATOM      1  C   UNL     1      43.465  54.924  87.450  1.00  0.00     0.001 A 
ATOM      2  C   UNL     1      42.998  55.455  86.245  1.00  0.00     0.001 A 
ATOM      3  C   UNL     1      43.301  54.825  85.034  1.00  0.00     0.009 A 
ATOM      4  C   UNL     1      44.079  53.657  85.023  1.00  0.00    -0.018 A 
ATOM      5  C   UNL     1      44.391  53.015  83.815  1.00  0.00     0.009 A 
ATOM      6  C   UNL     1      45.165  51.851  83.820  1.00  0.00     0.001 A 
ATOM      7  C   UNL     1      45.632  51.320  85.025  1.00  0.00     0.001 A 
ATOM      8  C   UNL     1      45.329  51.949  86.236  1.00  0.00     0.009 A 
ATOM      9  C   UNL     1      44.551  53.118  86.247  1.00  0.00    -0.018 A 
ATOM     10  C   UNL     1      44.239  53.759  87.455  1.00  0.00     0.009 A 
ENDROOT
TORSDOF 0
ENDMDL
MODEL 6
REMARK VINA RESULT:    -6.083     12.144     13.259
REMARK INTER + INTRA:          -6.083
REMARK INTER:                  -6.083
REMARK INTRA:                   0.000
REMARK UNBOUND:                 0.000
REMARK SMILES c1ccc2ccccc2c1
REMARK SMILES IDX 2 1 1 2 10 3 9 4 8 5 7 6 6 7 5 8 4 9 3 10
REMARK H PARENT
REMARK Flexibility Score: inf
ROOT
ATOM      1  C   UNL     1      45.379  51.611  84.175  1.00  0.00     0.001 A 
ATOM      2  C   UNL     1      45.760  51.257  85.472  1.00  0.00     0.001 A 
ATOM      3  C   UNL     1      45.347  52.028  86.562  1.00  0.00     0.009 A 
ATOM      4  C   UNL     1      44.547  53.163  86.359  1.00  0.00    -0.018 A 
ATOM      5  C   UNL     1      44.126  53.946  87.445  1.00  0.00     0.009 A 
ATOM      6  C   UNL     1      43.328  55.074  87.228  1.00  0.00     0.001 A 
ATOM      7  C   UNL     1      42.947  55.428  85.931  1.00  0.00     0.001 A 
ATOM      8  C   UNL     1      43.360  54.657  84.840  1.00  0.00     0.009 A 
ATOM      9  C   UNL     1      44.160  53.522  85.043  1.00  0.00    -0.018 A 
ATOM     10  C   UNL     1      44.581  52.739  83.958  1.00  0.00     0.009 A 
ENDROOT
TORSDOF 0
ENDMDL
MODEL 7
REMARK VINA RESULT:    -6.083     12.159     13.483
REMARK INTER + INTRA:          -6.083
REMARK INTER:                  -6.083
REMARK INTRA:                   0.000
REMARK UNBOUND:                 0.000
REMARK SMILES c1ccc2ccccc2c1
REMARK SMILES IDX 2 1 1 2 10 3 9 4 8 5 7 6 6 7 5 8 4 9 3 10
REMARK H PARENT
REMARK Flexibility Score: inf
ROOT
ATOM      1  C   UNL     1      45.797  51.174  85.372  1.00  0.00     0.001 A 
ATOM      2  C   UNL     1      45.379  51.645  84.124  1.00  0.00     0.001 A 
ATOM      3  C   UNL     1      44.587  52.793  84.034  1.00  0.00     0.009 A 
ATOM      4  C   UNL     1      44.206  53.479  85.198  1.00  0.00    -0.018 A 
ATOM      5  C   UNL     1      43.410  54.632  85.122  1.00  0.00     0.009 A 
ATOM      6  C   UNL     1      43.039  55.305  86.290  1.00  0.00     0.001 A 
ATOM      7  C   UNL     1      43.456  54.834  87.538  1.00  0.00     0.001 A 
ATOM      8  C   UNL     1      44.249  53.687  87.627  1.00  0.00     0.009 A 
ATOM      9  C   UNL     1      44.630  53.001  86.464  1.00  0.00    -0.018 A 
ATOM     10  C   UNL     1      45.426  51.848  86.540  1.00  0.00     0.009 A 
ENDROOT
TORSDOF 0
ENDMDL
MODEL 8
REMARK VINA RESULT:    -6.047     10.304     12.093
REMARK INTER + INTRA:          -6.047
REMARK INTER:                  -6.047
REMARK INTRA:                   0.000
REMARK UNBOUND:                 0.000
REMARK SMILES c1ccc2ccccc2c1
REMARK SMILES IDX 2 1 1 2 10 3 9 4 8 5 7 6 6 7 5 8 4 9 3 10
REMARK H PARENT
REMARK Flexibility Score: inf
ROOT
ATOM      1  C   UNL     1      56.305  59.320  84.757  1.00  0.00     0.001 A 
ATOM      2  C   UNL     1      55.878  59.490  86.076  1.00  0.00     0.001 A 
ATOM      3  C   UNL     1      56.263  58.579  87.064  1.00  0.00     0.009 A 
ATOM      4  C   UNL     1      57.081  57.487  86.735  1.00  0.00    -0.018 A 
ATOM      5  C   UNL     1      57.475  56.565  87.716  1.00  0.00     0.009 A 
ATOM      6  C   UNL     1      58.291  55.483  87.374  1.00  0.00     0.001 A 
ATOM      7  C   UNL     1      58.719  55.313  86.054  1.00  0.00     0.001 A 
ATOM      8  C   UNL     1      58.333  56.224  85.067  1.00  0.00     0.009 A 
ATOM      9  C   UNL     1      57.515  57.316  85.396  1.00  0.00    -0.018 A 
ATOM     10  C   UNL     1      57.122  58.238  84.414  1.00  0.00     0.009 A 
ENDROOT
TORSDOF 0
ENDMDL
MODEL 9
REMARK VINA RESULT:    -6.034     10.171     12.210
REMARK INTER + INTRA:          -6.034
REMARK INTER:                  -6.034
REMARK INTRA:                   0.000
REMARK UNBOUND:                 0.000
REMARK SMILES c1ccc2ccccc2c1
REMARK SMILES IDX 2 1 1 2 10 3 9 4 8 5 7 6 6 7 5 8 4 9 3 10
REMARK H PARENT
REMARK Flexibility Score: inf
ROOT
ATOM      1  C   UNL     1      58.627  55.334  86.206  1.00  0.00     0.001 A 
ATOM      2  C   UNL     1      58.211  55.619  87.509  1.00  0.00     0.001 A 
ATOM      3  C   UNL     1      57.422  56.745  87.765  1.00  0.00     0.009 A 
ATOM      4  C   UNL     1      57.045  57.595  86.714  1.00  0.00    -0.018 A 
ATOM      5  C   UNL     1      56.254  58.728  86.957  1.00  0.00     0.009 A 
ATOM      6  C   UNL     1      55.885  59.565  85.900  1.00  0.00     0.001 A 
ATOM      7  C   UNL     1      56.301  59.279  84.596  1.00  0.00     0.001 A 
ATOM      8  C   UNL     1      57.090  58.154  84.340  1.00  0.00     0.009 A 
ATOM      9  C   UNL     1      57.467  57.304  85.392  1.00  0.00    -0.018 A 
ATOM     10  C   UNL     1      58.258  56.170  85.149  1.00  0.00     0.009 A 
ENDROOT
TORSDOF 0
ENDMDL
