MODEL 1
REMARK VINA RESULT:    -3.406      0.000      0.000
REMARK INTER + INTRA:          -3.964
REMARK INTER:                  -3.903
REMARK INTRA:                  -0.061
REMARK UNBOUND:                -0.061
REMARK SMILES CC(C)[C@H]([NH3+])C(=O)[O-]
REMARK SMILES IDX 4 1 5 2 6 6 7 7 8 8 2 9 1 10 3 11
REMARK H PARENT 5 3 5 4 5 5
REMARK Flexibility Score: inf
ROOT
ATOM      1  C   UNL     1     108.256 101.216 102.117  1.00  0.00     0.230 C 
ENDROOT
BRANCH   1   2
ATOM      2  N   UNL     1     108.560 102.643 102.310  1.00  0.00    -0.350 N 
ATOM      3  H   UNL     1     108.470 103.178 101.416  1.00  0.00     0.345 HD
ATOM      4  H   UNL     1     109.541 102.745 102.660  1.00  0.00     0.345 HD
ATOM      5  H   UNL     1     107.925 103.057 103.028  1.00  0.00     0.345 HD
ENDBRANCH   1   2
BRANCH   1   6
ATOM      6  C   UNL     1     109.509 100.379 102.221  1.00  0.00     0.099 C 
ATOM      7  O   UNL     1     109.677  99.371 101.485  1.00  0.00    -0.544 OA
ATOM      8  O   UNL     1     110.469 100.694 103.174  1.00  0.00    -0.544 OA
ENDBRANCH   1   6
BRANCH   1   9
ATOM      9  C   UNL     1     107.504 100.926 100.784  1.00  0.00     0.047 C 
ATOM     10  C   UNL     1     105.986 100.826 100.993  1.00  0.00     0.014 C 
ATOM     11  C   UNL     1     107.819 101.934  99.666  1.00  0.00     0.014 C 
ENDBRANCH   1   9
TORSDOF 3
ENDMDL
MODEL 2
REMARK VINA RESULT:    -3.400     12.894     13.475
REMARK INTER + INTRA:          -3.958
REMARK INTER:                  -3.897
REMARK INTRA:                  -0.061
REMARK UNBOUND:                -0.061
REMARK SMILES CC(C)[C@H]([NH3+])C(=O)[O-]
REMARK SMILES IDX 4 1 5 2 6 6 7 7 8 8 2 9 1 10 3 11
REMARK H PARENT 5 3 5 4 5 5
REMARK Flexibility Score: inf
ROOT
ATOM      1  C   UNL     1     115.201 112.017 102.016  1.00  0.00     0.230 C 
ENDROOT
BRANCH   1   2
ATOM      2  N   UNL     1     113.811 111.599 102.260  1.00  0.00    -0.350 N 
ATOM      3  H   UNL     1     113.501 110.876 101.572  1.00  0.00     0.345 HD
ATOM      4  H   UNL     1     113.179 112.430 102.175  1.00  0.00     0.345 HD
ATOM      5  H   UNL     1     113.708 111.225 103.230  1.00  0.00     0.345 HD
ENDBRANCH   1   2
BRANCH   1   6
ATOM      6  C   UNL     1     115.329 113.521 102.061  1.00  0.00     0.099 C 
ATOM      7  O   UNL     1     116.153 114.123 101.323  1.00  0.00    -0.544 OA
ATOM      8  O   UNL     1     114.562 114.250 102.961  1.00  0.00    -0.544 OA
ENDBRANCH   1   6
BRANCH   1   9
ATOM      9  C   UNL     1     115.784 111.450 100.687  1.00  0.00     0.047 C 
ATOM     10  C   UNL     1     116.610 110.176 100.922  1.00  0.00     0.014 C 
ATOM     11  C   UNL     1     114.722 111.199  99.605  1.00  0.00     0.014 C 
ENDBRANCH   1   9
TORSDOF 3
ENDMDL
MODEL 3
REMARK VINA RESULT:    -3.376     12.920     13.481
REMARK INTER + INTRA:          -3.930
REMARK INTER:                  -3.870
REMARK INTRA:                  -0.060
REMARK UNBOUND:                -0.061
REMARK SMILES CC(C)[C@H]([NH3+])C(=O)[O-]
REMARK SMILES IDX 4 1 5 2 6 6 7 7 8 8 2 9 1 10 3 11
REMARK H PARENT 5 3 5 4 5 5
REMARK Flexibility Score: inf
ROOT
ATOM      1  C   UNL     1     102.471 112.717 102.112  1.00  0.00     0.230 C 
ENDROOT
BRANCH   1   2
ATOM      2  N   UNL     1     103.611 111.819 102.355  1.00  0.00    -0.350 N 
ATOM      3  H   UNL     1     104.131 111.612 101.472  1.00  0.00     0.345 HD
ATOM      4  H   UNL     1     103.263 110.915 102.753  1.00  0.00     0.345 HD
ATOM      5  H   UNL     1     104.264 112.238 103.054  1.00  0.00     0.345 HD
ENDBRANCH   1   2
BRANCH   1   6
ATOM      6  C   UNL     1     101.165 111.961 102.174  1.00  0.00     0.099 C 
ATOM      7  O   UNL     1     100.192 112.289 101.446  1.00  0.00    -0.544 OA
ATOM      8  O   UNL     1     101.017 110.918 103.080  1.00  0.00    -0.544 OA
ENDBRANCH   1   6
BRANCH   1   9
ATOM      9  C   UNL     1     102.591 113.508 100.775  1.00  0.00     0.047 C 
ATOM     10  C   UNL     1     103.222 114.893 100.985  1.00  0.00     0.014 C 
ATOM     11  C   UNL     1     103.343 112.746  99.673  1.00  0.00     0.014 C 
ENDBRANCH   1   9
TORSDOF 3
ENDMDL
MODEL 4
REMARK VINA RESULT:    -3.365      2.915      3.392
REMARK INTER + INTRA:          -3.917
REMARK INTER:                  -3.858
REMARK INTRA:                  -0.059
REMARK UNBOUND:                -0.061
REMARK SMILES CC(C)[C@H]([NH3+])C(=O)[O-]
REMARK SMILES IDX 4 1 5 2 6 6 7 7 8 8 2 9 1 10 3 11
REMARK H PARENT 5 3 5 4 5 5
REMARK Flexibility Score: inf
ROOT
ATOM      1  C   UNL     1     107.066 101.864 101.926  1.00  0.00     0.230 C 
ENDROOT
BRANCH   1   2
ATOM      2  N   UNL     1     107.879 101.438 103.077  1.00  0.00    -0.350 N 
ATOM      3  H   UNL     1     107.318 100.876 103.756  1.00  0.00     0.345 HD
ATOM      4  H   UNL     1     108.248 102.284 103.572  1.00  0.00     0.345 HD
ATOM      5  H   UNL     1     108.701 100.879 102.756  1.00  0.00     0.345 HD
ENDBRANCH   1   2
BRANCH   1   6
ATOM      6  C   UNL     1     105.594 101.693 102.212  1.00  0.00     0.099 C 
ATOM      7  O   UNL     1     104.976 100.663 101.833  1.00  0.00    -0.544 OA
ATOM      8  O   UNL     1     104.897 102.706 102.860  1.00  0.00    -0.544 OA
ENDBRANCH   1   6
BRANCH   1   9
ATOM      9  C   UNL     1     107.461 101.146 100.600  1.00  0.00     0.047 C 
ATOM     10  C   UNL     1     107.615 102.138  99.437  1.00  0.00     0.014 C 
ATOM     11  C   UNL     1     108.721 100.275 100.723  1.00  0.00     0.014 C 
ENDBRANCH   1   9
TORSDOF 3
ENDMDL
MODEL 5
REMARK VINA RESULT:    -3.359     11.513     12.110
REMARK INTER + INTRA:          -3.910
REMARK INTER:                  -3.849
REMARK INTRA:                  -0.061
REMARK UNBOUND:                -0.061
REMARK SMILES CC(C)[C@H]([NH3+])C(=O)[O-]
REMARK SMILES IDX 4 1 5 2 6 6 7 7 8 8 2 9 1 10 3 11
REMARK H PARENT 5 3 5 4 5 5
REMARK Flexibility Score: inf
ROOT
ATOM      1  C   UNL     1     115.213 110.640 101.872  1.00  0.00     0.230 C 
ENDROOT
BRANCH   1   2
ATOM      2  N   UNL     1     115.140 111.559 103.019  1.00  0.00    -0.350 N 
ATOM      3  H   UNL     1     114.238 112.087 103.031  1.00  0.00     0.345 HD
ATOM      4  H   UNL     1     115.926 112.248 102.962  1.00  0.00     0.345 HD
ATOM      5  H   UNL     1     115.247 111.034 103.915  1.00  0.00     0.345 HD
ENDBRANCH   1   2
BRANCH   1   6
ATOM      6  C   UNL     1     116.109 109.465 102.178  1.00  0.00     0.099 C 
ATOM      7  O   UNL     1     117.281 109.407 101.718  1.00  0.00    -0.544 OA
ATOM      8  O   UNL     1     115.623 108.408 102.937  1.00  0.00    -0.544 OA
ENDBRANCH   1   6
BRANCH   1   9
ATOM      9  C   UNL     1     115.651 111.344 100.552  1.00  0.00     0.047 C 
ATOM     10  C   UNL     1     114.704 111.017  99.388  1.00  0.00     0.014 C 
ATOM     11  C   UNL     1     115.814 112.866 100.690  1.00  0.00     0.014 C 
ENDBRANCH   1   9
TORSDOF 3
ENDMDL
MODEL 6
REMARK VINA RESULT:    -3.341     13.279     13.873
REMARK INTER + INTRA:          -3.890
REMARK INTER:                  -3.830
REMARK INTRA:                  -0.060
REMARK UNBOUND:                -0.061
REMARK SMILES CC(C)[C@H]([NH3+])C(=O)[O-]
REMARK SMILES IDX 4 1 5 2 6 6 7 7 8 8 2 9 1 10 3 11
REMARK H PARENT 5 3 5 4 5 5
REMARK Flexibility Score: inf
ROOT
ATOM      1  C   UNL     1     103.431 113.203 102.001  1.00  0.00     0.230 C 
ENDROOT
BRANCH   1   2
ATOM      2  N   UNL     1     102.606 112.735 103.126  1.00  0.00    -0.350 N 
ATOM      3  H   UNL     1     102.970 111.840 103.524  1.00  0.00     0.345 HD
ATOM      4  H   UNL     1     101.626 112.575 102.795  1.00  0.00     0.345 HD
ATOM      5  H   UNL     1     102.568 113.460 103.878  1.00  0.00     0.345 HD
ENDBRANCH   1   2
BRANCH   1   6
ATOM      6  C   UNL     1     104.105 114.512 102.333  1.00  0.00     0.099 C 
ATOM      7  O   UNL     1     103.608 115.608 101.961  1.00  0.00    -0.544 OA
ATOM      8  O   UNL     1     105.314 114.510 103.016  1.00  0.00    -0.544 OA
ENDBRANCH   1   6
BRANCH   1   9
ATOM      9  C   UNL     1     102.636 113.310 100.665  1.00  0.00     0.047 C 
ATOM     10  C   UNL     1     103.415 112.707  99.486  1.00  0.00     0.014 C 
ATOM     11  C   UNL     1     101.227 112.701 100.735  1.00  0.00     0.014 C 
ENDBRANCH   1   9
TORSDOF 3
ENDMDL
MODEL 7
REMARK VINA RESULT:    -3.268      3.111      3.915
REMARK INTER + INTRA:          -3.807
REMARK INTER:                  -3.734
REMARK INTRA:                  -0.072
REMARK UNBOUND:                -0.061
REMARK SMILES CC(C)[C@H]([NH3+])C(=O)[O-]
REMARK SMILES IDX 4 1 5 2 6 6 7 7 8 8 2 9 1 10 3 11
REMARK H PARENT 5 3 5 4 5 5
REMARK Flexibility Score: inf
ROOT
ATOM      1  C   UNL     1     106.628 101.641 100.237  1.00  0.00     0.230 C 
ENDROOT
BRANCH   1   2
ATOM      2  N   UNL     1     106.975 103.058 100.044  1.00  0.00    -0.350 N 
ATOM      3  H   UNL     1     106.295 103.537  99.412  1.00  0.00     0.345 HD
ATOM      4  H   UNL     1     107.928 103.127  99.617  1.00  0.00     0.345 HD
ATOM      5  H   UNL     1     107.007 103.555 100.963  1.00  0.00     0.345 HD
ENDBRANCH   1   2
BRANCH   1   6
ATOM      6  C   UNL     1     105.252 101.500 100.843  1.00  0.00     0.099 C 
ATOM      7  O   UNL     1     104.758 100.364 101.069  1.00  0.00    -0.544 OA
ATOM      8  O   UNL     1     104.499 102.636 101.112  1.00  0.00    -0.544 OA
ENDBRANCH   1   6
BRANCH   1   9
ATOM      9  C   UNL     1     107.686 100.862 101.075  1.00  0.00     0.047 C 
ATOM     10  C   UNL     1     109.040 100.782 100.354  1.00  0.00     0.014 C 
ATOM     11  C   UNL     1     107.876 101.415 102.497  1.00  0.00     0.014 C 
ENDBRANCH   1   9
TORSDOF 3
ENDMDL
MODEL 8
REMARK VINA RESULT:    -3.257     11.727     12.447
REMARK INTER + INTRA:          -3.794
REMARK INTER:                  -3.739
REMARK INTRA:                  -0.054
REMARK UNBOUND:                -0.061
REMARK SMILES CC(C)[C@H]([NH3+])C(=O)[O-]
REMARK SMILES IDX 4 1 5 2 6 6 7 7 8 8 2 9 1 10 3 11
REMARK H PARENT 5 3 5 4 5 5
REMARK Flexibility Score: inf
ROOT
ATOM      1  C   UNL     1     115.984 110.770 101.327  1.00  0.00     0.230 C 
ENDROOT
BRANCH   1   2
ATOM      2  N   UNL     1     115.139 110.715 102.531  1.00  0.00    -0.350 N 
ATOM      3  H   UNL     1     114.595 109.824 102.577  1.00  0.00     0.345 HD
ATOM      4  H   UNL     1     114.464 111.515 102.517  1.00  0.00     0.345 HD
ATOM      5  H   UNL     1     115.723 110.812 103.392  1.00  0.00     0.345 HD
ENDBRANCH   1   2
BRANCH   1   6
ATOM      6  C   UNL     1     115.324 111.584 100.240  1.00  0.00     0.099 C 
ATOM      7  O   UNL     1     115.332 112.842 100.279  1.00  0.00    -0.544 OA
ATOM      8  O   UNL     1     114.657 110.938  99.207  1.00  0.00    -0.544 OA
ENDBRANCH   1   6
BRANCH   1   9
ATOM      9  C   UNL     1     116.386 109.360 100.798  1.00  0.00     0.047 C 
ATOM     10  C   UNL     1     117.892 109.098 100.955  1.00  0.00     0.014 C 
ATOM     11  C   UNL     1     115.581 108.212 101.430  1.00  0.00     0.014 C 
ENDBRANCH   1   9
TORSDOF 3
ENDMDL
MODEL 9
REMARK VINA RESULT:    -3.214     12.692     13.293
REMARK INTER + INTRA:          -3.745
REMARK INTER:                  -3.684
REMARK INTRA:                  -0.062
REMARK UNBOUND:                -0.061
REMARK SMILES CC(C)[C@H]([NH3+])C(=O)[O-]
REMARK SMILES IDX 4 1 5 2 6 6 7 7 8 8 2 9 1 10 3 11
REMARK H PARENT 5 3 5 4 5 5
REMARK Flexibility Score: inf
ROOT
ATOM      1  C   UNL     1     114.993 111.845 102.740  1.00  0.00     0.230 C 
ENDROOT
BRANCH   1   2
ATOM      2  N   UNL     1     114.417 110.577 103.216  1.00  0.00    -0.350 N 
ATOM      3  H   UNL     1     114.488 109.827 102.491  1.00  0.00     0.345 HD
ATOM      4  H   UNL     1     113.406 110.720 103.446  1.00  0.00     0.345 HD
ATOM      5  H   UNL     1     114.897 110.264 104.090  1.00  0.00     0.345 HD
ENDBRANCH   1   2
BRANCH   1   6
ATOM      6  C   UNL     1     114.090 113.007 103.075  1.00  0.00     0.099 C 
ATOM      7  O   UNL     1     112.910 113.056 102.639  1.00  0.00    -0.544 OA
ATOM      8  O   UNL     1     114.580 114.062 103.834  1.00  0.00    -0.544 OA
ENDBRANCH   1   6
BRANCH   1   9
ATOM      9  C   UNL     1     115.335 111.827 101.220  1.00  0.00     0.047 C 
ATOM     10  C   UNL     1     115.917 113.169 100.749  1.00  0.00     0.014 C 
ATOM     11  C   UNL     1     116.266 110.675 100.810  1.00  0.00     0.014 C 
ENDBRANCH   1   9
TORSDOF 3
ENDMDL
