MODEL 1
REMARK VINA RESULT:    -3.973      0.000      0.000
REMARK INTER + INTRA:          -5.330
REMARK INTER:                  -5.135
REMARK INTRA:                  -0.196
REMARK UNBOUND:                -0.196
REMARK SMILES CCCCCCC(=O)[O-]
REMARK SMILES IDX 5 1 6 2 7 3 8 4 9 5 4 6 3 7 2 8 1 9
REMARK H PARENT
REMARK Flexibility Score: inf
ROOT
ATOM      1  C   UNL     1       0.898  23.302  25.076  1.00  0.00     0.006 C 
ENDROOT
BRANCH   1   2
ATOM      2  C   UNL     1       1.017  24.815  25.299  1.00  0.00     0.053 C 
BRANCH   2   3
ATOM      3  C   UNL     1      -0.067  25.331  26.196  1.00  0.00     0.041 C 
ATOM      4  O   UNL     1      -0.094  26.546  26.525  1.00  0.00    -0.550 OA
ATOM      5  O   UNL     1      -1.064  24.474  26.646  1.00  0.00    -0.550 OA
ENDBRANCH   2   3
ENDBRANCH   1   2
BRANCH   1   6
ATOM      6  C   UNL     1       1.997  22.764  24.144  1.00  0.00     0.000 C 
BRANCH   6   7
ATOM      7  C   UNL     1       1.653  22.941  22.658  1.00  0.00    -0.000 C 
BRANCH   7   8
ATOM      8  C   UNL     1       2.645  23.857  21.925  1.00  0.00    -0.003 C 
ATOM      9  C   UNL     1       2.190  25.312  21.978  1.00  0.00     0.004 C 
ENDBRANCH   7   8
ENDBRANCH   6   7
ENDBRANCH   1   6
TORSDOF 5
ENDMDL
MODEL 2
REMARK VINA RESULT:    -3.821      1.462      2.213
REMARK INTER + INTRA:          -5.133
REMARK INTER:                  -4.917
REMARK INTRA:                  -0.216
REMARK UNBOUND:                -0.196
REMARK SMILES CCCCCCC(=O)[O-]
REMARK SMILES IDX 5 1 6 2 7 3 8 4 9 5 4 6 3 7 2 8 1 9
REMARK H PARENT
REMARK Flexibility Score: inf
ROOT
ATOM      1  C   UNL     1       1.001  25.172  25.037  1.00  0.00     0.006 C 
ENDROOT
BRANCH   1   2
ATOM      2  C   UNL     1       0.852  24.646  26.470  1.00  0.00     0.053 C 
BRANCH   2   3
ATOM      3  C   UNL     1      -0.121  23.508  26.546  1.00  0.00     0.041 C 
ATOM      4  O   UNL     1       0.261  22.330  26.324  1.00  0.00    -0.550 OA
ATOM      5  O   UNL     1      -1.446  23.749  26.889  1.00  0.00    -0.550 OA
ENDBRANCH   2   3
ENDBRANCH   1   2
BRANCH   1   6
ATOM      6  C   UNL     1       2.207  24.551  24.313  1.00  0.00     0.000 C 
BRANCH   6   7
ATOM      7  C   UNL     1       2.193  24.822  22.800  1.00  0.00    -0.000 C 
BRANCH   7   8
ATOM      8  C   UNL     1       2.182  23.532  21.967  1.00  0.00    -0.003 C 
ATOM      9  C   UNL     1       1.534  22.386  22.739  1.00  0.00     0.004 C 
ENDBRANCH   7   8
ENDBRANCH   6   7
ENDBRANCH   1   6
TORSDOF 5
ENDMDL
MODEL 3
REMARK VINA RESULT:    -3.599      2.694      4.410
REMARK INTER + INTRA:          -4.846
REMARK INTER:                  -4.745
REMARK INTRA:                  -0.102
REMARK UNBOUND:                -0.196
REMARK SMILES CCCCCCC(=O)[O-]
REMARK SMILES IDX 5 1 6 2 7 3 8 4 9 5 4 6 3 7 2 8 1 9
REMARK H PARENT
REMARK Flexibility Score: inf
ROOT
ATOM      1  C   UNL     1       1.504  22.538  23.543  1.00  0.00     0.006 C 
ENDROOT
BRANCH   1   2
ATOM      2  C   UNL     1       1.875  23.223  22.222  1.00  0.00     0.053 C 
BRANCH   2   3
ATOM      3  C   UNL     1       2.714  24.445  22.445  1.00  0.00     0.041 C 
ATOM      4  O   UNL     1       3.851  24.345  22.977  1.00  0.00    -0.550 OA
ATOM      5  O   UNL     1       2.250  25.690  22.041  1.00  0.00    -0.550 OA
ENDBRANCH   2   3
ENDBRANCH   1   2
BRANCH   1   6
ATOM      6  C   UNL     1       1.110  23.552  24.632  1.00  0.00     0.000 C 
BRANCH   6   7
ATOM      7  C   UNL     1       0.653  22.875  25.933  1.00  0.00    -0.000 C 
BRANCH   7   8
ATOM      8  C   UNL     1      -0.312  23.749  26.748  1.00  0.00    -0.003 C 
ATOM      9  C   UNL     1      -0.375  25.167  26.188  1.00  0.00     0.004 C 
ENDBRANCH   7   8
ENDBRANCH   6   7
ENDBRANCH   1   6
TORSDOF 5
ENDMDL
MODEL 4
REMARK VINA RESULT:    -3.563      2.605      4.117
REMARK INTER + INTRA:          -4.800
REMARK INTER:                  -4.673
REMARK INTRA:                  -0.127
REMARK UNBOUND:                -0.196
REMARK SMILES CCCCCCC(=O)[O-]
REMARK SMILES IDX 5 1 6 2 7 3 8 4 9 5 4 6 3 7 2 8 1 9
REMARK H PARENT
REMARK Flexibility Score: inf
ROOT
ATOM      1  C   UNL     1       1.314  22.506  22.949  1.00  0.00     0.006 C 
ENDROOT
BRANCH   1   2
ATOM      2  C   UNL     1       2.230  23.172  21.914  1.00  0.00     0.053 C 
BRANCH   2   3
ATOM      3  C   UNL     1       2.831  24.441  22.440  1.00  0.00     0.041 C 
ATOM      4  O   UNL     1       2.201  25.527  22.349  1.00  0.00    -0.550 OA
ATOM      5  O   UNL     1       4.077  24.417  23.054  1.00  0.00    -0.550 OA
ENDBRANCH   2   3
ENDBRANCH   1   2
BRANCH   1   6
ATOM      6  C   UNL     1       1.828  22.693  24.386  1.00  0.00     0.000 C 
BRANCH   6   7
ATOM      7  C   UNL     1       0.721  23.123  25.360  1.00  0.00    -0.000 C 
BRANCH   7   8
ATOM      8  C   UNL     1       1.069  24.411  26.122  1.00  0.00    -0.003 C 
ATOM      9  C   UNL     1       0.302  25.604  25.562  1.00  0.00     0.004 C 
ENDBRANCH   7   8
ENDBRANCH   6   7
ENDBRANCH   1   6
TORSDOF 5
ENDMDL
MODEL 5
REMARK VINA RESULT:    -3.462      1.358      2.059
REMARK INTER + INTRA:          -4.670
REMARK INTER:                  -4.408
REMARK INTRA:                  -0.262
REMARK UNBOUND:                -0.196
REMARK SMILES CCCCCCC(=O)[O-]
REMARK SMILES IDX 5 1 6 2 7 3 8 4 9 5 4 6 3 7 2 8 1 9
REMARK H PARENT
REMARK Flexibility Score: inf
ROOT
ATOM      1  C   UNL     1       2.775  24.365  24.550  1.00  0.00     0.006 C 
ENDROOT
BRANCH   1   2
ATOM      2  C   UNL     1       1.438  25.084  24.768  1.00  0.00     0.053 C 
BRANCH   2   3
ATOM      3  C   UNL     1       0.515  24.289  25.641  1.00  0.00     0.041 C 
ATOM      4  O   UNL     1      -0.415  24.860  26.267  1.00  0.00    -0.550 OA
ATOM      5  O   UNL     1       0.667  22.911  25.739  1.00  0.00    -0.550 OA
ENDBRANCH   2   3
ENDBRANCH   1   2
BRANCH   1   6
ATOM      6  C   UNL     1       3.303  24.542  23.116  1.00  0.00     0.000 C 
BRANCH   6   7
ATOM      7  C   UNL     1       2.210  24.346  22.054  1.00  0.00    -0.000 C 
BRANCH   7   8
ATOM      8  C   UNL     1       2.149  22.904  21.527  1.00  0.00    -0.003 C 
ATOM      9  C   UNL     1       1.256  22.035  22.407  1.00  0.00     0.004 C 
ENDBRANCH   7   8
ENDBRANCH   6   7
ENDBRANCH   1   6
TORSDOF 5
ENDMDL
MODEL 6
REMARK VINA RESULT:    -3.415     18.105     18.899
REMARK INTER + INTRA:          -4.609
REMARK INTER:                  -4.353
REMARK INTRA:                  -0.256
REMARK UNBOUND:                -0.196
REMARK SMILES CCCCCCC(=O)[O-]
REMARK SMILES IDX 5 1 6 2 7 3 8 4 9 5 4 6 3 7 2 8 1 9
REMARK H PARENT
REMARK Flexibility Score: inf
ROOT
ATOM      1  C   UNL     1     -10.533  23.981  11.013  1.00  0.00     0.006 C 
ENDROOT
BRANCH   1   2
ATOM      2  C   UNL     1     -11.935  23.961  10.390  1.00  0.00     0.053 C 
BRANCH   2   3
ATOM      3  C   UNL     1     -11.882  23.719   8.912  1.00  0.00     0.041 C 
ATOM      4  O   UNL     1     -12.570  22.800   8.395  1.00  0.00    -0.550 OA
ATOM      5  O   UNL     1     -11.093  24.526   8.102  1.00  0.00    -0.550 OA
ENDBRANCH   2   3
ENDBRANCH   1   2
BRANCH   1   6
ATOM      6  C   UNL     1     -10.515  23.360  12.420  1.00  0.00     0.000 C 
BRANCH   6   7
ATOM      7  C   UNL     1     -11.752  22.493  12.701  1.00  0.00    -0.000 C 
BRANCH   7   8
ATOM      8  C   UNL     1     -12.436  22.851  14.030  1.00  0.00    -0.003 C 
ATOM      9  C   UNL     1     -11.692  23.974  14.745  1.00  0.00     0.004 C 
ENDBRANCH   7   8
ENDBRANCH   6   7
ENDBRANCH   1   6
TORSDOF 5
ENDMDL
MODEL 7
REMARK VINA RESULT:    -3.403      3.558      3.931
REMARK INTER + INTRA:          -4.593
REMARK INTER:                  -4.184
REMARK INTRA:                  -0.409
REMARK UNBOUND:                -0.196
REMARK SMILES CCCCCCC(=O)[O-]
REMARK SMILES IDX 5 1 6 2 7 3 8 4 9 5 4 6 3 7 2 8 1 9
REMARK H PARENT
REMARK Flexibility Score: inf
ROOT
ATOM      1  C   UNL     1       2.713  23.162  25.314  1.00  0.00     0.006 C 
ENDROOT
BRANCH   1   2
ATOM      2  C   UNL     1       3.765  24.260  25.513  1.00  0.00     0.053 C 
BRANCH   2   3
ATOM      3  C   UNL     1       5.068  23.906  24.863  1.00  0.00     0.041 C 
ATOM      4  O   UNL     1       5.249  24.133  23.639  1.00  0.00    -0.550 OA
ATOM      5  O   UNL     1       6.092  23.349  25.619  1.00  0.00    -0.550 OA
ENDBRANCH   2   3
ENDBRANCH   1   2
BRANCH   1   6
ATOM      6  C   UNL     1       1.604  23.589  24.337  1.00  0.00     0.000 C 
BRANCH   6   7
ATOM      7  C   UNL     1       1.620  22.778  23.032  1.00  0.00    -0.000 C 
BRANCH   7   8
ATOM      8  C   UNL     1       2.199  23.569  21.849  1.00  0.00    -0.003 C 
ATOM      9  C   UNL     1       2.218  25.065  22.147  1.00  0.00     0.004 C 
ENDBRANCH   7   8
ENDBRANCH   6   7
ENDBRANCH   1   6
TORSDOF 5
ENDMDL
MODEL 8
REMARK VINA RESULT:    -3.328     17.512     18.141
REMARK INTER + INTRA:          -4.496
REMARK INTER:                  -4.292
REMARK INTRA:                  -0.204
REMARK UNBOUND:                -0.196
REMARK SMILES CCCCCCC(=O)[O-]
REMARK SMILES IDX 5 1 6 2 7 3 8 4 9 5 4 6 3 7 2 8 1 9
REMARK H PARENT
REMARK Flexibility Score: inf
ROOT
ATOM      1  C   UNL     1     -10.703  23.273  12.225  1.00  0.00     0.006 C 
ENDROOT
BRANCH   1   2
ATOM      2  C   UNL     1     -12.048  22.687  12.674  1.00  0.00     0.053 C 
BRANCH   2   3
ATOM      3  C   UNL     1     -12.235  22.801  14.157  1.00  0.00     0.041 C 
ATOM      4  O   UNL     1     -11.766  23.787  14.783  1.00  0.00    -0.550 OA
ATOM      5  O   UNL     1     -12.952  21.828  14.843  1.00  0.00    -0.550 OA
ENDBRANCH   2   3
ENDBRANCH   1   2
BRANCH   1   6
ATOM      6  C   UNL     1     -10.801  23.967  10.855  1.00  0.00     0.000 C 
BRANCH   6   7
ATOM      7  C   UNL     1     -12.216  23.910  10.262  1.00  0.00    -0.000 C 
BRANCH   7   8
ATOM      8  C   UNL     1     -12.225  23.463   8.792  1.00  0.00    -0.003 C 
ATOM      9  C   UNL     1     -11.197  24.241   7.976  1.00  0.00     0.004 C 
ENDBRANCH   7   8
ENDBRANCH   6   7
ENDBRANCH   1   6
TORSDOF 5
ENDMDL
MODEL 9
REMARK VINA RESULT:    -3.279      3.057      4.624
REMARK INTER + INTRA:          -4.433
REMARK INTER:                  -4.252
REMARK INTRA:                  -0.181
REMARK UNBOUND:                -0.196
REMARK SMILES CCCCCCC(=O)[O-]
REMARK SMILES IDX 5 1 6 2 7 3 8 4 9 5 4 6 3 7 2 8 1 9
REMARK H PARENT
REMARK Flexibility Score: inf
ROOT
ATOM      1  C   UNL     1       1.717  25.157  24.250  1.00  0.00     0.006 C 
ENDROOT
BRANCH   1   2
ATOM      2  C   UNL     1       2.497  24.013  23.589  1.00  0.00     0.053 C 
BRANCH   2   3
ATOM      3  C   UNL     1       2.073  23.799  22.168  1.00  0.00     0.041 C 
ATOM      4  O   UNL     1       1.935  24.780  21.392  1.00  0.00    -0.550 OA
ATOM      5  O   UNL     1       1.856  22.511  21.694  1.00  0.00    -0.550 OA
ENDBRANCH   2   3
ENDBRANCH   1   2
BRANCH   1   6
ATOM      6  C   UNL     1       0.928  24.685  25.483  1.00  0.00     0.000 C 
BRANCH   6   7
ATOM      7  C   UNL     1       0.731  23.162  25.513  1.00  0.00    -0.000 C 
BRANCH   7   8
ATOM      8  C   UNL     1       0.002  22.683  26.777  1.00  0.00    -0.003 C 
ATOM      9  C   UNL     1      -1.159  23.609  27.125  1.00  0.00     0.004 C 
ENDBRANCH   7   8
ENDBRANCH   6   7
ENDBRANCH   1   6
TORSDOF 5
ENDMDL
