MODEL 1
REMARK VINA RESULT:    -5.588      0.000      0.000
REMARK INTER + INTRA:          -5.915
REMARK INTER:                  -5.915
REMARK INTRA:                   0.000
REMARK UNBOUND:                 0.000
REMARK SMILES O=c1ccc2cc(O)c(O)cc2o1
REMARK SMILES IDX 4 1 3 2 2 3 1 4 13 5 12 6 11 7 9 8 7 9 6 10 5 11 8 12 10 14
REMARK H PARENT 8 13 10 15
REMARK Flexibility Score: inf
ROOT
ATOM      1  C   UNL     1      60.216   0.356  -3.046  1.00  0.00     0.019 A 
ATOM      2  C   UNL     1      59.714   1.511  -3.643  1.00  0.00     0.094 A 
ATOM      3  C   UNL     1      58.651   2.184  -3.029  1.00  0.00     0.336 A 
ATOM      4  O   UNL     1      58.184   3.229  -3.551  1.00  0.00    -0.246 OA
ATOM      5  O   UNL     1      58.132   1.726  -1.893  1.00  0.00    -0.423 OA
ATOM      6  C   UNL     1      58.582   0.628  -1.291  1.00  0.00     0.142 A 
ATOM      7  C   UNL     1      57.995   0.194  -0.097  1.00  0.00     0.098 A 
ATOM      8  C   UNL     1      58.464  -0.963   0.542  1.00  0.00     0.161 A 
ATOM      9  C   UNL     1      59.530  -1.690  -0.019  1.00  0.00     0.158 A 
ATOM     10  C   UNL     1      60.119  -1.258  -1.214  1.00  0.00     0.062 A 
ATOM     11  C   UNL     1      59.651  -0.102  -1.853  1.00  0.00     0.022 A 
ENDROOT
BRANCH   9  12
ATOM     12  O   UNL     1      60.017  -2.843   0.596  1.00  0.00    -0.504 OA
ATOM     13  H   UNL     1      59.415  -3.472   1.112  1.00  0.00     0.293 HD
ENDBRANCH   9  12
BRANCH   8  14
ATOM     14  O   UNL     1      57.877  -1.391   1.731  1.00  0.00    -0.504 OA
ATOM     15  H   UNL     1      57.010  -1.915   1.736  1.00  0.00     0.293 HD
ENDBRANCH   8  14
TORSDOF 2
ENDMDL
MODEL 2
REMARK VINA RESULT:    -5.407      1.620      1.620
REMARK INTER + INTRA:          -5.723
REMARK INTER:                  -5.723
REMARK INTRA:                   0.000
REMARK UNBOUND:                 0.000
REMARK SMILES O=c1ccc2cc(O)c(O)cc2o1
REMARK SMILES IDX 4 1 3 2 2 3 1 4 13 5 12 6 11 7 9 8 7 9 6 10 5 11 8 12 10 14
REMARK H PARENT 8 13 10 15
REMARK Flexibility Score: inf
ROOT
ATOM      1  C   UNL     1      59.533   0.430  -3.493  1.00  0.00     0.019 A 
ATOM      2  C   UNL     1      59.537   1.824  -3.521  1.00  0.00     0.094 A 
ATOM      3  C   UNL     1      58.728   2.522  -2.618  1.00  0.00     0.336 A 
ATOM      4  O   UNL     1      58.718   3.780  -2.627  1.00  0.00    -0.246 OA
ATOM      5  O   UNL     1      57.968   1.864  -1.747  1.00  0.00    -0.423 OA
ATOM      6  C   UNL     1      57.935   0.534  -1.687  1.00  0.00     0.142 A 
ATOM      7  C   UNL     1      57.116  -0.103  -0.749  1.00  0.00     0.098 A 
ATOM      8  C   UNL     1      57.075  -1.503  -0.682  1.00  0.00     0.161 A 
ATOM      9  C   UNL     1      57.863  -2.271  -1.559  1.00  0.00     0.158 A 
ATOM     10  C   UNL     1      58.684  -1.635  -2.499  1.00  0.00     0.062 A 
ATOM     11  C   UNL     1      58.724  -0.236  -2.567  1.00  0.00     0.022 A 
ENDROOT
BRANCH   9  12
ATOM     12  O   UNL     1      57.842  -3.664  -1.513  1.00  0.00    -0.504 OA
ATOM     13  H   UNL     1      57.555  -4.171  -0.685  1.00  0.00     0.293 HD
ENDBRANCH   9  12
BRANCH   8  14
ATOM     14  O   UNL     1      56.258  -2.134   0.255  1.00  0.00    -0.504 OA
ATOM     15  H   UNL     1      55.501  -2.746  -0.028  1.00  0.00     0.293 HD
ENDBRANCH   8  14
TORSDOF 2
ENDMDL
MODEL 3
REMARK VINA RESULT:    -5.385      1.790      4.406
REMARK INTER + INTRA:          -5.700
REMARK INTER:                  -5.700
REMARK INTRA:                   0.000
REMARK UNBOUND:                 0.000
REMARK SMILES O=c1ccc2cc(O)c(O)cc2o1
REMARK SMILES IDX 4 1 3 2 2 3 1 4 13 5 12 6 11 7 9 8 7 9 6 10 5 11 8 12 10 14
REMARK H PARENT 8 13 10 15
REMARK Flexibility Score: inf
ROOT
ATOM      1  C   UNL     1      60.130  -1.608  -3.513  1.00  0.00     0.019 A 
ATOM      2  C   UNL     1      59.828  -2.865  -2.991  1.00  0.00     0.094 A 
ATOM      3  C   UNL     1      58.903  -2.959  -1.945  1.00  0.00     0.336 A 
ATOM      4  O   UNL     1      58.617  -4.085  -1.460  1.00  0.00    -0.246 OA
ATOM      5  O   UNL     1      58.324  -1.866  -1.458  1.00  0.00    -0.423 OA
ATOM      6  C   UNL     1      58.585  -0.647  -1.927  1.00  0.00     0.142 A 
ATOM      7  C   UNL     1      57.944   0.467  -1.375  1.00  0.00     0.098 A 
ATOM      8  C   UNL     1      58.215   1.753  -1.865  1.00  0.00     0.161 A 
ATOM      9  C   UNL     1      59.134   1.924  -2.917  1.00  0.00     0.158 A 
ATOM     10  C   UNL     1      59.776   0.809  -3.471  1.00  0.00     0.062 A 
ATOM     11  C   UNL     1      59.506  -0.476  -2.982  1.00  0.00     0.022 A 
ENDROOT
BRANCH   9  12
ATOM     12  O   UNL     1      59.420   3.191  -3.423  1.00  0.00    -0.504 OA
ATOM     13  H   UNL     1      58.740   3.727  -3.948  1.00  0.00     0.293 HD
ENDBRANCH   9  12
BRANCH   8  14
ATOM     14  O   UNL     1      57.574   2.860  -1.312  1.00  0.00    -0.504 OA
ATOM     15  H   UNL     1      56.576   2.865  -1.141  1.00  0.00     0.293 HD
ENDBRANCH   8  14
TORSDOF 2
ENDMDL
MODEL 4
REMARK VINA RESULT:    -5.384      2.353      4.733
REMARK INTER + INTRA:          -5.699
REMARK INTER:                  -5.699
REMARK INTRA:                   0.000
REMARK UNBOUND:                 0.000
REMARK SMILES O=c1ccc2cc(O)c(O)cc2o1
REMARK SMILES IDX 4 1 3 2 2 3 1 4 13 5 12 6 11 7 9 8 7 9 6 10 5 11 8 12 10 14
REMARK H PARENT 8 13 10 15
REMARK Flexibility Score: inf
ROOT
ATOM      1  C   UNL     1      58.382  -1.919  -1.771  1.00  0.00     0.019 A 
ATOM      2  C   UNL     1      59.101  -2.947  -2.377  1.00  0.00     0.094 A 
ATOM      3  C   UNL     1      60.041  -2.627  -3.363  1.00  0.00     0.336 A 
ATOM      4  O   UNL     1      60.701  -3.541  -3.922  1.00  0.00    -0.246 OA
ATOM      5  O   UNL     1      60.243  -1.360  -3.715  1.00  0.00    -0.423 OA
ATOM      6  C   UNL     1      59.577  -0.349  -3.161  1.00  0.00     0.142 A 
ATOM      7  C   UNL     1      59.832   0.964  -3.572  1.00  0.00     0.098 A 
ATOM      8  C   UNL     1      59.134   2.034  -2.993  1.00  0.00     0.161 A 
ATOM      9  C   UNL     1      58.174   1.787  -1.995  1.00  0.00     0.158 A 
ATOM     10  C   UNL     1      57.917   0.473  -1.582  1.00  0.00     0.062 A 
ATOM     11  C   UNL     1      58.614  -0.596  -2.160  1.00  0.00     0.022 A 
ENDROOT
BRANCH   9  12
ATOM     12  O   UNL     1      57.466   2.832  -1.402  1.00  0.00    -0.504 OA
ATOM     13  H   UNL     1      56.502   2.731  -1.109  1.00  0.00     0.293 HD
ENDBRANCH   9  12
BRANCH   8  14
ATOM     14  O   UNL     1      59.390   3.340  -3.405  1.00  0.00    -0.504 OA
ATOM     15  H   UNL     1      60.142   3.556  -4.050  1.00  0.00     0.293 HD
ENDBRANCH   8  14
TORSDOF 2
ENDMDL
MODEL 5
REMARK VINA RESULT:    -5.245      1.532      2.029
REMARK INTER + INTRA:          -5.552
REMARK INTER:                  -5.552
REMARK INTRA:                   0.000
REMARK UNBOUND:                 0.000
REMARK SMILES O=c1ccc2cc(O)c(O)cc2o1
REMARK SMILES IDX 4 1 3 2 2 3 1 4 13 5 12 6 11 7 9 8 7 9 6 10 5 11 8 12 10 14
REMARK H PARENT 8 13 10 15
REMARK Flexibility Score: inf
ROOT
ATOM      1  C   UNL     1      60.628  -0.766  -1.211  1.00  0.00     0.019 A 
ATOM      2  C   UNL     1      60.769  -0.105  -2.430  1.00  0.00     0.094 A 
ATOM      3  C   UNL     1      59.648   0.507  -3.002  1.00  0.00     0.336 A 
ATOM      4  O   UNL     1      59.754   1.109  -4.102  1.00  0.00    -0.246 OA
ATOM      5  O   UNL     1      58.468   0.457  -2.390  1.00  0.00    -0.423 OA
ATOM      6  C   UNL     1      58.291  -0.163  -1.226  1.00  0.00     0.142 A 
ATOM      7  C   UNL     1      57.026  -0.182  -0.629  1.00  0.00     0.098 A 
ATOM      8  C   UNL     1      56.832  -0.835   0.597  1.00  0.00     0.161 A 
ATOM      9  C   UNL     1      57.915  -1.472   1.231  1.00  0.00     0.158 A 
ATOM     10  C   UNL     1      59.182  -1.454   0.635  1.00  0.00     0.062 A 
ATOM     11  C   UNL     1      59.376  -0.802  -0.590  1.00  0.00     0.022 A 
ENDROOT
BRANCH   9  12
ATOM     12  O   UNL     1      57.750  -2.127   2.451  1.00  0.00    -0.504 OA
ATOM     13  H   UNL     1      57.988  -1.690   3.333  1.00  0.00     0.293 HD
ENDBRANCH   9  12
BRANCH   8  14
ATOM     14  O   UNL     1      55.570  -0.852   1.189  1.00  0.00    -0.504 OA
ATOM     15  H   UNL     1      55.416  -0.487   2.122  1.00  0.00     0.293 HD
ENDBRANCH   8  14
TORSDOF 2
ENDMDL
MODEL 6
REMARK VINA RESULT:    -5.228      1.233      4.516
REMARK INTER + INTRA:          -5.533
REMARK INTER:                  -5.533
REMARK INTRA:                   0.000
REMARK UNBOUND:                 0.000
REMARK SMILES O=c1ccc2cc(O)c(O)cc2o1
REMARK SMILES IDX 4 1 3 2 2 3 1 4 13 5 12 6 11 7 9 8 7 9 6 10 5 11 8 12 10 14
REMARK H PARENT 8 13 10 15
REMARK Flexibility Score: inf
ROOT
ATOM      1  C   UNL     1      60.901  -1.581  -0.985  1.00  0.00     0.019 A 
ATOM      2  C   UNL     1      60.834  -2.235   0.245  1.00  0.00     0.094 A 
ATOM      3  C   UNL     1      59.875  -1.825   1.178  1.00  0.00     0.336 A 
ATOM      4  O   UNL     1      59.798  -2.402   2.294  1.00  0.00    -0.246 OA
ATOM      5  O   UNL     1      59.041  -0.829   0.894  1.00  0.00    -0.423 OA
ATOM      6  C   UNL     1      59.071  -0.180  -0.268  1.00  0.00     0.142 A 
ATOM      7  C   UNL     1      58.168   0.861  -0.511  1.00  0.00     0.098 A 
ATOM      8  C   UNL     1      58.195   1.549  -1.733  1.00  0.00     0.161 A 
ATOM      9  C   UNL     1      59.133   1.192  -2.719  1.00  0.00     0.158 A 
ATOM     10  C   UNL     1      60.038   0.151  -2.477  1.00  0.00     0.062 A 
ATOM     11  C   UNL     1      60.011  -0.537  -1.257  1.00  0.00     0.022 A 
ENDROOT
BRANCH   9  12
ATOM     12  O   UNL     1      59.181   1.859  -3.942  1.00  0.00    -0.504 OA
ATOM     13  H   UNL     1      59.989   2.397  -4.230  1.00  0.00     0.293 HD
ENDBRANCH   9  12
BRANCH   8  14
ATOM     14  O   UNL     1      57.294   2.585  -1.971  1.00  0.00    -0.504 OA
ATOM     15  H   UNL     1      56.457   2.700  -1.411  1.00  0.00     0.293 HD
ENDBRANCH   8  14
TORSDOF 2
ENDMDL
MODEL 7
REMARK VINA RESULT:    -5.212      1.591      2.813
REMARK INTER + INTRA:          -5.517
REMARK INTER:                  -5.517
REMARK INTRA:                   0.000
REMARK UNBOUND:                 0.000
REMARK SMILES O=c1ccc2cc(O)c(O)cc2o1
REMARK SMILES IDX 4 1 3 2 2 3 1 4 13 5 12 6 11 7 9 8 7 9 6 10 5 11 8 12 10 14
REMARK H PARENT 8 13 10 15
REMARK Flexibility Score: inf
ROOT
ATOM      1  C   UNL     1      58.121   1.152  -0.995  1.00  0.00     0.019 A 
ATOM      2  C   UNL     1      57.876   2.320  -1.715  1.00  0.00     0.094 A 
ATOM      3  C   UNL     1      58.437   2.460  -2.989  1.00  0.00     0.336 A 
ATOM      4  O   UNL     1      58.227   3.507  -3.655  1.00  0.00    -0.246 OA
ATOM      5  O   UNL     1      59.192   1.493  -3.503  1.00  0.00    -0.423 OA
ATOM      6  C   UNL     1      59.450   0.363  -2.849  1.00  0.00     0.142 A 
ATOM      7  C   UNL     1      60.251  -0.620  -3.440  1.00  0.00     0.098 A 
ATOM      8  C   UNL     1      60.528  -1.812  -2.756  1.00  0.00     0.161 A 
ATOM      9  C   UNL     1      59.997  -2.023  -1.470  1.00  0.00     0.158 A 
ATOM     10  C   UNL     1      59.195  -1.040  -0.876  1.00  0.00     0.062 A 
ATOM     11  C   UNL     1      58.918   0.151  -1.559  1.00  0.00     0.022 A 
ENDROOT
BRANCH   9  12
ATOM     12  O   UNL     1      60.256  -3.200  -0.768  1.00  0.00    -0.504 OA
ATOM     13  H   UNL     1      59.877  -4.093  -1.057  1.00  0.00     0.293 HD
ENDBRANCH   9  12
BRANCH   8  14
ATOM     14  O   UNL     1      61.327  -2.789  -3.348  1.00  0.00    -0.504 OA
ATOM     15  H   UNL     1      61.873  -2.596  -4.180  1.00  0.00     0.293 HD
ENDBRANCH   8  14
TORSDOF 2
ENDMDL
MODEL 8
REMARK VINA RESULT:    -5.078      1.767      4.828
REMARK INTER + INTRA:          -5.374
REMARK INTER:                  -5.374
REMARK INTRA:                   0.000
REMARK UNBOUND:                 0.000
REMARK SMILES O=c1ccc2cc(O)c(O)cc2o1
REMARK SMILES IDX 4 1 3 2 2 3 1 4 13 5 12 6 11 7 9 8 7 9 6 10 5 11 8 12 10 14
REMARK H PARENT 8 13 10 15
REMARK Flexibility Score: inf
ROOT
ATOM      1  C   UNL     1      59.573  -1.306   0.342  1.00  0.00     0.019 A 
ATOM      2  C   UNL     1      60.524  -2.316   0.196  1.00  0.00     0.094 A 
ATOM      3  C   UNL     1      61.266  -2.380  -0.989  1.00  0.00     0.336 A 
ATOM      4  O   UNL     1      62.130  -3.284  -1.140  1.00  0.00    -0.246 OA
ATOM      5  O   UNL     1      61.066  -1.492  -1.959  1.00  0.00    -0.423 OA
ATOM      6  C   UNL     1      60.169  -0.514  -1.859  1.00  0.00     0.142 A 
ATOM      7  C   UNL     1      60.002   0.392  -2.912  1.00  0.00     0.098 A 
ATOM      8  C   UNL     1      59.058   1.424  -2.814  1.00  0.00     0.161 A 
ATOM      9  C   UNL     1      58.276   1.551  -1.652  1.00  0.00     0.158 A 
ATOM     10  C   UNL     1      58.441   0.646  -0.596  1.00  0.00     0.062 A 
ATOM     11  C   UNL     1      59.384  -0.386  -0.694  1.00  0.00     0.022 A 
ENDROOT
BRANCH   9  12
ATOM     12  O   UNL     1      57.331   2.569  -1.527  1.00  0.00    -0.504 OA
ATOM     13  H   UNL     1      56.721   2.642  -0.723  1.00  0.00     0.293 HD
ENDBRANCH   9  12
BRANCH   8  14
ATOM     14  O   UNL     1      58.895   2.325  -3.866  1.00  0.00    -0.504 OA
ATOM     15  H   UNL     1      59.176   2.093  -4.811  1.00  0.00     0.293 HD
ENDBRANCH   8  14
TORSDOF 2
ENDMDL
MODEL 9
REMARK VINA RESULT:    -4.951      1.564      4.387
REMARK INTER + INTRA:          -5.240
REMARK INTER:                  -5.240
REMARK INTRA:                   0.000
REMARK UNBOUND:                 0.000
REMARK SMILES O=c1ccc2cc(O)c(O)cc2o1
REMARK SMILES IDX 4 1 3 2 2 3 1 4 13 5 12 6 11 7 9 8 7 9 6 10 5 11 8 12 10 14
REMARK H PARENT 8 13 10 15
REMARK Flexibility Score: inf
ROOT
ATOM      1  C   UNL     1      59.319  -1.630  -0.228  1.00  0.00     0.019 A 
ATOM      2  C   UNL     1      58.286  -1.818   0.689  1.00  0.00     0.094 A 
ATOM      3  C   UNL     1      57.201  -0.933   0.678  1.00  0.00     0.336 A 
ATOM      4  O   UNL     1      56.258  -1.086   1.497  1.00  0.00    -0.246 OA
ATOM      5  O   UNL     1      57.159   0.070  -0.194  1.00  0.00    -0.423 OA
ATOM      6  C   UNL     1      58.125   0.284  -1.086  1.00  0.00     0.142 A 
ATOM      7  C   UNL     1      58.026   1.356  -1.978  1.00  0.00     0.098 A 
ATOM      8  C   UNL     1      59.040   1.588  -2.919  1.00  0.00     0.161 A 
ATOM      9  C   UNL     1      60.160   0.739  -2.967  1.00  0.00     0.158 A 
ATOM     10  C   UNL     1      60.261  -0.335  -2.073  1.00  0.00     0.062 A 
ATOM     11  C   UNL     1      59.249  -0.567  -1.133  1.00  0.00     0.022 A 
ENDROOT
BRANCH   9  12
ATOM     12  O   UNL     1      61.182   0.946  -3.893  1.00  0.00    -0.504 OA
ATOM     13  H   UNL     1      61.743   0.185  -4.254  1.00  0.00     0.293 HD
ENDBRANCH   9  12
BRANCH   8  14
ATOM     14  O   UNL     1      58.938   2.657  -3.808  1.00  0.00    -0.504 OA
ATOM     15  H   UNL     1      58.746   2.513  -4.792  1.00  0.00     0.293 HD
ENDBRANCH   8  14
TORSDOF 2
ENDMDL
