MODEL 1
REMARK VINA RESULT:    -5.913      0.000      0.000
REMARK INTER + INTRA:         -10.885
REMARK INTER:                  -9.024
REMARK INTRA:                  -1.861
REMARK UNBOUND:                -1.861
REMARK SMILES OC[C@@H]1O[C@@](CO)(O[C@@H]2O[C@H](CO)[C@@H](O)[C@H](O)[C@@H]2O)[C@@H](O)[C@H]1O
REMARK SMILES IDX 8 1 9 2 11 3 14 4 10 5 16 6 18 7 12 8 13 9 15 11 17 13 19 15
REMARK SMILES IDX 5 17 20 18 4 19 22 20 3 21 6 22 7 23 21 25 23 27 2 29 1 30
REMARK H PARENT 13 10 15 12 17 14 19 16 7 24 21 26 23 28 1 31
REMARK Flexibility Score: inf
ROOT
ATOM      1  O   UNL     1     147.166 153.352 129.339  1.00  0.00    -0.313 OA
ENDROOT
BRANCH   1   2
ATOM      2  C   UNL     1     146.998 152.730 130.610  1.00  0.00     0.285 C 
ATOM      3  C   UNL     1     145.515 151.102 129.680  1.00  0.00     0.178 C 
ATOM      4  C   UNL     1     144.448 152.229 129.720  1.00  0.00     0.177 C 
ATOM      5  O   UNL     1     146.694 151.354 130.447  1.00  0.00    -0.341 OA
ATOM      6  C   UNL     1     144.482 152.903 131.102  1.00  0.00     0.179 C 
ATOM      7  C   UNL     1     145.898 153.450 131.427  1.00  0.00     0.202 C 
BRANCH   3   8
ATOM      8  C   UNL     1     145.881 150.723 128.235  1.00  0.00     0.191 C 
BRANCH   8   9
ATOM      9  O   UNL     1     145.625 151.791 127.365  1.00  0.00    -0.394 OA
ATOM     10  H   UNL     1     145.117 152.467 127.886  1.00  0.00     0.210 HD
ENDBRANCH   8   9
ENDBRANCH   3   8
BRANCH   4  11
ATOM     11  O   UNL     1     143.178 151.677 129.483  1.00  0.00    -0.387 OA
ATOM     12  H   UNL     1     142.555 152.089 130.137  1.00  0.00     0.211 HD
ENDBRANCH   4  11
BRANCH   6  13
ATOM     13  O   UNL     1     143.497 153.902 131.218  1.00  0.00    -0.387 OA
ATOM     14  H   UNL     1     143.940 154.732 131.535  1.00  0.00     0.211 HD
ENDBRANCH   6  13
BRANCH   7  15
ATOM     15  O   UNL     1     145.981 154.834 131.194  1.00  0.00    -0.385 OA
ATOM     16  H   UNL     1     146.487 155.228 131.951  1.00  0.00     0.211 HD
ENDBRANCH   7  15
ENDBRANCH   1   2
BRANCH   1  17
ATOM     17  C   UNL     1     148.426 153.994 129.147  1.00  0.00     0.224 C 
ATOM     18  C   UNL     1     148.880 153.715 127.711  1.00  0.00     0.208 C 
ATOM     19  O   UNL     1     148.304 155.400 129.264  1.00  0.00    -0.337 OA
ATOM     20  C   UNL     1     148.203 154.813 126.933  1.00  0.00     0.180 C 
ATOM     21  C   UNL     1     148.111 155.939 127.970  1.00  0.00     0.179 C 
BRANCH  17  22
ATOM     22  C   UNL     1     149.495 153.457 130.135  1.00  0.00     0.225 C 
BRANCH  22  23
ATOM     23  O   UNL     1     150.781 153.916 129.820  1.00  0.00    -0.391 OA
ATOM     24  H   UNL     1     151.035 153.488 128.962  1.00  0.00     0.210 HD
ENDBRANCH  22  23
ENDBRANCH  17  22
BRANCH  18  25
ATOM     25  O   UNL     1     148.496 152.434 127.280  1.00  0.00    -0.385 OA
ATOM     26  H   UNL     1     147.559 152.304 127.582  1.00  0.00     0.211 HD
ENDBRANCH  18  25
BRANCH  20  27
ATOM     27  O   UNL     1     146.916 154.411 126.533  1.00  0.00    -0.387 OA
ATOM     28  H   UNL     1     147.000 153.475 126.213  1.00  0.00     0.211 HD
ENDBRANCH  20  27
BRANCH  21  29
ATOM     29  C   UNL     1     149.165 157.025 127.713  1.00  0.00     0.191 C 
BRANCH  29  30
ATOM     30  O   UNL     1     149.296 157.263 126.337  1.00  0.00    -0.394 OA
ATOM     31  H   UNL     1     150.257 157.144 126.118  1.00  0.00     0.210 HD
ENDBRANCH  29  30
ENDBRANCH  21  29
ENDBRANCH   1  17
TORSDOF 13
ENDMDL
MODEL 2
REMARK VINA RESULT:    -5.792      1.598      5.363
REMARK INTER + INTRA:         -10.701
REMARK INTER:                  -8.657
REMARK INTRA:                  -2.044
REMARK UNBOUND:                -1.861
REMARK SMILES OC[C@@H]1O[C@@](CO)(O[C@@H]2O[C@H](CO)[C@@H](O)[C@H](O)[C@@H]2O)[C@@H](O)[C@H]1O
REMARK SMILES IDX 8 1 9 2 11 3 14 4 10 5 16 6 18 7 12 8 13 9 15 11 17 13 19 15
REMARK SMILES IDX 5 17 20 18 4 19 22 20 3 21 6 22 7 23 21 25 23 27 2 29 1 30
REMARK H PARENT 13 10 15 12 17 14 19 16 7 24 21 26 23 28 1 31
REMARK Flexibility Score: inf
ROOT
ATOM      1  O   UNL     1     147.042 153.460 128.877  1.00  0.00    -0.313 OA
ENDROOT
BRANCH   1   2
ATOM      2  C   UNL     1     147.742 152.798 127.827  1.00  0.00     0.285 C 
ATOM      3  C   UNL     1     149.851 153.402 128.777  1.00  0.00     0.178 C 
ATOM      4  C   UNL     1     149.587 154.804 128.167  1.00  0.00     0.177 C 
ATOM      5  O   UNL     1     149.010 152.356 128.284  1.00  0.00    -0.341 OA
ATOM      6  C   UNL     1     149.139 154.639 126.705  1.00  0.00     0.179 C 
ATOM      7  C   UNL     1     147.886 153.730 126.599  1.00  0.00     0.202 C 
BRANCH   3   8
ATOM      8  C   UNL     1     149.820 153.440 130.314  1.00  0.00     0.191 C 
BRANCH   8   9
ATOM      9  O   UNL     1     148.965 154.456 130.765  1.00  0.00    -0.394 OA
ATOM     10  H   UNL     1     148.297 154.604 130.046  1.00  0.00     0.210 HD
ENDBRANCH   8   9
ENDBRANCH   3   8
BRANCH   4  11
ATOM     11  O   UNL     1     150.765 155.568 128.228  1.00  0.00    -0.387 OA
ATOM     12  H   UNL     1     151.004 155.810 127.295  1.00  0.00     0.211 HD
ENDBRANCH   4  11
BRANCH   6  13
ATOM     13  O   UNL     1     148.936 155.884 126.080  1.00  0.00    -0.387 OA
ATOM     14  H   UNL     1     149.110 156.594 126.752  1.00  0.00     0.211 HD
ENDBRANCH   6  13
BRANCH   7  15
ATOM     15  O   UNL     1     146.710 154.488 126.454  1.00  0.00    -0.385 OA
ATOM     16  H   UNL     1     146.003 154.035 126.983  1.00  0.00     0.211 HD
ENDBRANCH   7  15
ENDBRANCH   1   2
BRANCH   1  17
ATOM     17  C   UNL     1     145.886 152.771 129.356  1.00  0.00     0.224 C 
ATOM     18  C   UNL     1     145.125 153.721 130.284  1.00  0.00     0.208 C 
ATOM     19  O   UNL     1     145.005 152.456 128.292  1.00  0.00    -0.337 OA
ATOM     20  C   UNL     1     144.263 154.499 129.324  1.00  0.00     0.180 C 
ATOM     21  C   UNL     1     144.044 153.489 128.190  1.00  0.00     0.179 C 
BRANCH  17  22
ATOM     22  C   UNL     1     146.273 151.489 130.139  1.00  0.00     0.225 C 
BRANCH  22  23
ATOM     23  O   UNL     1     147.350 151.708 131.010  1.00  0.00    -0.391 OA
ATOM     24  H   UNL     1     148.148 151.863 130.442  1.00  0.00     0.210 HD
ENDBRANCH  22  23
ENDBRANCH  17  22
BRANCH  18  25
ATOM     25  O   UNL     1     145.994 154.547 131.016  1.00  0.00    -0.385 OA
ATOM     26  H   UNL     1     146.728 153.964 131.344  1.00  0.00     0.211 HD
ENDBRANCH  18  25
BRANCH  20  27
ATOM     27  O   UNL     1     144.953 155.626 128.846  1.00  0.00    -0.387 OA
ATOM     28  H   UNL     1     145.864 155.587 129.240  1.00  0.00     0.211 HD
ENDBRANCH  20  27
BRANCH  21  29
ATOM     29  C   UNL     1     142.637 152.876 128.250  1.00  0.00     0.191 C 
BRANCH  29  30
ATOM     30  O   UNL     1     141.710 153.825 128.705  1.00  0.00    -0.394 OA
ATOM     31  H   UNL     1     142.170 154.364 129.400  1.00  0.00     0.210 HD
ENDBRANCH  29  30
ENDBRANCH  21  29
ENDBRANCH   1  17
TORSDOF 13
ENDMDL
MODEL 3
REMARK VINA RESULT:    -5.721      1.862      4.001
REMARK INTER + INTRA:         -10.591
REMARK INTER:                  -8.509
REMARK INTRA:                  -2.083
REMARK UNBOUND:                -1.861
REMARK SMILES OC[C@@H]1O[C@@](CO)(O[C@@H]2O[C@H](CO)[C@@H](O)[C@H](O)[C@@H]2O)[C@@H](O)[C@H]1O
REMARK SMILES IDX 8 1 9 2 11 3 14 4 10 5 16 6 18 7 12 8 13 9 15 11 17 13 19 15
REMARK SMILES IDX 5 17 20 18 4 19 22 20 3 21 6 22 7 23 21 25 23 27 2 29 1 30
REMARK H PARENT 13 10 15 12 17 14 19 16 7 24 21 26 23 28 1 31
REMARK Flexibility Score: inf
ROOT
ATOM      1  O   UNL     1     145.096 152.913 129.760  1.00  0.00    -0.313 OA
ENDROOT
BRANCH   1   2
ATOM      2  C   UNL     1     144.427 151.948 128.952  1.00  0.00     0.285 C 
ATOM      3  C   UNL     1     142.719 151.669 130.602  1.00  0.00     0.178 C 
ATOM      4  C   UNL     1     143.762 150.803 131.358  1.00  0.00     0.177 C 
ATOM      5  O   UNL     1     143.037 151.947 129.237  1.00  0.00    -0.341 OA
ATOM      6  C   UNL     1     144.398 149.808 130.373  1.00  0.00     0.179 C 
ATOM      7  C   UNL     1     145.040 150.543 129.167  1.00  0.00     0.202 C 
BRANCH   3   8
ATOM      8  C   UNL     1     142.409 152.970 131.361  1.00  0.00     0.191 C 
BRANCH   8   9
ATOM      9  O   UNL     1     143.493 153.340 132.169  1.00  0.00    -0.394 OA
ATOM     10  H   UNL     1     143.117 153.582 133.055  1.00  0.00     0.210 HD
ENDBRANCH   8   9
ENDBRANCH   3   8
BRANCH   4  11
ATOM     11  O   UNL     1     143.123 150.109 132.401  1.00  0.00    -0.387 OA
ATOM     12  H   UNL     1     143.826 149.848 133.051  1.00  0.00     0.211 HD
ENDBRANCH   4  11
BRANCH   6  13
ATOM     13  O   UNL     1     145.315 148.955 131.015  1.00  0.00    -0.387 OA
ATOM     14  H   UNL     1     145.243 149.111 131.994  1.00  0.00     0.211 HD
ENDBRANCH   6  13
BRANCH   7  15
ATOM     15  O   UNL     1     146.433 150.664 129.320  1.00  0.00    -0.385 OA
ATOM     16  H   UNL     1     146.655 151.626 129.220  1.00  0.00     0.211 HD
ENDBRANCH   7  15
ENDBRANCH   1   2
BRANCH   1  17
ATOM     17  C   UNL     1     145.609 154.040 129.049  1.00  0.00     0.224 C 
ATOM     18  C   UNL     1     146.537 154.808 129.993  1.00  0.00     0.208 C 
ATOM     19  O   UNL     1     146.403 153.629 127.950  1.00  0.00    -0.337 OA
ATOM     20  C   UNL     1     147.852 154.096 129.813  1.00  0.00     0.180 C 
ATOM     21  C   UNL     1     147.754 153.590 128.368  1.00  0.00     0.179 C 
BRANCH  17  22
ATOM     22  C   UNL     1     144.469 154.979 128.574  1.00  0.00     0.225 C 
BRANCH  22  23
ATOM     23  O   UNL     1     144.188 155.982 129.512  1.00  0.00    -0.391 OA
ATOM     24  H   UNL     1     144.942 155.990 130.157  1.00  0.00     0.210 HD
ENDBRANCH  22  23
ENDBRANCH  17  22
BRANCH  18  25
ATOM     25  O   UNL     1     146.082 154.769 131.322  1.00  0.00    -0.385 OA
ATOM     26  H   UNL     1     146.330 155.639 131.730  1.00  0.00     0.211 HD
ENDBRANCH  18  25
BRANCH  20  27
ATOM     27  O   UNL     1     147.952 153.014 130.704  1.00  0.00    -0.387 OA
ATOM     28  H   UNL     1     147.902 152.190 130.153  1.00  0.00     0.211 HD
ENDBRANCH  20  27
BRANCH  21  29
ATOM     29  C   UNL     1     148.602 154.445 127.416  1.00  0.00     0.191 C 
BRANCH  29  30
ATOM     30  O   UNL     1     147.782 155.091 126.479  1.00  0.00    -0.394 OA
ATOM     31  H   UNL     1     148.380 155.645 125.911  1.00  0.00     0.210 HD
ENDBRANCH  29  30
ENDBRANCH  21  29
ENDBRANCH   1  17
TORSDOF 13
ENDMDL
MODEL 4
REMARK VINA RESULT:    -5.700      2.107      4.126
REMARK INTER + INTRA:         -10.560
REMARK INTER:                  -8.812
REMARK INTRA:                  -1.749
REMARK UNBOUND:                -1.861
REMARK SMILES OC[C@@H]1O[C@@](CO)(O[C@@H]2O[C@H](CO)[C@@H](O)[C@H](O)[C@@H]2O)[C@@H](O)[C@H]1O
REMARK SMILES IDX 8 1 9 2 11 3 14 4 10 5 16 6 18 7 12 8 13 9 15 11 17 13 19 15
REMARK SMILES IDX 5 17 20 18 4 19 22 20 3 21 6 22 7 23 21 25 23 27 2 29 1 30
REMARK H PARENT 13 10 15 12 17 14 19 16 7 24 21 26 23 28 1 31
REMARK Flexibility Score: inf
ROOT
ATOM      1  O   UNL     1     144.763 153.044 129.410  1.00  0.00    -0.313 OA
ENDROOT
BRANCH   1   2
ATOM      2  C   UNL     1     144.146 151.884 128.858  1.00  0.00     0.285 C 
ATOM      3  C   UNL     1     141.967 152.773 129.282  1.00  0.00     0.178 C 
ATOM      4  C   UNL     1     142.214 152.347 130.754  1.00  0.00     0.177 C 
ATOM      5  O   UNL     1     142.871 152.210 128.328  1.00  0.00    -0.341 OA
ATOM      6  C   UNL     1     142.747 150.905 130.778  1.00  0.00     0.179 C 
ATOM      7  C   UNL     1     144.036 150.768 129.924  1.00  0.00     0.202 C 
BRANCH   3   8
ATOM      8  C   UNL     1     141.912 154.303 129.138  1.00  0.00     0.191 C 
BRANCH   8   9
ATOM      9  O   UNL     1     142.475 154.924 130.261  1.00  0.00    -0.394 OA
ATOM     10  H   UNL     1     141.720 155.187 130.849  1.00  0.00     0.210 HD
ENDBRANCH   8   9
ENDBRANCH   3   8
BRANCH   4  11
ATOM     11  O   UNL     1     141.007 152.428 131.471  1.00  0.00    -0.387 OA
ATOM     12  H   UNL     1     140.782 153.391 131.554  1.00  0.00     0.211 HD
ENDBRANCH   4  11
BRANCH   6  13
ATOM     13  O   UNL     1     142.939 150.443 132.093  1.00  0.00    -0.387 OA
ATOM     14  H   UNL     1     142.062 150.472 132.557  1.00  0.00     0.211 HD
ENDBRANCH   6  13
BRANCH   7  15
ATOM     15  O   UNL     1     145.190 150.782 130.728  1.00  0.00    -0.385 OA
ATOM     16  H   UNL     1     145.903 151.236 130.209  1.00  0.00     0.211 HD
ENDBRANCH   7  15
ENDBRANCH   1   2
BRANCH   1  17
ATOM     17  C   UNL     1     145.975 153.441 128.770  1.00  0.00     0.224 C 
ATOM     18  C   UNL     1     146.294 154.871 129.216  1.00  0.00     0.208 C 
ATOM     19  O   UNL     1     147.061 152.635 129.193  1.00  0.00    -0.337 OA
ATOM     20  C   UNL     1     147.046 154.653 130.504  1.00  0.00     0.180 C 
ATOM     21  C   UNL     1     147.705 153.288 130.271  1.00  0.00     0.179 C 
BRANCH  17  22
ATOM     22  C   UNL     1     145.842 153.405 127.225  1.00  0.00     0.225 C 
BRANCH  22  23
ATOM     23  O   UNL     1     146.473 154.499 126.616  1.00  0.00    -0.391 OA
ATOM     24  H   UNL     1     146.651 155.161 127.332  1.00  0.00     0.210 HD
ENDBRANCH  22  23
ENDBRANCH  17  22
BRANCH  18  25
ATOM     25  O   UNL     1     145.130 155.636 129.396  1.00  0.00    -0.385 OA
ATOM     26  H   UNL     1     145.429 156.570 129.554  1.00  0.00     0.211 HD
ENDBRANCH  18  25
BRANCH  20  27
ATOM     27  O   UNL     1     146.153 154.586 131.589  1.00  0.00    -0.387 OA
ATOM     28  H   UNL     1     146.198 155.466 132.045  1.00  0.00     0.211 HD
ENDBRANCH  20  27
BRANCH  21  29
ATOM     29  C   UNL     1     149.199 153.435 129.951  1.00  0.00     0.191 C 
BRANCH  29  30
ATOM     30  O   UNL     1     149.974 152.799 130.933  1.00  0.00    -0.394 OA
ATOM     31  H   UNL     1     149.511 151.949 131.155  1.00  0.00     0.210 HD
ENDBRANCH  29  30
ENDBRANCH  21  29
ENDBRANCH   1  17
TORSDOF 13
ENDMDL
MODEL 5
REMARK VINA RESULT:    -5.690      1.707      5.525
REMARK INTER + INTRA:         -10.545
REMARK INTER:                  -8.367
REMARK INTRA:                  -2.178
REMARK UNBOUND:                -1.861
REMARK SMILES OC[C@@H]1O[C@@](CO)(O[C@@H]2O[C@H](CO)[C@@H](O)[C@H](O)[C@@H]2O)[C@@H](O)[C@H]1O
REMARK SMILES IDX 8 1 9 2 11 3 14 4 10 5 16 6 18 7 12 8 13 9 15 11 17 13 19 15
REMARK SMILES IDX 5 17 20 18 4 19 22 20 3 21 6 22 7 23 21 25 23 27 2 29 1 30
REMARK H PARENT 13 10 15 12 17 14 19 16 7 24 21 26 23 28 1 31
REMARK Flexibility Score: inf
ROOT
ATOM      1  O   UNL     1     146.238 153.614 128.920  1.00  0.00    -0.313 OA
ENDROOT
BRANCH   1   2
ATOM      2  C   UNL     1     147.206 152.581 128.756  1.00  0.00     0.285 C 
ATOM      3  C   UNL     1     148.892 154.176 128.181  1.00  0.00     0.178 C 
ATOM      4  C   UNL     1     148.209 154.214 126.788  1.00  0.00     0.177 C 
ATOM      5  O   UNL     1     148.508 153.081 129.016  1.00  0.00    -0.341 OA
ATOM      6  C   UNL     1     147.964 152.774 126.309  1.00  0.00     0.179 C 
ATOM      7  C   UNL     1     147.116 151.975 127.334  1.00  0.00     0.202 C 
BRANCH   3   8
ATOM      8  C   UNL     1     148.727 155.509 128.928  1.00  0.00     0.191 C 
BRANCH   8   9
ATOM      9  O   UNL     1     147.446 156.038 128.717  1.00  0.00    -0.394 OA
ATOM     10  H   UNL     1     146.824 155.265 128.669  1.00  0.00     0.210 HD
ENDBRANCH   8   9
ENDBRANCH   3   8
BRANCH   4  11
ATOM     11  O   UNL     1     149.040 154.891 125.880  1.00  0.00    -0.387 OA
ATOM     12  H   UNL     1     149.939 154.473 125.939  1.00  0.00     0.211 HD
ENDBRANCH   4  11
BRANCH   6  13
ATOM     13  O   UNL     1     147.394 152.744 125.022  1.00  0.00    -0.387 OA
ATOM     14  H   UNL     1     146.552 153.271 125.050  1.00  0.00     0.211 HD
ENDBRANCH   6  13
BRANCH   7  15
ATOM     15  O   UNL     1     145.767 151.907 126.945  1.00  0.00    -0.385 OA
ATOM     16  H   UNL     1     145.577 150.962 126.711  1.00  0.00     0.211 HD
ENDBRANCH   7  15
ENDBRANCH   1   2
BRANCH   1  17
ATOM     17  C   UNL     1     145.397 153.472 130.065  1.00  0.00     0.224 C 
ATOM     18  C   UNL     1     144.179 154.379 129.867  1.00  0.00     0.208 C 
ATOM     19  O   UNL     1     144.901 152.149 130.169  1.00  0.00    -0.337 OA
ATOM     20  C   UNL     1     143.244 153.506 129.072  1.00  0.00     0.180 C 
ATOM     21  C   UNL     1     143.635 152.098 129.539  1.00  0.00     0.179 C 
BRANCH  17  22
ATOM     22  C   UNL     1     146.134 153.880 131.367  1.00  0.00     0.225 C 
BRANCH  22  23
ATOM     23  O   UNL     1     146.439 155.248 131.393  1.00  0.00    -0.391 OA
ATOM     24  H   UNL     1     147.428 155.321 131.351  1.00  0.00     0.210 HD
ENDBRANCH  22  23
ENDBRANCH  17  22
BRANCH  18  25
ATOM     25  O   UNL     1     144.513 155.564 129.192  1.00  0.00    -0.385 OA
ATOM     26  H   UNL     1     145.090 155.301 128.429  1.00  0.00     0.211 HD
ENDBRANCH  18  25
BRANCH  20  27
ATOM     27  O   UNL     1     143.490 153.649 127.695  1.00  0.00    -0.387 OA
ATOM     28  H   UNL     1     144.406 154.020 127.609  1.00  0.00     0.211 HD
ENDBRANCH  20  27
BRANCH  21  29
ATOM     29  C   UNL     1     142.604 151.528 130.524  1.00  0.00     0.191 C 
BRANCH  29  30
ATOM     30  O   UNL     1     143.115 151.543 131.830  1.00  0.00    -0.394 OA
ATOM     31  H   UNL     1     143.538 152.432 131.960  1.00  0.00     0.210 HD
ENDBRANCH  29  30
ENDBRANCH  21  29
ENDBRANCH   1  17
TORSDOF 13
ENDMDL
MODEL 6
REMARK VINA RESULT:    -5.553      1.547      5.650
REMARK INTER + INTRA:         -10.336
REMARK INTER:                  -8.236
REMARK INTRA:                  -2.099
REMARK UNBOUND:                -1.861
REMARK SMILES OC[C@@H]1O[C@@](CO)(O[C@@H]2O[C@H](CO)[C@@H](O)[C@H](O)[C@@H]2O)[C@@H](O)[C@H]1O
REMARK SMILES IDX 8 1 9 2 11 3 14 4 10 5 16 6 18 7 12 8 13 9 15 11 17 13 19 15
REMARK SMILES IDX 5 17 20 18 4 19 22 20 3 21 6 22 7 23 21 25 23 27 2 29 1 30
REMARK H PARENT 13 10 15 12 17 14 19 16 7 24 21 26 23 28 1 31
REMARK Flexibility Score: inf
ROOT
ATOM      1  O   UNL     1     148.181 153.073 129.150  1.00  0.00    -0.313 OA
ENDROOT
BRANCH   1   2
ATOM      2  C   UNL     1     149.573 153.098 128.847  1.00  0.00     0.285 C 
ATOM      3  C   UNL     1     149.467 155.419 128.284  1.00  0.00     0.178 C 
ATOM      4  C   UNL     1     148.845 154.940 126.945  1.00  0.00     0.177 C 
ATOM      5  O   UNL     1     150.100 154.398 129.058  1.00  0.00    -0.341 OA
ATOM      6  C   UNL     1     149.697 153.793 126.377  1.00  0.00     0.179 C 
ATOM      7  C   UNL     1     149.821 152.627 127.393  1.00  0.00     0.202 C 
BRANCH   3   8
ATOM      8  C   UNL     1     148.445 156.190 129.137  1.00  0.00     0.191 C 
BRANCH   8   9
ATOM      9  O   UNL     1     147.138 155.797 128.817  1.00  0.00    -0.394 OA
ATOM     10  H   UNL     1     146.530 156.400 129.318  1.00  0.00     0.210 HD
ENDBRANCH   8   9
ENDBRANCH   3   8
BRANCH   4  11
ATOM     11  O   UNL     1     148.811 156.013 126.037  1.00  0.00    -0.387 OA
ATOM     12  H   UNL     1     149.747 156.189 125.759  1.00  0.00     0.211 HD
ENDBRANCH   4  11
BRANCH   6  13
ATOM     13  O   UNL     1     149.211 153.353 125.131  1.00  0.00    -0.387 OA
ATOM     14  H   UNL     1     149.213 152.359 125.138  1.00  0.00     0.211 HD
ENDBRANCH   6  13
BRANCH   7  15
ATOM     15  O   UNL     1     148.931 151.582 127.088  1.00  0.00    -0.385 OA
ATOM     16  H   UNL     1     149.472 150.837 126.717  1.00  0.00     0.211 HD
ENDBRANCH   7  15
ENDBRANCH   1   2
BRANCH   1  17
ATOM     17  C   UNL     1     147.790 152.076 130.094  1.00  0.00     0.224 C 
ATOM     18  C   UNL     1     146.710 152.682 130.994  1.00  0.00     0.208 C 
ATOM     19  O   UNL     1     147.197 150.965 129.445  1.00  0.00    -0.337 OA
ATOM     20  C   UNL     1     145.448 152.431 130.209  1.00  0.00     0.180 C 
ATOM     21  C   UNL     1     145.795 151.153 129.434  1.00  0.00     0.179 C 
BRANCH  17  22
ATOM     22  C   UNL     1     148.988 151.619 130.968  1.00  0.00     0.225 C 
BRANCH  22  23
ATOM     23  O   UNL     1     148.824 150.311 131.444  1.00  0.00    -0.391 OA
ATOM     24  H   UNL     1     149.106 149.703 130.713  1.00  0.00     0.210 HD
ENDBRANCH  22  23
ENDBRANCH  17  22
BRANCH  18  25
ATOM     25  O   UNL     1     146.931 154.048 131.234  1.00  0.00    -0.385 OA
ATOM     26  H   UNL     1     146.476 154.540 130.501  1.00  0.00     0.211 HD
ENDBRANCH  18  25
BRANCH  20  27
ATOM     27  O   UNL     1     145.206 153.492 129.318  1.00  0.00    -0.387 OA
ATOM     28  H   UNL     1     145.785 154.243 129.610  1.00  0.00     0.211 HD
ENDBRANCH  20  27
BRANCH  21  29
ATOM     29  C   UNL     1     145.116 149.922 130.051  1.00  0.00     0.191 C 
BRANCH  29  30
ATOM     30  O   UNL     1     146.061 149.122 130.710  1.00  0.00    -0.394 OA
ATOM     31  H   UNL     1     145.930 149.269 131.683  1.00  0.00     0.210 HD
ENDBRANCH  29  30
ENDBRANCH  21  29
ENDBRANCH   1  17
TORSDOF 13
ENDMDL
MODEL 7
REMARK VINA RESULT:    -5.513      2.197      5.537
REMARK INTER + INTRA:         -10.275
REMARK INTER:                  -8.417
REMARK INTRA:                  -1.858
REMARK UNBOUND:                -1.861
REMARK SMILES OC[C@@H]1O[C@@](CO)(O[C@@H]2O[C@H](CO)[C@@H](O)[C@H](O)[C@@H]2O)[C@@H](O)[C@H]1O
REMARK SMILES IDX 8 1 9 2 11 3 14 4 10 5 16 6 18 7 12 8 13 9 15 11 17 13 19 15
REMARK SMILES IDX 5 17 20 18 4 19 22 20 3 21 6 22 7 23 21 25 23 27 2 29 1 30
REMARK H PARENT 13 10 15 12 17 14 19 16 7 24 21 26 23 28 1 31
REMARK Flexibility Score: inf
ROOT
ATOM      1  O   UNL     1     147.310 153.129 127.526  1.00  0.00    -0.313 OA
ENDROOT
BRANCH   1   2
ATOM      2  C   UNL     1     146.968 153.926 128.657  1.00  0.00     0.285 C 
ATOM      3  C   UNL     1     148.587 155.578 128.050  1.00  0.00     0.178 C 
ATOM      4  C   UNL     1     149.632 154.595 128.642  1.00  0.00     0.177 C 
ATOM      5  O   UNL     1     147.228 155.295 128.389  1.00  0.00    -0.341 OA
ATOM      6  C   UNL     1     149.142 154.106 130.015  1.00  0.00     0.179 C 
ATOM      7  C   UNL     1     147.740 153.449 129.910  1.00  0.00     0.202 C 
BRANCH   3   8
ATOM      8  C   UNL     1     148.746 155.722 126.527  1.00  0.00     0.191 C 
BRANCH   8   9
ATOM      9  O   UNL     1     149.356 154.582 125.985  1.00  0.00    -0.394 OA
ATOM     10  H   UNL     1     150.333 154.690 126.122  1.00  0.00     0.210 HD
ENDBRANCH   8   9
ENDBRANCH   3   8
BRANCH   4  11
ATOM     11  O   UNL     1     150.867 155.252 128.776  1.00  0.00    -0.387 OA
ATOM     12  H   UNL     1     150.912 155.938 128.058  1.00  0.00     0.211 HD
ENDBRANCH   4  11
BRANCH   6  13
ATOM     13  O   UNL     1     150.077 153.251 130.627  1.00  0.00    -0.387 OA
ATOM     14  H   UNL     1     150.409 153.700 131.448  1.00  0.00     0.211 HD
ENDBRANCH   6  13
BRANCH   7  15
ATOM     15  O   UNL     1     147.830 152.045 129.891  1.00  0.00    -0.385 OA
ATOM     16  H   UNL     1     148.432 151.801 129.141  1.00  0.00     0.211 HD
ENDBRANCH   7  15
ENDBRANCH   1   2
BRANCH   1  17
ATOM     17  C   UNL     1     146.220 152.409 126.948  1.00  0.00     0.224 C 
ATOM     18  C   UNL     1     146.710 151.792 125.636  1.00  0.00     0.208 C 
ATOM     19  O   UNL     1     145.827 151.330 127.778  1.00  0.00    -0.337 OA
ATOM     20  C   UNL     1     147.325 150.494 126.091  1.00  0.00     0.180 C 
ATOM     21  C   UNL     1     146.504 150.166 127.345  1.00  0.00     0.179 C 
BRANCH  17  22
ATOM     22  C   UNL     1     145.014 153.340 126.658  1.00  0.00     0.225 C 
BRANCH  22  23
ATOM     23  O   UNL     1     145.031 153.830 125.345  1.00  0.00    -0.391 OA
ATOM     24  H   UNL     1     145.466 153.135 124.786  1.00  0.00     0.210 HD
ENDBRANCH  22  23
ENDBRANCH  17  22
BRANCH  18  25
ATOM     25  O   UNL     1     147.633 152.622 124.978  1.00  0.00    -0.385 OA
ATOM     26  H   UNL     1     147.181 153.496 124.846  1.00  0.00     0.211 HD
ENDBRANCH  18  25
BRANCH  20  27
ATOM     27  O   UNL     1     148.677 150.682 126.429  1.00  0.00    -0.387 OA
ATOM     28  H   UNL     1     148.906 149.972 127.083  1.00  0.00     0.211 HD
ENDBRANCH  20  27
BRANCH  21  29
ATOM     29  C   UNL     1     145.477 149.059 127.068  1.00  0.00     0.191 C 
BRANCH  29  30
ATOM     30  O   UNL     1     146.123 147.828 126.880  1.00  0.00    -0.394 OA
ATOM     31  H   UNL     1     146.672 147.917 126.057  1.00  0.00     0.210 HD
ENDBRANCH  29  30
ENDBRANCH  21  29
ENDBRANCH   1  17
TORSDOF 13
ENDMDL
MODEL 8
REMARK VINA RESULT:    -5.483      1.477      5.277
REMARK INTER + INTRA:         -10.228
REMARK INTER:                  -8.192
REMARK INTRA:                  -2.036
REMARK UNBOUND:                -1.861
REMARK SMILES OC[C@@H]1O[C@@](CO)(O[C@@H]2O[C@H](CO)[C@@H](O)[C@H](O)[C@@H]2O)[C@@H](O)[C@H]1O
REMARK SMILES IDX 8 1 9 2 11 3 14 4 10 5 16 6 18 7 12 8 13 9 15 11 17 13 19 15
REMARK SMILES IDX 5 17 20 18 4 19 22 20 3 21 6 22 7 23 21 25 23 27 2 29 1 30
REMARK H PARENT 13 10 15 12 17 14 19 16 7 24 21 26 23 28 1 31
REMARK Flexibility Score: inf
ROOT
ATOM      1  O   UNL     1     146.811 153.187 128.848  1.00  0.00    -0.313 OA
ENDROOT
BRANCH   1   2
ATOM      2  C   UNL     1     146.885 154.154 127.804  1.00  0.00     0.285 C 
ATOM      3  C   UNL     1     149.205 153.691 127.463  1.00  0.00     0.178 C 
ATOM      4  C   UNL     1     149.439 154.554 128.731  1.00  0.00     0.177 C 
ATOM      5  O   UNL     1     147.905 153.805 126.882  1.00  0.00    -0.341 OA
ATOM      6  C   UNL     1     148.632 155.857 128.608  1.00  0.00     0.179 C 
ATOM      7  C   UNL     1     147.123 155.567 128.389  1.00  0.00     0.202 C 
BRANCH   3   8
ATOM      8  C   UNL     1     149.558 152.215 127.712  1.00  0.00     0.191 C 
BRANCH   8   9
ATOM      9  O   UNL     1     149.148 151.818 128.992  1.00  0.00    -0.394 OA
ATOM     10  H   UNL     1     149.148 150.825 128.996  1.00  0.00     0.210 HD
ENDBRANCH   8   9
ENDBRANCH   3   8
BRANCH   4  11
ATOM     11  O   UNL     1     150.809 154.843 128.852  1.00  0.00    -0.387 OA
ATOM     12  H   UNL     1     150.906 155.485 129.604  1.00  0.00     0.211 HD
ENDBRANCH   4  11
BRANCH   6  13
ATOM     13  O   UNL     1     148.847 156.708 129.708  1.00  0.00    -0.387 OA
ATOM     14  H   UNL     1     148.801 157.646 129.382  1.00  0.00     0.211 HD
ENDBRANCH   6  13
BRANCH   7  15
ATOM     15  O   UNL     1     146.395 155.701 129.585  1.00  0.00    -0.385 OA
ATOM     16  H   UNL     1     146.618 154.918 130.153  1.00  0.00     0.211 HD
ENDBRANCH   7  15
ENDBRANCH   1   2
BRANCH   1  17
ATOM     17  C   UNL     1     145.578 152.471 128.917  1.00  0.00     0.224 C 
ATOM     18  C   UNL     1     145.501 151.801 130.292  1.00  0.00     0.208 C 
ATOM     19  O   UNL     1     144.473 153.353 128.836  1.00  0.00    -0.337 OA
ATOM     20  C   UNL     1     144.917 152.889 131.155  1.00  0.00     0.180 C 
ATOM     21  C   UNL     1     144.070 153.683 130.152  1.00  0.00     0.179 C 
BRANCH  17  22
ATOM     22  C   UNL     1     145.489 151.384 127.813  1.00  0.00     0.225 C 
BRANCH  22  23
ATOM     23  O   UNL     1     146.587 150.513 127.841  1.00  0.00    -0.391 OA
ATOM     24  H   UNL     1     147.077 150.698 128.684  1.00  0.00     0.210 HD
ENDBRANCH  22  23
ENDBRANCH  17  22
BRANCH  18  25
ATOM     25  O   UNL     1     146.763 151.378 130.741  1.00  0.00    -0.385 OA
ATOM     26  H   UNL     1     146.881 151.761 131.649  1.00  0.00     0.211 HD
ENDBRANCH  18  25
BRANCH  20  27
ATOM     27  O   UNL     1     145.937 153.700 131.682  1.00  0.00    -0.387 OA
ATOM     28  H   UNL     1     146.611 153.808 130.962  1.00  0.00     0.211 HD
ENDBRANCH  20  27
BRANCH  21  29
ATOM     29  C   UNL     1     142.574 153.375 130.314  1.00  0.00     0.191 C 
BRANCH  29  30
ATOM     30  O   UNL     1     142.030 154.134 131.360  1.00  0.00    -0.394 OA
ATOM     31  H   UNL     1     142.787 154.396 131.947  1.00  0.00     0.210 HD
ENDBRANCH  29  30
ENDBRANCH  21  29
ENDBRANCH   1  17
TORSDOF 13
ENDMDL
MODEL 9
REMARK VINA RESULT:    -5.456      1.902      5.463
REMARK INTER + INTRA:         -10.188
REMARK INTER:                  -7.982
REMARK INTRA:                  -2.206
REMARK UNBOUND:                -1.861
REMARK SMILES OC[C@@H]1O[C@@](CO)(O[C@@H]2O[C@H](CO)[C@@H](O)[C@H](O)[C@@H]2O)[C@@H](O)[C@H]1O
REMARK SMILES IDX 8 1 9 2 11 3 14 4 10 5 16 6 18 7 12 8 13 9 15 11 17 13 19 15
REMARK SMILES IDX 5 17 20 18 4 19 22 20 3 21 6 22 7 23 21 25 23 27 2 29 1 30
REMARK H PARENT 13 10 15 12 17 14 19 16 7 24 21 26 23 28 1 31
REMARK Flexibility Score: inf
ROOT
ATOM      1  O   UNL     1     146.464 153.413 128.015  1.00  0.00    -0.313 OA
ENDROOT
BRANCH   1   2
ATOM      2  C   UNL     1     147.825 153.000 128.104  1.00  0.00     0.285 C 
ATOM      3  C   UNL     1     148.244 154.568 129.859  1.00  0.00     0.178 C 
ATOM      4  C   UNL     1     148.294 155.633 128.731  1.00  0.00     0.177 C 
ATOM      5  O   UNL     1     148.318 153.211 129.417  1.00  0.00    -0.341 OA
ATOM      6  C   UNL     1     149.189 155.116 127.592  1.00  0.00     0.179 C 
ATOM      7  C   UNL     1     148.688 153.748 127.059  1.00  0.00     0.202 C 
BRANCH   3   8
ATOM      8  C   UNL     1     147.026 154.774 130.775  1.00  0.00     0.191 C 
BRANCH   8   9
ATOM      9  O   UNL     1     145.965 155.350 130.063  1.00  0.00    -0.394 OA
ATOM     10  H   UNL     1     145.681 154.682 129.386  1.00  0.00     0.210 HD
ENDBRANCH   8   9
ENDBRANCH   3   8
BRANCH   4  11
ATOM     11  O   UNL     1     148.812 156.834 129.245  1.00  0.00    -0.387 OA
ATOM     12  H   UNL     1     149.722 156.945 128.866  1.00  0.00     0.211 HD
ENDBRANCH   4  11
BRANCH   6  13
ATOM     13  O   UNL     1     149.317 156.065 126.560  1.00  0.00    -0.387 OA
ATOM     14  H   UNL     1     150.276 156.311 126.490  1.00  0.00     0.211 HD
ENDBRANCH   6  13
BRANCH   7  15
ATOM     15  O   UNL     1     147.950 153.897 125.871  1.00  0.00    -0.385 OA
ATOM     16  H   UNL     1     148.032 153.046 125.367  1.00  0.00     0.211 HD
ENDBRANCH   7  15
ENDBRANCH   1   2
BRANCH   1  17
ATOM     17  C   UNL     1     145.514 152.348 127.973  1.00  0.00     0.224 C 
ATOM     18  C   UNL     1     144.195 152.916 127.443  1.00  0.00     0.208 C 
ATOM     19  O   UNL     1     145.917 151.344 127.059  1.00  0.00    -0.337 OA
ATOM     20  C   UNL     1     144.371 152.817 125.950  1.00  0.00     0.180 C 
ATOM     21  C   UNL     1     145.305 151.608 125.811  1.00  0.00     0.179 C 
BRANCH  17  22
ATOM     22  C   UNL     1     145.281 151.739 129.381  1.00  0.00     0.225 C 
BRANCH  22  23
ATOM     23  O   UNL     1     144.503 152.574 130.194  1.00  0.00    -0.391 OA
ATOM     24  H   UNL     1     143.810 152.001 130.613  1.00  0.00     0.210 HD
ENDBRANCH  22  23
ENDBRANCH  17  22
BRANCH  18  25
ATOM     25  O   UNL     1     143.982 154.236 127.873  1.00  0.00    -0.385 OA
ATOM     26  H   UNL     1     143.849 154.781 127.054  1.00  0.00     0.211 HD
ENDBRANCH  18  25
BRANCH  20  27
ATOM     27  O   UNL     1     144.992 153.975 125.450  1.00  0.00    -0.387 OA
ATOM     28  H   UNL     1     145.435 153.713 124.602  1.00  0.00     0.211 HD
ENDBRANCH  20  27
BRANCH  21  29
ATOM     29  C   UNL     1     144.541 150.359 125.349  1.00  0.00     0.191 C 
BRANCH  29  30
ATOM     30  O   UNL     1     144.578 149.369 126.341  1.00  0.00    -0.394 OA
ATOM     31  H   UNL     1     145.513 149.036 126.377  1.00  0.00     0.210 HD
ENDBRANCH  29  30
ENDBRANCH  21  29
ENDBRANCH   1  17
TORSDOF 13
ENDMDL
