MODEL 1
REMARK VINA RESULT:    -6.327      0.000      0.000
REMARK INTER + INTRA:         -10.583
REMARK INTER:                 -10.026
REMARK INTRA:                  -0.557
REMARK UNBOUND:                -0.557
REMARK SMILES CCCCCCCCCCCC(=O)[O-]
REMARK SMILES IDX 7 1 8 2 9 3 10 4 11 5 12 6 13 7 14 8 6 9 5 10 4 11 3 12 2 13
REMARK SMILES IDX 1 14
REMARK H PARENT
REMARK Flexibility Score: inf
ROOT
ATOM      1  C   UNL     1      -3.412   3.384   5.114  1.00  0.00     0.000 C 
ENDROOT
BRANCH   1   2
ATOM      2  C   UNL     1      -2.906   2.640   6.355  1.00  0.00     0.000 C 
BRANCH   2   3
ATOM      3  C   UNL     1      -3.362   3.343   7.642  1.00  0.00     0.000 C 
BRANCH   3   4
ATOM      4  C   UNL     1      -2.888   2.621   8.913  1.00  0.00     0.006 C 
BRANCH   4   5
ATOM      5  C   UNL     1      -2.184   1.291   8.609  1.00  0.00     0.053 C 
BRANCH   5   6
ATOM      6  C   UNL     1      -0.834   1.258   9.252  1.00  0.00     0.041 C 
ATOM      7  O   UNL     1      -0.703   0.832  10.430  1.00  0.00    -0.550 OA
ATOM      8  O   UNL     1       0.274   1.744   8.568  1.00  0.00    -0.550 OA
ENDBRANCH   5   6
ENDBRANCH   4   5
ENDBRANCH   3   4
ENDBRANCH   2   3
ENDBRANCH   1   2
BRANCH   1   9
ATOM      9  C   UNL     1      -4.360   4.525   5.504  1.00  0.00     0.000 C 
BRANCH   9  10
ATOM     10  C   UNL     1      -4.171   5.737   4.584  1.00  0.00    -0.000 C 
BRANCH  10  11
ATOM     11  C   UNL     1      -5.518   6.389   4.247  1.00  0.00    -0.000 C 
BRANCH  11  12
ATOM     12  C   UNL     1      -6.336   5.500   3.298  1.00  0.00    -0.000 C 
BRANCH  12  13
ATOM     13  C   UNL     1      -6.910   6.282   2.106  1.00  0.00    -0.003 C 
ATOM     14  C   UNL     1      -5.829   6.969   1.274  1.00  0.00     0.004 C 
ENDBRANCH  12  13
ENDBRANCH  11  12
ENDBRANCH  10  11
ENDBRANCH   9  10
ENDBRANCH   1   9
TORSDOF 10
ENDMDL
MODEL 2
REMARK VINA RESULT:    -6.192      3.632      4.736
REMARK INTER + INTRA:         -10.369
REMARK INTER:                  -9.685
REMARK INTRA:                  -0.684
REMARK UNBOUND:                -0.557
REMARK SMILES CCCCCCCCCCCC(=O)[O-]
REMARK SMILES IDX 7 1 8 2 9 3 10 4 11 5 12 6 13 7 14 8 6 9 5 10 4 11 3 12 2 13
REMARK SMILES IDX 1 14
REMARK H PARENT
REMARK Flexibility Score: inf
ROOT
ATOM      1  C   UNL     1      -4.723   4.604   5.839  1.00  0.00     0.000 C 
ENDROOT
BRANCH   1   2
ATOM      2  C   UNL     1      -3.510   3.669   5.914  1.00  0.00     0.000 C 
BRANCH   2   3
ATOM      3  C   UNL     1      -3.093   3.195   4.514  1.00  0.00     0.000 C 
BRANCH   3   4
ATOM      4  C   UNL     1      -3.518   1.746   4.227  1.00  0.00     0.006 C 
BRANCH   4   5
ATOM      5  C   UNL     1      -4.578   1.649   3.122  1.00  0.00     0.053 C 
BRANCH   5   6
ATOM      6  C   UNL     1      -4.516   0.311   2.457  1.00  0.00     0.041 C 
ATOM      7  O   UNL     1      -4.382  -0.734   3.147  1.00  0.00    -0.550 OA
ATOM      8  O   UNL     1      -4.556   0.220   1.071  1.00  0.00    -0.550 OA
ENDBRANCH   5   6
ENDBRANCH   4   5
ENDBRANCH   3   4
ENDBRANCH   2   3
ENDBRANCH   1   2
BRANCH   1   9
ATOM      9  C   UNL     1      -4.610   5.559   4.645  1.00  0.00     0.000 C 
BRANCH   9  10
ATOM     10  C   UNL     1      -5.921   5.605   3.850  1.00  0.00    -0.000 C 
BRANCH  10  11
ATOM     11  C   UNL     1      -5.818   6.586   2.676  1.00  0.00    -0.000 C 
BRANCH  11  12
ATOM     12  C   UNL     1      -6.964   6.367   1.675  1.00  0.00    -0.000 C 
BRANCH  12  13
ATOM     13  C   UNL     1      -8.227   5.798   2.341  1.00  0.00    -0.003 C 
ATOM     14  C   UNL     1      -9.471   5.940   1.464  1.00  0.00     0.004 C 
ENDBRANCH  12  13
ENDBRANCH  11  12
ENDBRANCH  10  11
ENDBRANCH   9  10
ENDBRANCH   1   9
TORSDOF 10
ENDMDL
MODEL 3
REMARK VINA RESULT:    -6.160      3.505      4.421
REMARK INTER + INTRA:         -10.318
REMARK INTER:                  -9.617
REMARK INTRA:                  -0.701
REMARK UNBOUND:                -0.557
REMARK SMILES CCCCCCCCCCCC(=O)[O-]
REMARK SMILES IDX 7 1 8 2 9 3 10 4 11 5 12 6 13 7 14 8 6 9 5 10 4 11 3 12 2 13
REMARK SMILES IDX 1 14
REMARK H PARENT
REMARK Flexibility Score: inf
ROOT
ATOM      1  C   UNL     1      -3.305   3.383   5.540  1.00  0.00     0.000 C 
ENDROOT
BRANCH   1   2
ATOM      2  C   UNL     1      -3.160   2.790   4.133  1.00  0.00     0.000 C 
BRANCH   2   3
ATOM      3  C   UNL     1      -4.501   2.236   3.629  1.00  0.00     0.000 C 
BRANCH   3   4
ATOM      4  C   UNL     1      -4.355   0.873   2.933  1.00  0.00     0.006 C 
BRANCH   4   5
ATOM      5  C   UNL     1      -5.497  -0.091   3.279  1.00  0.00     0.053 C 
BRANCH   5   6
ATOM      6  C   UNL     1      -5.005  -1.180   4.178  1.00  0.00     0.041 C 
ATOM      7  O   UNL     1      -3.861  -1.676   4.006  1.00  0.00    -0.550 OA
ATOM      8  O   UNL     1      -5.830  -1.682   5.178  1.00  0.00    -0.550 OA
ENDBRANCH   5   6
ENDBRANCH   4   5
ENDBRANCH   3   4
ENDBRANCH   2   3
ENDBRANCH   1   2
BRANCH   1   9
ATOM      9  C   UNL     1      -4.335   4.518   5.556  1.00  0.00     0.000 C 
BRANCH   9  10
ATOM     10  C   UNL     1      -3.918   5.655   4.615  1.00  0.00    -0.000 C 
BRANCH  10  11
ATOM     11  C   UNL     1      -5.133   6.480   4.174  1.00  0.00    -0.000 C 
BRANCH  11  12
ATOM     12  C   UNL     1      -6.232   5.575   3.596  1.00  0.00    -0.000 C 
BRANCH  12  13
ATOM     13  C   UNL     1      -6.876   6.165   2.331  1.00  0.00    -0.003 C 
ATOM     14  C   UNL     1      -5.900   7.004   1.507  1.00  0.00     0.004 C 
ENDBRANCH  12  13
ENDBRANCH  11  12
ENDBRANCH  10  11
ENDBRANCH   9  10
ENDBRANCH   1   9
TORSDOF 10
ENDMDL
MODEL 4
REMARK VINA RESULT:    -6.110      2.060      3.584
REMARK INTER + INTRA:         -10.239
REMARK INTER:                  -9.711
REMARK INTRA:                  -0.529
REMARK UNBOUND:                -0.557
REMARK SMILES CCCCCCCCCCCC(=O)[O-]
REMARK SMILES IDX 7 1 8 2 9 3 10 4 11 5 12 6 13 7 14 8 6 9 5 10 4 11 3 12 2 13
REMARK SMILES IDX 1 14
REMARK H PARENT
REMARK Flexibility Score: inf
ROOT
ATOM      1  C   UNL     1      -5.566   6.629   3.957  1.00  0.00     0.000 C 
ENDROOT
BRANCH   1   2
ATOM      2  C   UNL     1      -4.282   5.883   4.340  1.00  0.00     0.000 C 
BRANCH   2   3
ATOM      3  C   UNL     1      -4.589   4.436   4.752  1.00  0.00     0.000 C 
BRANCH   3   4
ATOM      4  C   UNL     1      -4.018   4.078   6.133  1.00  0.00     0.006 C 
BRANCH   4   5
ATOM      5  C   UNL     1      -3.065   2.876   6.085  1.00  0.00     0.053 C 
BRANCH   5   6
ATOM      6  C   UNL     1      -2.779   2.382   7.468  1.00  0.00     0.041 C 
ATOM      7  O   UNL     1      -2.538   3.199   8.395  1.00  0.00    -0.550 OA
ATOM      8  O   UNL     1      -2.732   1.017   7.722  1.00  0.00    -0.550 OA
ENDBRANCH   5   6
ENDBRANCH   4   5
ENDBRANCH   3   4
ENDBRANCH   2   3
ENDBRANCH   1   2
BRANCH   1   9
ATOM      9  C   UNL     1      -5.657   6.824   2.438  1.00  0.00     0.000 C 
BRANCH   9  10
ATOM     10  C   UNL     1      -6.976   6.269   1.890  1.00  0.00    -0.000 C 
BRANCH  10  11
ATOM     11  C   UNL     1      -7.917   5.858   3.029  1.00  0.00    -0.000 C 
BRANCH  11  12
ATOM     12  C   UNL     1      -9.375   5.803   2.546  1.00  0.00    -0.000 C 
BRANCH  12  13
ATOM     13  C   UNL     1      -9.500   5.999   1.026  1.00  0.00    -0.003 C 
ATOM     14  C   UNL     1     -10.886   6.487   0.606  1.00  0.00     0.004 C 
ENDBRANCH  12  13
ENDBRANCH  11  12
ENDBRANCH  10  11
ENDBRANCH   9  10
ENDBRANCH   1   9
TORSDOF 10
ENDMDL
MODEL 5
REMARK VINA RESULT:    -5.826      5.308      7.935
REMARK INTER + INTRA:          -9.790
REMARK INTER:                  -9.330
REMARK INTRA:                  -0.459
REMARK UNBOUND:                -0.557
REMARK SMILES CCCCCCCCCCCC(=O)[O-]
REMARK SMILES IDX 7 1 8 2 9 3 10 4 11 5 12 6 13 7 14 8 6 9 5 10 4 11 3 12 2 13
REMARK SMILES IDX 1 14
REMARK H PARENT
REMARK Flexibility Score: inf
ROOT
ATOM      1  C   UNL     1      -5.199   5.509   4.745  1.00  0.00     0.000 C 
ENDROOT
BRANCH   1   2
ATOM      2  C   UNL     1      -5.358   6.680   3.769  1.00  0.00     0.000 C 
BRANCH   2   3
ATOM      3  C   UNL     1      -6.269   6.297   2.593  1.00  0.00     0.000 C 
BRANCH   3   4
ATOM      4  C   UNL     1      -7.647   5.795   3.050  1.00  0.00     0.006 C 
BRANCH   4   5
ATOM      5  C   UNL     1      -8.720   5.944   1.964  1.00  0.00     0.053 C 
BRANCH   5   6
ATOM      6  C   UNL     1     -10.081   5.709   2.539  1.00  0.00     0.041 C 
ATOM      7  O   UNL     1     -10.956   6.612   2.487  1.00  0.00    -0.550 OA
ATOM      8  O   UNL     1     -10.368   4.507   3.176  1.00  0.00    -0.550 OA
ENDBRANCH   5   6
ENDBRANCH   4   5
ENDBRANCH   3   4
ENDBRANCH   2   3
ENDBRANCH   1   2
BRANCH   1   9
ATOM      9  C   UNL     1      -3.729   5.086   4.864  1.00  0.00     0.000 C 
BRANCH   9  10
ATOM     10  C   UNL     1      -3.607   3.679   5.460  1.00  0.00    -0.000 C 
BRANCH  10  11
ATOM     11  C   UNL     1      -3.198   2.660   4.389  1.00  0.00    -0.000 C 
BRANCH  11  12
ATOM     12  C   UNL     1      -4.425   2.155   3.615  1.00  0.00    -0.000 C 
BRANCH  12  13
ATOM     13  C   UNL     1      -4.300   0.677   3.212  1.00  0.00    -0.003 C 
ATOM     14  C   UNL     1      -4.561   0.446   1.724  1.00  0.00     0.004 C 
ENDBRANCH  12  13
ENDBRANCH  11  12
ENDBRANCH  10  11
ENDBRANCH   9  10
ENDBRANCH   1   9
TORSDOF 10
ENDMDL
MODEL 6
REMARK VINA RESULT:    -5.820      5.140      7.408
REMARK INTER + INTRA:          -9.779
REMARK INTER:                  -9.208
REMARK INTRA:                  -0.571
REMARK UNBOUND:                -0.557
REMARK SMILES CCCCCCCCCCCC(=O)[O-]
REMARK SMILES IDX 7 1 8 2 9 3 10 4 11 5 12 6 13 7 14 8 6 9 5 10 4 11 3 12 2 13
REMARK SMILES IDX 1 14
REMARK H PARENT
REMARK Flexibility Score: inf
ROOT
ATOM      1  C   UNL     1      -3.105   3.604   4.626  1.00  0.00     0.000 C 
ENDROOT
BRANCH   1   2
ATOM      2  C   UNL     1      -4.126   4.494   5.344  1.00  0.00     0.000 C 
BRANCH   2   3
ATOM      3  C   UNL     1      -4.462   5.734   4.503  1.00  0.00     0.000 C 
BRANCH   3   4
ATOM      4  C   UNL     1      -5.974   5.978   4.381  1.00  0.00     0.006 C 
BRANCH   4   5
ATOM      5  C   UNL     1      -6.487   5.801   2.946  1.00  0.00     0.053 C 
BRANCH   5   6
ATOM      6  C   UNL     1      -7.978   5.920   2.908  1.00  0.00     0.041 C 
ATOM      7  O   UNL     1      -8.636   5.991   3.978  1.00  0.00    -0.550 OA
ATOM      8  O   UNL     1      -8.645   5.903   1.689  1.00  0.00    -0.550 OA
ENDBRANCH   5   6
ENDBRANCH   4   5
ENDBRANCH   3   4
ENDBRANCH   2   3
ENDBRANCH   1   2
BRANCH   1   9
ATOM      9  C   UNL     1      -3.544   2.134   4.647  1.00  0.00     0.000 C 
BRANCH   9  10
ATOM     10  C   UNL     1      -4.271   1.759   3.349  1.00  0.00    -0.000 C 
BRANCH  10  11
ATOM     11  C   UNL     1      -4.498   0.244   3.264  1.00  0.00    -0.000 C 
BRANCH  11  12
ATOM     12  C   UNL     1      -5.990  -0.079   3.090  1.00  0.00    -0.000 C 
BRANCH  12  13
ATOM     13  C   UNL     1      -6.462  -1.205   4.023  1.00  0.00    -0.003 C 
ATOM     14  C   UNL     1      -5.347  -1.729   4.928  1.00  0.00     0.004 C 
ENDBRANCH  12  13
ENDBRANCH  11  12
ENDBRANCH  10  11
ENDBRANCH   9  10
ENDBRANCH   1   9
TORSDOF 10
ENDMDL
MODEL 7
REMARK VINA RESULT:    -5.768      4.526      6.819
REMARK INTER + INTRA:          -9.698
REMARK INTER:                  -8.608
REMARK INTRA:                  -1.089
REMARK UNBOUND:                -0.557
REMARK SMILES CCCCCCCCCCCC(=O)[O-]
REMARK SMILES IDX 7 1 8 2 9 3 10 4 11 5 12 6 13 7 14 8 6 9 5 10 4 11 3 12 2 13
REMARK SMILES IDX 1 14
REMARK H PARENT
REMARK Flexibility Score: inf
ROOT
ATOM      1  C   UNL     1      -5.235   0.122   2.230  1.00  0.00     0.000 C 
ENDROOT
BRANCH   1   2
ATOM      2  C   UNL     1      -4.001   0.841   2.788  1.00  0.00     0.000 C 
BRANCH   2   3
ATOM      3  C   UNL     1      -4.408   1.967   3.749  1.00  0.00     0.000 C 
BRANCH   3   4
ATOM      4  C   UNL     1      -3.200   2.655   4.404  1.00  0.00     0.006 C 
BRANCH   4   5
ATOM      5  C   UNL     1      -3.594   3.521   5.607  1.00  0.00     0.053 C 
BRANCH   5   6
ATOM      6  C   UNL     1      -4.036   4.876   5.152  1.00  0.00     0.041 C 
ATOM      7  O   UNL     1      -5.250   5.200   5.215  1.00  0.00    -0.550 OA
ATOM      8  O   UNL     1      -3.113   5.763   4.612  1.00  0.00    -0.550 OA
ENDBRANCH   5   6
ENDBRANCH   4   5
ENDBRANCH   3   4
ENDBRANCH   2   3
ENDBRANCH   1   2
BRANCH   1   9
ATOM      9  C   UNL     1      -6.381   0.123   3.250  1.00  0.00     0.000 C 
BRANCH   9  10
ATOM     10  C   UNL     1      -6.672  -1.295   3.753  1.00  0.00    -0.000 C 
BRANCH  10  11
ATOM     11  C   UNL     1      -5.906  -1.588   5.049  1.00  0.00    -0.000 C 
BRANCH  11  12
ATOM     12  C   UNL     1      -4.608  -2.357   4.757  1.00  0.00    -0.000 C 
BRANCH  12  13
ATOM     13  C   UNL     1      -3.573  -2.216   5.885  1.00  0.00    -0.003 C 
ATOM     14  C   UNL     1      -3.528  -0.805   6.471  1.00  0.00     0.004 C 
ENDBRANCH  12  13
ENDBRANCH  11  12
ENDBRANCH  10  11
ENDBRANCH   9  10
ENDBRANCH   1   9
TORSDOF 10
ENDMDL
MODEL 8
REMARK VINA RESULT:    -5.683     15.604     17.129
REMARK INTER + INTRA:          -9.563
REMARK INTER:                  -8.840
REMARK INTRA:                  -0.723
REMARK UNBOUND:                -0.557
REMARK SMILES CCCCCCCCCCCC(=O)[O-]
REMARK SMILES IDX 7 1 8 2 9 3 10 4 11 5 12 6 13 7 14 8 6 9 5 10 4 11 3 12 2 13
REMARK SMILES IDX 1 14
REMARK H PARENT
REMARK Flexibility Score: inf
ROOT
ATOM      1  C   UNL     1       5.318  -3.518  -8.777  1.00  0.00     0.000 C 
ENDROOT
BRANCH   1   2
ATOM      2  C   UNL     1       3.855  -3.097  -8.958  1.00  0.00     0.000 C 
BRANCH   2   3
ATOM      3  C   UNL     1       2.959  -3.749  -7.894  1.00  0.00     0.000 C 
BRANCH   3   4
ATOM      4  C   UNL     1       1.464  -3.493  -8.139  1.00  0.00     0.006 C 
BRANCH   4   5
ATOM      5  C   UNL     1       0.564  -4.479  -7.383  1.00  0.00     0.053 C 
BRANCH   5   6
ATOM      6  C   UNL     1       0.003  -3.836  -6.155  1.00  0.00     0.041 C 
ATOM      7  O   UNL     1      -0.281  -2.610  -6.155  1.00  0.00    -0.550 OA
ATOM      8  O   UNL     1      -0.162  -4.581  -4.993  1.00  0.00    -0.550 OA
ENDBRANCH   5   6
ENDBRANCH   4   5
ENDBRANCH   3   4
ENDBRANCH   2   3
ENDBRANCH   1   2
BRANCH   1   9
ATOM      9  C   UNL     1       5.613  -3.867  -7.313  1.00  0.00     0.000 C 
BRANCH   9  10
ATOM     10  C   UNL     1       6.977  -3.317  -6.880  1.00  0.00    -0.000 C 
BRANCH  10  11
ATOM     11  C   UNL     1       6.826  -2.296  -5.746  1.00  0.00    -0.000 C 
BRANCH  11  12
ATOM     12  C   UNL     1       5.354  -1.897  -5.559  1.00  0.00    -0.000 C 
BRANCH  12  13
ATOM     13  C   UNL     1       5.118  -1.101  -4.266  1.00  0.00    -0.003 C 
ATOM     14  C   UNL     1       5.100  -1.987  -3.021  1.00  0.00     0.004 C 
ENDBRANCH  12  13
ENDBRANCH  11  12
ENDBRANCH  10  11
ENDBRANCH   9  10
ENDBRANCH   1   9
TORSDOF 10
ENDMDL
MODEL 9
REMARK VINA RESULT:    -5.683     14.708     16.229
REMARK INTER + INTRA:          -9.563
REMARK INTER:                  -9.033
REMARK INTRA:                  -0.530
REMARK UNBOUND:                -0.557
REMARK SMILES CCCCCCCCCCCC(=O)[O-]
REMARK SMILES IDX 7 1 8 2 9 3 10 4 11 5 12 6 13 7 14 8 6 9 5 10 4 11 3 12 2 13
REMARK SMILES IDX 1 14
REMARK H PARENT
REMARK Flexibility Score: inf
ROOT
ATOM      1  C   UNL     1       3.042  -3.251  -7.888  1.00  0.00     0.000 C 
ENDROOT
BRANCH   1   2
ATOM      2  C   UNL     1       1.978  -4.292  -7.519  1.00  0.00     0.000 C 
BRANCH   2   3
ATOM      3  C   UNL     1       0.585  -3.845  -7.986  1.00  0.00     0.000 C 
BRANCH   3   4
ATOM      4  C   UNL     1      -0.498  -4.067  -6.919  1.00  0.00     0.006 C 
BRANCH   4   5
ATOM      5  C   UNL     1      -0.014  -3.722  -5.505  1.00  0.00     0.053 C 
BRANCH   5   6
ATOM      6  C   UNL     1      -0.930  -2.724  -4.870  1.00  0.00     0.041 C 
ATOM      7  O   UNL     1      -1.680  -3.067  -3.920  1.00  0.00    -0.550 OA
ATOM      8  O   UNL     1      -0.989  -1.425  -5.360  1.00  0.00    -0.550 OA
ENDBRANCH   5   6
ENDBRANCH   4   5
ENDBRANCH   3   4
ENDBRANCH   2   3
ENDBRANCH   1   2
BRANCH   1   9
ATOM      9  C   UNL     1       4.399  -3.917  -8.144  1.00  0.00     0.000 C 
BRANCH   9  10
ATOM     10  C   UNL     1       5.517  -3.202  -7.376  1.00  0.00    -0.000 C 
BRANCH  10  11
ATOM     11  C   UNL     1       4.941  -2.167  -6.402  1.00  0.00    -0.000 C 
BRANCH  11  12
ATOM     12  C   UNL     1       5.945  -1.846  -5.284  1.00  0.00    -0.000 C 
BRANCH  12  13
ATOM     13  C   UNL     1       5.304  -1.075  -4.119  1.00  0.00    -0.003 C 
ATOM     14  C   UNL     1       5.095  -1.943  -2.879  1.00  0.00     0.004 C 
ENDBRANCH  12  13
ENDBRANCH  11  12
ENDBRANCH  10  11
ENDBRANCH   9  10
ENDBRANCH   1   9
TORSDOF 10
ENDMDL
