MODEL 1
REMARK VINA RESULT:    -0.344      0.000      0.000
REMARK INTER + INTRA:          -0.117
REMARK INTER:                  -0.424
REMARK INTRA:                   0.307
REMARK UNBOUND:                 0.307
REMARK SMILES COc1cc(-c2oc3cc(O)cc(O)c3c(=O)c2O)ccc1O
REMARK SMILES IDX 6 1 18 2 16 3 17 4 15 5 13 6 12 7 10 8 9 9 8 10 7 11 5 12
REMARK SMILES IDX 3 13 22 14 4 15 21 16 20 17 2 18 1 19 23 20 19 22 14 24
REMARK SMILES IDX 11 26
REMARK H PARENT 23 21 19 23 14 25 11 27
REMARK Flexibility Score: inf
ROOT
ATOM      1  C   UNL     1      15.953  -1.670  26.934  1.00  0.00     0.180 A 
ATOM      2  C   UNL     1      16.051  -1.081  28.210  1.00  0.00     0.208 A 
ATOM      3  C   UNL     1      15.740   0.279  28.355  1.00  0.00     0.238 A 
ATOM      4  O   UNL     1      15.812   0.814  29.495  1.00  0.00    -0.285 OA
ATOM      5  C   UNL     1      15.357   1.031  27.225  1.00  0.00     0.111 A 
ATOM      6  C   UNL     1      15.030   2.408  27.285  1.00  0.00     0.134 A 
ATOM      7  C   UNL     1      14.667   3.088  26.114  1.00  0.00     0.093 A 
ATOM      8  C   UNL     1      14.625   2.423  24.887  1.00  0.00     0.123 A 
ATOM      9  C   UNL     1      14.947   1.064  24.821  1.00  0.00     0.094 A 
ATOM     10  C   UNL     1      15.309   0.366  25.978  1.00  0.00     0.146 A 
ATOM     11  O   UNL     1      15.604  -0.926  25.888  1.00  0.00    -0.452 OA
ENDROOT
BRANCH   1  12
ATOM     12  C   UNL     1      16.247  -3.103  26.704  1.00  0.00     0.025 A 
ATOM     13  C   UNL     1      15.595  -5.319  25.899  1.00  0.00     0.161 A 
ATOM     14  C   UNL     1      16.870  -5.806  26.236  1.00  0.00     0.157 A 
ATOM     15  C   UNL     1      15.293  -3.962  26.130  1.00  0.00     0.062 A 
ATOM     16  C   UNL     1      17.826  -4.945  26.785  1.00  0.00     0.051 A 
ATOM     17  C   UNL     1      17.520  -3.603  27.012  1.00  0.00     0.016 A 
BRANCH  13  18
ATOM     18  O   UNL     1      14.659  -6.204  25.337  1.00  0.00    -0.493 OA
ATOM     19  C   UNL     1      14.932  -7.086  24.253  1.00  0.00     0.278 C 
ENDBRANCH  13  18
BRANCH  14  20
ATOM     20  O   UNL     1      17.211  -7.142  26.027  1.00  0.00    -0.504 OA
ATOM     21  H   UNL     1      18.127  -7.509  26.258  1.00  0.00     0.293 HD
ENDBRANCH  14  20
ENDBRANCH   1  12
BRANCH   2  22
ATOM     22  O   UNL     1      16.479  -1.838  29.304  1.00  0.00    -0.502 OA
ATOM     23  H   UNL     1      17.165  -2.578  29.216  1.00  0.00     0.293 HD
ENDBRANCH   2  22
BRANCH   6  24
ATOM     24  O   UNL     1      15.064   3.102  28.496  1.00  0.00    -0.507 OA
ATOM     25  H   UNL     1      15.931   3.265  28.993  1.00  0.00     0.293 HD
ENDBRANCH   6  24
BRANCH   8  26
ATOM     26  O   UNL     1      14.263   3.123  23.738  1.00  0.00    -0.508 OA
ATOM     27  H   UNL     1      14.958   3.552  23.138  1.00  0.00     0.293 HD
ENDBRANCH   8  26
TORSDOF 6
ENDMDL
MODEL 2
REMARK VINA RESULT:     0.352     10.194     12.401
REMARK INTER + INTRA:           0.741
REMARK INTER:                   0.935
REMARK INTRA:                  -0.194
REMARK UNBOUND:                 0.307
REMARK SMILES COc1cc(-c2oc3cc(O)cc(O)c3c(=O)c2O)ccc1O
REMARK SMILES IDX 6 1 18 2 16 3 17 4 15 5 13 6 12 7 10 8 9 9 8 10 7 11 5 12
REMARK SMILES IDX 3 13 22 14 4 15 21 16 20 17 2 18 1 19 23 20 19 22 14 24
REMARK SMILES IDX 11 26
REMARK H PARENT 23 21 19 23 14 25 11 27
REMARK Flexibility Score: inf
ROOT
ATOM      1  C   UNL     1      13.098 -13.089  28.345  1.00  0.00     0.180 A 
ATOM      2  C   UNL     1      11.777 -12.988  27.868  1.00  0.00     0.208 A 
ATOM      3  C   UNL     1      10.959 -11.955  28.349  1.00  0.00     0.238 A 
ATOM      4  O   UNL     1       9.778 -11.847  27.920  1.00  0.00    -0.285 OA
ATOM      5  C   UNL     1      11.466 -11.055  29.310  1.00  0.00     0.111 A 
ATOM      6  C   UNL     1      10.705  -9.989  29.849  1.00  0.00     0.134 A 
ATOM      7  C   UNL     1      11.279  -9.142  30.809  1.00  0.00     0.093 A 
ATOM      8  C   UNL     1      12.592  -9.339  31.241  1.00  0.00     0.123 A 
ATOM      9  C   UNL     1      13.347 -10.391  30.712  1.00  0.00     0.094 A 
ATOM     10  C   UNL     1      12.796 -11.245  29.753  1.00  0.00     0.146 A 
ATOM     11  O   UNL     1      13.537 -12.232  29.263  1.00  0.00    -0.452 OA
ENDROOT
BRANCH   1  12
ATOM     12  C   UNL     1      14.028 -14.140  27.871  1.00  0.00     0.025 A 
ATOM     13  C   UNL     1      15.392 -16.131  28.273  1.00  0.00     0.161 A 
ATOM     14  C   UNL     1      15.748 -16.150  26.912  1.00  0.00     0.157 A 
ATOM     15  C   UNL     1      14.524 -15.125  28.744  1.00  0.00     0.062 A 
ATOM     16  C   UNL     1      15.235 -15.184  26.041  1.00  0.00     0.051 A 
ATOM     17  C   UNL     1      14.377 -14.190  26.514  1.00  0.00     0.016 A 
BRANCH  13  18
ATOM     18  O   UNL     1      15.912 -17.121  29.122  1.00  0.00    -0.493 OA
ATOM     19  C   UNL     1      15.779 -17.121  30.540  1.00  0.00     0.278 C 
ENDBRANCH  13  18
BRANCH  14  20
ATOM     20  O   UNL     1      16.606 -17.125  26.405  1.00  0.00    -0.504 OA
ATOM     21  H   UNL     1      17.158 -16.976  25.569  1.00  0.00     0.293 HD
ENDBRANCH  14  20
ENDBRANCH   1  12
BRANCH   2  22
ATOM     22  O   UNL     1      11.285 -13.921  26.952  1.00  0.00    -0.502 OA
ATOM     23  H   UNL     1      11.827 -14.241  26.158  1.00  0.00     0.293 HD
ENDBRANCH   2  22
BRANCH   6  24
ATOM     24  O   UNL     1       9.390  -9.765  29.440  1.00  0.00    -0.507 OA
ATOM     25  H   UNL     1       9.140  -9.706  28.460  1.00  0.00     0.293 HD
ENDBRANCH   6  24
BRANCH   8  26
ATOM     26  O   UNL     1      13.137  -8.485  32.197  1.00  0.00    -0.508 OA
ATOM     27  H   UNL     1      13.984  -8.724  32.700  1.00  0.00     0.293 HD
ENDBRANCH   8  26
TORSDOF 6
ENDMDL
MODEL 3
REMARK VINA RESULT:     0.748      6.928     12.494
REMARK INTER + INTRA:           1.231
REMARK INTER:                   1.253
REMARK INTRA:                  -0.022
REMARK UNBOUND:                 0.307
REMARK SMILES COc1cc(-c2oc3cc(O)cc(O)c3c(=O)c2O)ccc1O
REMARK SMILES IDX 6 1 18 2 16 3 17 4 15 5 13 6 12 7 10 8 9 9 8 10 7 11 5 12
REMARK SMILES IDX 3 13 22 14 4 15 21 16 20 17 2 18 1 19 23 20 19 22 14 24
REMARK SMILES IDX 11 26
REMARK H PARENT 23 21 19 23 14 25 11 27
REMARK Flexibility Score: inf
ROOT
ATOM      1  C   UNL     1      14.326 -11.520  28.201  1.00  0.00     0.180 A 
ATOM      2  C   UNL     1      14.042 -11.692  29.570  1.00  0.00     0.208 A 
ATOM      3  C   UNL     1      14.221 -12.959  30.146  1.00  0.00     0.238 A 
ATOM      4  O   UNL     1      13.981 -13.123  31.373  1.00  0.00    -0.285 OA
ATOM      5  C   UNL     1      14.660 -14.033  29.344  1.00  0.00     0.111 A 
ATOM      6  C   UNL     1      14.862 -15.342  29.845  1.00  0.00     0.134 A 
ATOM      7  C   UNL     1      15.292 -16.360  28.980  1.00  0.00     0.093 A 
ATOM      8  C   UNL     1      15.522 -16.096  27.629  1.00  0.00     0.123 A 
ATOM      9  C   UNL     1      15.323 -14.805  27.128  1.00  0.00     0.094 A 
ATOM     10  C   UNL     1      14.898 -13.777  27.973  1.00  0.00     0.146 A 
ATOM     11  O   UNL     1      14.723 -12.559  27.473  1.00  0.00    -0.452 OA
ENDROOT
BRANCH   1  12
ATOM     12  C   UNL     1      14.179 -10.209  27.527  1.00  0.00     0.025 A 
ATOM     13  C   UNL     1      15.088  -8.384  26.175  1.00  0.00     0.161 A 
ATOM     14  C   UNL     1      13.836  -7.745  26.215  1.00  0.00     0.157 A 
ATOM     15  C   UNL     1      15.249  -9.623  26.829  1.00  0.00     0.062 A 
ATOM     16  C   UNL     1      12.766  -8.340  26.890  1.00  0.00     0.051 A 
ATOM     17  C   UNL     1      12.933  -9.566  27.536  1.00  0.00     0.016 A 
BRANCH  13  18
ATOM     18  O   UNL     1      16.141  -7.769  25.478  1.00  0.00    -0.493 OA
ATOM     19  C   UNL     1      16.871  -6.641  25.950  1.00  0.00     0.278 C 
ENDBRANCH  13  18
BRANCH  14  20
ATOM     20  O   UNL     1      13.633  -6.517  25.584  1.00  0.00    -0.504 OA
ATOM     21  H   UNL     1      14.400  -5.899  25.346  1.00  0.00     0.293 HD
ENDBRANCH  14  20
ENDBRANCH   1  12
BRANCH   2  22
ATOM     22  O   UNL     1      13.562 -10.623  30.331  1.00  0.00    -0.502 OA
ATOM     23  H   UNL     1      12.829 -10.735  31.022  1.00  0.00     0.293 HD
ENDBRANCH   2  22
BRANCH   6  24
ATOM     24  O   UNL     1      14.640 -15.638  31.191  1.00  0.00    -0.507 OA
ATOM     25  H   UNL     1      13.879 -15.218  31.710  1.00  0.00     0.293 HD
ENDBRANCH   6  24
BRANCH   8  26
ATOM     26  O   UNL     1      15.947 -17.125  26.790  1.00  0.00    -0.508 OA
ATOM     27  H   UNL     1      16.852 -17.098  26.335  1.00  0.00     0.293 HD
ENDBRANCH   8  26
TORSDOF 6
ENDMDL
MODEL 4
REMARK VINA RESULT:     1.207      3.011      4.760
REMARK INTER + INTRA:           1.797
REMARK INTER:                   2.181
REMARK INTRA:                  -0.384
REMARK UNBOUND:                 0.307
REMARK SMILES COc1cc(-c2oc3cc(O)cc(O)c3c(=O)c2O)ccc1O
REMARK SMILES IDX 6 1 18 2 16 3 17 4 15 5 13 6 12 7 10 8 9 9 8 10 7 11 5 12
REMARK SMILES IDX 3 13 22 14 4 15 21 16 20 17 2 18 1 19 23 20 19 22 14 24
REMARK SMILES IDX 11 26
REMARK H PARENT 23 21 19 23 14 25 11 27
REMARK Flexibility Score: inf
ROOT
ATOM      1  C   UNL     1      16.170  -4.518  26.239  1.00  0.00     0.180 A 
ATOM      2  C   UNL     1      15.285  -3.450  26.483  1.00  0.00     0.208 A 
ATOM      3  C   UNL     1      15.752  -2.327  27.182  1.00  0.00     0.238 A 
ATOM      4  O   UNL     1      14.972  -1.360  27.395  1.00  0.00    -0.285 OA
ATOM      5  C   UNL     1      17.085  -2.298  27.641  1.00  0.00     0.111 A 
ATOM      6  C   UNL     1      17.634  -1.206  28.357  1.00  0.00     0.134 A 
ATOM      7  C   UNL     1      18.967  -1.257  28.789  1.00  0.00     0.093 A 
ATOM      8  C   UNL     1      19.761  -2.374  28.523  1.00  0.00     0.123 A 
ATOM      9  C   UNL     1      19.224  -3.456  27.817  1.00  0.00     0.094 A 
ATOM     10  C   UNL     1      17.899  -3.424  27.375  1.00  0.00     0.146 A 
ATOM     11  O   UNL     1      17.416  -4.463  26.702  1.00  0.00    -0.452 OA
ENDROOT
BRANCH   1  12
ATOM     12  C   UNL     1      15.756  -5.729  25.493  1.00  0.00     0.025 A 
ATOM     13  C   UNL     1      14.849  -8.000  25.432  1.00  0.00     0.161 A 
ATOM     14  C   UNL     1      14.931  -7.985  24.028  1.00  0.00     0.157 A 
ATOM     15  C   UNL     1      15.257  -6.863  26.158  1.00  0.00     0.062 A 
ATOM     16  C   UNL     1      15.406  -6.848  23.367  1.00  0.00     0.051 A 
ATOM     17  C   UNL     1      15.809  -5.726  24.092  1.00  0.00     0.016 A 
BRANCH  13  18
ATOM     18  O   UNL     1      14.356  -9.151  26.069  1.00  0.00    -0.493 OA
ATOM     19  C   UNL     1      13.463  -9.141  27.178  1.00  0.00     0.278 C 
ENDBRANCH  13  18
BRANCH  14  20
ATOM     20  O   UNL     1      14.541  -9.089  23.271  1.00  0.00    -0.504 OA
ATOM     21  H   UNL     1      14.008  -8.994  22.414  1.00  0.00     0.293 HD
ENDBRANCH  14  20
ENDBRANCH   1  12
BRANCH   2  22
ATOM     22  O   UNL     1      13.955  -3.525  26.058  1.00  0.00    -0.502 OA
ATOM     23  H   UNL     1      13.181  -3.577  26.708  1.00  0.00     0.293 HD
ENDBRANCH   2  22
BRANCH   6  24
ATOM     24  O   UNL     1      16.867  -0.074  28.641  1.00  0.00    -0.507 OA
ATOM     25  H   UNL     1      16.262  -0.030  29.452  1.00  0.00     0.293 HD
ENDBRANCH   6  24
BRANCH   8  26
ATOM     26  O   UNL     1      21.082  -2.401  28.964  1.00  0.00    -0.508 OA
ATOM     27  H   UNL     1      21.333  -2.804  29.859  1.00  0.00     0.293 HD
ENDBRANCH   8  26
TORSDOF 6
ENDMDL
MODEL 5
REMARK VINA RESULT:     1.406      5.347     10.439
REMARK INTER + INTRA:           2.043
REMARK INTER:                   2.397
REMARK INTRA:                  -0.354
REMARK UNBOUND:                 0.307
REMARK SMILES COc1cc(-c2oc3cc(O)cc(O)c3c(=O)c2O)ccc1O
REMARK SMILES IDX 6 1 18 2 16 3 17 4 15 5 13 6 12 7 10 8 9 9 8 10 7 11 5 12
REMARK SMILES IDX 3 13 22 14 4 15 21 16 20 17 2 18 1 19 23 20 19 22 14 24
REMARK SMILES IDX 11 26
REMARK H PARENT 23 21 19 23 14 25 11 27
REMARK Flexibility Score: inf
ROOT
ATOM      1  C   UNL     1      14.296  -9.695  27.066  1.00  0.00     0.180 A 
ATOM      2  C   UNL     1      15.150 -10.694  27.572  1.00  0.00     0.208 A 
ATOM      3  C   UNL     1      14.661 -11.575  28.547  1.00  0.00     0.238 A 
ATOM      4  O   UNL     1      15.413 -12.481  28.999  1.00  0.00    -0.285 OA
ATOM      5  C   UNL     1      13.338 -11.433  29.014  1.00  0.00     0.111 A 
ATOM      6  C   UNL     1      12.768 -12.277  29.999  1.00  0.00     0.134 A 
ATOM      7  C   UNL     1      11.447 -12.064  30.418  1.00  0.00     0.093 A 
ATOM      8  C   UNL     1      10.686 -11.027  29.875  1.00  0.00     0.123 A 
ATOM      9  C   UNL     1      11.243 -10.189  28.904  1.00  0.00     0.094 A 
ATOM     10  C   UNL     1      12.557 -10.386  28.470  1.00  0.00     0.146 A 
ATOM     11  O   UNL     1      13.059  -9.580  27.542  1.00  0.00    -0.452 OA
ENDROOT
BRANCH   1  12
ATOM     12  C   UNL     1      14.734  -8.739  26.023  1.00  0.00     0.025 A 
ATOM     13  C   UNL     1      15.961  -6.738  25.332  1.00  0.00     0.161 A 
ATOM     14  C   UNL     1      15.587  -6.982  23.998  1.00  0.00     0.157 A 
ATOM     15  C   UNL     1      15.536  -7.628  26.339  1.00  0.00     0.062 A 
ATOM     16  C   UNL     1      14.809  -8.100  23.682  1.00  0.00     0.051 A 
ATOM     17  C   UNL     1      14.391  -8.976  24.684  1.00  0.00     0.016 A 
BRANCH  13  18
ATOM     18  O   UNL     1      16.753  -5.615  25.618  1.00  0.00    -0.493 OA
ATOM     19  C   UNL     1      16.584  -4.776  26.756  1.00  0.00     0.278 C 
ENDBRANCH  13  18
BRANCH  14  20
ATOM     20  O   UNL     1      15.983  -6.127  22.970  1.00  0.00    -0.504 OA
ATOM     21  H   UNL     1      15.754  -6.307  21.999  1.00  0.00     0.293 HD
ENDBRANCH  14  20
ENDBRANCH   1  12
BRANCH   2  22
ATOM     22  O   UNL     1      16.472 -10.783  27.127  1.00  0.00    -0.502 OA
ATOM     23  H   UNL     1      17.261 -10.556  27.721  1.00  0.00     0.293 HD
ENDBRANCH   2  22
BRANCH   6  24
ATOM     24  O   UNL     1      13.503 -13.322  30.561  1.00  0.00    -0.507 OA
ATOM     25  H   UNL     1      14.512 -13.281  30.641  1.00  0.00     0.293 HD
ENDBRANCH   6  24
BRANCH   8  26
ATOM     26  O   UNL     1       9.376 -10.835  30.310  1.00  0.00    -0.508 OA
ATOM     27  H   UNL     1       8.619 -10.674  29.656  1.00  0.00     0.293 HD
ENDBRANCH   8  26
TORSDOF 6
ENDMDL
MODEL 6
REMARK VINA RESULT:     1.846      3.085      4.768
REMARK INTER + INTRA:           2.585
REMARK INTER:                   2.916
REMARK INTRA:                  -0.331
REMARK UNBOUND:                 0.307
REMARK SMILES COc1cc(-c2oc3cc(O)cc(O)c3c(=O)c2O)ccc1O
REMARK SMILES IDX 6 1 18 2 16 3 17 4 15 5 13 6 12 7 10 8 9 9 8 10 7 11 5 12
REMARK SMILES IDX 3 13 22 14 4 15 21 16 20 17 2 18 1 19 23 20 19 22 14 24
REMARK SMILES IDX 11 26
REMARK H PARENT 23 21 19 23 14 25 11 27
REMARK Flexibility Score: inf
ROOT
ATOM      1  C   UNL     1      16.228  -4.516  26.320  1.00  0.00     0.180 A 
ATOM      2  C   UNL     1      15.352  -3.457  26.625  1.00  0.00     0.208 A 
ATOM      3  C   UNL     1      15.841  -2.358  27.347  1.00  0.00     0.238 A 
ATOM      4  O   UNL     1      15.068  -1.399  27.616  1.00  0.00    -0.285 OA
ATOM      5  C   UNL     1      17.187  -2.345  27.768  1.00  0.00     0.111 A 
ATOM      6  C   UNL     1      17.758  -1.277  28.503  1.00  0.00     0.134 A 
ATOM      7  C   UNL     1      19.104  -1.343  28.893  1.00  0.00     0.093 A 
ATOM      8  C   UNL     1      19.888  -2.450  28.565  1.00  0.00     0.123 A 
ATOM      9  C   UNL     1      19.329  -3.508  27.840  1.00  0.00     0.094 A 
ATOM     10  C   UNL     1      17.991  -3.461  27.439  1.00  0.00     0.146 A 
ATOM     11  O   UNL     1      17.487  -4.476  26.746  1.00  0.00    -0.452 OA
ENDROOT
BRANCH   1  12
ATOM     12  C   UNL     1      15.791  -5.701  25.546  1.00  0.00     0.025 A 
ATOM     13  C   UNL     1      15.174  -6.769  23.433  1.00  0.00     0.161 A 
ATOM     14  C   UNL     1      15.014  -7.992  24.109  1.00  0.00     0.157 A 
ATOM     15  C   UNL     1      15.571  -5.628  24.159  1.00  0.00     0.062 A 
ATOM     16  C   UNL     1      15.256  -8.068  25.484  1.00  0.00     0.051 A 
ATOM     17  C   UNL     1      15.648  -6.935  26.197  1.00  0.00     0.016 A 
BRANCH  13  18
ATOM     18  O   UNL     1      14.936  -6.725  22.049  1.00  0.00    -0.493 OA
ATOM     19  C   UNL     1      14.591  -5.547  21.326  1.00  0.00     0.278 C 
ENDBRANCH  13  18
BRANCH  14  20
ATOM     20  O   UNL     1      14.621  -9.145  23.431  1.00  0.00    -0.504 OA
ATOM     21  H   UNL     1      14.476  -9.159  22.428  1.00  0.00     0.293 HD
ENDBRANCH  14  20
ENDBRANCH   1  12
BRANCH   2  22
ATOM     22  O   UNL     1      14.010  -3.518  26.238  1.00  0.00    -0.502 OA
ATOM     23  H   UNL     1      13.492  -2.698  25.949  1.00  0.00     0.293 HD
ENDBRANCH   2  22
BRANCH   6  24
ATOM     24  O   UNL     1      17.001  -0.156  28.847  1.00  0.00    -0.507 OA
ATOM     25  H   UNL     1      16.245  -0.210  29.519  1.00  0.00     0.293 HD
ENDBRANCH   6  24
BRANCH   8  26
ATOM     26  O   UNL     1      21.222  -2.491  28.966  1.00  0.00    -0.508 OA
ATOM     27  H   UNL     1      21.734  -1.646  29.189  1.00  0.00     0.293 HD
ENDBRANCH   8  26
TORSDOF 6
ENDMDL
MODEL 7
REMARK VINA RESULT:     2.195      2.688      4.247
REMARK INTER + INTRA:           3.016
REMARK INTER:                   3.412
REMARK INTRA:                  -0.396
REMARK UNBOUND:                 0.307
REMARK SMILES COc1cc(-c2oc3cc(O)cc(O)c3c(=O)c2O)ccc1O
REMARK SMILES IDX 6 1 18 2 16 3 17 4 15 5 13 6 12 7 10 8 9 9 8 10 7 11 5 12
REMARK SMILES IDX 3 13 22 14 4 15 21 16 20 17 2 18 1 19 23 20 19 22 14 24
REMARK SMILES IDX 11 26
REMARK H PARENT 23 21 19 23 14 25 11 27
REMARK Flexibility Score: inf
ROOT
ATOM      1  C   UNL     1      16.572  -4.521  26.391  1.00  0.00     0.180 A 
ATOM      2  C   UNL     1      17.954  -4.423  26.644  1.00  0.00     0.208 A 
ATOM      3  C   UNL     1      18.434  -3.331  27.382  1.00  0.00     0.238 A 
ATOM      4  O   UNL     1      19.667  -3.240  27.625  1.00  0.00    -0.285 OA
ATOM      5  C   UNL     1      17.531  -2.347  27.836  1.00  0.00     0.111 A 
ATOM      6  C   UNL     1      17.933  -1.213  28.583  1.00  0.00     0.134 A 
ATOM      7  C   UNL     1      16.974  -0.273  28.991  1.00  0.00     0.093 A 
ATOM      8  C   UNL     1      15.627  -0.443  28.668  1.00  0.00     0.123 A 
ATOM      9  C   UNL     1      15.224  -1.561  27.930  1.00  0.00     0.094 A 
ATOM     10  C   UNL     1      16.163  -2.511  27.516  1.00  0.00     0.146 A 
ATOM     11  O   UNL     1      15.752  -3.566  26.822  1.00  0.00    -0.452 OA
ENDROOT
BRANCH   1  12
ATOM     12  C   UNL     1      15.988  -5.653  25.636  1.00  0.00     0.025 A 
ATOM     13  C   UNL     1      14.893  -7.839  25.563  1.00  0.00     0.161 A 
ATOM     14  C   UNL     1      14.840  -7.755  24.160  1.00  0.00     0.157 A 
ATOM     15  C   UNL     1      15.463  -6.778  26.295  1.00  0.00     0.062 A 
ATOM     16  C   UNL     1      15.342  -6.625  23.507  1.00  0.00     0.051 A 
ATOM     17  C   UNL     1      15.906  -5.579  24.238  1.00  0.00     0.016 A 
BRANCH  13  18
ATOM     18  O   UNL     1      14.370  -8.981  26.193  1.00  0.00    -0.493 OA
ATOM     19  C   UNL     1      13.350  -8.959  27.187  1.00  0.00     0.278 C 
ENDBRANCH  13  18
BRANCH  14  20
ATOM     20  O   UNL     1      14.287  -8.783  23.396  1.00  0.00    -0.504 OA
ATOM     21  H   UNL     1      13.544  -9.376  23.747  1.00  0.00     0.293 HD
ENDBRANCH  14  20
ENDBRANCH   1  12
BRANCH   2  22
ATOM     22  O   UNL     1      18.833  -5.387  26.141  1.00  0.00    -0.502 OA
ATOM     23  H   UNL     1      18.534  -6.110  25.498  1.00  0.00     0.293 HD
ENDBRANCH   2  22
BRANCH   6  24
ATOM     24  O   UNL     1      19.272  -1.013  28.922  1.00  0.00    -0.507 OA
ATOM     25  H   UNL     1      19.955  -1.759  28.857  1.00  0.00     0.293 HD
ENDBRANCH   6  24
BRANCH   8  26
ATOM     26  O   UNL     1      14.695   0.505  29.083  1.00  0.00    -0.508 OA
ATOM     27  H   UNL     1      14.041   0.926  28.434  1.00  0.00     0.293 HD
ENDBRANCH   8  26
TORSDOF 6
ENDMDL
MODEL 8
REMARK VINA RESULT:     2.395      7.446     11.093
REMARK INTER + INTRA:           3.263
REMARK INTER:                   3.529
REMARK INTRA:                  -0.266
REMARK UNBOUND:                 0.307
REMARK SMILES COc1cc(-c2oc3cc(O)cc(O)c3c(=O)c2O)ccc1O
REMARK SMILES IDX 6 1 18 2 16 3 17 4 15 5 13 6 12 7 10 8 9 9 8 10 7 11 5 12
REMARK SMILES IDX 3 13 22 14 4 15 21 16 20 17 2 18 1 19 23 20 19 22 14 24
REMARK SMILES IDX 11 26
REMARK H PARENT 23 21 19 23 14 25 11 27
REMARK Flexibility Score: inf
ROOT
ATOM      1  C   UNL     1      13.881 -12.198  28.637  1.00  0.00     0.180 A 
ATOM      2  C   UNL     1      12.557 -11.720  28.671  1.00  0.00     0.208 A 
ATOM      3  C   UNL     1      12.265 -10.487  28.069  1.00  0.00     0.238 A 
ATOM      4  O   UNL     1      11.081 -10.055  28.083  1.00  0.00    -0.285 OA
ATOM      5  C   UNL     1      13.300  -9.746  27.462  1.00  0.00     0.111 A 
ATOM      6  C   UNL     1      13.091  -8.493  26.836  1.00  0.00     0.134 A 
ATOM      7  C   UNL     1      14.175  -7.812  26.262  1.00  0.00     0.093 A 
ATOM      8  C   UNL     1      15.460  -8.356  26.302  1.00  0.00     0.123 A 
ATOM      9  C   UNL     1      15.673  -9.593  26.920  1.00  0.00     0.094 A 
ATOM     10  C   UNL     1      14.606 -10.289  27.495  1.00  0.00     0.146 A 
ATOM     11  O   UNL     1      14.835 -11.464  28.070  1.00  0.00    -0.452 OA
ENDROOT
BRANCH   1  12
ATOM     12  C   UNL     1      14.264 -13.498  29.235  1.00  0.00     0.025 A 
ATOM     13  C   UNL     1      15.055 -15.803  29.019  1.00  0.00     0.161 A 
ATOM     14  C   UNL     1      15.034 -15.931  30.419  1.00  0.00     0.157 A 
ATOM     15  C   UNL     1      14.675 -14.578  28.434  1.00  0.00     0.062 A 
ATOM     16  C   UNL     1      14.648 -14.848  31.216  1.00  0.00     0.051 A 
ATOM     17  C   UNL     1      14.272 -13.639  30.630  1.00  0.00     0.016 A 
BRANCH  13  18
ATOM     18  O   UNL     1      15.460 -16.903  28.245  1.00  0.00    -0.493 OA
ATOM     19  C   UNL     1      15.840 -16.830  26.874  1.00  0.00     0.278 C 
ENDBRANCH  13  18
BRANCH  14  20
ATOM     20  O   UNL     1      15.400 -17.125  31.040  1.00  0.00    -0.504 OA
ATOM     21  H   UNL     1      14.724 -17.847  31.263  1.00  0.00     0.293 HD
ENDBRANCH  14  20
ENDBRANCH   1  12
BRANCH   2  22
ATOM     22  O   UNL     1      11.559 -12.451  29.322  1.00  0.00    -0.502 OA
ATOM     23  H   UNL     1      11.164 -12.160  30.208  1.00  0.00     0.293 HD
ENDBRANCH   2  22
BRANCH   6  24
ATOM     24  O   UNL     1      11.818  -7.921  26.780  1.00  0.00    -0.507 OA
ATOM     25  H   UNL     1      11.527  -7.344  26.000  1.00  0.00     0.293 HD
ENDBRANCH   6  24
BRANCH   8  26
ATOM     26  O   UNL     1      16.520  -7.659  25.726  1.00  0.00    -0.508 OA
ATOM     27  H   UNL     1      16.659  -6.671  25.898  1.00  0.00     0.293 HD
ENDBRANCH   8  26
TORSDOF 6
ENDMDL
MODEL 9
REMARK VINA RESULT:     2.427      2.720      4.202
REMARK INTER + INTRA:           3.302
REMARK INTER:                   3.671
REMARK INTRA:                  -0.369
REMARK UNBOUND:                 0.307
REMARK SMILES COc1cc(-c2oc3cc(O)cc(O)c3c(=O)c2O)ccc1O
REMARK SMILES IDX 6 1 18 2 16 3 17 4 15 5 13 6 12 7 10 8 9 9 8 10 7 11 5 12
REMARK SMILES IDX 3 13 22 14 4 15 21 16 20 17 2 18 1 19 23 20 19 22 14 24
REMARK SMILES IDX 11 26
REMARK H PARENT 23 21 19 23 14 25 11 27
REMARK Flexibility Score: inf
ROOT
ATOM      1  C   UNL     1      16.609  -4.518  26.456  1.00  0.00     0.180 A 
ATOM      2  C   UNL     1      17.988  -4.418  26.727  1.00  0.00     0.208 A 
ATOM      3  C   UNL     1      18.456  -3.324  27.470  1.00  0.00     0.238 A 
ATOM      4  O   UNL     1      19.686  -3.230  27.728  1.00  0.00    -0.285 OA
ATOM      5  C   UNL     1      17.546  -2.342  27.912  1.00  0.00     0.111 A 
ATOM      6  C   UNL     1      17.935  -1.206  28.664  1.00  0.00     0.134 A 
ATOM      7  C   UNL     1      16.970  -0.268  29.059  1.00  0.00     0.093 A 
ATOM      8  C   UNL     1      15.627  -0.442  28.719  1.00  0.00     0.123 A 
ATOM      9  C   UNL     1      15.236  -1.561  27.977  1.00  0.00     0.094 A 
ATOM     10  C   UNL     1      16.182  -2.508  27.575  1.00  0.00     0.146 A 
ATOM     11  O   UNL     1      15.782  -3.565  26.876  1.00  0.00    -0.452 OA
ENDROOT
BRANCH   1  12
ATOM     12  C   UNL     1      16.038  -5.652  25.695  1.00  0.00     0.025 A 
ATOM     13  C   UNL     1      15.269  -6.652  23.598  1.00  0.00     0.161 A 
ATOM     14  C   UNL     1      15.001  -7.852  24.280  1.00  0.00     0.157 A 
ATOM     15  C   UNL     1      15.796  -5.557  24.313  1.00  0.00     0.062 A 
ATOM     16  C   UNL     1      15.264  -7.953  25.650  1.00  0.00     0.051 A 
ATOM     17  C   UNL     1      15.784  -6.865  26.351  1.00  0.00     0.016 A 
BRANCH  13  18
ATOM     18  O   UNL     1      15.007  -6.584  22.220  1.00  0.00    -0.493 OA
ATOM     19  C   UNL     1      14.667  -5.391  21.520  1.00  0.00     0.278 C 
ENDBRANCH  13  18
BRANCH  14  20
ATOM     20  O   UNL     1      14.478  -8.960  23.613  1.00  0.00    -0.504 OA
ATOM     21  H   UNL     1      13.789  -8.870  22.876  1.00  0.00     0.293 HD
ENDBRANCH  14  20
ENDBRANCH   1  12
BRANCH   2  22
ATOM     22  O   UNL     1      18.875  -5.379  26.235  1.00  0.00    -0.502 OA
ATOM     23  H   UNL     1      18.591  -6.091  25.572  1.00  0.00     0.293 HD
ENDBRANCH   2  22
BRANCH   6  24
ATOM     24  O   UNL     1      19.271  -1.004  29.019  1.00  0.00    -0.507 OA
ATOM     25  H   UNL     1      19.735  -0.117  28.862  1.00  0.00     0.293 HD
ENDBRANCH   6  24
BRANCH   8  26
ATOM     26  O   UNL     1      14.688   0.505  29.122  1.00  0.00    -0.508 OA
ATOM     27  H   UNL     1      14.270   1.151  28.463  1.00  0.00     0.293 HD
ENDBRANCH   8  26
TORSDOF 6
ENDMDL
