MODEL 1
REMARK VINA RESULT:    -3.559      0.000      0.000
REMARK INTER + INTRA:          -9.172
REMARK INTER:                  -6.473
REMARK INTRA:                  -2.699
REMARK UNBOUND:                -2.699
REMARK SMILES CCCCCC=CCC=CCCCCCCCC(=O)[O-]
REMARK SMILES IDX 11 1 12 2 13 3 14 4 15 5 16 6 17 7 18 8 19 9 20 10 10 11
REMARK SMILES IDX 9 12 8 13 7 14 6 15 5 16 4 17 3 18 2 19 1 20
REMARK H PARENT
REMARK Flexibility Score: inf
ROOT
ATOM      1  C   UNL     1       1.446  -7.129  -7.313  1.00  0.00     0.027 C 
ENDROOT
BRANCH   1   2
ATOM      2  C   UNL     1       1.372  -7.384  -8.827  1.00  0.00     0.004 C 
BRANCH   2   3
ATOM      3  C   UNL     1       1.310  -6.108  -9.692  1.00  0.00     0.000 C 
BRANCH   3   4
ATOM      4  C   UNL     1       2.669  -5.433  -9.963  1.00  0.00     0.000 C 
BRANCH   4   5
ATOM      5  C   UNL     1       2.723  -3.928  -9.642  1.00  0.00     0.000 C 
BRANCH   5   6
ATOM      6  C   UNL     1       1.460  -3.424  -8.925  1.00  0.00     0.006 C 
BRANCH   6   7
ATOM      7  C   UNL     1       1.751  -2.972  -7.487  1.00  0.00     0.053 C 
BRANCH   7   8
ATOM      8  C   UNL     1       1.985  -1.495  -7.405  1.00  0.00     0.041 C 
ATOM      9  O   UNL     1       1.206  -0.765  -6.736  1.00  0.00    -0.550 OA
ATOM     10  O   UNL     1       3.083  -0.928  -8.042  1.00  0.00    -0.550 OA
ENDBRANCH   7   8
ENDBRANCH   6   7
ENDBRANCH   5   6
ENDBRANCH   4   5
ENDBRANCH   3   4
ENDBRANCH   2   3
ENDBRANCH   1   2
BRANCH   1  11
ATOM     11  C   UNL     1       2.710  -7.689  -6.702  1.00  0.00    -0.031 C 
ATOM     12  C   UNL     1       3.746  -6.952  -6.257  1.00  0.00    -0.027 C 
BRANCH  12  13
ATOM     13  C   UNL     1       3.827  -5.449  -6.337  1.00  0.00     0.054 C 
BRANCH  13  14
ATOM     14  C   UNL     1       5.079  -5.012  -7.057  1.00  0.00    -0.027 C 
ATOM     15  C   UNL     1       5.684  -3.824  -6.869  1.00  0.00    -0.031 C 
BRANCH  15  16
ATOM     16  C   UNL     1       5.219  -2.760  -5.901  1.00  0.00     0.027 C 
BRANCH  16  17
ATOM     17  C   UNL     1       6.274  -2.425  -4.828  1.00  0.00     0.004 C 
BRANCH  17  18
ATOM     18  C   UNL     1       6.173  -3.296  -3.560  1.00  0.00     0.000 C 
BRANCH  18  19
ATOM     19  C   UNL     1       7.014  -4.586  -3.588  1.00  0.00    -0.003 C 
ATOM     20  C   UNL     1       6.164  -5.858  -3.553  1.00  0.00     0.004 C 
ENDBRANCH  18  19
ENDBRANCH  17  18
ENDBRANCH  16  17
ENDBRANCH  15  16
ENDBRANCH  13  14
ENDBRANCH  12  13
ENDBRANCH   1  11
TORSDOF 14
ENDMDL
MODEL 2
REMARK VINA RESULT:    -3.541      2.534      5.585
REMARK INTER + INTRA:          -9.137
REMARK INTER:                  -6.809
REMARK INTRA:                  -2.329
REMARK UNBOUND:                -2.699
REMARK SMILES CCCCCC=CCC=CCCCCCCCC(=O)[O-]
REMARK SMILES IDX 11 1 12 2 13 3 14 4 15 5 16 6 17 7 18 8 19 9 20 10 10 11
REMARK SMILES IDX 9 12 8 13 7 14 6 15 5 16 4 17 3 18 2 19 1 20
REMARK H PARENT
REMARK Flexibility Score: inf
ROOT
ATOM      1  C   UNL     1       1.910  -7.148  -6.993  1.00  0.00     0.027 C 
ENDROOT
BRANCH   1   2
ATOM      2  C   UNL     1       3.358  -7.623  -6.791  1.00  0.00     0.004 C 
BRANCH   2   3
ATOM      3  C   UNL     1       4.056  -7.042  -5.544  1.00  0.00     0.000 C 
BRANCH   3   4
ATOM      4  C   UNL     1       5.272  -6.140  -5.833  1.00  0.00     0.000 C 
BRANCH   4   5
ATOM      5  C   UNL     1       5.504  -5.012  -4.812  1.00  0.00     0.000 C 
BRANCH   5   6
ATOM      6  C   UNL     1       5.923  -3.687  -5.471  1.00  0.00     0.006 C 
BRANCH   6   7
ATOM      7  C   UNL     1       5.756  -2.491  -4.524  1.00  0.00     0.053 C 
BRANCH   7   8
ATOM      8  C   UNL     1       7.003  -2.225  -3.739  1.00  0.00     0.041 C 
ATOM      9  O   UNL     1       7.049  -2.496  -2.509  1.00  0.00    -0.550 OA
ATOM     10  O   UNL     1       8.128  -1.709  -4.372  1.00  0.00    -0.550 OA
ENDBRANCH   7   8
ENDBRANCH   6   7
ENDBRANCH   5   6
ENDBRANCH   4   5
ENDBRANCH   3   4
ENDBRANCH   2   3
ENDBRANCH   1   2
BRANCH   1  11
ATOM     11  C   UNL     1       1.732  -6.401  -8.295  1.00  0.00    -0.031 C 
ATOM     12  C   UNL     1       1.824  -5.064  -8.438  1.00  0.00    -0.027 C 
BRANCH  12  13
ATOM     13  C   UNL     1       2.078  -4.096  -7.311  1.00  0.00     0.054 C 
BRANCH  13  14
ATOM     14  C   UNL     1       3.292  -3.246  -7.591  1.00  0.00    -0.027 C 
ATOM     15  C   UNL     1       3.321  -1.905  -7.470  1.00  0.00    -0.031 C 
BRANCH  15  16
ATOM     16  C   UNL     1       2.157  -1.053  -7.020  1.00  0.00     0.027 C 
BRANCH  16  17
ATOM     17  C   UNL     1       1.309  -0.529  -8.196  1.00  0.00     0.004 C 
BRANCH  17  18
ATOM     18  C   UNL     1      -0.007  -1.304  -8.410  1.00  0.00     0.000 C 
BRANCH  18  19
ATOM     19  C   UNL     1      -0.139  -1.996  -9.779  1.00  0.00    -0.003 C 
ATOM     20  C   UNL     1       1.179  -2.055 -10.553  1.00  0.00     0.004 C 
ENDBRANCH  18  19
ENDBRANCH  17  18
ENDBRANCH  16  17
ENDBRANCH  15  16
ENDBRANCH  13  14
ENDBRANCH  12  13
ENDBRANCH   1  11
TORSDOF 14
ENDMDL
MODEL 3
REMARK VINA RESULT:    -3.452      2.169      3.964
REMARK INTER + INTRA:          -8.975
REMARK INTER:                  -6.791
REMARK INTRA:                  -2.185
REMARK UNBOUND:                -2.699
REMARK SMILES CCCCCC=CCC=CCCCCCCCC(=O)[O-]
REMARK SMILES IDX 11 1 12 2 13 3 14 4 15 5 16 6 17 7 18 8 19 9 20 10 10 11
REMARK SMILES IDX 9 12 8 13 7 14 6 15 5 16 4 17 3 18 2 19 1 20
REMARK H PARENT
REMARK Flexibility Score: inf
ROOT
ATOM      1  C   UNL     1       3.676  -3.679  -7.932  1.00  0.00     0.027 C 
ENDROOT
BRANCH   1   2
ATOM      2  C   UNL     1       3.853  -2.165  -7.731  1.00  0.00     0.004 C 
BRANCH   2   3
ATOM      3  C   UNL     1       2.963  -1.554  -6.630  1.00  0.00     0.000 C 
BRANCH   3   4
ATOM      4  C   UNL     1       1.961  -0.487  -7.113  1.00  0.00     0.000 C 
BRANCH   4   5
ATOM      5  C   UNL     1       1.841  -0.351  -8.641  1.00  0.00     0.000 C 
BRANCH   5   6
ATOM      6  C   UNL     1       0.477  -0.818  -9.178  1.00  0.00     0.006 C 
BRANCH   6   7
ATOM      7  C   UNL     1       0.611  -2.001 -10.147  1.00  0.00     0.053 C 
BRANCH   7   8
ATOM      8  C   UNL     1      -0.378  -3.084  -9.842  1.00  0.00     0.041 C 
ATOM      9  O   UNL     1      -0.064  -4.294 -10.001  1.00  0.00    -0.550 OA
ATOM     10  O   UNL     1      -1.637  -2.759  -9.350  1.00  0.00    -0.550 OA
ENDBRANCH   7   8
ENDBRANCH   6   7
ENDBRANCH   5   6
ENDBRANCH   4   5
ENDBRANCH   3   4
ENDBRANCH   2   3
ENDBRANCH   1   2
BRANCH   1  11
ATOM     11  C   UNL     1       2.341  -4.169  -7.419  1.00  0.00    -0.031 C 
ATOM     12  C   UNL     1       2.012  -5.463  -7.234  1.00  0.00    -0.027 C 
BRANCH  12  13
ATOM     13  C   UNL     1       2.910  -6.631  -7.549  1.00  0.00     0.054 C 
BRANCH  13  14
ATOM     14  C   UNL     1       3.066  -7.533  -6.350  1.00  0.00    -0.027 C 
ATOM     15  C   UNL     1       4.044  -7.410  -5.432  1.00  0.00    -0.031 C 
BRANCH  15  16
ATOM     16  C   UNL     1       5.116  -6.345  -5.450  1.00  0.00     0.027 C 
BRANCH  16  17
ATOM     17  C   UNL     1       5.757  -6.117  -4.067  1.00  0.00     0.004 C 
BRANCH  17  18
ATOM     18  C   UNL     1       6.358  -4.710  -3.882  1.00  0.00     0.000 C 
BRANCH  18  19
ATOM     19  C   UNL     1       5.855  -3.651  -4.879  1.00  0.00    -0.003 C 
ATOM     20  C   UNL     1       5.712  -2.260  -4.258  1.00  0.00     0.004 C 
ENDBRANCH  18  19
ENDBRANCH  17  18
ENDBRANCH  16  17
ENDBRANCH  15  16
ENDBRANCH  13  14
ENDBRANCH  12  13
ENDBRANCH   1  11
TORSDOF 14
ENDMDL
MODEL 4
REMARK VINA RESULT:    -3.451      1.365      2.387
REMARK INTER + INTRA:          -8.974
REMARK INTER:                  -6.563
REMARK INTRA:                  -2.411
REMARK UNBOUND:                -2.699
REMARK SMILES CCCCCC=CCC=CCCCCCCCC(=O)[O-]
REMARK SMILES IDX 11 1 12 2 13 3 14 4 15 5 16 6 17 7 18 8 19 9 20 10 10 11
REMARK SMILES IDX 9 12 8 13 7 14 6 15 5 16 4 17 3 18 2 19 1 20
REMARK H PARENT
REMARK Flexibility Score: inf
ROOT
ATOM      1  C   UNL     1       1.398  -7.021  -7.282  1.00  0.00     0.027 C 
ENDROOT
BRANCH   1   2
ATOM      2  C   UNL     1       1.711  -6.463  -8.680  1.00  0.00     0.004 C 
BRANCH   2   3
ATOM      3  C   UNL     1       2.287  -5.033  -8.687  1.00  0.00     0.000 C 
BRANCH   3   4
ATOM      4  C   UNL     1       2.419  -4.371  -7.301  1.00  0.00     0.000 C 
BRANCH   4   5
ATOM      5  C   UNL     1       3.789  -3.731  -7.013  1.00  0.00     0.000 C 
BRANCH   5   6
ATOM      6  C   UNL     1       3.692  -2.227  -6.705  1.00  0.00     0.006 C 
BRANCH   6   7
ATOM      7  C   UNL     1       3.261  -1.411  -7.931  1.00  0.00     0.053 C 
BRANCH   7   8
ATOM      8  C   UNL     1       1.980  -0.674  -7.686  1.00  0.00     0.041 C 
ATOM      9  O   UNL     1       1.222  -1.016  -6.739  1.00  0.00    -0.550 OA
ATOM     10  O   UNL     1       1.637   0.411  -8.484  1.00  0.00    -0.550 OA
ENDBRANCH   7   8
ENDBRANCH   6   7
ENDBRANCH   5   6
ENDBRANCH   4   5
ENDBRANCH   3   4
ENDBRANCH   2   3
ENDBRANCH   1   2
BRANCH   1  11
ATOM     11  C   UNL     1       2.061  -8.357  -7.039  1.00  0.00    -0.031 C 
ATOM     12  C   UNL     1       3.104  -8.564  -6.210  1.00  0.00    -0.027 C 
BRANCH  12  13
ATOM     13  C   UNL     1       3.803  -7.484  -5.425  1.00  0.00     0.054 C 
BRANCH  13  14
ATOM     14  C   UNL     1       5.064  -7.037  -6.124  1.00  0.00    -0.027 C 
ATOM     15  C   UNL     1       6.009  -6.264  -5.557  1.00  0.00    -0.031 C 
BRANCH  15  16
ATOM     16  C   UNL     1       5.964  -5.744  -4.139  1.00  0.00     0.027 C 
BRANCH  16  17
ATOM     17  C   UNL     1       5.940  -4.204  -4.066  1.00  0.00     0.004 C 
BRANCH  17  18
ATOM     18  C   UNL     1       7.269  -3.540  -4.474  1.00  0.00     0.000 C 
BRANCH  18  19
ATOM     19  C   UNL     1       7.125  -2.258  -5.315  1.00  0.00    -0.003 C 
ATOM     20  C   UNL     1       7.453  -2.470  -6.794  1.00  0.00     0.004 C 
ENDBRANCH  18  19
ENDBRANCH  17  18
ENDBRANCH  16  17
ENDBRANCH  15  16
ENDBRANCH  13  14
ENDBRANCH  12  13
ENDBRANCH   1  11
TORSDOF 14
ENDMDL
MODEL 5
REMARK VINA RESULT:    -3.438      1.522      2.583
REMARK INTER + INTRA:          -8.951
REMARK INTER:                  -6.565
REMARK INTRA:                  -2.386
REMARK UNBOUND:                -2.699
REMARK SMILES CCCCCC=CCC=CCCCCCCCC(=O)[O-]
REMARK SMILES IDX 11 1 12 2 13 3 14 4 15 5 16 6 17 7 18 8 19 9 20 10 10 11
REMARK SMILES IDX 9 12 8 13 7 14 6 15 5 16 4 17 3 18 2 19 1 20
REMARK H PARENT
REMARK Flexibility Score: inf
ROOT
ATOM      1  C   UNL     1       3.899  -7.548  -5.401  1.00  0.00     0.027 C 
ENDROOT
BRANCH   1   2
ATOM      2  C   UNL     1       4.366  -7.560  -6.865  1.00  0.00     0.004 C 
BRANCH   2   3
ATOM      3  C   UNL     1       3.688  -6.507  -7.765  1.00  0.00     0.000 C 
BRANCH   3   4
ATOM      4  C   UNL     1       2.266  -6.095  -7.336  1.00  0.00     0.000 C 
BRANCH   4   5
ATOM      5  C   UNL     1       2.007  -4.578  -7.312  1.00  0.00     0.000 C 
BRANCH   5   6
ATOM      6  C   UNL     1       2.996  -3.788  -8.186  1.00  0.00     0.006 C 
BRANCH   6   7
ATOM      7  C   UNL     1       2.519  -2.354  -8.450  1.00  0.00     0.053 C 
BRANCH   7   8
ATOM      8  C   UNL     1       2.274  -1.606  -7.176  1.00  0.00     0.041 C 
ATOM      9  O   UNL     1       3.210  -1.434  -6.351  1.00  0.00    -0.550 OA
ATOM     10  O   UNL     1       1.019  -1.068  -6.915  1.00  0.00    -0.550 OA
ENDBRANCH   7   8
ENDBRANCH   6   7
ENDBRANCH   5   6
ENDBRANCH   4   5
ENDBRANCH   3   4
ENDBRANCH   2   3
ENDBRANCH   1   2
BRANCH   1  11
ATOM     11  C   UNL     1       4.793  -8.379  -4.510  1.00  0.00    -0.031 C 
ATOM     12  C   UNL     1       5.774  -7.889  -3.725  1.00  0.00    -0.027 C 
BRANCH  12  13
ATOM     13  C   UNL     1       6.163  -6.435  -3.645  1.00  0.00     0.054 C 
BRANCH  13  14
ATOM     14  C   UNL     1       7.113  -6.067  -4.757  1.00  0.00    -0.027 C 
ATOM     15  C   UNL     1       6.888  -5.084  -5.649  1.00  0.00    -0.031 C 
BRANCH  15  16
ATOM     16  C   UNL     1       5.669  -4.191  -5.662  1.00  0.00     0.027 C 
BRANCH  16  17
ATOM     17  C   UNL     1       5.964  -2.768  -5.147  1.00  0.00     0.004 C 
BRANCH  17  18
ATOM     18  C   UNL     1       6.019  -2.659  -3.610  1.00  0.00     0.000 C 
BRANCH  18  19
ATOM     19  C   UNL     1       7.336  -2.100  -3.044  1.00  0.00    -0.003 C 
ATOM     20  C   UNL     1       8.409  -3.173  -2.847  1.00  0.00     0.004 C 
ENDBRANCH  18  19
ENDBRANCH  17  18
ENDBRANCH  16  17
ENDBRANCH  15  16
ENDBRANCH  13  14
ENDBRANCH  12  13
ENDBRANCH   1  11
TORSDOF 14
ENDMDL
MODEL 6
REMARK VINA RESULT:    -3.352      1.781      3.147
REMARK INTER + INTRA:          -8.795
REMARK INTER:                  -6.603
REMARK INTRA:                  -2.192
REMARK UNBOUND:                -2.699
REMARK SMILES CCCCCC=CCC=CCCCCCCCC(=O)[O-]
REMARK SMILES IDX 11 1 12 2 13 3 14 4 15 5 16 6 17 7 18 8 19 9 20 10 10 11
REMARK SMILES IDX 9 12 8 13 7 14 6 15 5 16 4 17 3 18 2 19 1 20
REMARK H PARENT
REMARK Flexibility Score: inf
ROOT
ATOM      1  C   UNL     1       4.990  -6.272  -6.105  1.00  0.00     0.027 C 
ENDROOT
BRANCH   1   2
ATOM      2  C   UNL     1       3.618  -6.950  -6.254  1.00  0.00     0.004 C 
BRANCH   2   3
ATOM      3  C   UNL     1       2.730  -6.365  -7.372  1.00  0.00     0.000 C 
BRANCH   3   4
ATOM      4  C   UNL     1       2.157  -4.962  -7.088  1.00  0.00     0.000 C 
BRANCH   4   5
ATOM      5  C   UNL     1       2.608  -3.864  -8.068  1.00  0.00     0.000 C 
BRANCH   5   6
ATOM      6  C   UNL     1       3.773  -3.019  -7.524  1.00  0.00     0.006 C 
BRANCH   6   7
ATOM      7  C   UNL     1       3.289  -1.887  -6.607  1.00  0.00     0.053 C 
BRANCH   7   8
ATOM      8  C   UNL     1       2.252  -1.036  -7.274  1.00  0.00     0.041 C 
ATOM      9  O   UNL     1       1.093  -0.951  -6.788  1.00  0.00    -0.550 OA
ATOM     10  O   UNL     1       2.576  -0.311  -8.415  1.00  0.00    -0.550 OA
ENDBRANCH   7   8
ENDBRANCH   6   7
ENDBRANCH   5   6
ENDBRANCH   4   5
ENDBRANCH   3   4
ENDBRANCH   2   3
ENDBRANCH   1   2
BRANCH   1  11
ATOM     11  C   UNL     1       5.455  -6.238  -4.667  1.00  0.00    -0.031 C 
ATOM     12  C   UNL     1       5.852  -5.131  -4.009  1.00  0.00    -0.027 C 
BRANCH  12  13
ATOM     13  C   UNL     1       5.935  -3.754  -4.617  1.00  0.00     0.054 C 
BRANCH  13  14
ATOM     14  C   UNL     1       5.963  -2.691  -3.547  1.00  0.00    -0.027 C 
ATOM     15  C   UNL     1       7.082  -2.072  -3.125  1.00  0.00    -0.031 C 
BRANCH  15  16
ATOM     16  C   UNL     1       8.469  -2.329  -3.668  1.00  0.00     0.027 C 
BRANCH  16  17
ATOM     17  C   UNL     1       9.314  -3.231  -2.747  1.00  0.00     0.004 C 
BRANCH  17  18
ATOM     18  C   UNL     1       9.287  -4.722  -3.137  1.00  0.00     0.000 C 
BRANCH  18  19
ATOM     19  C   UNL     1      10.066  -5.075  -4.417  1.00  0.00    -0.003 C 
ATOM     20  C   UNL     1       9.158  -5.441  -5.593  1.00  0.00     0.004 C 
ENDBRANCH  18  19
ENDBRANCH  17  18
ENDBRANCH  16  17
ENDBRANCH  15  16
ENDBRANCH  13  14
ENDBRANCH  12  13
ENDBRANCH   1  11
TORSDOF 14
ENDMDL
MODEL 7
REMARK VINA RESULT:    -3.352      1.261      1.876
REMARK INTER + INTRA:          -8.794
REMARK INTER:                  -6.788
REMARK INTRA:                  -2.006
REMARK UNBOUND:                -2.699
REMARK SMILES CCCCCC=CCC=CCCCCCCCC(=O)[O-]
REMARK SMILES IDX 11 1 12 2 13 3 14 4 15 5 16 6 17 7 18 8 19 9 20 10 10 11
REMARK SMILES IDX 9 12 8 13 7 14 6 15 5 16 4 17 3 18 2 19 1 20
REMARK H PARENT
REMARK Flexibility Score: inf
ROOT
ATOM      1  C   UNL     1       3.559  -8.164  -6.629  1.00  0.00     0.027 C 
ENDROOT
BRANCH   1   2
ATOM      2  C   UNL     1       2.023  -8.180  -6.676  1.00  0.00     0.004 C 
BRANCH   2   3
ATOM      3  C   UNL     1       1.391  -6.997  -7.438  1.00  0.00     0.000 C 
BRANCH   3   4
ATOM      4  C   UNL     1       1.857  -6.833  -8.898  1.00  0.00     0.000 C 
BRANCH   4   5
ATOM      5  C   UNL     1       1.186  -5.683  -9.670  1.00  0.00     0.000 C 
BRANCH   5   6
ATOM      6  C   UNL     1       1.656  -4.295  -9.203  1.00  0.00     0.006 C 
BRANCH   6   7
ATOM      7  C   UNL     1       0.563  -3.229  -9.363  1.00  0.00     0.053 C 
BRANCH   7   8
ATOM      8  C   UNL     1       0.610  -2.215  -8.261  1.00  0.00     0.041 C 
ATOM      9  O   UNL     1      -0.049  -1.145  -8.354  1.00  0.00    -0.550 OA
ATOM     10  O   UNL     1       1.357  -2.466  -7.116  1.00  0.00    -0.550 OA
ENDBRANCH   7   8
ENDBRANCH   6   7
ENDBRANCH   5   6
ENDBRANCH   4   5
ENDBRANCH   3   4
ENDBRANCH   2   3
ENDBRANCH   1   2
BRANCH   1  11
ATOM     11  C   UNL     1       4.085  -7.515  -5.370  1.00  0.00    -0.031 C 
ATOM     12  C   UNL     1       4.825  -6.389  -5.330  1.00  0.00    -0.027 C 
BRANCH  12  13
ATOM     13  C   UNL     1       5.282  -5.620  -6.543  1.00  0.00     0.054 C 
BRANCH  13  14
ATOM     14  C   UNL     1       4.378  -4.442  -6.809  1.00  0.00    -0.027 C 
ATOM     15  C   UNL     1       4.682  -3.169  -6.497  1.00  0.00    -0.031 C 
BRANCH  15  16
ATOM     16  C   UNL     1       5.976  -2.723  -5.854  1.00  0.00     0.027 C 
BRANCH  16  17
ATOM     17  C   UNL     1       5.793  -2.271  -4.391  1.00  0.00     0.004 C 
BRANCH  17  18
ATOM     18  C   UNL     1       5.983  -3.402  -3.361  1.00  0.00     0.000 C 
BRANCH  18  19
ATOM     19  C   UNL     1       7.329  -4.144  -3.450  1.00  0.00    -0.003 C 
ATOM     20  C   UNL     1       8.471  -3.405  -2.750  1.00  0.00     0.004 C 
ENDBRANCH  18  19
ENDBRANCH  17  18
ENDBRANCH  16  17
ENDBRANCH  15  16
ENDBRANCH  13  14
ENDBRANCH  12  13
ENDBRANCH   1  11
TORSDOF 14
ENDMDL
MODEL 8
REMARK VINA RESULT:    -3.325      1.395      2.290
REMARK INTER + INTRA:          -8.745
REMARK INTER:                  -6.068
REMARK INTRA:                  -2.677
REMARK UNBOUND:                -2.699
REMARK SMILES CCCCCC=CCC=CCCCCCCCC(=O)[O-]
REMARK SMILES IDX 11 1 12 2 13 3 14 4 15 5 16 6 17 7 18 8 19 9 20 10 10 11
REMARK SMILES IDX 9 12 8 13 7 14 6 15 5 16 4 17 3 18 2 19 1 20
REMARK H PARENT
REMARK Flexibility Score: inf
ROOT
ATOM      1  C   UNL     1       2.515  -7.165  -7.015  1.00  0.00     0.027 C 
ENDROOT
BRANCH   1   2
ATOM      2  C   UNL     1       3.013  -7.549  -8.418  1.00  0.00     0.004 C 
BRANCH   2   3
ATOM      3  C   UNL     1       3.901  -6.487  -9.098  1.00  0.00     0.000 C 
BRANCH   3   4
ATOM      4  C   UNL     1       3.339  -5.052  -9.080  1.00  0.00     0.000 C 
BRANCH   4   5
ATOM      5  C   UNL     1       4.211  -4.020  -8.342  1.00  0.00     0.000 C 
BRANCH   5   6
ATOM      6  C   UNL     1       3.417  -3.192  -7.317  1.00  0.00     0.006 C 
BRANCH   6   7
ATOM      7  C   UNL     1       1.915  -3.505  -7.358  1.00  0.00     0.053 C 
BRANCH   7   8
ATOM      8  C   UNL     1       1.108  -2.310  -7.761  1.00  0.00     0.041 C 
ATOM      9  O   UNL     1       0.417  -2.336  -8.814  1.00  0.00    -0.550 OA
ATOM     10  O   UNL     1       1.094  -1.176  -6.957  1.00  0.00    -0.550 OA
ENDBRANCH   7   8
ENDBRANCH   6   7
ENDBRANCH   5   6
ENDBRANCH   4   5
ENDBRANCH   3   4
ENDBRANCH   2   3
ENDBRANCH   1   2
BRANCH   1  11
ATOM     11  C   UNL     1       3.260  -7.900  -5.924  1.00  0.00    -0.031 C 
ATOM     12  C   UNL     1       4.282  -7.392  -5.207  1.00  0.00    -0.027 C 
BRANCH  12  13
ATOM     13  C   UNL     1       4.873  -6.021  -5.409  1.00  0.00     0.054 C 
BRANCH  13  14
ATOM     14  C   UNL     1       6.326  -6.111  -5.803  1.00  0.00    -0.027 C 
ATOM     15  C   UNL     1       7.353  -5.829  -4.979  1.00  0.00    -0.031 C 
BRANCH  15  16
ATOM     16  C   UNL     1       7.209  -5.402  -3.536  1.00  0.00     0.027 C 
BRANCH  16  17
ATOM     17  C   UNL     1       7.478  -3.898  -3.327  1.00  0.00     0.004 C 
BRANCH  17  18
ATOM     18  C   UNL     1       6.206  -3.028  -3.349  1.00  0.00     0.000 C 
BRANCH  18  19
ATOM     19  C   UNL     1       5.825  -2.465  -4.730  1.00  0.00    -0.003 C 
ATOM     20  C   UNL     1       7.031  -2.266  -5.651  1.00  0.00     0.004 C 
ENDBRANCH  18  19
ENDBRANCH  17  18
ENDBRANCH  16  17
ENDBRANCH  15  16
ENDBRANCH  13  14
ENDBRANCH  12  13
ENDBRANCH   1  11
TORSDOF 14
ENDMDL
MODEL 9
REMARK VINA RESULT:    -3.280      1.462      2.580
REMARK INTER + INTRA:          -8.664
REMARK INTER:                  -5.806
REMARK INTRA:                  -2.858
REMARK UNBOUND:                -2.699
REMARK SMILES CCCCCC=CCC=CCCCCCCCC(=O)[O-]
REMARK SMILES IDX 11 1 12 2 13 3 14 4 15 5 16 6 17 7 18 8 19 9 20 10 10 11
REMARK SMILES IDX 9 12 8 13 7 14 6 15 5 16 4 17 3 18 2 19 1 20
REMARK H PARENT
REMARK Flexibility Score: inf
ROOT
ATOM      1  C   UNL     1       4.860  -6.268  -5.110  1.00  0.00     0.027 C 
ENDROOT
BRANCH   1   2
ATOM      2  C   UNL     1       4.004  -7.481  -5.507  1.00  0.00     0.004 C 
BRANCH   2   3
ATOM      3  C   UNL     1       3.229  -7.315  -6.831  1.00  0.00     0.000 C 
BRANCH   3   4
ATOM      4  C   UNL     1       2.655  -5.907  -7.084  1.00  0.00     0.000 C 
BRANCH   4   5
ATOM      5  C   UNL     1       3.181  -5.207  -8.349  1.00  0.00     0.000 C 
BRANCH   5   6
ATOM      6  C   UNL     1       3.321  -3.685  -8.175  1.00  0.00     0.006 C 
BRANCH   6   7
ATOM      7  C   UNL     1       2.249  -3.108  -7.241  1.00  0.00     0.053 C 
BRANCH   7   8
ATOM      8  C   UNL     1       2.006  -1.653  -7.505  1.00  0.00     0.041 C 
ATOM      9  O   UNL     1       1.252  -0.988  -6.747  1.00  0.00    -0.550 OA
ATOM     10  O   UNL     1       2.640  -1.024  -8.571  1.00  0.00    -0.550 OA
ENDBRANCH   7   8
ENDBRANCH   6   7
ENDBRANCH   5   6
ENDBRANCH   4   5
ENDBRANCH   3   4
ENDBRANCH   2   3
ENDBRANCH   1   2
BRANCH   1  11
ATOM     11  C   UNL     1       6.336  -6.520  -5.314  1.00  0.00    -0.031 C 
ATOM     12  C   UNL     1       7.108  -5.897  -6.227  1.00  0.00    -0.027 C 
BRANCH  12  13
ATOM     13  C   UNL     1       6.611  -4.878  -7.220  1.00  0.00     0.054 C 
BRANCH  13  14
ATOM     14  C   UNL     1       7.290  -3.547  -7.015  1.00  0.00    -0.027 C 
ATOM     15  C   UNL     1       6.825  -2.577  -6.205  1.00  0.00    -0.031 C 
BRANCH  15  16
ATOM     16  C   UNL     1       5.571  -2.679  -5.367  1.00  0.00     0.027 C 
BRANCH  16  17
ATOM     17  C   UNL     1       5.868  -2.862  -3.865  1.00  0.00     0.004 C 
BRANCH  17  18
ATOM     18  C   UNL     1       7.221  -2.272  -3.420  1.00  0.00     0.000 C 
BRANCH  18  19
ATOM     19  C   UNL     1       8.160  -3.262  -2.707  1.00  0.00    -0.003 C 
ATOM     20  C   UNL     1       9.070  -4.027  -3.669  1.00  0.00     0.004 C 
ENDBRANCH  18  19
ENDBRANCH  17  18
ENDBRANCH  16  17
ENDBRANCH  15  16
ENDBRANCH  13  14
ENDBRANCH  12  13
ENDBRANCH   1  11
TORSDOF 14
ENDMDL
