MODEL 1
REMARK VINA RESULT:    -3.795      0.000      0.000
REMARK INTER + INTRA:          -4.361
REMARK INTER:                  -4.238
REMARK INTRA:                  -0.123
REMARK UNBOUND:                -0.123
REMARK SMILES COc1cc2ccc(=O)oc2cc1OC
REMARK SMILES IDX 3 1 13 2 12 3 11 4 5 5 4 6 6 7 7 8 8 9 9 10 10 11 2 12 1 13
REMARK SMILES IDX 14 14 15 15
REMARK H PARENT
REMARK Flexibility Score: inf
ROOT
ATOM      1  C   UNL     1     110.188  95.081  23.291  1.00  0.00     0.161 A 
ATOM      2  C   UNL     1     110.243  96.391  23.797  1.00  0.00     0.164 A 
ATOM      3  C   UNL     1     109.296  96.813  24.752  1.00  0.00     0.098 A 
ATOM      4  C   UNL     1     108.304  95.938  25.197  1.00  0.00     0.142 A 
ATOM      5  C   UNL     1     108.247  94.623  24.690  1.00  0.00     0.022 A 
ATOM      6  C   UNL     1     109.186  94.199  23.742  1.00  0.00     0.062 A 
ATOM      7  C   UNL     1     107.241  93.771  25.157  1.00  0.00     0.019 A 
ATOM      8  C   UNL     1     106.329  94.240  26.102  1.00  0.00     0.094 A 
ATOM      9  C   UNL     1     106.447  95.556  26.561  1.00  0.00     0.336 A 
ATOM     10  O   UNL     1     105.634  95.999  27.414  1.00  0.00    -0.246 OA
ATOM     11  O   UNL     1     107.413  96.346  26.100  1.00  0.00    -0.423 OA
ENDROOT
BRANCH   1  12
ATOM     12  O   UNL     1     111.147  94.695  22.342  1.00  0.00    -0.493 OA
ATOM     13  C   UNL     1     110.880  94.500  20.957  1.00  0.00     0.278 C 
ENDBRANCH   1  12
BRANCH   2  14
ATOM     14  O   UNL     1     111.254  97.244  23.327  1.00  0.00    -0.493 OA
ATOM     15  C   UNL     1     111.935  98.207  24.126  1.00  0.00     0.278 C 
ENDBRANCH   2  14
TORSDOF 2
ENDMDL
MODEL 2
REMARK VINA RESULT:    -3.735     13.464     15.358
REMARK INTER + INTRA:          -4.295
REMARK INTER:                  -4.174
REMARK INTRA:                  -0.121
REMARK UNBOUND:                -0.123
REMARK SMILES COc1cc2ccc(=O)oc2cc1OC
REMARK SMILES IDX 3 1 13 2 12 3 11 4 5 5 4 6 6 7 7 8 8 9 9 10 10 11 2 12 1 13
REMARK SMILES IDX 14 14 15 15
REMARK H PARENT
REMARK Flexibility Score: inf
ROOT
ATOM      1  C   UNL     1     101.605  81.504  24.321  1.00  0.00     0.161 A 
ATOM      2  C   UNL     1     102.872  81.183  23.805  1.00  0.00     0.164 A 
ATOM      3  C   UNL     1     104.032  81.557  24.515  1.00  0.00     0.098 A 
ATOM      4  C   UNL     1     103.928  82.245  25.725  1.00  0.00     0.142 A 
ATOM      5  C   UNL     1     102.657  82.568  26.243  1.00  0.00     0.022 A 
ATOM      6  C   UNL     1     101.502  82.199  25.543  1.00  0.00     0.062 A 
ATOM      7  C   UNL     1     102.587  83.257  27.459  1.00  0.00     0.019 A 
ATOM      8  C   UNL     1     103.766  83.604  28.118  1.00  0.00     0.094 A 
ATOM      9  C   UNL     1     104.991  83.249  27.545  1.00  0.00     0.336 A 
ATOM     10  O   UNL     1     106.067  83.553  28.125  1.00  0.00    -0.246 OA
ATOM     11  O   UNL     1     105.029  82.594  26.388  1.00  0.00    -0.423 OA
ENDROOT
BRANCH   1  12
ATOM     12  O   UNL     1     100.473  81.116  23.588  1.00  0.00    -0.493 OA
ATOM     13  C   UNL     1      99.635  80.013  23.918  1.00  0.00     0.278 C 
ENDBRANCH   1  12
BRANCH   2  14
ATOM     14  O   UNL     1     102.939  80.491  22.586  1.00  0.00    -0.493 OA
ATOM     15  C   UNL     1     104.016  80.589  21.659  1.00  0.00     0.278 C 
ENDBRANCH   2  14
TORSDOF 2
ENDMDL
MODEL 3
REMARK VINA RESULT:    -3.588     13.120     14.229
REMARK INTER + INTRA:          -4.131
REMARK INTER:                  -3.981
REMARK INTRA:                  -0.150
REMARK UNBOUND:                -0.123
REMARK SMILES COc1cc2ccc(=O)oc2cc1OC
REMARK SMILES IDX 3 1 13 2 12 3 11 4 5 5 4 6 6 7 7 8 8 9 9 10 10 11 2 12 1 13
REMARK SMILES IDX 14 14 15 15
REMARK H PARENT
REMARK Flexibility Score: inf
ROOT
ATOM      1  C   UNL     1     104.120  82.752  25.204  1.00  0.00     0.161 A 
ATOM      2  C   UNL     1     102.716  82.724  25.213  1.00  0.00     0.164 A 
ATOM      3  C   UNL     1     102.000  83.148  24.075  1.00  0.00     0.098 A 
ATOM      4  C   UNL     1     102.679  83.597  22.940  1.00  0.00     0.142 A 
ATOM      5  C   UNL     1     104.088  83.627  22.931  1.00  0.00     0.022 A 
ATOM      6  C   UNL     1     104.804  83.206  24.059  1.00  0.00     0.062 A 
ATOM      7  C   UNL     1     104.739  84.082  21.779  1.00  0.00     0.019 A 
ATOM      8  C   UNL     1     103.982  84.490  20.681  1.00  0.00     0.094 A 
ATOM      9  C   UNL     1     102.587  84.432  20.762  1.00  0.00     0.336 A 
ATOM     10  O   UNL     1     101.885  84.797  19.782  1.00  0.00    -0.246 OA
ATOM     11  O   UNL     1     101.993  83.996  21.870  1.00  0.00    -0.423 OA
ENDROOT
BRANCH   1  12
ATOM     12  O   UNL     1     104.800  82.322  26.355  1.00  0.00    -0.493 OA
ATOM     13  C   UNL     1     105.242  83.181  27.401  1.00  0.00     0.278 C 
ENDBRANCH   1  12
BRANCH   2  14
ATOM     14  O   UNL     1     102.066  82.266  26.370  1.00  0.00    -0.493 OA
ATOM     15  C   UNL     1     101.472  83.110  27.351  1.00  0.00     0.278 C 
ENDBRANCH   2  14
TORSDOF 2
ENDMDL
MODEL 4
REMARK VINA RESULT:    -3.582     12.976     14.468
REMARK INTER + INTRA:          -4.123
REMARK INTER:                  -3.962
REMARK INTRA:                  -0.161
REMARK UNBOUND:                -0.123
REMARK SMILES COc1cc2ccc(=O)oc2cc1OC
REMARK SMILES IDX 3 1 13 2 12 3 11 4 5 5 4 6 6 7 7 8 8 9 9 10 10 11 2 12 1 13
REMARK SMILES IDX 14 14 15 15
REMARK H PARENT
REMARK Flexibility Score: inf
ROOT
ATOM      1  C   UNL     1     105.270  83.150  17.533  1.00  0.00     0.161 A 
ATOM      2  C   UNL     1     105.959  82.073  18.115  1.00  0.00     0.164 A 
ATOM      3  C   UNL     1     106.009  81.951  19.518  1.00  0.00     0.098 A 
ATOM      4  C   UNL     1     105.380  82.895  20.332  1.00  0.00     0.142 A 
ATOM      5  C   UNL     1     104.689  83.977  19.749  1.00  0.00     0.022 A 
ATOM      6  C   UNL     1     104.635  84.102  18.355  1.00  0.00     0.062 A 
ATOM      7  C   UNL     1     104.068  84.905  20.592  1.00  0.00     0.019 A 
ATOM      8  C   UNL     1     104.150  84.736  21.974  1.00  0.00     0.094 A 
ATOM      9  C   UNL     1     104.852  83.639  22.482  1.00  0.00     0.336 A 
ATOM     10  O   UNL     1     104.938  83.469  23.726  1.00  0.00    -0.246 OA
ATOM     11  O   UNL     1     105.434  82.771  21.657  1.00  0.00    -0.423 OA
ENDROOT
BRANCH   1  12
ATOM     12  O   UNL     1     105.239  83.240  16.132  1.00  0.00    -0.493 OA
ATOM     13  C   UNL     1     104.159  82.798  15.317  1.00  0.00     0.278 C 
ENDBRANCH   1  12
BRANCH   2  14
ATOM     14  O   UNL     1     106.580  81.143  17.266  1.00  0.00    -0.493 OA
ATOM     15  C   UNL     1     106.032  79.875  16.918  1.00  0.00     0.278 C 
ENDBRANCH   2  14
TORSDOF 2
ENDMDL
MODEL 5
REMARK VINA RESULT:    -3.570      6.944     10.032
REMARK INTER + INTRA:          -4.111
REMARK INTER:                  -3.973
REMARK INTRA:                  -0.138
REMARK UNBOUND:                -0.123
REMARK SMILES COc1cc2ccc(=O)oc2cc1OC
REMARK SMILES IDX 3 1 13 2 12 3 11 4 5 5 4 6 6 7 7 8 8 9 9 10 10 11 2 12 1 13
REMARK SMILES IDX 14 14 15 15
REMARK H PARENT
REMARK Flexibility Score: inf
ROOT
ATOM      1  C   UNL     1     113.979  89.277  17.004  1.00  0.00     0.161 A 
ATOM      2  C   UNL     1     112.697  89.585  16.517  1.00  0.00     0.164 A 
ATOM      3  C   UNL     1     112.014  90.715  17.011  1.00  0.00     0.098 A 
ATOM      4  C   UNL     1     112.603  91.528  17.982  1.00  0.00     0.142 A 
ATOM      5  C   UNL     1     113.888  91.219  18.472  1.00  0.00     0.022 A 
ATOM      6  C   UNL     1     114.572  90.098  17.983  1.00  0.00     0.062 A 
ATOM      7  C   UNL     1     114.451  92.054  19.443  1.00  0.00     0.019 A 
ATOM      8  C   UNL     1     113.730  93.158  19.898  1.00  0.00     0.094 A 
ATOM      9  C   UNL     1     112.460  93.403  19.366  1.00  0.00     0.336 A 
ATOM     10  O   UNL     1     111.793  94.394  19.763  1.00  0.00    -0.246 OA
ATOM     11  O   UNL     1     111.949  92.593  18.443  1.00  0.00    -0.423 OA
ENDROOT
BRANCH   1  12
ATOM     12  O   UNL     1     114.630  88.145  16.489  1.00  0.00    -0.493 OA
ATOM     13  C   UNL     1     115.736  88.187  15.593  1.00  0.00     0.278 C 
ENDBRANCH   1  12
BRANCH   2  14
ATOM     14  O   UNL     1     112.136  88.746  15.541  1.00  0.00    -0.493 OA
ATOM     15  C   UNL     1     111.135  87.767  15.797  1.00  0.00     0.278 C 
ENDBRANCH   2  14
TORSDOF 2
ENDMDL
MODEL 6
REMARK VINA RESULT:    -3.563     13.147     14.594
REMARK INTER + INTRA:          -4.103
REMARK INTER:                  -3.971
REMARK INTRA:                  -0.132
REMARK UNBOUND:                -0.123
REMARK SMILES COc1cc2ccc(=O)oc2cc1OC
REMARK SMILES IDX 3 1 13 2 12 3 11 4 5 5 4 6 6 7 7 8 8 9 9 10 10 11 2 12 1 13
REMARK SMILES IDX 14 14 15 15
REMARK H PARENT
REMARK Flexibility Score: inf
ROOT
ATOM      1  C   UNL     1     106.507  81.022  19.315  1.00  0.00     0.161 A 
ATOM      2  C   UNL     1     105.877  81.827  18.351  1.00  0.00     0.164 A 
ATOM      3  C   UNL     1     105.118  82.943  18.759  1.00  0.00     0.098 A 
ATOM      4  C   UNL     1     104.987  83.250  20.115  1.00  0.00     0.142 A 
ATOM      5  C   UNL     1     105.618  82.442  21.083  1.00  0.00     0.022 A 
ATOM      6  C   UNL     1     106.374  81.333  20.682  1.00  0.00     0.062 A 
ATOM      7  C   UNL     1     105.468  82.777  22.433  1.00  0.00     0.019 A 
ATOM      8  C   UNL     1     104.705  83.891  22.781  1.00  0.00     0.094 A 
ATOM      9  C   UNL     1     104.109  84.647  21.766  1.00  0.00     0.336 A 
ATOM     10  O   UNL     1     103.416  85.657  22.060  1.00  0.00    -0.246 OA
ATOM     11  O   UNL     1     104.267  84.306  20.490  1.00  0.00    -0.423 OA
ENDROOT
BRANCH   1  12
ATOM     12  O   UNL     1     107.255  79.920  18.872  1.00  0.00    -0.493 OA
ATOM     13  C   UNL     1     108.677  79.883  18.803  1.00  0.00     0.278 C 
ENDBRANCH   1  12
BRANCH   2  14
ATOM     14  O   UNL     1     106.030  81.489  16.997  1.00  0.00    -0.493 OA
ATOM     15  C   UNL     1     104.953  81.227  16.103  1.00  0.00     0.278 C 
ENDBRANCH   2  14
TORSDOF 2
ENDMDL
MODEL 7
REMARK VINA RESULT:    -3.528     12.347     13.761
REMARK INTER + INTRA:          -4.064
REMARK INTER:                  -3.963
REMARK INTRA:                  -0.101
REMARK UNBOUND:                -0.123
REMARK SMILES COc1cc2ccc(=O)oc2cc1OC
REMARK SMILES IDX 3 1 13 2 12 3 11 4 5 5 4 6 6 7 7 8 8 9 9 10 10 11 2 12 1 13
REMARK SMILES IDX 14 14 15 15
REMARK H PARENT
REMARK Flexibility Score: inf
ROOT
ATOM      1  C   UNL     1     105.233  82.533  20.880  1.00  0.00     0.161 A 
ATOM      2  C   UNL     1     104.761  83.788  21.301  1.00  0.00     0.164 A 
ATOM      3  C   UNL     1     104.460  84.002  22.661  1.00  0.00     0.098 A 
ATOM      4  C   UNL     1     104.625  82.974  23.592  1.00  0.00     0.142 A 
ATOM      5  C   UNL     1     105.098  81.714  23.170  1.00  0.00     0.022 A 
ATOM      6  C   UNL     1     105.400  81.496  21.820  1.00  0.00     0.062 A 
ATOM      7  C   UNL     1     105.254  80.705  24.127  1.00  0.00     0.019 A 
ATOM      8  C   UNL     1     104.939  80.970  25.459  1.00  0.00     0.094 A 
ATOM      9  C   UNL     1     104.476  82.244  25.804  1.00  0.00     0.336 A 
ATOM     10  O   UNL     1     104.187  82.504  27.002  1.00  0.00    -0.246 OA
ATOM     11  O   UNL     1     104.337  83.186  24.875  1.00  0.00    -0.423 OA
ENDROOT
BRANCH   1  12
ATOM     12  O   UNL     1     105.524  82.356  19.518  1.00  0.00    -0.493 OA
ATOM     13  C   UNL     1     106.286  81.276  18.988  1.00  0.00     0.278 C 
ENDBRANCH   1  12
BRANCH   2  14
ATOM     14  O   UNL     1     104.607  84.799  20.339  1.00  0.00    -0.493 OA
ATOM     15  C   UNL     1     104.139  86.114  20.617  1.00  0.00     0.278 C 
ENDBRANCH   2  14
TORSDOF 2
ENDMDL
MODEL 8
REMARK VINA RESULT:    -3.507     12.380     14.433
REMARK INTER + INTRA:          -4.040
REMARK INTER:                  -3.922
REMARK INTRA:                  -0.119
REMARK UNBOUND:                -0.123
REMARK SMILES COc1cc2ccc(=O)oc2cc1OC
REMARK SMILES IDX 3 1 13 2 12 3 11 4 5 5 4 6 6 7 7 8 8 9 9 10 10 11 2 12 1 13
REMARK SMILES IDX 14 14 15 15
REMARK H PARENT
REMARK Flexibility Score: inf
ROOT
ATOM      1  C   UNL     1     104.213  84.515  21.441  1.00  0.00     0.161 A 
ATOM      2  C   UNL     1     104.929  83.556  22.177  1.00  0.00     0.164 A 
ATOM      3  C   UNL     1     105.655  82.554  21.503  1.00  0.00     0.098 A 
ATOM      4  C   UNL     1     105.665  82.508  20.107  1.00  0.00     0.142 A 
ATOM      5  C   UNL     1     104.947  83.469  19.367  1.00  0.00     0.022 A 
ATOM      6  C   UNL     1     104.225  84.468  20.032  1.00  0.00     0.062 A 
ATOM      7  C   UNL     1     104.978  83.396  17.970  1.00  0.00     0.019 A 
ATOM      8  C   UNL     1     105.712  82.383  17.354  1.00  0.00     0.094 A 
ATOM      9  C   UNL     1     106.401  81.464  18.152  1.00  0.00     0.336 A 
ATOM     10  O   UNL     1     107.069  80.542  17.615  1.00  0.00    -0.246 OA
ATOM     11  O   UNL     1     106.354  81.557  19.479  1.00  0.00    -0.423 OA
ENDROOT
BRANCH   1  12
ATOM     12  O   UNL     1     103.502  85.499  22.146  1.00  0.00    -0.493 OA
ATOM     13  C   UNL     1     103.132  86.766  21.613  1.00  0.00     0.278 C 
ENDBRANCH   1  12
BRANCH   2  14
ATOM     14  O   UNL     1     104.896  83.633  23.579  1.00  0.00    -0.493 OA
ATOM     15  C   UNL     1     104.255  82.683  24.425  1.00  0.00     0.278 C 
ENDBRANCH   2  14
TORSDOF 2
ENDMDL
MODEL 9
REMARK VINA RESULT:    -3.504     13.419     15.314
REMARK INTER + INTRA:          -4.037
REMARK INTER:                  -3.918
REMARK INTRA:                  -0.119
REMARK UNBOUND:                -0.123
REMARK SMILES COc1cc2ccc(=O)oc2cc1OC
REMARK SMILES IDX 3 1 13 2 12 3 11 4 5 5 4 6 6 7 7 8 8 9 9 10 10 11 2 12 1 13
REMARK SMILES IDX 14 14 15 15
REMARK H PARENT
REMARK Flexibility Score: inf
ROOT
ATOM      1  C   UNL     1     103.509  82.872  26.998  1.00  0.00     0.161 A 
ATOM      2  C   UNL     1     102.113  83.029  26.996  1.00  0.00     0.164 A 
ATOM      3  C   UNL     1     101.360  82.583  25.891  1.00  0.00     0.098 A 
ATOM      4  C   UNL     1     101.994  81.989  24.798  1.00  0.00     0.142 A 
ATOM      5  C   UNL     1     103.395  81.832  24.798  1.00  0.00     0.022 A 
ATOM      6  C   UNL     1     104.148  82.272  25.895  1.00  0.00     0.062 A 
ATOM      7  C   UNL     1     104.000  81.231  23.689  1.00  0.00     0.019 A 
ATOM      8  C   UNL     1     103.208  80.810  22.622  1.00  0.00     0.094 A 
ATOM      9  C   UNL     1     101.824  80.997  22.691  1.00  0.00     0.336 A 
ATOM     10  O   UNL     1     101.091  80.624  21.738  1.00  0.00    -0.246 OA
ATOM     11  O   UNL     1     101.274  81.571  23.758  1.00  0.00    -0.423 OA
ENDROOT
BRANCH   1  12
ATOM     12  O   UNL     1     104.227  83.327  28.116  1.00  0.00    -0.493 OA
ATOM     13  C   UNL     1     105.626  83.592  28.125  1.00  0.00     0.278 C 
ENDBRANCH   1  12
BRANCH   2  14
ATOM     14  O   UNL     1     101.509  83.631  28.111  1.00  0.00    -0.493 OA
ATOM     15  C   UNL     1     100.968  84.948  28.125  1.00  0.00     0.278 C 
ENDBRANCH   2  14
TORSDOF 2
ENDMDL
