MODEL 1
REMARK VINA RESULT:    -4.217      0.000      0.000
REMARK INTER + INTRA:          -4.560
REMARK INTER:                  -4.464
REMARK INTRA:                  -0.096
REMARK UNBOUND:                -0.096
REMARK SMILES C=C(C)[C@H]1CC=C(C)C(=O)C1
REMARK SMILES IDX 8 1 7 2 6 3 5 4 4 5 11 6 9 7 10 8 2 9 1 10 3 11
REMARK H PARENT
REMARK Flexibility Score: inf
ROOT
ATOM      1  C   UNL     1     156.111 161.479 197.886  1.00  0.00     0.048 C 
ATOM      2  C   UNL     1     156.626 162.847 198.242  1.00  0.00    -0.012 C 
ATOM      3  C   UNL     1     157.452 162.998 199.292  1.00  0.00    -0.019 C 
ATOM      4  C   UNL     1     157.983 164.346 199.703  1.00  0.00     0.036 C 
ATOM      5  C   UNL     1     158.175 165.264 198.481  1.00  0.00     0.025 C 
ATOM      6  C   UNL     1     156.862 165.372 197.682  1.00  0.00     0.089 C 
ATOM      7  C   UNL     1     156.323 164.004 197.363  1.00  0.00     0.158 C 
ATOM      8  O   UNL     1     155.579 163.857 196.358  1.00  0.00    -0.295 OA
ENDROOT
BRANCH   5   9
ATOM      9  C   UNL     1     158.703 166.634 198.883  1.00  0.00    -0.077 C 
ATOM     10  C   UNL     1     159.019 166.914 200.159  1.00  0.00     0.008 C 
ATOM     11  C   UNL     1     158.880 167.711 197.844  1.00  0.00     0.039 C 
ENDBRANCH   5   9
TORSDOF 1
ENDMDL
MODEL 2
REMARK VINA RESULT:    -4.165      0.298      1.084
REMARK INTER + INTRA:          -4.505
REMARK INTER:                  -4.409
REMARK INTRA:                  -0.096
REMARK UNBOUND:                -0.096
REMARK SMILES C=C(C)[C@H]1CC=C(C)C(=O)C1
REMARK SMILES IDX 8 1 7 2 6 3 5 4 4 5 11 6 9 7 10 8 2 9 1 10 3 11
REMARK H PARENT
REMARK Flexibility Score: inf
ROOT
ATOM      1  C   UNL     1     156.502 161.478 198.145  1.00  0.00     0.048 C 
ATOM      2  C   UNL     1     156.921 162.893 198.432  1.00  0.00    -0.012 C 
ATOM      3  C   UNL     1     157.784 163.145 199.432  1.00  0.00    -0.019 C 
ATOM      4  C   UNL     1     158.223 164.544 199.774  1.00  0.00     0.036 C 
ATOM      5  C   UNL     1     158.277 165.433 198.517  1.00  0.00     0.025 C 
ATOM      6  C   UNL     1     156.921 165.408 197.787  1.00  0.00     0.089 C 
ATOM      7  C   UNL     1     156.480 163.992 197.537  1.00  0.00     0.158 C 
ATOM      8  O   UNL     1     155.700 163.753 196.578  1.00  0.00    -0.295 OA
ENDROOT
BRANCH   5   9
ATOM      9  C   UNL     1     158.711 166.854 198.850  1.00  0.00    -0.077 C 
ATOM     10  C   UNL     1     158.884 167.775 197.886  1.00  0.00     0.008 C 
ATOM     11  C   UNL     1     158.955 167.254 200.282  1.00  0.00     0.039 C 
ENDBRANCH   5   9
TORSDOF 1
ENDMDL
MODEL 3
REMARK VINA RESULT:    -4.158      6.395      8.583
REMARK INTER + INTRA:          -4.498
REMARK INTER:                  -4.407
REMARK INTRA:                  -0.090
REMARK UNBOUND:                -0.096
REMARK SMILES C=C(C)[C@H]1CC=C(C)C(=O)C1
REMARK SMILES IDX 8 1 7 2 6 3 5 4 4 5 11 6 9 7 10 8 2 9 1 10 3 11
REMARK H PARENT
REMARK Flexibility Score: inf
ROOT
ATOM      1  C   UNL     1     148.070 160.464 200.853  1.00  0.00     0.048 C 
ATOM      2  C   UNL     1     149.533 160.117 200.815  1.00  0.00    -0.012 C 
ATOM      3  C   UNL     1     150.084 159.670 199.673  1.00  0.00    -0.019 C 
ATOM      4  C   UNL     1     151.539 159.290 199.583  1.00  0.00     0.036 C 
ATOM      5  C   UNL     1     152.398 160.158 200.522  1.00  0.00     0.025 C 
ATOM      6  C   UNL     1     151.861 160.079 201.964  1.00  0.00     0.089 C 
ATOM      7  C   UNL     1     150.389 160.384 201.998  1.00  0.00     0.158 C 
ATOM      8  O   UNL     1     149.880 160.837 203.057  1.00  0.00    -0.295 OA
ENDROOT
BRANCH   5   9
ATOM      9  C   UNL     1     153.871 159.779 200.449  1.00  0.00    -0.077 C 
ATOM     10  C   UNL     1     154.634 160.140 199.403  1.00  0.00     0.008 C 
ATOM     11  C   UNL     1     154.503 158.983 201.562  1.00  0.00     0.039 C 
ENDBRANCH   5   9
TORSDOF 1
ENDMDL
MODEL 4
REMARK VINA RESULT:    -4.158      1.964      4.637
REMARK INTER + INTRA:          -4.497
REMARK INTER:                  -4.400
REMARK INTRA:                  -0.098
REMARK UNBOUND:                -0.096
REMARK SMILES C=C(C)[C@H]1CC=C(C)C(=O)C1
REMARK SMILES IDX 8 1 7 2 6 3 5 4 4 5 11 6 9 7 10 8 2 9 1 10 3 11
REMARK H PARENT
REMARK Flexibility Score: inf
ROOT
ATOM      1  C   UNL     1     158.877 167.901 197.878  1.00  0.00     0.048 C 
ATOM      2  C   UNL     1     158.224 166.571 198.133  1.00  0.00    -0.012 C 
ATOM      3  C   UNL     1     157.389 166.049 197.218  1.00  0.00    -0.019 C 
ATOM      4  C   UNL     1     156.695 164.730 197.430  1.00  0.00     0.036 C 
ATOM      5  C   UNL     1     157.570 163.769 198.258  1.00  0.00     0.025 C 
ATOM      6  C   UNL     1     157.983 164.432 199.586  1.00  0.00     0.089 C 
ATOM      7  C   UNL     1     158.597 165.782 199.334  1.00  0.00     0.158 C 
ATOM      8  O   UNL     1     159.407 166.253 200.175  1.00  0.00    -0.295 OA
ENDROOT
BRANCH   5   9
ATOM      9  C   UNL     1     156.876 162.433 198.488  1.00  0.00    -0.077 C 
ATOM     10  C   UNL     1     157.085 161.721 199.609  1.00  0.00     0.008 C 
ATOM     11  C   UNL     1     155.932 161.882 197.450  1.00  0.00     0.039 C 
ENDBRANCH   5   9
TORSDOF 1
ENDMDL
MODEL 5
REMARK VINA RESULT:    -4.111      1.381      2.032
REMARK INTER + INTRA:          -4.448
REMARK INTER:                  -4.350
REMARK INTRA:                  -0.097
REMARK UNBOUND:                -0.096
REMARK SMILES C=C(C)[C@H]1CC=C(C)C(=O)C1
REMARK SMILES IDX 8 1 7 2 6 3 5 4 4 5 11 6 9 7 10 8 2 9 1 10 3 11
REMARK H PARENT
REMARK Flexibility Score: inf
ROOT
ATOM      1  C   UNL     1     155.770 161.747 197.522  1.00  0.00     0.048 C 
ATOM      2  C   UNL     1     156.628 162.947 197.815  1.00  0.00    -0.012 C 
ATOM      3  C   UNL     1     156.624 163.994 196.972  1.00  0.00    -0.019 C 
ATOM      4  C   UNL     1     157.476 165.212 197.206  1.00  0.00     0.036 C 
ATOM      5  C   UNL     1     157.654 165.484 198.713  1.00  0.00     0.025 C 
ATOM      6  C   UNL     1     158.213 164.234 199.419  1.00  0.00     0.089 C 
ATOM      7  C   UNL     1     157.380 163.024 199.092  1.00  0.00     0.158 C 
ATOM      8  O   UNL     1     157.357 162.059 199.900  1.00  0.00    -0.295 OA
ENDROOT
BRANCH   5   9
ATOM      9  C   UNL     1     158.523 166.708 198.966  1.00  0.00    -0.077 C 
ATOM     10  C   UNL     1     158.981 166.997 200.196  1.00  0.00     0.008 C 
ATOM     11  C   UNL     1     158.887 167.625 197.827  1.00  0.00     0.039 C 
ENDBRANCH   5   9
TORSDOF 1
ENDMDL
MODEL 6
REMARK VINA RESULT:    -4.076      6.176      8.240
REMARK INTER + INTRA:          -4.411
REMARK INTER:                  -4.315
REMARK INTRA:                  -0.096
REMARK UNBOUND:                -0.096
REMARK SMILES C=C(C)[C@H]1CC=C(C)C(=O)C1
REMARK SMILES IDX 8 1 7 2 6 3 5 4 4 5 11 6 9 7 10 8 2 9 1 10 3 11
REMARK H PARENT
REMARK Flexibility Score: inf
ROOT
ATOM      1  C   UNL     1     148.056 160.383 200.913  1.00  0.00     0.048 C 
ATOM      2  C   UNL     1     149.554 160.381 200.784  1.00  0.00    -0.012 C 
ATOM      3  C   UNL     1     150.320 160.453 201.887  1.00  0.00    -0.019 C 
ATOM      4  C   UNL     1     151.824 160.472 201.815  1.00  0.00     0.036 C 
ATOM      5  C   UNL     1     152.334 159.644 200.621  1.00  0.00     0.025 C 
ATOM      6  C   UNL     1     151.680 160.132 199.314  1.00  0.00     0.089 C 
ATOM      7  C   UNL     1     150.183 160.175 199.455  1.00  0.00     0.158 C 
ATOM      8  O   UNL     1     149.466 160.071 198.425  1.00  0.00    -0.295 OA
ENDROOT
BRANCH   5   9
ATOM      9  C   UNL     1     153.854 159.663 200.530  1.00  0.00    -0.077 C 
ATOM     10  C   UNL     1     154.485 160.258 199.503  1.00  0.00     0.008 C 
ATOM     11  C   UNL     1     154.683 159.006 201.603  1.00  0.00     0.039 C 
ENDBRANCH   5   9
TORSDOF 1
ENDMDL
MODEL 7
REMARK VINA RESULT:    -4.004      7.655      9.204
REMARK INTER + INTRA:          -4.335
REMARK INTER:                  -4.241
REMARK INTRA:                  -0.093
REMARK UNBOUND:                -0.096
REMARK SMILES C=C(C)[C@H]1CC=C(C)C(=O)C1
REMARK SMILES IDX 8 1 7 2 6 3 5 4 4 5 11 6 9 7 10 8 2 9 1 10 3 11
REMARK H PARENT
REMARK Flexibility Score: inf
ROOT
ATOM      1  C   UNL     1     154.513 158.964 201.633  1.00  0.00     0.048 C 
ATOM      2  C   UNL     1     153.078 159.139 201.217  1.00  0.00    -0.012 C 
ATOM      3  C   UNL     1     152.416 160.258 201.554  1.00  0.00    -0.019 C 
ATOM      4  C   UNL     1     150.974 160.478 201.180  1.00  0.00     0.036 C 
ATOM      5  C   UNL     1     150.642 159.807 199.833  1.00  0.00     0.025 C 
ATOM      6  C   UNL     1     151.014 158.313 199.874  1.00  0.00     0.089 C 
ATOM      7  C   UNL     1     152.436 158.134 200.331  1.00  0.00     0.158 C 
ATOM      8  O   UNL     1     153.067 157.101 199.984  1.00  0.00    -0.295 OA
ENDROOT
BRANCH   5   9
ATOM      9  C   UNL     1     149.184 160.013 199.446  1.00  0.00    -0.077 C 
ATOM     10  C   UNL     1     148.776 159.893 198.170  1.00  0.00     0.008 C 
ATOM     11  C   UNL     1     148.163 160.358 200.499  1.00  0.00     0.039 C 
ENDBRANCH   5   9
TORSDOF 1
ENDMDL
MODEL 8
REMARK VINA RESULT:    -3.971      8.198      9.509
REMARK INTER + INTRA:          -4.299
REMARK INTER:                  -4.210
REMARK INTRA:                  -0.089
REMARK UNBOUND:                -0.096
REMARK SMILES C=C(C)[C@H]1CC=C(C)C(=O)C1
REMARK SMILES IDX 8 1 7 2 6 3 5 4 4 5 11 6 9 7 10 8 2 9 1 10 3 11
REMARK H PARENT
REMARK Flexibility Score: inf
ROOT
ATOM      1  C   UNL     1     149.896 160.664 203.224  1.00  0.00     0.048 C 
ATOM      2  C   UNL     1     149.842 160.447 201.737  1.00  0.00    -0.012 C 
ATOM      3  C   UNL     1     148.653 160.368 201.115  1.00  0.00    -0.019 C 
ATOM      4  C   UNL     1     148.540 160.134 199.632  1.00  0.00     0.036 C 
ATOM      5  C   UNL     1     149.722 160.773 198.878  1.00  0.00     0.025 C 
ATOM      6  C   UNL     1     151.059 160.265 199.450  1.00  0.00     0.089 C 
ATOM      7  C   UNL     1     151.097 160.443 200.943  1.00  0.00     0.158 C 
ATOM      8  O   UNL     1     152.211 160.552 201.520  1.00  0.00    -0.295 OA
ENDROOT
BRANCH   5   9
ATOM      9  C   UNL     1     149.626 160.535 197.377  1.00  0.00    -0.077 C 
ATOM     10  C   UNL     1     148.976 161.395 196.573  1.00  0.00     0.008 C 
ATOM     11  C   UNL     1     150.267 159.317 196.762  1.00  0.00     0.039 C 
ENDBRANCH   5   9
TORSDOF 1
ENDMDL
MODEL 9
REMARK VINA RESULT:    -3.879      1.767      4.233
REMARK INTER + INTRA:          -4.202
REMARK INTER:                  -4.106
REMARK INTRA:                  -0.096
REMARK UNBOUND:                -0.096
REMARK SMILES C=C(C)[C@H]1CC=C(C)C(=O)C1
REMARK SMILES IDX 8 1 7 2 6 3 5 4 4 5 11 6 9 7 10 8 2 9 1 10 3 11
REMARK H PARENT
REMARK Flexibility Score: inf
ROOT
ATOM      1  C   UNL     1     159.250 166.852 200.383  1.00  0.00     0.048 C 
ATOM      2  C   UNL     1     158.570 165.927 199.411  1.00  0.00    -0.012 C 
ATOM      3  C   UNL     1     158.177 164.706 199.813  1.00  0.00    -0.019 C 
ATOM      4  C   UNL     1     157.508 163.733 198.878  1.00  0.00     0.036 C 
ATOM      5  C   UNL     1     156.654 164.470 197.829  1.00  0.00     0.025 C 
ATOM      6  C   UNL     1     157.508 165.509 197.078  1.00  0.00     0.089 C 
ATOM      7  C   UNL     1     158.223 166.408 198.050  1.00  0.00     0.158 C 
ATOM      8  O   UNL     1     158.558 167.565 197.683  1.00  0.00    -0.295 OA
ENDROOT
BRANCH   5   9
ATOM      9  C   UNL     1     155.978 163.499 196.870  1.00  0.00    -0.077 C 
ATOM     10  C   UNL     1     156.070 162.169 197.043  1.00  0.00     0.008 C 
ATOM     11  C   UNL     1     155.187 164.021 195.699  1.00  0.00     0.039 C 
ENDBRANCH   5   9
TORSDOF 1
ENDMDL
