MODEL 1
REMARK VINA RESULT:    -3.065      0.000      0.000
REMARK INTER + INTRA:          -3.889
REMARK INTER:                  -3.781
REMARK INTRA:                  -0.108
REMARK UNBOUND:                -0.108
REMARK SMILES CCCCCC(=O)[O-]
REMARK SMILES IDX 4 1 5 2 6 3 7 4 8 5 3 6 2 7 1 8
REMARK H PARENT
REMARK Flexibility Score: inf
ROOT
ATOM      1  C   UNL     1       6.541  40.480  14.985  1.00  0.00     0.006 C 
ENDROOT
BRANCH   1   2
ATOM      2  C   UNL     1       6.010  39.507  16.047  1.00  0.00     0.053 C 
BRANCH   2   3
ATOM      3  C   UNL     1       4.603  39.081  15.756  1.00  0.00     0.041 C 
ATOM      4  O   UNL     1       4.265  37.876  15.896  1.00  0.00    -0.550 OA
ATOM      5  O   UNL     1       3.658  40.021  15.363  1.00  0.00    -0.550 OA
ENDBRANCH   2   3
ENDBRANCH   1   2
BRANCH   1   6
ATOM      6  C   UNL     1       8.076  40.513  14.942  1.00  0.00     0.000 C 
BRANCH   6   7
ATOM      7  C   UNL     1       8.670  39.247  15.572  1.00  0.00    -0.003 C 
ATOM      8  C   UNL     1       9.950  38.825  14.858  1.00  0.00     0.004 C 
ENDBRANCH   6   7
ENDBRANCH   1   6
TORSDOF 4
ENDMDL
MODEL 2
REMARK VINA RESULT:    -2.796      1.058      1.639
REMARK INTER + INTRA:          -3.558
REMARK INTER:                  -3.471
REMARK INTRA:                  -0.087
REMARK UNBOUND:                -0.108
REMARK SMILES CCCCCC(=O)[O-]
REMARK SMILES IDX 4 1 5 2 6 3 7 4 8 5 3 6 2 7 1 8
REMARK H PARENT
REMARK Flexibility Score: inf
ROOT
ATOM      1  C   UNL     1       6.306  38.795  15.312  1.00  0.00     0.006 C 
ENDROOT
BRANCH   1   2
ATOM      2  C   UNL     1       5.148  37.890  15.757  1.00  0.00     0.053 C 
BRANCH   2   3
ATOM      3  C   UNL     1       3.846  38.631  15.790  1.00  0.00     0.041 C 
ATOM      4  O   UNL     1       2.787  38.034  16.120  1.00  0.00    -0.550 OA
ATOM      5  O   UNL     1       3.807  39.987  15.489  1.00  0.00    -0.550 OA
ENDBRANCH   2   3
ENDBRANCH   1   2
BRANCH   1   6
ATOM      6  C   UNL     1       7.673  38.238  15.734  1.00  0.00     0.000 C 
BRANCH   6   7
ATOM      7  C   UNL     1       8.802  39.196  15.334  1.00  0.00    -0.003 C 
ATOM      8  C   UNL     1       8.253  40.572  14.970  1.00  0.00     0.004 C 
ENDBRANCH   6   7
ENDBRANCH   1   6
TORSDOF 4
ENDMDL
MODEL 3
REMARK VINA RESULT:    -2.639      3.151      4.604
REMARK INTER + INTRA:          -3.364
REMARK INTER:                  -3.256
REMARK INTRA:                  -0.108
REMARK UNBOUND:                -0.108
REMARK SMILES CCCCCC(=O)[O-]
REMARK SMILES IDX 4 1 5 2 6 3 7 4 8 5 3 6 2 7 1 8
REMARK H PARENT
REMARK Flexibility Score: inf
ROOT
ATOM      1  C   UNL     1       7.894  40.157  14.785  1.00  0.00     0.006 C 
ENDROOT
BRANCH   1   2
ATOM      2  C   UNL     1       8.862  39.895  15.946  1.00  0.00     0.053 C 
BRANCH   2   3
ATOM      3  C   UNL     1       9.915  38.895  15.576  1.00  0.00     0.041 C 
ATOM      4  O   UNL     1      11.051  38.942  16.119  1.00  0.00    -0.550 OA
ATOM      5  O   UNL     1       9.632  37.893  14.656  1.00  0.00    -0.550 OA
ENDBRANCH   2   3
ENDBRANCH   1   2
BRANCH   1   6
ATOM      6  C   UNL     1       6.443  40.320  15.263  1.00  0.00     0.000 C 
BRANCH   6   7
ATOM      7  C   UNL     1       5.869  38.981  15.740  1.00  0.00    -0.003 C 
ATOM      8  C   UNL     1       4.345  39.022  15.793  1.00  0.00     0.004 C 
ENDBRANCH   6   7
ENDBRANCH   1   6
TORSDOF 4
ENDMDL
MODEL 4
REMARK VINA RESULT:    -2.130      2.588      4.394
REMARK INTER + INTRA:          -2.736
REMARK INTER:                  -2.586
REMARK INTRA:                  -0.150
REMARK UNBOUND:                -0.108
REMARK SMILES CCCCCC(=O)[O-]
REMARK SMILES IDX 4 1 5 2 6 3 7 4 8 5 3 6 2 7 1 8
REMARK H PARENT
REMARK Flexibility Score: inf
ROOT
ATOM      1  C   UNL     1       6.028  38.180  15.574  1.00  0.00     0.006 C 
ENDROOT
BRANCH   1   2
ATOM      2  C   UNL     1       6.102  39.619  16.101  1.00  0.00     0.053 C 
BRANCH   2   3
ATOM      3  C   UNL     1       7.257  40.369  15.509  1.00  0.00     0.041 C 
ATOM      4  O   UNL     1       7.962  39.838  14.612  1.00  0.00    -0.550 OA
ATOM      5  O   UNL     1       7.533  41.665  15.926  1.00  0.00    -0.550 OA
ENDBRANCH   2   3
ENDBRANCH   1   2
BRANCH   1   6
ATOM      6  C   UNL     1       4.682  37.875  14.901  1.00  0.00     0.000 C 
BRANCH   6   7
ATOM      7  C   UNL     1       3.588  38.823  15.409  1.00  0.00    -0.003 C 
ATOM      8  C   UNL     1       2.476  38.053  16.115  1.00  0.00     0.004 C 
ENDBRANCH   6   7
ENDBRANCH   1   6
TORSDOF 4
ENDMDL
