MODEL 1
REMARK VINA RESULT:   131.776      0.000      0.000
REMARK INTER + INTRA:         143.674
REMARK INTER:                 143.332
REMARK INTRA:                   0.342
REMARK UNBOUND:                 0.342
REMARK SMILES C[C@H]1[C@H](C)CC[C@@]2(C(=O)[O-])CC[C@@]3(C)C(=CC[C@@H]4[C@]5(C)CC[C@H](O)C(C)(C)[C@H]5CC[C@@]43C)[C@@H]12
REMARK SMILES IDX 7 1 6 2 11 3 33 4 5 5 12 6 15 7 2 8 3 9 13 10 16 11 1 12
REMARK SMILES IDX 4 13 14 14 31 15 17 16 18 17 30 18 32 19 19 20 29 21 28 22
REMARK SMILES IDX 21 23 20 24 25 25 22 26 23 27 26 28 27 29 8 30 9 31 10 32
REMARK SMILES IDX 24 33
REMARK H PARENT 24 34
REMARK Flexibility Score: inf
ROOT
ATOM      1  C   UNL     1      22.096  41.354  11.579  1.00  0.00     0.017 C 
ATOM      2  C   UNL     1      23.355  42.063  12.163  1.00  0.00     0.014 C 
ATOM      3  C   UNL     1      21.399  40.602  12.736  1.00  0.00     0.014 C 
ATOM      4  C   UNL     1      21.103  42.396  10.907  1.00  0.00     0.030 C 
ATOM      5  C   UNL     1      23.855  43.150  11.221  1.00  0.00     0.004 C 
ATOM      6  C   UNL     1      20.162  39.857  12.240  1.00  0.00     0.013 C 
ATOM      7  C   UNL     1      19.603  42.007  10.959  1.00  0.00    -0.063 C 
ATOM      8  C   UNL     1      21.362  43.894  11.328  1.00  0.00    -0.003 C 
ATOM      9  C   UNL     1      22.862  44.328  11.167  1.00  0.00    -0.011 C 
ATOM     10  C   UNL     1      19.022  40.819  11.764  1.00  0.00    -0.006 C 
ATOM     11  C   UNL     1      18.736  42.777  10.270  1.00  0.00    -0.027 C 
ATOM     12  C   UNL     1      20.810  44.256  12.718  1.00  0.00     0.008 C 
ATOM     13  C   UNL     1      23.079  45.125   9.871  1.00  0.00     0.008 C 
ATOM     14  C   UNL     1      18.394  41.416  13.073  1.00  0.00     0.017 C 
ATOM     15  C   UNL     1      17.913  40.027  10.866  1.00  0.00    -0.020 C 
ATOM     16  C   UNL     1      17.260  42.531  10.315  1.00  0.00     0.032 C 
ATOM     17  C   UNL     1      16.956  41.041  10.032  1.00  0.00     0.006 C 
ATOM     18  C   UNL     1      17.139  39.020  11.798  1.00  0.00     0.008 C 
ATOM     19  C   UNL     1      18.632  39.149   9.786  1.00  0.00     0.012 C 
ATOM     20  C   UNL     1      15.393  40.671   9.862  1.00  0.00    -0.025 C 
ATOM     21  C   UNL     1      15.772  38.599  11.297  1.00  0.00     0.005 C 
ATOM     22  C   UNL     1      14.896  39.853  11.104  1.00  0.00     0.003 C 
ATOM     23  C   UNL     1      14.498  41.949   9.744  1.00  0.00     0.010 C 
ATOM     24  C   UNL     1      15.237  39.890   8.514  1.00  0.00     0.012 C 
ATOM     25  C   UNL     1      13.335  39.589  11.234  1.00  0.00    -0.006 C 
ATOM     26  C   UNL     1      12.990  41.663   9.739  1.00  0.00     0.033 C 
ATOM     27  C   UNL     1      12.550  40.925  11.009  1.00  0.00     0.120 C 
ATOM     28  C   UNL     1      13.011  39.093  12.676  1.00  0.00     0.014 C 
ATOM     29  C   UNL     1      12.802  38.494  10.265  1.00  0.00     0.014 C 
ENDROOT
BRANCH   1  30
ATOM     30  C   UNL     1      22.586  40.320  10.555  1.00  0.00     0.048 C 
ATOM     31  O   UNL     1      21.776  39.813   9.732  1.00  0.00    -0.550 OA
ATOM     32  O   UNL     1      23.929  39.967  10.459  1.00  0.00    -0.550 OA
ENDBRANCH   1  30
BRANCH  27  33
ATOM     33  O   UNL     1      12.724  41.797  12.103  1.00  0.00    -0.393 OA
ATOM     34  H   UNL     1      12.261  42.648  11.884  1.00  0.00     0.210 HD
ENDBRANCH  27  33
TORSDOF 2
ENDMDL
