MODEL 1
REMARK VINA RESULT:    -4.492      0.000      0.000
REMARK INTER + INTRA:          -4.921
REMARK INTER:                  -4.886
REMARK INTRA:                  -0.034
REMARK UNBOUND:                -0.034
REMARK SMILES O=C([O-])c1ccc(O)cc1
REMARK SMILES IDX 4 1 5 2 10 3 6 4 9 5 7 6 2 7 1 8 3 9 8 10
REMARK H PARENT 8 11
REMARK Flexibility Score: inf
ROOT
ATOM      1  C   UNL     1      -6.951   7.642  -3.919  1.00  0.00    -0.003 A 
ATOM      2  C   UNL     1      -5.748   8.253  -4.318  1.00  0.00     0.014 A 
ATOM      3  C   UNL     1      -6.923   6.310  -3.469  1.00  0.00     0.014 A 
ATOM      4  C   UNL     1      -4.543   7.544  -4.268  1.00  0.00     0.047 A 
ATOM      5  C   UNL     1      -5.716   5.604  -3.420  1.00  0.00     0.047 A 
ATOM      6  C   UNL     1      -4.525   6.217  -3.818  1.00  0.00     0.115 A 
ENDROOT
BRANCH   1   7
ATOM      7  C   UNL     1      -8.228   8.386  -3.970  1.00  0.00     0.071 C 
ATOM      8  O   UNL     1      -8.361   9.379  -4.735  1.00  0.00    -0.545 OA
ATOM      9  O   UNL     1      -9.301   8.001  -3.174  1.00  0.00    -0.545 OA
ENDBRANCH   1   7
BRANCH   6  10
ATOM     10  O   UNL     1      -3.331   5.502  -3.764  1.00  0.00    -0.508 OA
ATOM     11  H   UNL     1      -3.316   4.492  -3.831  1.00  0.00     0.293 HD
ENDBRANCH   6  10
TORSDOF 2
ENDMDL
MODEL 2
REMARK VINA RESULT:    -4.278      1.453      4.159
REMARK INTER + INTRA:          -4.687
REMARK INTER:                  -4.658
REMARK INTRA:                  -0.029
REMARK UNBOUND:                -0.034
REMARK SMILES O=C([O-])c1ccc(O)cc1
REMARK SMILES IDX 4 1 5 2 10 3 6 4 9 5 7 6 2 7 1 8 3 9 8 10
REMARK H PARENT 8 11
REMARK Flexibility Score: inf
ROOT
ATOM      1  C   UNL     1      -5.586   6.605  -3.398  1.00  0.00    -0.003 A 
ATOM      2  C   UNL     1      -5.880   7.939  -3.056  1.00  0.00     0.014 A 
ATOM      3  C   UNL     1      -6.622   5.654  -3.387  1.00  0.00     0.014 A 
ATOM      4  C   UNL     1      -7.184   8.310  -2.711  1.00  0.00     0.047 A 
ATOM      5  C   UNL     1      -7.924   6.030  -3.041  1.00  0.00     0.047 A 
ATOM      6  C   UNL     1      -8.209   7.355  -2.703  1.00  0.00     0.115 A 
ENDROOT
BRANCH   1   7
ATOM      7  C   UNL     1      -4.209   6.207  -3.763  1.00  0.00     0.071 C 
ATOM      8  O   UNL     1      -3.624   6.746  -4.740  1.00  0.00    -0.545 OA
ATOM      9  O   UNL     1      -3.540   5.230  -3.034  1.00  0.00    -0.545 OA
ENDBRANCH   1   7
BRANCH   6  10
ATOM     10  O   UNL     1      -9.511   7.714  -2.361  1.00  0.00    -0.508 OA
ATOM     11  H   UNL     1      -9.725   8.140  -1.467  1.00  0.00     0.293 HD
ENDBRANCH   6  10
TORSDOF 2
ENDMDL
MODEL 3
REMARK VINA RESULT:    -4.216     18.009     18.896
REMARK INTER + INTRA:          -4.620
REMARK INTER:                  -4.593
REMARK INTRA:                  -0.027
REMARK UNBOUND:                -0.034
REMARK SMILES O=C([O-])c1ccc(O)cc1
REMARK SMILES IDX 4 1 5 2 10 3 6 4 9 5 7 6 2 7 1 8 3 9 8 10
REMARK H PARENT 8 11
REMARK Flexibility Score: inf
ROOT
ATOM      1  C   UNL     1       0.272  -7.898   4.534  1.00  0.00    -0.003 A 
ATOM      2  C   UNL     1       1.123  -8.883   4.001  1.00  0.00     0.014 A 
ATOM      3  C   UNL     1       0.839  -6.753   5.123  1.00  0.00     0.014 A 
ATOM      4  C   UNL     1       2.512  -8.726   4.057  1.00  0.00     0.047 A 
ATOM      5  C   UNL     1       2.228  -6.599   5.177  1.00  0.00     0.047 A 
ATOM      6  C   UNL     1       3.067  -7.582   4.646  1.00  0.00     0.115 A 
ENDROOT
BRANCH   1   7
ATOM      7  C   UNL     1      -1.197  -8.059   4.478  1.00  0.00     0.071 C 
ATOM      8  O   UNL     1      -1.838  -8.455   5.488  1.00  0.00    -0.545 OA
ATOM      9  O   UNL     1      -1.893  -7.776   3.308  1.00  0.00    -0.545 OA
ENDBRANCH   1   7
BRANCH   6  10
ATOM     10  O   UNL     1       4.449  -7.415   4.707  1.00  0.00    -0.508 OA
ATOM     11  H   UNL     1       4.970  -7.029   3.929  1.00  0.00     0.293 HD
ENDBRANCH   6  10
TORSDOF 2
ENDMDL
MODEL 4
REMARK VINA RESULT:    -4.214     18.016     18.875
REMARK INTER + INTRA:          -4.618
REMARK INTER:                  -4.591
REMARK INTRA:                  -0.027
REMARK UNBOUND:                -0.034
REMARK SMILES O=C([O-])c1ccc(O)cc1
REMARK SMILES IDX 4 1 5 2 10 3 6 4 9 5 7 6 2 7 1 8 3 9 8 10
REMARK H PARENT 8 11
REMARK Flexibility Score: inf
ROOT
ATOM      1  C   UNL     1       0.272  -7.906   4.536  1.00  0.00    -0.003 A 
ATOM      2  C   UNL     1       0.829  -6.754   5.122  1.00  0.00     0.014 A 
ATOM      3  C   UNL     1       1.133  -8.888   4.013  1.00  0.00     0.014 A 
ATOM      4  C   UNL     1       2.216  -6.589   5.182  1.00  0.00     0.047 A 
ATOM      5  C   UNL     1       2.520  -8.719   4.074  1.00  0.00     0.047 A 
ATOM      6  C   UNL     1       3.065  -7.572   4.657  1.00  0.00     0.115 A 
ENDROOT
BRANCH   1   7
ATOM      7  C   UNL     1      -1.194  -8.086   4.470  1.00  0.00     0.071 C 
ATOM      8  O   UNL     1      -1.834  -8.503   5.472  1.00  0.00    -0.545 OA
ATOM      9  O   UNL     1      -1.888  -7.798   3.300  1.00  0.00    -0.545 OA
ENDBRANCH   1   7
BRANCH   6  10
ATOM     10  O   UNL     1       4.449  -7.418   4.712  1.00  0.00    -0.508 OA
ATOM     11  H   UNL     1       4.884  -6.510   4.607  1.00  0.00     0.293 HD
ENDBRANCH   6  10
TORSDOF 2
ENDMDL
MODEL 5
REMARK VINA RESULT:    -3.969     18.578     19.795
REMARK INTER + INTRA:          -4.351
REMARK INTER:                  -4.319
REMARK INTRA:                  -0.033
REMARK UNBOUND:                -0.034
REMARK SMILES O=C([O-])c1ccc(O)cc1
REMARK SMILES IDX 4 1 5 2 10 3 6 4 9 5 7 6 2 7 1 8 3 9 8 10
REMARK H PARENT 8 11
REMARK Flexibility Score: inf
ROOT
ATOM      1  C   UNL     1       1.812  -8.171   4.386  1.00  0.00    -0.003 A 
ATOM      2  C   UNL     1       2.042  -9.382   3.706  1.00  0.00     0.014 A 
ATOM      3  C   UNL     1       2.913  -7.381   4.763  1.00  0.00     0.014 A 
ATOM      4  C   UNL     1       3.347  -9.792   3.412  1.00  0.00     0.047 A 
ATOM      5  C   UNL     1       4.216  -7.796   4.468  1.00  0.00     0.047 A 
ATOM      6  C   UNL     1       4.437  -8.999   3.793  1.00  0.00     0.115 A 
ENDROOT
BRANCH   1   7
ATOM      7  C   UNL     1       0.435  -7.732   4.699  1.00  0.00     0.071 C 
ATOM      8  O   UNL     1      -0.517  -8.001   3.919  1.00  0.00    -0.545 OA
ATOM      9  O   UNL     1       0.171  -7.014   5.860  1.00  0.00    -0.545 OA
ENDBRANCH   1   7
BRANCH   6  10
ATOM     10  O   UNL     1       5.740  -9.398   3.505  1.00  0.00    -0.508 OA
ATOM     11  H   UNL     1       5.992  -9.769   2.597  1.00  0.00     0.293 HD
ENDBRANCH   6  10
TORSDOF 2
ENDMDL
MODEL 6
REMARK VINA RESULT:    -3.967     18.548     19.700
REMARK INTER + INTRA:          -4.349
REMARK INTER:                  -4.316
REMARK INTRA:                  -0.033
REMARK UNBOUND:                -0.034
REMARK SMILES O=C([O-])c1ccc(O)cc1
REMARK SMILES IDX 4 1 5 2 10 3 6 4 9 5 7 6 2 7 1 8 3 9 8 10
REMARK H PARENT 8 11
REMARK Flexibility Score: inf
ROOT
ATOM      1  C   UNL     1       1.863  -8.033   4.476  1.00  0.00    -0.003 A 
ATOM      2  C   UNL     1       2.938  -7.198   4.832  1.00  0.00     0.014 A 
ATOM      3  C   UNL     1       2.132  -9.254   3.832  1.00  0.00     0.014 A 
ATOM      4  C   UNL     1       4.254  -7.577   4.547  1.00  0.00     0.047 A 
ATOM      5  C   UNL     1       3.449  -9.630   3.549  1.00  0.00     0.047 A 
ATOM      6  C   UNL     1       4.512  -8.795   3.905  1.00  0.00     0.115 A 
ENDROOT
BRANCH   1   7
ATOM      7  C   UNL     1       0.469  -7.637   4.774  1.00  0.00     0.071 C 
ATOM      8  O   UNL     1      -0.461  -7.912   3.971  1.00  0.00    -0.545 OA
ATOM      9  O   UNL     1       0.166  -6.953   5.947  1.00  0.00    -0.545 OA
ENDBRANCH   1   7
BRANCH   6  10
ATOM     10  O   UNL     1       5.819  -9.183   3.617  1.00  0.00    -0.508 OA
ATOM     11  H   UNL     1       6.614  -8.723   4.045  1.00  0.00     0.293 HD
ENDBRANCH   6  10
TORSDOF 2
ENDMDL
MODEL 7
REMARK VINA RESULT:    -3.807     14.045     15.363
REMARK INTER + INTRA:          -4.175
REMARK INTER:                  -4.144
REMARK INTRA:                  -0.032
REMARK UNBOUND:                -0.034
REMARK SMILES O=C([O-])c1ccc(O)cc1
REMARK SMILES IDX 4 1 5 2 10 3 6 4 9 5 7 6 2 7 1 8 3 9 8 10
REMARK H PARENT 8 11
REMARK Flexibility Score: inf
ROOT
ATOM      1  C   UNL     1       4.739   4.635   5.456  1.00  0.00    -0.003 A 
ATOM      2  C   UNL     1       4.024   5.797   5.804  1.00  0.00     0.014 A 
ATOM      3  C   UNL     1       6.145   4.672   5.468  1.00  0.00     0.014 A 
ATOM      4  C   UNL     1       4.703   6.969   6.154  1.00  0.00     0.047 A 
ATOM      5  C   UNL     1       6.820   5.846   5.819  1.00  0.00     0.047 A 
ATOM      6  C   UNL     1       6.104   6.995   6.163  1.00  0.00     0.115 A 
ENDROOT
BRANCH   1   7
ATOM      7  C   UNL     1       4.027   3.394   5.084  1.00  0.00     0.071 C 
ATOM      8  O   UNL     1       3.009   3.436   4.344  1.00  0.00    -0.545 OA
ATOM      9  O   UNL     1       4.471   2.161   5.548  1.00  0.00    -0.545 OA
ENDBRANCH   1   7
BRANCH   6  10
ATOM     10  O   UNL     1       6.790   8.156   6.511  1.00  0.00    -0.508 OA
ATOM     11  H   UNL     1       7.770   8.135   6.765  1.00  0.00     0.293 HD
ENDBRANCH   6  10
TORSDOF 2
ENDMDL
MODEL 8
REMARK VINA RESULT:    -3.793     14.068     15.386
REMARK INTER + INTRA:          -4.161
REMARK INTER:                  -4.129
REMARK INTRA:                  -0.032
REMARK UNBOUND:                -0.034
REMARK SMILES O=C([O-])c1ccc(O)cc1
REMARK SMILES IDX 4 1 5 2 10 3 6 4 9 5 7 6 2 7 1 8 3 9 8 10
REMARK H PARENT 8 11
REMARK Flexibility Score: inf
ROOT
ATOM      1  C   UNL     1       4.783   4.641   5.459  1.00  0.00    -0.003 A 
ATOM      2  C   UNL     1       6.190   4.666   5.473  1.00  0.00     0.014 A 
ATOM      3  C   UNL     1       4.077   5.808   5.803  1.00  0.00     0.014 A 
ATOM      4  C   UNL     1       6.875   5.834   5.825  1.00  0.00     0.047 A 
ATOM      5  C   UNL     1       4.766   6.974   6.155  1.00  0.00     0.047 A 
ATOM      6  C   UNL     1       6.163   6.991   6.167  1.00  0.00     0.115 A 
ENDROOT
BRANCH   1   7
ATOM      7  C   UNL     1       4.054   3.409   5.087  1.00  0.00     0.071 C 
ATOM      8  O   UNL     1       3.043   3.464   4.337  1.00  0.00    -0.545 OA
ATOM      9  O   UNL     1       4.475   2.171   5.560  1.00  0.00    -0.545 OA
ENDBRANCH   1   7
BRANCH   6  10
ATOM     10  O   UNL     1       6.834   8.159   6.519  1.00  0.00    -0.508 OA
ATOM     11  H   UNL     1       6.352   8.936   6.956  1.00  0.00     0.293 HD
ENDBRANCH   6  10
TORSDOF 2
ENDMDL
MODEL 9
REMARK VINA RESULT:    -3.769     18.941     20.295
REMARK INTER + INTRA:          -4.134
REMARK INTER:                  -4.104
REMARK INTRA:                  -0.030
REMARK UNBOUND:                -0.034
REMARK SMILES O=C([O-])c1ccc(O)cc1
REMARK SMILES IDX 4 1 5 2 10 3 6 4 9 5 7 6 2 7 1 8 3 9 8 10
REMARK H PARENT 8 11
REMARK Flexibility Score: inf
ROOT
ATOM      1  C   UNL     1       3.769  -8.036   4.411  1.00  0.00    -0.003 A 
ATOM      2  C   UNL     1       2.825  -7.122   4.916  1.00  0.00     0.014 A 
ATOM      3  C   UNL     1       3.312  -9.215   3.794  1.00  0.00     0.014 A 
ATOM      4  C   UNL     1       1.455  -7.384   4.807  1.00  0.00     0.047 A 
ATOM      5  C   UNL     1       1.942  -9.474   3.688  1.00  0.00     0.047 A 
ATOM      6  C   UNL     1       1.011  -8.562   4.192  1.00  0.00     0.115 A 
ENDROOT
BRANCH   1   7
ATOM      7  C   UNL     1       5.218  -7.764   4.523  1.00  0.00     0.071 C 
ATOM      8  O   UNL     1       5.963  -7.830   3.509  1.00  0.00    -0.545 OA
ATOM      9  O   UNL     1       5.779  -7.431   5.751  1.00  0.00    -0.545 OA
ENDBRANCH   1   7
BRANCH   6  10
ATOM     10  O   UNL     1      -0.350  -8.833   4.078  1.00  0.00    -0.508 OA
ATOM     11  H   UNL     1      -0.980  -8.723   4.864  1.00  0.00     0.293 HD
ENDBRANCH   6  10
TORSDOF 2
ENDMDL
