MODEL 1
REMARK VINA RESULT:    -6.953      0.000      0.000
REMARK INTER + INTRA:          -8.671
REMARK INTER:                  -8.376
REMARK INTRA:                  -0.296
REMARK UNBOUND:                -0.296
REMARK SMILES O=c1c(O)c(-c2ccc(O)c(O)c2)oc2cc(O)cc(O)c12
REMARK SMILES IDX 5 1 3 2 2 3 1 4 22 5 20 6 19 7 17 8 16 9 15 10 14 11 6 12
REMARK SMILES IDX 7 13 8 14 9 15 13 16 11 17 10 18 12 20 4 22 21 24 18 26
REMARK H PARENT 10 19 12 21 4 23 21 25 18 27
REMARK Flexibility Score: inf
ROOT
ATOM      1  C   UNL     1       5.040  15.768  18.722  1.00  0.00     0.180 A 
ATOM      2  C   UNL     1       4.284  16.921  18.448  1.00  0.00     0.208 A 
ATOM      3  C   UNL     1       3.789  17.118  17.149  1.00  0.00     0.238 A 
ATOM      4  O   UNL     1       3.067  18.124  16.924  1.00  0.00    -0.285 OA
ATOM      5  C   UNL     1       4.072  16.170  16.136  1.00  0.00     0.111 A 
ATOM      6  C   UNL     1       3.656  16.289  14.776  1.00  0.00     0.134 A 
ATOM      7  C   UNL     1       3.879  15.228  13.889  1.00  0.00     0.093 A 
ATOM      8  C   UNL     1       4.559  14.082  14.296  1.00  0.00     0.123 A 
ATOM      9  C   UNL     1       5.023  13.979  15.609  1.00  0.00     0.094 A 
ATOM     10  C   UNL     1       4.784  15.006  16.525  1.00  0.00     0.146 A 
ATOM     11  O   UNL     1       5.233  14.866  17.767  1.00  0.00    -0.452 OA
ENDROOT
BRANCH   1  12
ATOM     12  C   UNL     1       5.616  15.503  20.060  1.00  0.00     0.025 A 
ATOM     13  C   UNL     1       4.838  14.968  21.097  1.00  0.00     0.016 A 
ATOM     14  C   UNL     1       5.397  14.749  22.358  1.00  0.00     0.051 A 
ATOM     15  C   UNL     1       6.734  15.071  22.612  1.00  0.00     0.157 A 
ATOM     16  C   UNL     1       6.952  15.847  20.318  1.00  0.00     0.062 A 
ATOM     17  C   UNL     1       7.522  15.631  21.580  1.00  0.00     0.158 A 
BRANCH  15  18
ATOM     18  O   UNL     1       7.233  14.824  23.893  1.00  0.00    -0.504 OA
ATOM     19  H   UNL     1       7.609  13.935  24.191  1.00  0.00     0.293 HD
ENDBRANCH  15  18
BRANCH  17  20
ATOM     20  O   UNL     1       8.860  15.986  21.759  1.00  0.00    -0.504 OA
ATOM     21  H   UNL     1       9.243  16.888  21.515  1.00  0.00     0.293 HD
ENDBRANCH  17  20
ENDBRANCH   1  12
BRANCH   2  22
ATOM     22  O   UNL     1       3.999  17.833  19.468  1.00  0.00    -0.502 OA
ATOM     23  H   UNL     1       3.182  17.747  20.061  1.00  0.00     0.293 HD
ENDBRANCH   2  22
BRANCH   6  24
ATOM     24  O   UNL     1       3.049  17.430  14.242  1.00  0.00    -0.507 OA
ATOM     25  H   UNL     1       2.157  17.441  13.773  1.00  0.00     0.293 HD
ENDBRANCH   6  24
BRANCH   8  26
ATOM     26  O   UNL     1       4.779  13.052  13.383  1.00  0.00    -0.508 OA
ATOM     27  H   UNL     1       4.200  12.220  13.374  1.00  0.00     0.293 HD
ENDBRANCH   8  26
TORSDOF 6
ENDMDL
MODEL 2
REMARK VINA RESULT:    -6.949      1.289      2.989
REMARK INTER + INTRA:          -8.666
REMARK INTER:                  -8.332
REMARK INTRA:                  -0.334
REMARK UNBOUND:                -0.296
REMARK SMILES O=c1c(O)c(-c2ccc(O)c(O)c2)oc2cc(O)cc(O)c12
REMARK SMILES IDX 5 1 3 2 2 3 1 4 22 5 20 6 19 7 17 8 16 9 15 10 14 11 6 12
REMARK SMILES IDX 7 13 8 14 9 15 13 16 11 17 10 18 12 20 4 22 21 24 18 26
REMARK H PARENT 10 19 12 21 4 23 21 25 18 27
REMARK Flexibility Score: inf
ROOT
ATOM      1  C   UNL     1       5.411  15.758  18.596  1.00  0.00     0.180 A 
ATOM      2  C   UNL     1       5.447  14.783  17.584  1.00  0.00     0.208 A 
ATOM      3  C   UNL     1       4.975  15.114  16.303  1.00  0.00     0.238 A 
ATOM      4  O   UNL     1       5.061  14.254  15.387  1.00  0.00    -0.285 OA
ATOM      5  C   UNL     1       4.457  16.408  16.055  1.00  0.00     0.111 A 
ATOM      6  C   UNL     1       3.916  16.838  14.807  1.00  0.00     0.134 A 
ATOM      7  C   UNL     1       3.552  18.181  14.637  1.00  0.00     0.093 A 
ATOM      8  C   UNL     1       3.650  19.090  15.689  1.00  0.00     0.123 A 
ATOM      9  C   UNL     1       4.122  18.667  16.932  1.00  0.00     0.094 A 
ATOM     10  C   UNL     1       4.526  17.343  17.121  1.00  0.00     0.146 A 
ATOM     11  O   UNL     1       4.980  16.982  18.316  1.00  0.00    -0.452 OA
ENDROOT
BRANCH   1  12
ATOM     12  C   UNL     1       5.867  15.477  19.977  1.00  0.00     0.025 A 
ATOM     13  C   UNL     1       4.993  14.955  20.943  1.00  0.00     0.016 A 
ATOM     14  C   UNL     1       5.440  14.720  22.245  1.00  0.00     0.051 A 
ATOM     15  C   UNL     1       6.758  15.013  22.611  1.00  0.00     0.157 A 
ATOM     16  C   UNL     1       7.184  15.792  20.347  1.00  0.00     0.062 A 
ATOM     17  C   UNL     1       7.642  15.560  21.651  1.00  0.00     0.158 A 
BRANCH  15  18
ATOM     18  O   UNL     1       7.143  14.752  23.928  1.00  0.00    -0.504 OA
ATOM     19  H   UNL     1       7.647  13.926  24.215  1.00  0.00     0.293 HD
ENDBRANCH  15  18
BRANCH  17  20
ATOM     20  O   UNL     1       8.967  15.887  21.944  1.00  0.00    -0.504 OA
ATOM     21  H   UNL     1       9.764  15.363  21.611  1.00  0.00     0.293 HD
ENDBRANCH  17  20
ENDBRANCH   1  12
BRANCH   2  22
ATOM     22  O   UNL     1       5.982  13.518  17.844  1.00  0.00    -0.502 OA
ATOM     23  H   UNL     1       5.720  12.974  18.657  1.00  0.00     0.293 HD
ENDBRANCH   2  22
BRANCH   6  24
ATOM     24  O   UNL     1       3.690  15.989  13.720  1.00  0.00    -0.507 OA
ATOM     25  H   UNL     1       4.112  16.096  12.810  1.00  0.00     0.293 HD
ENDBRANCH   6  24
BRANCH   8  26
ATOM     26  O   UNL     1       3.264  20.415  15.490  1.00  0.00    -0.508 OA
ATOM     27  H   UNL     1       2.340  20.652  15.149  1.00  0.00     0.293 HD
ENDBRANCH   8  26
TORSDOF 6
ENDMDL
MODEL 3
REMARK VINA RESULT:    -6.872      1.454      3.299
REMARK INTER + INTRA:          -8.573
REMARK INTER:                  -8.259
REMARK INTRA:                  -0.314
REMARK UNBOUND:                -0.296
REMARK SMILES O=c1c(O)c(-c2ccc(O)c(O)c2)oc2cc(O)cc(O)c12
REMARK SMILES IDX 5 1 3 2 2 3 1 4 22 5 20 6 19 7 17 8 16 9 15 10 14 11 6 12
REMARK SMILES IDX 7 13 8 14 9 15 13 16 11 17 10 18 12 20 4 22 21 24 18 26
REMARK H PARENT 10 19 12 21 4 23 21 25 18 27
REMARK Flexibility Score: inf
ROOT
ATOM      1  C   UNL     1       5.681  14.607  18.172  1.00  0.00     0.180 A 
ATOM      2  C   UNL     1       5.857  13.353  17.563  1.00  0.00     0.208 A 
ATOM      3  C   UNL     1       5.449  13.179  16.231  1.00  0.00     0.238 A 
ATOM      4  O   UNL     1       5.660  12.070  15.674  1.00  0.00    -0.285 OA
ATOM      5  C   UNL     1       4.854  14.256  15.530  1.00  0.00     0.111 A 
ATOM      6  C   UNL     1       4.366  14.181  14.191  1.00  0.00     0.134 A 
ATOM      7  C   UNL     1       3.916  15.344  13.553  1.00  0.00     0.093 A 
ATOM      8  C   UNL     1       3.876  16.564  14.226  1.00  0.00     0.123 A 
ATOM      9  C   UNL     1       4.294  16.637  15.556  1.00  0.00     0.094 A 
ATOM     10  C   UNL     1       4.782  15.502  16.207  1.00  0.00     0.146 A 
ATOM     11  O   UNL     1       5.180  15.615  17.469  1.00  0.00    -0.452 OA
ENDROOT
BRANCH   1  12
ATOM     12  C   UNL     1       6.064  14.860  19.580  1.00  0.00     0.025 A 
ATOM     13  C   UNL     1       7.378  15.204  19.930  1.00  0.00     0.016 A 
ATOM     14  C   UNL     1       7.720  15.414  21.268  1.00  0.00     0.051 A 
ATOM     15  C   UNL     1       6.766  15.272  22.280  1.00  0.00     0.157 A 
ATOM     16  C   UNL     1       5.109  14.696  20.596  1.00  0.00     0.062 A 
ATOM     17  C   UNL     1       5.442  14.904  21.941  1.00  0.00     0.158 A 
BRANCH  15  18
ATOM     18  O   UNL     1       7.171  15.500  23.597  1.00  0.00    -0.504 OA
ATOM     19  H   UNL     1       7.765  14.874  24.121  1.00  0.00     0.293 HD
ENDBRANCH  15  18
BRANCH  17  20
ATOM     20  O   UNL     1       4.438  14.735  22.895  1.00  0.00    -0.504 OA
ATOM     21  H   UNL     1       3.510  15.124  22.813  1.00  0.00     0.293 HD
ENDBRANCH  17  20
ENDBRANCH   1  12
BRANCH   2  22
ATOM     22  O   UNL     1       6.467  12.309  18.266  1.00  0.00    -0.502 OA
ATOM     23  H   UNL     1       6.686  11.419  17.836  1.00  0.00     0.293 HD
ENDBRANCH   2  22
BRANCH   6  24
ATOM     24  O   UNL     1       4.277  12.993  13.459  1.00  0.00    -0.507 OA
ATOM     25  H   UNL     1       4.760  12.138  13.689  1.00  0.00     0.293 HD
ENDBRANCH   6  24
BRANCH   8  26
ATOM     26  O   UNL     1       3.406  17.698  13.566  1.00  0.00    -0.508 OA
ATOM     27  H   UNL     1       2.596  18.207  13.898  1.00  0.00     0.293 HD
ENDBRANCH   8  26
TORSDOF 6
ENDMDL
MODEL 4
REMARK VINA RESULT:    -6.860      1.456      3.277
REMARK INTER + INTRA:          -8.559
REMARK INTER:                  -8.241
REMARK INTRA:                  -0.318
REMARK UNBOUND:                -0.296
REMARK SMILES O=c1c(O)c(-c2ccc(O)c(O)c2)oc2cc(O)cc(O)c12
REMARK SMILES IDX 5 1 3 2 2 3 1 4 22 5 20 6 19 7 17 8 16 9 15 10 14 11 6 12
REMARK SMILES IDX 7 13 8 14 9 15 13 16 11 17 10 18 12 20 4 22 21 24 18 26
REMARK H PARENT 10 19 12 21 4 23 21 25 18 27
REMARK Flexibility Score: inf
ROOT
ATOM      1  C   UNL     1       5.522  15.692  18.512  1.00  0.00     0.180 A 
ATOM      2  C   UNL     1       5.547  14.660  17.557  1.00  0.00     0.208 A 
ATOM      3  C   UNL     1       5.072  14.919  16.262  1.00  0.00     0.238 A 
ATOM      4  O   UNL     1       5.149  14.007  15.397  1.00  0.00    -0.285 OA
ATOM      5  C   UNL     1       4.562  16.200  15.941  1.00  0.00     0.111 A 
ATOM      6  C   UNL     1       4.018  16.561  14.673  1.00  0.00     0.134 A 
ATOM      7  C   UNL     1       3.662  17.894  14.427  1.00  0.00     0.093 A 
ATOM      8  C   UNL     1       3.771  18.862  15.423  1.00  0.00     0.123 A 
ATOM      9  C   UNL     1       4.246  18.508  16.687  1.00  0.00     0.094 A 
ATOM     10  C   UNL     1       4.642  17.195  16.951  1.00  0.00     0.146 A 
ATOM     11  O   UNL     1       5.098  16.900  18.162  1.00  0.00    -0.452 OA
ENDROOT
BRANCH   1  12
ATOM     12  C   UNL     1       5.982  15.488  19.904  1.00  0.00     0.025 A 
ATOM     13  C   UNL     1       7.333  15.631  20.256  1.00  0.00     0.016 A 
ATOM     14  C   UNL     1       7.747  15.410  21.571  1.00  0.00     0.051 A 
ATOM     15  C   UNL     1       6.828  15.032  22.555  1.00  0.00     0.157 A 
ATOM     16  C   UNL     1       5.061  15.087  20.885  1.00  0.00     0.062 A 
ATOM     17  C   UNL     1       5.466  14.864  22.207  1.00  0.00     0.158 A 
BRANCH  15  18
ATOM     18  O   UNL     1       7.305  14.830  23.852  1.00  0.00    -0.504 OA
ATOM     19  H   UNL     1       7.440  15.571  24.525  1.00  0.00     0.293 HD
ENDBRANCH  15  18
BRANCH  17  20
ATOM     20  O   UNL     1       4.493  14.479  23.131  1.00  0.00    -0.504 OA
ATOM     21  H   UNL     1       4.126  13.542  23.207  1.00  0.00     0.293 HD
ENDBRANCH  17  20
ENDBRANCH   1  12
BRANCH   2  22
ATOM     22  O   UNL     1       6.075  13.409  17.889  1.00  0.00    -0.502 OA
ATOM     23  H   UNL     1       5.493  12.590  18.019  1.00  0.00     0.293 HD
ENDBRANCH   2  22
BRANCH   6  24
ATOM     24  O   UNL     1       3.781  15.652  13.637  1.00  0.00    -0.507 OA
ATOM     25  H   UNL     1       2.902  15.547  13.154  1.00  0.00     0.293 HD
ENDBRANCH   6  24
BRANCH   8  26
ATOM     26  O   UNL     1       3.393  20.176  15.149  1.00  0.00    -0.508 OA
ATOM     27  H   UNL     1       4.042  20.946  15.254  1.00  0.00     0.293 HD
ENDBRANCH   8  26
TORSDOF 6
ENDMDL
MODEL 5
REMARK VINA RESULT:    -6.761      2.116      6.945
REMARK INTER + INTRA:          -8.440
REMARK INTER:                  -8.107
REMARK INTRA:                  -0.333
REMARK UNBOUND:                -0.296
REMARK SMILES O=c1c(O)c(-c2ccc(O)c(O)c2)oc2cc(O)cc(O)c12
REMARK SMILES IDX 5 1 3 2 2 3 1 4 22 5 20 6 19 7 17 8 16 9 15 10 14 11 6 12
REMARK SMILES IDX 7 13 8 14 9 15 13 16 11 17 10 18 12 20 4 22 21 24 18 26
REMARK H PARENT 10 19 12 21 4 23 21 25 18 27
REMARK Flexibility Score: inf
ROOT
ATOM      1  C   UNL     1       4.377  16.703  18.461  1.00  0.00     0.180 A 
ATOM      2  C   UNL     1       3.351  15.986  19.102  1.00  0.00     0.208 A 
ATOM      3  C   UNL     1       3.618  15.370  20.335  1.00  0.00     0.238 A 
ATOM      4  O   UNL     1       2.681  14.776  20.929  1.00  0.00    -0.285 OA
ATOM      5  C   UNL     1       4.911  15.463  20.903  1.00  0.00     0.111 A 
ATOM      6  C   UNL     1       5.305  14.844  22.127  1.00  0.00     0.134 A 
ATOM      7  C   UNL     1       6.572  15.112  22.661  1.00  0.00     0.093 A 
ATOM      8  C   UNL     1       7.481  15.922  21.984  1.00  0.00     0.123 A 
ATOM      9  C   UNL     1       7.129  16.485  20.756  1.00  0.00     0.094 A 
ATOM     10  C   UNL     1       5.860  16.265  20.216  1.00  0.00     0.146 A 
ATOM     11  O   UNL     1       5.560  16.827  19.051  1.00  0.00    -0.452 OA
ENDROOT
BRANCH   1  12
ATOM     12  C   UNL     1       4.179  17.358  17.148  1.00  0.00     0.025 A 
ATOM     13  C   UNL     1       4.406  16.671  15.946  1.00  0.00     0.016 A 
ATOM     14  C   UNL     1       4.235  17.317  14.720  1.00  0.00     0.051 A 
ATOM     15  C   UNL     1       3.849  18.660  14.669  1.00  0.00     0.157 A 
ATOM     16  C   UNL     1       3.812  18.713  17.100  1.00  0.00     0.062 A 
ATOM     17  C   UNL     1       3.638  19.370  15.875  1.00  0.00     0.158 A 
BRANCH  15  18
ATOM     18  O   UNL     1       3.692  19.247  13.411  1.00  0.00    -0.504 OA
ATOM     19  H   UNL     1       4.456  19.597  12.852  1.00  0.00     0.293 HD
ENDBRANCH  15  18
BRANCH  17  20
ATOM     20  O   UNL     1       3.261  20.714  15.904  1.00  0.00    -0.504 OA
ATOM     21  H   UNL     1       3.914  21.483  15.956  1.00  0.00     0.293 HD
ENDBRANCH  17  20
ENDBRANCH   1  12
BRANCH   2  22
ATOM     22  O   UNL     1       2.076  15.925  18.533  1.00  0.00    -0.502 OA
ATOM     23  H   UNL     1       1.560  15.057  18.447  1.00  0.00     0.293 HD
ENDBRANCH   2  22
BRANCH   6  24
ATOM     24  O   UNL     1       4.506  13.944  22.839  1.00  0.00    -0.507 OA
ATOM     25  H   UNL     1       4.021  14.160  23.697  1.00  0.00     0.293 HD
ENDBRANCH   6  24
BRANCH   8  26
ATOM     26  O   UNL     1       8.740  16.154  22.537  1.00  0.00    -0.508 OA
ATOM     27  H   UNL     1       9.519  15.531  22.361  1.00  0.00     0.293 HD
ENDBRANCH   8  26
TORSDOF 6
ENDMDL
MODEL 6
REMARK VINA RESULT:    -6.619      1.679      6.931
REMARK INTER + INTRA:          -8.269
REMARK INTER:                  -7.981
REMARK INTRA:                  -0.288
REMARK UNBOUND:                -0.296
REMARK SMILES O=c1c(O)c(-c2ccc(O)c(O)c2)oc2cc(O)cc(O)c12
REMARK SMILES IDX 5 1 3 2 2 3 1 4 22 5 20 6 19 7 17 8 16 9 15 10 14 11 6 12
REMARK SMILES IDX 7 13 8 14 9 15 13 16 11 17 10 18 12 20 4 22 21 24 18 26
REMARK H PARENT 10 19 12 21 4 23 21 25 18 27
REMARK Flexibility Score: inf
ROOT
ATOM      1  C   UNL     1       4.494  16.692  18.292  1.00  0.00     0.180 A 
ATOM      2  C   UNL     1       3.422  16.119  18.998  1.00  0.00     0.208 A 
ATOM      3  C   UNL     1       3.663  15.553  20.260  1.00  0.00     0.238 A 
ATOM      4  O   UNL     1       2.688  15.090  20.910  1.00  0.00    -0.285 OA
ATOM      5  C   UNL     1       4.974  15.549  20.793  1.00  0.00     0.111 A 
ATOM      6  C   UNL     1       5.340  14.967  22.043  1.00  0.00     0.134 A 
ATOM      7  C   UNL     1       6.642  15.137  22.531  1.00  0.00     0.093 A 
ATOM      8  C   UNL     1       7.607  15.812  21.785  1.00  0.00     0.123 A 
ATOM      9  C   UNL     1       7.276  16.335  20.533  1.00  0.00     0.094 A 
ATOM     10  C   UNL     1       5.977  16.212  20.036  1.00  0.00     0.146 A 
ATOM     11  O   UNL     1       5.700  16.732  18.847  1.00  0.00    -0.452 OA
ENDROOT
BRANCH   1  12
ATOM     12  C   UNL     1       4.324  17.286  16.947  1.00  0.00     0.025 A 
ATOM     13  C   UNL     1       4.208  18.673  16.769  1.00  0.00     0.016 A 
ATOM     14  C   UNL     1       4.024  19.208  15.493  1.00  0.00     0.051 A 
ATOM     15  C   UNL     1       3.938  18.373  14.374  1.00  0.00     0.157 A 
ATOM     16  C   UNL     1       4.217  16.444  15.828  1.00  0.00     0.062 A 
ATOM     17  C   UNL     1       4.032  16.972  14.543  1.00  0.00     0.158 A 
BRANCH  15  18
ATOM     18  O   UNL     1       3.758  18.972  13.125  1.00  0.00    -0.504 OA
ATOM     19  H   UNL     1       3.061  18.681  12.455  1.00  0.00     0.293 HD
ENDBRANCH  15  18
BRANCH  17  20
ATOM     20  O   UNL     1       3.947  16.075  13.477  1.00  0.00    -0.504 OA
ATOM     21  H   UNL     1       3.082  15.676  13.142  1.00  0.00     0.293 HD
ENDBRANCH  17  20
ENDBRANCH   1  12
BRANCH   2  22
ATOM     22  O   UNL     1       2.131  16.152  18.463  1.00  0.00    -0.502 OA
ATOM     23  H   UNL     1       1.953  16.339  17.484  1.00  0.00     0.293 HD
ENDBRANCH   2  22
BRANCH   6  24
ATOM     24  O   UNL     1       4.477  14.193  22.826  1.00  0.00    -0.507 OA
ATOM     25  H   UNL     1       4.660  13.914  23.778  1.00  0.00     0.293 HD
ENDBRANCH   6  24
BRANCH   8  26
ATOM     26  O   UNL     1       8.897  15.950  22.294  1.00  0.00    -0.508 OA
ATOM     27  H   UNL     1       9.638  16.376  21.750  1.00  0.00     0.293 HD
ENDBRANCH   8  26
TORSDOF 6
ENDMDL
MODEL 7
REMARK VINA RESULT:    -6.462      2.055      6.869
REMARK INTER + INTRA:          -8.080
REMARK INTER:                  -7.821
REMARK INTRA:                  -0.259
REMARK UNBOUND:                -0.296
REMARK SMILES O=c1c(O)c(-c2ccc(O)c(O)c2)oc2cc(O)cc(O)c12
REMARK SMILES IDX 5 1 3 2 2 3 1 4 22 5 20 6 19 7 17 8 16 9 15 10 14 11 6 12
REMARK SMILES IDX 7 13 8 14 9 15 13 16 11 17 10 18 12 20 4 22 21 24 18 26
REMARK H PARENT 10 19 12 21 4 23 21 25 18 27
REMARK Flexibility Score: inf
ROOT
ATOM      1  C   UNL     1       4.905  16.680  18.112  1.00  0.00     0.180 A 
ATOM      2  C   UNL     1       6.152  16.819  18.747  1.00  0.00     0.208 A 
ATOM      3  C   UNL     1       6.332  16.265  20.024  1.00  0.00     0.238 A 
ATOM      4  O   UNL     1       7.467  16.346  20.563  1.00  0.00    -0.285 OA
ATOM      5  C   UNL     1       5.259  15.594  20.658  1.00  0.00     0.111 A 
ATOM      6  C   UNL     1       5.316  15.030  21.968  1.00  0.00     0.134 A 
ATOM      7  C   UNL     1       4.236  14.275  22.444  1.00  0.00     0.093 A 
ATOM      8  C   UNL     1       3.078  14.119  21.685  1.00  0.00     0.123 A 
ATOM      9  C   UNL     1       2.987  14.717  20.426  1.00  0.00     0.094 A 
ATOM     10  C   UNL     1       4.061  15.445  19.910  1.00  0.00     0.146 A 
ATOM     11  O   UNL     1       3.939  15.989  18.705  1.00  0.00    -0.452 OA
ENDROOT
BRANCH   1  12
ATOM     12  C   UNL     1       4.632  17.258  16.776  1.00  0.00     0.025 A 
ATOM     13  C   UNL     1       4.489  18.642  16.594  1.00  0.00     0.016 A 
ATOM     14  C   UNL     1       4.208  19.162  15.329  1.00  0.00     0.051 A 
ATOM     15  C   UNL     1       4.051  18.314  14.228  1.00  0.00     0.157 A 
ATOM     16  C   UNL     1       4.454  16.404  15.676  1.00  0.00     0.062 A 
ATOM     17  C   UNL     1       4.172  16.916  14.403  1.00  0.00     0.158 A 
BRANCH  15  18
ATOM     18  O   UNL     1       3.775  18.898  12.989  1.00  0.00    -0.504 OA
ATOM     19  H   UNL     1       3.623  18.374  12.140  1.00  0.00     0.293 HD
ENDBRANCH  15  18
BRANCH  17  20
ATOM     20  O   UNL     1       4.020  16.007  13.355  1.00  0.00    -0.504 OA
ATOM     21  H   UNL     1       3.931  15.009  13.480  1.00  0.00     0.293 HD
ENDBRANCH  17  20
ENDBRANCH   1  12
BRANCH   2  22
ATOM     22  O   UNL     1       7.204  17.467  18.093  1.00  0.00    -0.502 OA
ATOM     23  H   UNL     1       8.089  17.659  18.546  1.00  0.00     0.293 HD
ENDBRANCH   2  22
BRANCH   6  24
ATOM     24  O   UNL     1       6.391  15.203  22.846  1.00  0.00    -0.507 OA
ATOM     25  H   UNL     1       7.329  15.442  22.565  1.00  0.00     0.293 HD
ENDBRANCH   6  24
BRANCH   8  26
ATOM     26  O   UNL     1       2.016  13.375  22.196  1.00  0.00    -0.508 OA
ATOM     27  H   UNL     1       1.515  13.668  23.026  1.00  0.00     0.293 HD
ENDBRANCH   8  26
TORSDOF 6
ENDMDL
MODEL 8
REMARK VINA RESULT:    -6.208      3.069      5.677
REMARK INTER + INTRA:          -7.773
REMARK INTER:                  -7.543
REMARK INTRA:                  -0.231
REMARK UNBOUND:                -0.296
REMARK SMILES O=c1c(O)c(-c2ccc(O)c(O)c2)oc2cc(O)cc(O)c12
REMARK SMILES IDX 5 1 3 2 2 3 1 4 22 5 20 6 19 7 17 8 16 9 15 10 14 11 6 12
REMARK SMILES IDX 7 13 8 14 9 15 13 16 11 17 10 18 12 20 4 22 21 24 18 26
REMARK H PARENT 10 19 12 21 4 23 21 25 18 27
REMARK Flexibility Score: inf
ROOT
ATOM      1  C   UNL     1       3.692  17.532  16.172  1.00  0.00     0.180 A 
ATOM      2  C   UNL     1       3.562  17.182  14.817  1.00  0.00     0.208 A 
ATOM      3  C   UNL     1       3.930  15.890  14.409  1.00  0.00     0.238 A 
ATOM      4  O   UNL     1       3.759  15.566  13.204  1.00  0.00    -0.285 OA
ATOM      5  C   UNL     1       4.439  14.970  15.357  1.00  0.00     0.111 A 
ATOM      6  C   UNL     1       4.880  13.649  15.048  1.00  0.00     0.134 A 
ATOM      7  C   UNL     1       5.242  12.780  16.085  1.00  0.00     0.093 A 
ATOM      8  C   UNL     1       5.241  13.205  17.412  1.00  0.00     0.123 A 
ATOM      9  C   UNL     1       4.868  14.514  17.722  1.00  0.00     0.094 A 
ATOM     10  C   UNL     1       4.468  15.393  16.712  1.00  0.00     0.146 A 
ATOM     11  O   UNL     1       4.111  16.626  17.048  1.00  0.00    -0.452 OA
ENDROOT
BRANCH   1  12
ATOM     12  C   UNL     1       3.348  18.882  16.674  1.00  0.00     0.025 A 
ATOM     13  C   UNL     1       2.192  19.107  17.435  1.00  0.00     0.016 A 
ATOM     14  C   UNL     1       1.876  20.394  17.877  1.00  0.00     0.051 A 
ATOM     15  C   UNL     1       2.698  21.480  17.557  1.00  0.00     0.157 A 
ATOM     16  C   UNL     1       4.163  19.974  16.334  1.00  0.00     0.062 A 
ATOM     17  C   UNL     1       3.856  21.269  16.772  1.00  0.00     0.158 A 
BRANCH  15  18
ATOM     18  O   UNL     1       2.329  22.740  18.033  1.00  0.00    -0.504 OA
ATOM     19  H   UNL     1       2.869  23.273  18.698  1.00  0.00     0.293 HD
ENDBRANCH  15  18
BRANCH  17  20
ATOM     20  O   UNL     1       4.718  22.303  16.405  1.00  0.00    -0.504 OA
ATOM     21  H   UNL     1       4.452  23.078  15.815  1.00  0.00     0.293 HD
ENDBRANCH  17  20
ENDBRANCH   1  12
BRANCH   2  22
ATOM     22  O   UNL     1       3.037  18.099  13.902  1.00  0.00    -0.502 OA
ATOM     23  H   UNL     1       2.750  17.832  12.968  1.00  0.00     0.293 HD
ENDBRANCH   2  22
BRANCH   6  24
ATOM     24  O   UNL     1       5.007  13.152  13.747  1.00  0.00    -0.507 OA
ATOM     25  H   UNL     1       4.886  12.186  13.486  1.00  0.00     0.293 HD
ENDBRANCH   6  24
BRANCH   8  26
ATOM     26  O   UNL     1       5.623  12.319  18.419  1.00  0.00    -0.508 OA
ATOM     27  H   UNL     1       5.227  11.389  18.483  1.00  0.00     0.293 HD
ENDBRANCH   8  26
TORSDOF 6
ENDMDL
MODEL 9
REMARK VINA RESULT:    -6.133      3.496      4.200
REMARK INTER + INTRA:          -7.684
REMARK INTER:                  -7.439
REMARK INTRA:                  -0.245
REMARK UNBOUND:                -0.296
REMARK SMILES O=c1c(O)c(-c2ccc(O)c(O)c2)oc2cc(O)cc(O)c12
REMARK SMILES IDX 5 1 3 2 2 3 1 4 22 5 20 6 19 7 17 8 16 9 15 10 14 11 6 12
REMARK SMILES IDX 7 13 8 14 9 15 13 16 11 17 10 18 12 20 4 22 21 24 18 26
REMARK H PARENT 10 19 12 21 4 23 21 25 18 27
REMARK Flexibility Score: inf
ROOT
ATOM      1  C   UNL     1       4.018  15.081  16.359  1.00  0.00     0.180 A 
ATOM      2  C   UNL     1       3.885  16.219  17.174  1.00  0.00     0.208 A 
ATOM      3  C   UNL     1       3.760  17.480  16.568  1.00  0.00     0.238 A 
ATOM      4  O   UNL     1       3.587  18.488  17.302  1.00  0.00    -0.285 OA
ATOM      5  C   UNL     1       3.788  17.589  15.157  1.00  0.00     0.111 A 
ATOM      6  C   UNL     1       3.711  18.819  14.437  1.00  0.00     0.134 A 
ATOM      7  C   UNL     1       3.616  18.798  13.040  1.00  0.00     0.093 A 
ATOM      8  C   UNL     1       3.660  17.597  12.334  1.00  0.00     0.123 A 
ATOM      9  C   UNL     1       3.795  16.391  13.024  1.00  0.00     0.094 A 
ATOM     10  C   UNL     1       3.857  16.378  14.419  1.00  0.00     0.146 A 
ATOM     11  O   UNL     1       3.975  15.209  15.039  1.00  0.00    -0.452 OA
ENDROOT
BRANCH   1  12
ATOM     12  C   UNL     1       4.179  13.722  16.925  1.00  0.00     0.025 A 
ATOM     13  C   UNL     1       3.105  13.048  17.525  1.00  0.00     0.016 A 
ATOM     14  C   UNL     1       3.287  11.777  18.073  1.00  0.00     0.051 A 
ATOM     15  C   UNL     1       4.542  11.160  18.045  1.00  0.00     0.157 A 
ATOM     16  C   UNL     1       5.445  13.115  16.915  1.00  0.00     0.062 A 
ATOM     17  C   UNL     1       5.638  11.840  17.462  1.00  0.00     0.158 A 
BRANCH  15  18
ATOM     18  O   UNL     1       4.657   9.887  18.606  1.00  0.00    -0.504 OA
ATOM     19  H   UNL     1       4.766   9.040  18.068  1.00  0.00     0.293 HD
ENDBRANCH  15  18
BRANCH  17  20
ATOM     20  O   UNL     1       6.921  11.294  17.405  1.00  0.00    -0.504 OA
ATOM     21  H   UNL     1       7.165  10.386  17.774  1.00  0.00     0.293 HD
ENDBRANCH  17  20
ENDBRANCH   1  12
BRANCH   2  22
ATOM     22  O   UNL     1       3.839  16.086  18.565  1.00  0.00    -0.502 OA
ATOM     23  H   UNL     1       3.687  15.195  19.021  1.00  0.00     0.293 HD
ENDBRANCH   2  22
BRANCH   6  24
ATOM     24  O   UNL     1       3.752  20.080  15.040  1.00  0.00    -0.507 OA
ATOM     25  H   UNL     1       4.379  20.824  14.774  1.00  0.00     0.293 HD
ENDBRANCH   6  24
BRANCH   8  26
ATOM     26  O   UNL     1       3.579  17.614  10.943  1.00  0.00    -0.508 OA
ATOM     27  H   UNL     1       2.840  17.127  10.449  1.00  0.00     0.293 HD
ENDBRANCH   8  26
TORSDOF 6
ENDMDL
