MODEL 1
REMARK VINA RESULT:    -3.828      0.000      0.000
REMARK INTER + INTRA:          -4.833
REMARK INTER:                  -4.611
REMARK INTRA:                  -0.222
REMARK UNBOUND:                -0.222
REMARK SMILES OCC(O)CO
REMARK SMILES IDX 3 1 5 2 6 3 2 5 1 6 4 8
REMARK H PARENT 6 4 1 7 4 9
REMARK Flexibility Score: inf
ROOT
ATOM      1  C   UNL     1       3.082  49.522  -8.474  1.00  0.00     0.165 C 
ENDROOT
BRANCH   1   2
ATOM      2  C   UNL     1       2.313  48.592  -9.423  1.00  0.00     0.190 C 
BRANCH   2   3
ATOM      3  O   UNL     1       2.194  49.170 -10.694  1.00  0.00    -0.394 OA
ATOM      4  H   UNL     1       1.343  49.679 -10.686  1.00  0.00     0.210 HD
ENDBRANCH   2   3
ENDBRANCH   1   2
BRANCH   1   5
ATOM      5  C   UNL     1       2.969  50.996  -8.895  1.00  0.00     0.190 C 
BRANCH   5   6
ATOM      6  O   UNL     1       3.940  51.310  -9.856  1.00  0.00    -0.394 OA
ATOM      7  H   UNL     1       4.634  50.603  -9.788  1.00  0.00     0.210 HD
ENDBRANCH   5   6
ENDBRANCH   1   5
BRANCH   1   8
ATOM      8  O   UNL     1       2.612  49.350  -7.163  1.00  0.00    -0.388 OA
ATOM      9  H   UNL     1       3.045  50.051  -6.608  1.00  0.00     0.211 HD
ENDBRANCH   1   8
TORSDOF 5
ENDMDL
MODEL 2
REMARK VINA RESULT:    -3.821      1.444      3.324
REMARK INTER + INTRA:          -4.825
REMARK INTER:                  -4.602
REMARK INTRA:                  -0.223
REMARK UNBOUND:                -0.222
REMARK SMILES OCC(O)CO
REMARK SMILES IDX 3 1 5 2 6 3 2 5 1 6 4 8
REMARK H PARENT 6 4 1 7 4 9
REMARK Flexibility Score: inf
ROOT
ATOM      1  C   UNL     1       4.081  50.377  -8.764  1.00  0.00     0.165 C 
ENDROOT
BRANCH   1   2
ATOM      2  C   UNL     1       3.632  51.832  -8.566  1.00  0.00     0.190 C 
BRANCH   2   3
ATOM      3  O   UNL     1       3.489  52.124  -7.203  1.00  0.00    -0.394 OA
ATOM      4  H   UNL     1       3.041  51.338  -6.798  1.00  0.00     0.210 HD
ENDBRANCH   2   3
ENDBRANCH   1   2
BRANCH   1   5
ATOM      5  C   UNL     1       2.936  49.382  -8.518  1.00  0.00     0.190 C 
BRANCH   5   6
ATOM      6  O   UNL     1       2.656  49.280  -7.148  1.00  0.00    -0.394 OA
ATOM      7  H   UNL     1       1.688  49.073  -7.080  1.00  0.00     0.210 HD
ENDBRANCH   5   6
ENDBRANCH   1   5
BRANCH   1   8
ATOM      8  O   UNL     1       4.600  50.217 -10.058  1.00  0.00    -0.388 OA
ATOM      9  H   UNL     1       3.998  49.586 -10.533  1.00  0.00     0.211 HD
ENDBRANCH   1   8
TORSDOF 5
ENDMDL
MODEL 3
REMARK VINA RESULT:    -3.819      0.820      2.268
REMARK INTER + INTRA:          -4.822
REMARK INTER:                  -4.602
REMARK INTRA:                  -0.220
REMARK UNBOUND:                -0.222
REMARK SMILES OCC(O)CO
REMARK SMILES IDX 3 1 5 2 6 3 2 5 1 6 4 8
REMARK H PARENT 6 4 1 7 4 9
REMARK Flexibility Score: inf
ROOT
ATOM      1  C   UNL     1       2.751  49.694  -8.521  1.00  0.00     0.165 C 
ENDROOT
BRANCH   1   2
ATOM      2  C   UNL     1       4.099  50.390  -8.757  1.00  0.00     0.190 C 
BRANCH   2   3
ATOM      3  O   UNL     1       4.616  50.051 -10.015  1.00  0.00    -0.394 OA
ATOM      4  H   UNL     1       3.888  50.218 -10.666  1.00  0.00     0.210 HD
ENDBRANCH   2   3
ENDBRANCH   1   2
BRANCH   1   5
ATOM      5  C   UNL     1       2.555  48.485  -9.449  1.00  0.00     0.190 C 
BRANCH   5   6
ATOM      6  O   UNL     1       2.087  48.897 -10.704  1.00  0.00    -0.394 OA
ATOM      7  H   UNL     1       1.686  49.795 -10.566  1.00  0.00     0.210 HD
ENDBRANCH   5   6
ENDBRANCH   1   5
BRANCH   1   8
ATOM      8  O   UNL     1       2.654  49.301  -7.177  1.00  0.00    -0.388 OA
ATOM      9  H   UNL     1       3.342  48.599  -7.033  1.00  0.00     0.211 HD
ENDBRANCH   1   8
TORSDOF 5
ENDMDL
MODEL 4
REMARK VINA RESULT:    -3.746      1.473      2.724
REMARK INTER + INTRA:          -4.734
REMARK INTER:                  -4.720
REMARK INTRA:                  -0.014
REMARK UNBOUND:                -0.222
REMARK SMILES OCC(O)CO
REMARK SMILES IDX 3 1 5 2 6 3 2 5 1 6 4 8
REMARK H PARENT 6 4 1 7 4 9
REMARK Flexibility Score: inf
ROOT
ATOM      1  C   UNL     1       3.261  51.056  -8.595  1.00  0.00     0.165 C 
ENDROOT
BRANCH   1   2
ATOM      2  C   UNL     1       4.508  51.265  -9.467  1.00  0.00     0.190 C 
BRANCH   2   3
ATOM      3  O   UNL     1       4.825  50.092 -10.164  1.00  0.00    -0.394 OA
ATOM      4  H   UNL     1       3.963  49.716 -10.477  1.00  0.00     0.210 HD
ENDBRANCH   2   3
ENDBRANCH   1   2
BRANCH   1   5
ATOM      5  C   UNL     1       2.937  49.567  -8.400  1.00  0.00     0.190 C 
BRANCH   5   6
ATOM      6  O   UNL     1       2.573  49.312  -7.070  1.00  0.00    -0.394 OA
ATOM      7  H   UNL     1       3.019  48.460  -6.821  1.00  0.00     0.210 HD
ENDBRANCH   5   6
ENDBRANCH   1   5
BRANCH   1   8
ATOM      8  O   UNL     1       3.445  51.685  -7.354  1.00  0.00    -0.388 OA
ATOM      9  H   UNL     1       2.711  51.372  -6.762  1.00  0.00     0.211 HD
ENDBRANCH   1   8
TORSDOF 5
ENDMDL
MODEL 5
REMARK VINA RESULT:    -3.720      1.188      2.953
REMARK INTER + INTRA:          -4.703
REMARK INTER:                  -4.549
REMARK INTRA:                  -0.154
REMARK UNBOUND:                -0.222
REMARK SMILES OCC(O)CO
REMARK SMILES IDX 3 1 5 2 6 3 2 5 1 6 4 8
REMARK H PARENT 6 4 1 7 4 9
REMARK Flexibility Score: inf
ROOT
ATOM      1  C   UNL     1       3.162  49.780  -9.485  1.00  0.00     0.165 C 
ENDROOT
BRANCH   1   2
ATOM      2  C   UNL     1       3.511  49.904  -7.995  1.00  0.00     0.190 C 
BRANCH   2   3
ATOM      3  O   UNL     1       2.589  49.199  -7.211  1.00  0.00    -0.394 OA
ATOM      4  H   UNL     1       2.327  48.404  -7.742  1.00  0.00     0.210 HD
ENDBRANCH   2   3
ENDBRANCH   1   2
BRANCH   1   5
ATOM      5  C   UNL     1       2.180  48.628  -9.753  1.00  0.00     0.190 C 
BRANCH   5   6
ATOM      6  O   UNL     1       2.867  47.414  -9.883  1.00  0.00    -0.394 OA
ATOM      7  H   UNL     1       3.381  47.297  -9.041  1.00  0.00     0.210 HD
ENDBRANCH   5   6
ENDBRANCH   1   5
BRANCH   1   8
ATOM      8  O   UNL     1       2.632  50.994  -9.947  1.00  0.00    -0.388 OA
ATOM      9  H   UNL     1       2.518  51.579  -9.151  1.00  0.00     0.211 HD
ENDBRANCH   1   8
TORSDOF 5
ENDMDL
MODEL 6
REMARK VINA RESULT:    -3.676      1.216      2.331
REMARK INTER + INTRA:          -4.650
REMARK INTER:                  -4.447
REMARK INTRA:                  -0.203
REMARK UNBOUND:                -0.222
REMARK SMILES OCC(O)CO
REMARK SMILES IDX 3 1 5 2 6 3 2 5 1 6 4 8
REMARK H PARENT 6 4 1 7 4 9
REMARK Flexibility Score: inf
ROOT
ATOM      1  C   UNL     1       3.048  49.911  -9.458  1.00  0.00     0.165 C 
ENDROOT
BRANCH   1   2
ATOM      2  C   UNL     1       2.165  48.688  -9.747  1.00  0.00     0.190 C 
BRANCH   2   3
ATOM      3  O   UNL     1       2.939  47.521  -9.799  1.00  0.00    -0.394 OA
ATOM      4  H   UNL     1       3.882  47.819  -9.870  1.00  0.00     0.210 HD
ENDBRANCH   2   3
ENDBRANCH   1   2
BRANCH   1   5
ATOM      5  C   UNL     1       3.326  50.080  -7.956  1.00  0.00     0.190 C 
BRANCH   5   6
ATOM      6  O   UNL     1       2.560  49.175  -7.208  1.00  0.00    -0.394 OA
ATOM      7  H   UNL     1       1.876  49.718  -6.736  1.00  0.00     0.210 HD
ENDBRANCH   5   6
ENDBRANCH   1   5
BRANCH   1   8
ATOM      8  O   UNL     1       4.253  49.799 -10.170  1.00  0.00    -0.388 OA
ATOM      9  H   UNL     1       4.850  49.215  -9.633  1.00  0.00     0.211 HD
ENDBRANCH   1   8
TORSDOF 5
ENDMDL
MODEL 7
REMARK VINA RESULT:    -3.663      1.191      2.397
REMARK INTER + INTRA:          -4.635
REMARK INTER:                  -4.413
REMARK INTRA:                  -0.222
REMARK UNBOUND:                -0.222
REMARK SMILES OCC(O)CO
REMARK SMILES IDX 3 1 5 2 6 3 2 5 1 6 4 8
REMARK H PARENT 6 4 1 7 4 9
REMARK Flexibility Score: inf
ROOT
ATOM      1  C   UNL     1       2.903  50.196  -9.286  1.00  0.00     0.165 C 
ENDROOT
BRANCH   1   2
ATOM      2  C   UNL     1       2.714  48.946  -8.416  1.00  0.00     0.190 C 
BRANCH   2   3
ATOM      3  O   UNL     1       2.551  49.301  -7.070  1.00  0.00    -0.394 OA
ATOM      4  H   UNL     1       2.935  48.555  -6.540  1.00  0.00     0.210 HD
ENDBRANCH   2   3
ENDBRANCH   1   2
BRANCH   1   5
ATOM      5  C   UNL     1       4.347  50.720  -9.238  1.00  0.00     0.190 C 
BRANCH   5   6
ATOM      6  O   UNL     1       4.727  50.999  -7.918  1.00  0.00    -0.394 OA
ATOM      7  H   UNL     1       5.200  50.189  -7.591  1.00  0.00     0.210 HD
ENDBRANCH   5   6
ENDBRANCH   1   5
BRANCH   1   8
ATOM      8  O   UNL     1       2.530  49.909 -10.608  1.00  0.00    -0.388 OA
ATOM      9  H   UNL     1       2.455  50.779 -11.081  1.00  0.00     0.211 HD
ENDBRANCH   1   8
TORSDOF 5
ENDMDL
MODEL 8
REMARK VINA RESULT:    -3.137      1.430      2.577
REMARK INTER + INTRA:          -4.001
REMARK INTER:                  -3.778
REMARK INTRA:                  -0.223
REMARK UNBOUND:                -0.222
REMARK SMILES OCC(O)CO
REMARK SMILES IDX 3 1 5 2 6 3 2 5 1 6 4 8
REMARK H PARENT 6 4 1 7 4 9
REMARK Flexibility Score: inf
ROOT
ATOM      1  C   UNL     1       2.939  50.295  -8.407  1.00  0.00     0.165 C 
ENDROOT
BRANCH   1   2
ATOM      2  C   UNL     1       3.712  51.568  -8.035  1.00  0.00     0.190 C 
BRANCH   2   3
ATOM      3  O   UNL     1       4.974  51.246  -7.519  1.00  0.00    -0.394 OA
ATOM      4  H   UNL     1       4.908  51.365  -6.536  1.00  0.00     0.210 HD
ENDBRANCH   2   3
ENDBRANCH   1   2
BRANCH   1   5
ATOM      5  C   UNL     1       3.591  49.544  -9.578  1.00  0.00     0.190 C 
BRANCH   5   6
ATOM      6  O   UNL     1       4.493  50.376 -10.256  1.00  0.00    -0.394 OA
ATOM      7  H   UNL     1       3.943  50.954 -10.847  1.00  0.00     0.210 HD
ENDBRANCH   5   6
ENDBRANCH   1   5
BRANCH   1   8
ATOM      8  O   UNL     1       2.841  49.460  -7.283  1.00  0.00    -0.388 OA
ATOM      9  H   UNL     1       2.000  49.705  -6.815  1.00  0.00     0.211 HD
ENDBRANCH   1   8
TORSDOF 5
ENDMDL
MODEL 9
REMARK VINA RESULT:    -3.050     20.650     21.645
REMARK INTER + INTRA:          -3.896
REMARK INTER:                  -3.672
REMARK INTRA:                  -0.223
REMARK UNBOUND:                -0.222
REMARK SMILES OCC(O)CO
REMARK SMILES IDX 3 1 5 2 6 3 2 5 1 6 4 8
REMARK H PARENT 6 4 1 7 4 9
REMARK Flexibility Score: inf
ROOT
ATOM      1  C   UNL     1      -8.260  37.557 -22.254  1.00  0.00     0.165 C 
ENDROOT
BRANCH   1   2
ATOM      2  C   UNL     1      -6.766  37.859 -22.442  1.00  0.00     0.190 C 
BRANCH   2   3
ATOM      3  O   UNL     1      -6.153  36.857 -23.207  1.00  0.00    -0.394 OA
ATOM      4  H   UNL     1      -5.207  36.824 -22.908  1.00  0.00     0.210 HD
ENDBRANCH   2   3
ENDBRANCH   1   2
BRANCH   1   5
ATOM      5  C   UNL     1      -8.789  36.578 -23.315  1.00  0.00     0.190 C 
BRANCH   5   6
ATOM      6  O   UNL     1      -8.618  35.253 -22.892  1.00  0.00    -0.394 OA
ATOM      7  H   UNL     1      -9.496  34.808 -23.022  1.00  0.00     0.210 HD
ENDBRANCH   5   6
ENDBRANCH   1   5
BRANCH   1   8
ATOM      8  O   UNL     1      -8.478  37.046 -20.965  1.00  0.00    -0.388 OA
ATOM      9  H   UNL     1      -9.245  37.549 -20.583  1.00  0.00     0.211 HD
ENDBRANCH   1   8
TORSDOF 5
ENDMDL
