MODEL 1
REMARK VINA RESULT:    -3.091      0.000      0.000
REMARK INTER + INTRA:          -3.755
REMARK INTER:                  -3.724
REMARK INTRA:                  -0.031
REMARK UNBOUND:                -0.031
REMARK SMILES CCCCCO
REMARK SMILES IDX 4 1 3 2 2 3 1 4 5 5 6 6
REMARK H PARENT 6 7
REMARK Flexibility Score: inf
ROOT
ATOM      1  C   UNL     1     180.664 166.909 182.910  1.00  0.00     0.028 C 
ENDROOT
BRANCH   1   2
ATOM      2  C   UNL     1     180.235 167.542 184.238  1.00  0.00     0.002 C 
BRANCH   2   3
ATOM      3  C   UNL     1     178.862 168.210 184.112  1.00  0.00    -0.003 C 
ATOM      4  C   UNL     1     178.173 168.319 185.469  1.00  0.00     0.004 C 
ENDBRANCH   2   3
ENDBRANCH   1   2
BRANCH   1   5
ATOM      5  C   UNL     1     181.089 165.451 183.105  1.00  0.00     0.156 C 
BRANCH   5   6
ATOM      6  O   UNL     1     179.964 164.615 183.106  1.00  0.00    -0.396 OA
ATOM      7  H   UNL     1     179.545 164.702 182.210  1.00  0.00     0.210 HD
ENDBRANCH   5   6
ENDBRANCH   1   5
TORSDOF 4
ENDMDL
MODEL 2
REMARK VINA RESULT:    -3.067      3.149      4.795
REMARK INTER + INTRA:          -3.727
REMARK INTER:                  -3.683
REMARK INTRA:                  -0.044
REMARK UNBOUND:                -0.031
REMARK SMILES CCCCCO
REMARK SMILES IDX 4 1 3 2 2 3 1 4 5 5 6 6
REMARK H PARENT 6 7
REMARK Flexibility Score: inf
ROOT
ATOM      1  C   UNL     1     177.147 169.391 185.386  1.00  0.00     0.028 C 
ENDROOT
BRANCH   1   2
ATOM      2  C   UNL     1     178.326 168.412 185.426  1.00  0.00     0.002 C 
BRANCH   2   3
ATOM      3  C   UNL     1     179.007 168.314 184.057  1.00  0.00    -0.003 C 
ATOM      4  C   UNL     1     180.300 167.508 184.140  1.00  0.00     0.004 C 
ENDBRANCH   2   3
ENDBRANCH   1   2
BRANCH   1   5
ATOM      5  C   UNL     1     177.462 170.668 186.169  1.00  0.00     0.156 C 
BRANCH   5   6
ATOM      6  O   UNL     1     178.670 170.522 186.866  1.00  0.00    -0.396 OA
ATOM      7  H   UNL     1     178.897 171.417 187.231  1.00  0.00     0.210 HD
ENDBRANCH   5   6
ENDBRANCH   1   5
TORSDOF 4
ENDMDL
MODEL 3
REMARK VINA RESULT:    -3.062      1.655      2.276
REMARK INTER + INTRA:          -3.720
REMARK INTER:                  -3.691
REMARK INTRA:                  -0.028
REMARK UNBOUND:                -0.031
REMARK SMILES CCCCCO
REMARK SMILES IDX 4 1 3 2 2 3 1 4 5 5 6 6
REMARK H PARENT 6 7
REMARK Flexibility Score: inf
ROOT
ATOM      1  C   UNL     1     179.138 167.568 183.959  1.00  0.00     0.028 C 
ENDROOT
BRANCH   1   2
ATOM      2  C   UNL     1     178.722 168.979 184.390  1.00  0.00     0.002 C 
BRANCH   2   3
ATOM      3  C   UNL     1     178.022 168.953 185.754  1.00  0.00    -0.003 C 
ATOM      4  C   UNL     1     177.999 170.341 186.389  1.00  0.00     0.004 C 
ENDBRANCH   2   3
ENDBRANCH   1   2
BRANCH   1   5
ATOM      5  C   UNL     1     180.660 167.454 183.837  1.00  0.00     0.156 C 
BRANCH   5   6
ATOM      6  O   UNL     1     181.178 166.721 184.914  1.00  0.00    -0.396 OA
ATOM      7  H   UNL     1     180.404 166.290 185.362  1.00  0.00     0.210 HD
ENDBRANCH   5   6
ENDBRANCH   1   5
TORSDOF 4
ENDMDL
MODEL 4
REMARK VINA RESULT:    -3.054     15.256     16.480
REMARK INTER + INTRA:          -3.710
REMARK INTER:                  -3.658
REMARK INTRA:                  -0.052
REMARK UNBOUND:                -0.031
REMARK SMILES CCCCCO
REMARK SMILES IDX 4 1 3 2 2 3 1 4 5 5 6 6
REMARK H PARENT 6 7
REMARK Flexibility Score: inf
ROOT
ATOM      1  C   UNL     1     167.202 174.990 185.162  1.00  0.00     0.028 C 
ENDROOT
BRANCH   1   2
ATOM      2  C   UNL     1     166.154 176.105 185.252  1.00  0.00     0.002 C 
BRANCH   2   3
ATOM      3  C   UNL     1     165.550 176.404 183.875  1.00  0.00    -0.003 C 
ATOM      4  C   UNL     1     164.120 176.922 184.000  1.00  0.00     0.004 C 
ENDBRANCH   2   3
ENDBRANCH   1   2
BRANCH   1   5
ATOM      5  C   UNL     1     166.861 173.834 186.107  1.00  0.00     0.156 C 
BRANCH   5   6
ATOM      6  O   UNL     1     165.494 173.849 186.416  1.00  0.00    -0.396 OA
ATOM      7  H   UNL     1     165.038 174.309 185.663  1.00  0.00     0.210 HD
ENDBRANCH   5   6
ENDBRANCH   1   5
TORSDOF 4
ENDMDL
MODEL 5
REMARK VINA RESULT:    -3.054     17.411     18.707
REMARK INTER + INTRA:          -3.710
REMARK INTER:                  -3.660
REMARK INTRA:                  -0.050
REMARK UNBOUND:                -0.031
REMARK SMILES CCCCCO
REMARK SMILES IDX 4 1 3 2 2 3 1 4 5 5 6 6
REMARK H PARENT 6 7
REMARK Flexibility Score: inf
ROOT
ATOM      1  C   UNL     1     163.926 177.709 182.664  1.00  0.00     0.028 C 
ENDROOT
BRANCH   1   2
ATOM      2  C   UNL     1     164.113 176.947 183.981  1.00  0.00     0.002 C 
BRANCH   2   3
ATOM      3  C   UNL     1     165.366 176.065 183.935  1.00  0.00    -0.003 C 
ATOM      4  C   UNL     1     166.083 176.052 185.282  1.00  0.00     0.004 C 
ENDBRANCH   2   3
ENDBRANCH   1   2
BRANCH   1   5
ATOM      5  C   UNL     1     165.021 178.763 182.476  1.00  0.00     0.156 C 
BRANCH   5   6
ATOM      6  O   UNL     1     164.674 179.945 183.145  1.00  0.00    -0.396 OA
ATOM      7  H   UNL     1     163.841 180.277 182.720  1.00  0.00     0.210 HD
ENDBRANCH   5   6
ENDBRANCH   1   5
TORSDOF 4
ENDMDL
MODEL 6
REMARK VINA RESULT:    -3.044     16.656     17.854
REMARK INTER + INTRA:          -3.698
REMARK INTER:                  -3.660
REMARK INTRA:                  -0.038
REMARK UNBOUND:                -0.031
REMARK SMILES CCCCCO
REMARK SMILES IDX 4 1 3 2 2 3 1 4 5 5 6 6
REMARK H PARENT 6 7
REMARK Flexibility Score: inf
ROOT
ATOM      1  C   UNL     1     165.121 176.971 183.550  1.00  0.00     0.028 C 
ENDROOT
BRANCH   1   2
ATOM      2  C   UNL     1     165.664 175.614 184.012  1.00  0.00     0.002 C 
BRANCH   2   3
ATOM      3  C   UNL     1     166.296 175.719 185.405  1.00  0.00    -0.003 C 
ATOM      4  C   UNL     1     166.266 174.375 186.128  1.00  0.00     0.004 C 
ENDBRANCH   2   3
ENDBRANCH   1   2
BRANCH   1   5
ATOM      5  C   UNL     1     163.590 176.979 183.545  1.00  0.00     0.156 C 
BRANCH   5   6
ATOM      6  O   UNL     1     163.106 177.694 184.650  1.00  0.00    -0.396 OA
ATOM      7  H   UNL     1     162.853 177.021 185.334  1.00  0.00     0.210 HD
ENDBRANCH   5   6
ENDBRANCH   1   5
TORSDOF 4
ENDMDL
MODEL 7
REMARK VINA RESULT:    -3.022     13.684     15.120
REMARK INTER + INTRA:          -3.671
REMARK INTER:                  -3.601
REMARK INTRA:                  -0.070
REMARK UNBOUND:                -0.031
REMARK SMILES CCCCCO
REMARK SMILES IDX 4 1 3 2 2 3 1 4 5 5 6 6
REMARK H PARENT 6 7
REMARK Flexibility Score: inf
ROOT
ATOM      1  C   UNL     1     167.725 173.794 185.907  1.00  0.00     0.028 C 
ENDROOT
BRANCH   1   2
ATOM      2  C   UNL     1     166.344 174.454 185.988  1.00  0.00     0.002 C 
BRANCH   2   3
ATOM      3  C   UNL     1     166.404 175.914 185.527  1.00  0.00    -0.003 C 
ATOM      4  C   UNL     1     165.263 176.238 184.565  1.00  0.00     0.004 C 
ENDBRANCH   2   3
ENDBRANCH   1   2
BRANCH   1   5
ATOM      5  C   UNL     1     168.637 174.540 184.929  1.00  0.00     0.156 C 
BRANCH   5   6
ATOM      6  O   UNL     1     169.805 174.960 185.580  1.00  0.00    -0.396 OA
ATOM      7  H   UNL     1     169.746 174.624 186.512  1.00  0.00     0.210 HD
ENDBRANCH   5   6
ENDBRANCH   1   5
TORSDOF 4
ENDMDL
MODEL 8
REMARK VINA RESULT:    -2.976      3.824      5.399
REMARK INTER + INTRA:          -3.616
REMARK INTER:                  -3.605
REMARK INTRA:                  -0.011
REMARK UNBOUND:                -0.031
REMARK SMILES CCCCCO
REMARK SMILES IDX 4 1 3 2 2 3 1 4 5 5 6 6
REMARK H PARENT 6 7
REMARK Flexibility Score: inf
ROOT
ATOM      1  C   UNL     1     177.925 170.144 186.431  1.00  0.00     0.028 C 
ENDROOT
BRANCH   1   2
ATOM      2  C   UNL     1     178.003 168.769 185.760  1.00  0.00     0.002 C 
BRANCH   2   3
ATOM      3  C   UNL     1     178.678 168.864 184.387  1.00  0.00    -0.003 C 
ATOM      4  C   UNL     1     179.769 167.809 184.232  1.00  0.00     0.004 C 
ENDBRANCH   2   3
ENDBRANCH   1   2
BRANCH   1   5
ATOM      5  C   UNL     1     176.650 170.887 186.020  1.00  0.00     0.156 C 
BRANCH   5   6
ATOM      6  O   UNL     1     175.730 170.890 187.077  1.00  0.00    -0.396 OA
ATOM      7  H   UNL     1     175.899 170.065 187.603  1.00  0.00     0.210 HD
ENDBRANCH   5   6
ENDBRANCH   1   5
TORSDOF 4
ENDMDL
MODEL 9
REMARK VINA RESULT:    -2.797      2.527      3.871
REMARK INTER + INTRA:          -3.401
REMARK INTER:                  -3.368
REMARK INTRA:                  -0.033
REMARK UNBOUND:                -0.031
REMARK SMILES CCCCCO
REMARK SMILES IDX 4 1 3 2 2 3 1 4 5 5 6 6
REMARK H PARENT 6 7
REMARK Flexibility Score: inf
ROOT
ATOM      1  C   UNL     1     177.960 168.595 185.779  1.00  0.00     0.028 C 
ENDROOT
BRANCH   1   2
ATOM      2  C   UNL     1     177.987 170.051 186.260  1.00  0.00     0.002 C 
BRANCH   2   3
ATOM      3  C   UNL     1     176.681 170.772 185.906  1.00  0.00    -0.003 C 
ATOM      4  C   UNL     1     176.939 171.963 184.988  1.00  0.00     0.004 C 
ENDBRANCH   2   3
ENDBRANCH   1   2
BRANCH   1   5
ATOM      5  C   UNL     1     178.865 168.400 184.560  1.00  0.00     0.156 C 
BRANCH   5   6
ATOM      6  O   UNL     1     179.818 167.405 184.820  1.00  0.00    -0.396 OA
ATOM      7  H   UNL     1     179.353 166.534 184.717  1.00  0.00     0.210 HD
ENDBRANCH   5   6
ENDBRANCH   1   5
TORSDOF 4
ENDMDL
