MODEL 1
REMARK VINA RESULT:    -6.443      0.000      0.000
REMARK INTER + INTRA:          -7.008
REMARK INTER:                  -7.008
REMARK INTRA:                   0.000
REMARK UNBOUND:                 0.000
REMARK SMILES Cc1cc(O)c2c(c1)C(=O)c1cc(O)cc(O)c1C2=O
REMARK SMILES IDX 1 1 2 2 8 3 7 4 6 5 4 6 3 7 19 8 20 9 18 10 11 11 9 12 10 13
REMARK SMILES IDX 12 14 13 15 15 16 16 17 5 18 17 20 14 22
REMARK H PARENT 5 19 17 21 14 23
REMARK Flexibility Score: inf
ROOT
ATOM      1  C   UNL     1      13.369 -38.494  -5.503  1.00  0.00     0.044 C 
ATOM      2  C   UNL     1      14.016 -37.963  -4.259  1.00  0.00    -0.047 A 
ATOM      3  C   UNL     1      13.700 -36.683  -3.791  1.00  0.00     0.016 A 
ATOM      4  C   UNL     1      14.281 -36.188  -2.610  1.00  0.00     0.038 A 
ATOM      5  C   UNL     1      15.192 -36.988  -1.887  1.00  0.00     0.076 A 
ATOM      6  C   UNL     1      15.444 -38.315  -2.320  1.00  0.00     0.127 A 
ATOM      7  C   UNL     1      14.871 -38.779  -3.508  1.00  0.00     0.050 A 
ATOM      8  C   UNL     1      15.896 -36.378  -0.729  1.00  0.00     0.201 C 
ATOM      9  O   UNL     1      17.053 -36.771  -0.421  1.00  0.00    -0.288 OA
ATOM     10  C   UNL     1      15.318 -35.186  -0.058  1.00  0.00     0.076 A 
ATOM     11  C   UNL     1      14.403 -34.389  -0.784  1.00  0.00     0.041 A 
ATOM     12  C   UNL     1      13.933 -34.835  -2.117  1.00  0.00     0.194 C 
ATOM     13  O   UNL     1      13.218 -34.070  -2.823  1.00  0.00    -0.289 OA
ATOM     14  C   UNL     1      13.940 -33.181  -0.236  1.00  0.00     0.059 A 
ATOM     15  C   UNL     1      14.365 -32.767   1.028  1.00  0.00     0.120 A 
ATOM     16  C   UNL     1      15.235 -33.570   1.765  1.00  0.00     0.093 A 
ATOM     17  C   UNL     1      15.694 -34.787   1.251  1.00  0.00     0.131 A 
ENDROOT
BRANCH   6  18
ATOM     18  O   UNL     1      16.222 -39.214  -1.587  1.00  0.00    -0.507 OA
ATOM     19  H   UNL     1      15.834 -39.958  -1.024  1.00  0.00     0.293 HD
ENDBRANCH   6  18
BRANCH  17  20
ATOM     20  O   UNL     1      16.490 -35.578   2.082  1.00  0.00    -0.507 OA
ATOM     21  H   UNL     1      17.395 -35.292   2.428  1.00  0.00     0.293 HD
ENDBRANCH  17  20
BRANCH  15  22
ATOM     22  O   UNL     1      13.918 -31.564   1.570  1.00  0.00    -0.508 OA
ATOM     23  H   UNL     1      13.838 -31.431   2.572  1.00  0.00     0.293 HD
ENDBRANCH  15  22
TORSDOF 3
ENDMDL
MODEL 2
REMARK VINA RESULT:    -6.395      2.264      5.113
REMARK INTER + INTRA:          -6.956
REMARK INTER:                  -6.956
REMARK INTRA:                   0.000
REMARK UNBOUND:                 0.000
REMARK SMILES Cc1cc(O)c2c(c1)C(=O)c1cc(O)cc(O)c1C2=O
REMARK SMILES IDX 1 1 2 2 8 3 7 4 6 5 4 6 3 7 19 8 20 9 18 10 11 11 9 12 10 13
REMARK SMILES IDX 12 14 13 15 15 16 16 17 5 18 17 20 14 22
REMARK H PARENT 5 19 17 21 14 23
REMARK Flexibility Score: inf
ROOT
ATOM      1  C   UNL     1      12.469 -32.519  -2.444  1.00  0.00     0.044 C 
ATOM      2  C   UNL     1      13.307 -33.260  -1.444  1.00  0.00    -0.047 A 
ATOM      3  C   UNL     1      13.857 -34.504  -1.771  1.00  0.00     0.016 A 
ATOM      4  C   UNL     1      14.667 -35.194  -0.851  1.00  0.00     0.038 A 
ATOM      5  C   UNL     1      14.930 -34.627   0.415  1.00  0.00     0.076 A 
ATOM      6  C   UNL     1      14.439 -33.329   0.709  1.00  0.00     0.127 A 
ATOM      7  C   UNL     1      13.619 -32.671  -0.214  1.00  0.00     0.050 A 
ATOM      8  C   UNL     1      15.664 -35.448   1.412  1.00  0.00     0.201 C 
ATOM      9  O   UNL     1      15.444 -35.285   2.643  1.00  0.00    -0.288 OA
ATOM     10  C   UNL     1      16.512 -36.580   0.957  1.00  0.00     0.076 A 
ATOM     11  C   UNL     1      16.247 -37.142  -0.313  1.00  0.00     0.041 A 
ATOM     12  C   UNL     1      15.252 -36.507  -1.209  1.00  0.00     0.194 C 
ATOM     13  O   UNL     1      14.920 -37.074  -2.288  1.00  0.00    -0.289 OA
ATOM     14  C   UNL     1      16.934 -38.298  -0.722  1.00  0.00     0.059 A 
ATOM     15  C   UNL     1      17.887 -38.889   0.111  1.00  0.00     0.120 A 
ATOM     16  C   UNL     1      18.180 -38.314   1.347  1.00  0.00     0.093 A 
ATOM     17  C   UNL     1      17.526 -37.151   1.768  1.00  0.00     0.131 A 
ENDROOT
BRANCH   6  18
ATOM     18  O   UNL     1      14.769 -32.643   1.880  1.00  0.00    -0.507 OA
ATOM     19  H   UNL     1      15.091 -31.685   1.894  1.00  0.00     0.293 HD
ENDBRANCH   6  18
BRANCH  17  20
ATOM     20  O   UNL     1      17.937 -36.583   2.976  1.00  0.00    -0.507 OA
ATOM     21  H   UNL     1      17.306 -36.136   3.626  1.00  0.00     0.293 HD
ENDBRANCH  17  20
BRANCH  15  22
ATOM     22  O   UNL     1      18.561 -40.042  -0.286  1.00  0.00    -0.508 OA
ATOM     23  H   UNL     1      18.901 -40.716   0.391  1.00  0.00     0.293 HD
ENDBRANCH  15  22
TORSDOF 3
ENDMDL
MODEL 3
REMARK VINA RESULT:    -6.369      2.192      4.175
REMARK INTER + INTRA:          -6.927
REMARK INTER:                  -6.927
REMARK INTRA:                   0.000
REMARK UNBOUND:                 0.000
REMARK SMILES Cc1cc(O)c2c(c1)C(=O)c1cc(O)cc(O)c1C2=O
REMARK SMILES IDX 1 1 2 2 8 3 7 4 6 5 4 6 3 7 19 8 20 9 18 10 11 11 9 12 10 13
REMARK SMILES IDX 12 14 13 15 15 16 16 17 5 18 17 20 14 22
REMARK H PARENT 5 19 17 21 14 23
REMARK Flexibility Score: inf
ROOT
ATOM      1  C   UNL     1      11.266 -34.034  -3.651  1.00  0.00     0.044 C 
ATOM      2  C   UNL     1      12.458 -34.927  -3.474  1.00  0.00    -0.047 A 
ATOM      3  C   UNL     1      13.289 -34.780  -2.358  1.00  0.00     0.016 A 
ATOM      4  C   UNL     1      14.392 -35.630  -2.169  1.00  0.00     0.038 A 
ATOM      5  C   UNL     1      14.667 -36.644  -3.113  1.00  0.00     0.076 A 
ATOM      6  C   UNL     1      13.774 -36.842  -4.196  1.00  0.00     0.127 A 
ATOM      7  C   UNL     1      12.694 -35.972  -4.375  1.00  0.00     0.050 A 
ATOM      8  C   UNL     1      15.922 -37.425  -2.958  1.00  0.00     0.201 C 
ATOM      9  O   UNL     1      16.500 -37.890  -3.977  1.00  0.00    -0.288 OA
ATOM     10  C   UNL     1      16.590 -37.495  -1.633  1.00  0.00     0.076 A 
ATOM     11  C   UNL     1      16.310 -36.480  -0.690  1.00  0.00     0.041 A 
ATOM     12  C   UNL     1      15.262 -35.473  -0.980  1.00  0.00     0.194 C 
ATOM     13  O   UNL     1      15.096 -34.493  -0.201  1.00  0.00    -0.289 OA
ATOM     14  C   UNL     1      17.023 -36.435   0.520  1.00  0.00     0.059 A 
ATOM     15  C   UNL     1      17.997 -37.394   0.805  1.00  0.00     0.120 A 
ATOM     16  C   UNL     1      18.248 -38.420  -0.104  1.00  0.00     0.093 A 
ATOM     17  C   UNL     1      17.537 -38.500  -1.307  1.00  0.00     0.131 A 
ENDROOT
BRANCH   6  18
ATOM     18  O   UNL     1      13.897 -37.907  -5.092  1.00  0.00    -0.507 OA
ATOM     19  H   UNL     1      13.525 -38.830  -4.917  1.00  0.00     0.293 HD
ENDBRANCH   6  18
BRANCH  17  20
ATOM     20  O   UNL     1      17.779 -39.606  -2.125  1.00  0.00    -0.507 OA
ATOM     21  H   UNL     1      17.084 -40.011  -2.737  1.00  0.00     0.293 HD
ENDBRANCH  17  20
BRANCH  15  22
ATOM     22  O   UNL     1      18.715 -37.345   1.998  1.00  0.00    -0.508 OA
ATOM     23  H   UNL     1      18.642 -36.554   2.629  1.00  0.00     0.293 HD
ENDBRANCH  15  22
TORSDOF 3
ENDMDL
MODEL 4
REMARK VINA RESULT:    -6.356      2.076      4.792
REMARK INTER + INTRA:          -6.914
REMARK INTER:                  -6.914
REMARK INTRA:                   0.000
REMARK UNBOUND:                 0.000
REMARK SMILES Cc1cc(O)c2c(c1)C(=O)c1cc(O)cc(O)c1C2=O
REMARK SMILES IDX 1 1 2 2 8 3 7 4 6 5 4 6 3 7 19 8 20 9 18 10 11 11 9 12 10 13
REMARK SMILES IDX 12 14 13 15 15 16 16 17 5 18 17 20 14 22
REMARK H PARENT 5 19 17 21 14 23
REMARK Flexibility Score: inf
ROOT
ATOM      1  C   UNL     1      10.135 -34.379  -4.378  1.00  0.00     0.044 C 
ATOM      2  C   UNL     1      11.366 -34.562  -3.542  1.00  0.00    -0.047 A 
ATOM      3  C   UNL     1      12.083 -35.763  -3.596  1.00  0.00     0.016 A 
ATOM      4  C   UNL     1      13.253 -35.934  -2.838  1.00  0.00     0.038 A 
ATOM      5  C   UNL     1      13.715 -34.885  -2.013  1.00  0.00     0.076 A 
ATOM      6  C   UNL     1      13.033 -33.642  -2.027  1.00  0.00     0.127 A 
ATOM      7  C   UNL     1      11.859 -33.502  -2.773  1.00  0.00     0.050 A 
ATOM      8  C   UNL     1      14.869 -35.154  -1.116  1.00  0.00     0.201 C 
ATOM      9  O   UNL     1      14.966 -34.542  -0.019  1.00  0.00    -0.288 OA
ATOM     10  C   UNL     1      15.800 -36.270  -1.425  1.00  0.00     0.076 A 
ATOM     11  C   UNL     1      15.335 -37.317  -2.253  1.00  0.00     0.041 A 
ATOM     12  C   UNL     1      14.010 -37.206  -2.908  1.00  0.00     0.194 C 
ATOM     13  O   UNL     1      13.536 -38.189  -3.545  1.00  0.00    -0.289 OA
ATOM     14  C   UNL     1      16.134 -38.454  -2.457  1.00  0.00     0.059 A 
ATOM     15  C   UNL     1      17.392 -38.554  -1.857  1.00  0.00     0.120 A 
ATOM     16  C   UNL     1      17.871 -37.506  -1.072  1.00  0.00     0.093 A 
ATOM     17  C   UNL     1      17.104 -36.354  -0.871  1.00  0.00     0.131 A 
ENDROOT
BRANCH   6  18
ATOM     18  O   UNL     1      13.503 -32.515  -1.349  1.00  0.00    -0.507 OA
ATOM     19  H   UNL     1      13.004 -32.072  -0.590  1.00  0.00     0.293 HD
ENDBRANCH   6  18
BRANCH  17  20
ATOM     20  O   UNL     1      17.687 -35.310  -0.149  1.00  0.00    -0.507 OA
ATOM     21  H   UNL     1      18.067 -35.418   0.781  1.00  0.00     0.293 HD
ENDBRANCH  17  20
BRANCH  15  22
ATOM     22  O   UNL     1      18.182 -39.686  -2.046  1.00  0.00    -0.508 OA
ATOM     23  H   UNL     1      18.372 -40.051  -2.973  1.00  0.00     0.293 HD
ENDBRANCH  15  22
TORSDOF 3
ENDMDL
MODEL 5
REMARK VINA RESULT:    -6.199     10.414     12.988
REMARK INTER + INTRA:          -6.743
REMARK INTER:                  -6.743
REMARK INTRA:                   0.000
REMARK UNBOUND:                 0.000
REMARK SMILES Cc1cc(O)c2c(c1)C(=O)c1cc(O)cc(O)c1C2=O
REMARK SMILES IDX 1 1 2 2 8 3 7 4 6 5 4 6 3 7 19 8 20 9 18 10 11 11 9 12 10 13
REMARK SMILES IDX 12 14 13 15 15 16 16 17 5 18 17 20 14 22
REMARK H PARENT 5 19 17 21 14 23
REMARK Flexibility Score: inf
ROOT
ATOM      1  C   UNL     1      25.151 -36.627  -5.113  1.00  0.00     0.044 C 
ATOM      2  C   UNL     1      24.938 -37.937  -5.812  1.00  0.00    -0.047 A 
ATOM      3  C   UNL     1      23.658 -38.309  -6.237  1.00  0.00     0.016 A 
ATOM      4  C   UNL     1      23.453 -39.521  -6.918  1.00  0.00     0.038 A 
ATOM      5  C   UNL     1      24.549 -40.374  -7.179  1.00  0.00     0.076 A 
ATOM      6  C   UNL     1      25.854 -39.953  -6.821  1.00  0.00     0.127 A 
ATOM      7  C   UNL     1      26.031 -38.752  -6.126  1.00  0.00     0.050 A 
ATOM      8  C   UNL     1      24.273 -41.711  -7.767  1.00  0.00     0.201 C 
ATOM      9  O   UNL     1      25.034 -42.680  -7.505  1.00  0.00    -0.288 OA
ATOM     10  C   UNL     1      23.005 -41.945  -8.506  1.00  0.00     0.076 A 
ATOM     11  C   UNL     1      21.913 -41.087  -8.245  1.00  0.00     0.041 A 
ATOM     12  C   UNL     1      22.096 -39.903  -7.372  1.00  0.00     0.194 C 
ATOM     13  O   UNL     1      21.097 -39.208  -7.034  1.00  0.00    -0.289 OA
ATOM     14  C   UNL     1      20.659 -41.358  -8.819  1.00  0.00     0.059 A 
ATOM     15  C   UNL     1      20.487 -42.462  -9.658  1.00  0.00     0.120 A 
ATOM     16  C   UNL     1      21.572 -43.287  -9.951  1.00  0.00     0.093 A 
ATOM     17  C   UNL     1      22.835 -43.026  -9.409  1.00  0.00     0.131 A 
ENDROOT
BRANCH   6  18
ATOM     18  O   UNL     1      27.001 -40.672  -7.166  1.00  0.00    -0.507 OA
ATOM     19  H   UNL     1      27.000 -41.662  -7.366  1.00  0.00     0.293 HD
ENDBRANCH   6  18
BRANCH  17  20
ATOM     20  O   UNL     1      23.892 -43.842  -9.819  1.00  0.00    -0.507 OA
ATOM     21  H   UNL     1      23.885 -44.849  -9.738  1.00  0.00     0.293 HD
ENDBRANCH  17  20
BRANCH  15  22
ATOM     22  O   UNL     1      19.243 -42.741 -10.219  1.00  0.00    -0.508 OA
ATOM     23  H   UNL     1      19.149 -43.351 -11.024  1.00  0.00     0.293 HD
ENDBRANCH  15  22
TORSDOF 3
ENDMDL
MODEL 6
REMARK VINA RESULT:    -6.180     11.407     12.500
REMARK INTER + INTRA:          -6.722
REMARK INTER:                  -6.722
REMARK INTRA:                   0.000
REMARK UNBOUND:                 0.000
REMARK SMILES Cc1cc(O)c2c(c1)C(=O)c1cc(O)cc(O)c1C2=O
REMARK SMILES IDX 1 1 2 2 8 3 7 4 6 5 4 6 3 7 19 8 20 9 18 10 11 11 9 12 10 13
REMARK SMILES IDX 12 14 13 15 15 16 16 17 5 18 17 20 14 22
REMARK H PARENT 5 19 17 21 14 23
REMARK Flexibility Score: inf
ROOT
ATOM      1  C   UNL     1      22.428 -41.510  -8.108  1.00  0.00     0.044 C 
ATOM      2  C   UNL     1      23.653 -41.044  -7.379  1.00  0.00    -0.047 A 
ATOM      3  C   UNL     1      23.800 -39.695  -7.039  1.00  0.00     0.016 A 
ATOM      4  C   UNL     1      24.932 -39.253  -6.332  1.00  0.00     0.038 A 
ATOM      5  C   UNL     1      25.932 -40.178  -5.959  1.00  0.00     0.076 A 
ATOM      6  C   UNL     1      25.738 -41.556  -6.233  1.00  0.00     0.127 A 
ATOM      7  C   UNL     1      24.614 -41.969  -6.955  1.00  0.00     0.050 A 
ATOM      8  C   UNL     1      27.179 -39.653  -5.345  1.00  0.00     0.201 C 
ATOM      9  O   UNL     1      28.267 -40.266  -5.514  1.00  0.00    -0.288 OA
ATOM     10  C   UNL     1      27.177 -38.317  -4.695  1.00  0.00     0.076 A 
ATOM     11  C   UNL     1      26.172 -37.395  -5.069  1.00  0.00     0.041 A 
ATOM     12  C   UNL     1      25.075 -37.824  -5.968  1.00  0.00     0.194 C 
ATOM     13  O   UNL     1      24.248 -36.975  -6.404  1.00  0.00    -0.289 OA
ATOM     14  C   UNL     1      26.216 -36.078  -4.581  1.00  0.00     0.059 A 
ATOM     15  C   UNL     1      27.238 -35.675  -3.718  1.00  0.00     0.120 A 
ATOM     16  C   UNL     1      28.208 -36.593  -3.315  1.00  0.00     0.093 A 
ATOM     17  C   UNL     1      28.174 -37.915  -3.770  1.00  0.00     0.131 A 
ENDROOT
BRANCH   6  18
ATOM     18  O   UNL     1      26.610 -42.547  -5.777  1.00  0.00    -0.507 OA
ATOM     19  H   UNL     1      26.369 -43.215  -5.058  1.00  0.00     0.293 HD
ENDBRANCH   6  18
BRANCH  17  20
ATOM     20  O   UNL     1      29.125 -38.798  -3.252  1.00  0.00    -0.507 OA
ATOM     21  H   UNL     1      29.777 -39.316  -3.825  1.00  0.00     0.293 HD
ENDBRANCH  17  20
BRANCH  15  22
ATOM     22  O   UNL     1      27.292 -34.367  -3.242  1.00  0.00    -0.508 OA
ATOM     23  H   UNL     1      27.153 -33.573  -3.858  1.00  0.00     0.293 HD
ENDBRANCH  15  22
TORSDOF 3
ENDMDL
MODEL 7
REMARK VINA RESULT:    -6.140      2.311      5.915
REMARK INTER + INTRA:          -6.678
REMARK INTER:                  -6.678
REMARK INTRA:                   0.000
REMARK UNBOUND:                 0.000
REMARK SMILES Cc1cc(O)c2c(c1)C(=O)c1cc(O)cc(O)c1C2=O
REMARK SMILES IDX 1 1 2 2 8 3 7 4 6 5 4 6 3 7 19 8 20 9 18 10 11 11 9 12 10 13
REMARK SMILES IDX 12 14 13 15 15 16 16 17 5 18 17 20 14 22
REMARK H PARENT 5 19 17 21 14 23
REMARK Flexibility Score: inf
ROOT
ATOM      1  C   UNL     1      12.983 -32.156   2.204  1.00  0.00     0.044 C 
ATOM      2  C   UNL     1      13.710 -32.976   1.180  1.00  0.00    -0.047 A 
ATOM      3  C   UNL     1      14.544 -34.026   1.581  1.00  0.00     0.016 A 
ATOM      4  C   UNL     1      15.207 -34.818   0.628  1.00  0.00     0.038 A 
ATOM      5  C   UNL     1      15.032 -34.554  -0.748  1.00  0.00     0.076 A 
ATOM      6  C   UNL     1      14.122 -33.544  -1.150  1.00  0.00     0.127 A 
ATOM      7  C   UNL     1      13.488 -32.756  -0.184  1.00  0.00     0.050 A 
ATOM      8  C   UNL     1      15.863 -35.314  -1.719  1.00  0.00     0.201 C 
ATOM      9  O   UNL     1      16.187 -34.785  -2.816  1.00  0.00    -0.288 OA
ATOM     10  C   UNL     1      16.461 -36.614  -1.321  1.00  0.00     0.076 A 
ATOM     11  C   UNL     1      16.631 -36.875   0.058  1.00  0.00     0.041 A 
ATOM     12  C   UNL     1      16.081 -35.933   1.061  1.00  0.00     0.194 C 
ATOM     13  O   UNL     1      16.339 -36.094   2.287  1.00  0.00    -0.289 OA
ATOM     14  C   UNL     1      17.317 -38.031   0.471  1.00  0.00     0.059 A 
ATOM     15  C   UNL     1      17.820 -38.931  -0.470  1.00  0.00     0.120 A 
ATOM     16  C   UNL     1      17.618 -38.698  -1.830  1.00  0.00     0.093 A 
ATOM     17  C   UNL     1      16.921 -37.567  -2.266  1.00  0.00     0.131 A 
ENDROOT
BRANCH   6  18
ATOM     18  O   UNL     1      13.789 -33.315  -2.487  1.00  0.00    -0.507 OA
ATOM     19  H   UNL     1      14.223 -32.601  -3.056  1.00  0.00     0.293 HD
ENDBRANCH   6  18
BRANCH  17  20
ATOM     20  O   UNL     1      16.680 -37.447  -3.637  1.00  0.00    -0.507 OA
ATOM     21  H   UNL     1      16.369 -38.213  -4.219  1.00  0.00     0.293 HD
ENDBRANCH  17  20
BRANCH  15  22
ATOM     22  O   UNL     1      18.510 -40.071  -0.065  1.00  0.00    -0.508 OA
ATOM     23  H   UNL     1      18.890 -40.156   0.871  1.00  0.00     0.293 HD
ENDBRANCH  15  22
TORSDOF 3
ENDMDL
MODEL 8
REMARK VINA RESULT:    -6.062      1.617      6.069
REMARK INTER + INTRA:          -6.594
REMARK INTER:                  -6.594
REMARK INTRA:                   0.000
REMARK UNBOUND:                 0.000
REMARK SMILES Cc1cc(O)c2c(c1)C(=O)c1cc(O)cc(O)c1C2=O
REMARK SMILES IDX 1 1 2 2 8 3 7 4 6 5 4 6 3 7 19 8 20 9 18 10 11 11 9 12 10 13
REMARK SMILES IDX 12 14 13 15 15 16 16 17 5 18 17 20 14 22
REMARK H PARENT 5 19 17 21 14 23
REMARK Flexibility Score: inf
ROOT
ATOM      1  C   UNL     1      17.690 -35.246   3.097  1.00  0.00     0.044 C 
ATOM      2  C   UNL     1      16.776 -35.003   1.933  1.00  0.00    -0.047 A 
ATOM      3  C   UNL     1      16.822 -35.841   0.814  1.00  0.00     0.016 A 
ATOM      4  C   UNL     1      15.950 -35.639  -0.270  1.00  0.00     0.038 A 
ATOM      5  C   UNL     1      15.016 -34.581  -0.231  1.00  0.00     0.076 A 
ATOM      6  C   UNL     1      14.917 -33.787   0.940  1.00  0.00     0.127 A 
ATOM      7  C   UNL     1      15.808 -33.994   1.997  1.00  0.00     0.050 A 
ATOM      8  C   UNL     1      14.215 -34.307  -1.453  1.00  0.00     0.201 C 
ATOM      9  O   UNL     1      13.831 -33.133  -1.701  1.00  0.00    -0.288 OA
ATOM     10  C   UNL     1      14.028 -35.376  -2.468  1.00  0.00     0.076 A 
ATOM     11  C   UNL     1      14.964 -36.435  -2.501  1.00  0.00     0.041 A 
ATOM     12  C   UNL     1      16.001 -36.537  -1.447  1.00  0.00     0.194 C 
ATOM     13  O   UNL     1      16.913 -37.405  -1.541  1.00  0.00    -0.289 OA
ATOM     14  C   UNL     1      14.902 -37.390  -3.531  1.00  0.00     0.059 A 
ATOM     15  C   UNL     1      13.914 -37.308  -4.515  1.00  0.00     0.120 A 
ATOM     16  C   UNL     1      12.965 -36.288  -4.463  1.00  0.00     0.093 A 
ATOM     17  C   UNL     1      12.992 -35.338  -3.436  1.00  0.00     0.131 A 
ENDROOT
BRANCH   6  18
ATOM     18  O   UNL     1      13.930 -32.814   1.111  1.00  0.00    -0.507 OA
ATOM     19  H   UNL     1      12.947 -32.979   0.943  1.00  0.00     0.293 HD
ENDBRANCH   6  18
BRANCH  17  20
ATOM     20  O   UNL     1      11.957 -34.401  -3.399  1.00  0.00    -0.507 OA
ATOM     21  H   UNL     1      11.281 -34.285  -4.141  1.00  0.00     0.293 HD
ENDBRANCH  17  20
BRANCH  15  22
ATOM     22  O   UNL     1      13.857 -38.245  -5.544  1.00  0.00    -0.508 OA
ATOM     23  H   UNL     1      13.031 -38.812  -5.700  1.00  0.00     0.293 HD
ENDBRANCH  15  22
TORSDOF 3
ENDMDL
MODEL 9
REMARK VINA RESULT:    -5.989      2.329      6.124
REMARK INTER + INTRA:          -6.514
REMARK INTER:                  -6.514
REMARK INTRA:                   0.000
REMARK UNBOUND:                 0.000
REMARK SMILES Cc1cc(O)c2c(c1)C(=O)c1cc(O)cc(O)c1C2=O
REMARK SMILES IDX 1 1 2 2 8 3 7 4 6 5 4 6 3 7 19 8 20 9 18 10 11 11 9 12 10 13
REMARK SMILES IDX 12 14 13 15 15 16 16 17 5 18 17 20 14 22
REMARK H PARENT 5 19 17 21 14 23
REMARK Flexibility Score: inf
ROOT
ATOM      1  C   UNL     1      16.507 -35.549   2.532  1.00  0.00     0.044 C 
ATOM      2  C   UNL     1      15.582 -34.963   1.508  1.00  0.00    -0.047 A 
ATOM      3  C   UNL     1      15.018 -35.777   0.519  1.00  0.00     0.016 A 
ATOM      4  C   UNL     1      14.127 -35.242  -0.428  1.00  0.00     0.038 A 
ATOM      5  C   UNL     1      13.795 -33.870  -0.383  1.00  0.00     0.076 A 
ATOM      6  C   UNL     1      14.303 -33.069   0.670  1.00  0.00     0.127 A 
ATOM      7  C   UNL     1      15.204 -33.618   1.589  1.00  0.00     0.050 A 
ATOM      8  C   UNL     1      12.970 -33.312  -1.486  1.00  0.00     0.201 C 
ATOM      9  O   UNL     1      13.111 -32.107  -1.826  1.00  0.00    -0.288 OA
ATOM     10  C   UNL     1      12.122 -34.217  -2.305  1.00  0.00     0.076 A 
ATOM     11  C   UNL     1      12.456 -35.590  -2.344  1.00  0.00     0.041 A 
ATOM     12  C   UNL     1      13.529 -36.114  -1.466  1.00  0.00     0.194 C 
ATOM     13  O   UNL     1      13.916 -37.310  -1.587  1.00  0.00    -0.289 OA
ATOM     14  C   UNL     1      11.765 -36.452  -3.211  1.00  0.00     0.059 A 
ATOM     15  C   UNL     1      10.740 -35.966  -4.027  1.00  0.00     0.120 A 
ATOM     16  C   UNL     1      10.380 -34.621  -3.961  1.00  0.00     0.093 A 
ATOM     17  C   UNL     1      11.038 -33.746  -3.090  1.00  0.00     0.131 A 
ENDROOT
BRANCH   6  18
ATOM     18  O   UNL     1      13.915 -31.741   0.865  1.00  0.00    -0.507 OA
ATOM     19  H   UNL     1      13.152 -31.304   0.365  1.00  0.00     0.293 HD
ENDBRANCH   6  18
BRANCH  17  20
ATOM     20  O   UNL     1      10.563 -32.435  -3.014  1.00  0.00    -0.507 OA
ATOM     21  H   UNL     1       9.582 -32.197  -2.969  1.00  0.00     0.293 HD
ENDBRANCH  17  20
BRANCH  15  22
ATOM     22  O   UNL     1      10.060 -36.816  -4.897  1.00  0.00    -0.508 OA
ATOM     23  H   UNL     1      10.427 -37.729  -5.140  1.00  0.00     0.293 HD
ENDBRANCH  15  22
TORSDOF 3
ENDMDL
