MODEL 1
REMARK VINA RESULT:    -4.859      0.000      0.000
REMARK INTER + INTRA:         -12.060
REMARK INTER:                 -10.541
REMARK INTRA:                  -1.519
REMARK UNBOUND:                -1.519
REMARK SMILES CCCCCCCCCCCCCCCCCCCCCC(=O)[O-]
REMARK SMILES IDX 12 1 11 2 10 3 9 4 8 5 7 6 6 7 5 8 4 9 3 10 2 11 1 12 13 13
REMARK SMILES IDX 14 14 15 15 16 16 17 17 18 18 19 19 20 20 21 21 22 22 23 23
REMARK SMILES IDX 24 24
REMARK H PARENT
REMARK Flexibility Score: inf
ROOT
ATOM      1  C   UNL     1       2.097  52.945  22.052  1.00  0.00     0.000 C 
ENDROOT
BRANCH   1   2
ATOM      2  C   UNL     1       2.072  54.052  23.116  1.00  0.00     0.000 C 
BRANCH   2   3
ATOM      3  C   UNL     1       3.453  54.217  23.769  1.00  0.00     0.000 C 
BRANCH   3   4
ATOM      4  C   UNL     1       3.385  54.903  25.143  1.00  0.00    -0.000 C 
BRANCH   4   5
ATOM      5  C   UNL     1       2.665  56.261  25.091  1.00  0.00    -0.000 C 
BRANCH   5   6
ATOM      6  C   UNL     1       3.492  57.351  24.386  1.00  0.00    -0.000 C 
BRANCH   6   7
ATOM      7  C   UNL     1       2.973  57.779  22.998  1.00  0.00    -0.000 C 
BRANCH   7   8
ATOM      8  C   UNL     1       1.442  57.754  22.833  1.00  0.00    -0.000 C 
BRANCH   8   9
ATOM      9  C   UNL     1       0.733  58.814  23.694  1.00  0.00    -0.000 C 
BRANCH   9  10
ATOM     10  C   UNL     1       1.369  60.213  23.547  1.00  0.00    -0.000 C 
BRANCH  10  11
ATOM     11  C   UNL     1       0.508  61.350  24.123  1.00  0.00    -0.003 C 
ATOM     12  C   UNL     1      -0.220  60.962  25.408  1.00  0.00     0.004 C 
ENDBRANCH  10  11
ENDBRANCH   9  10
ENDBRANCH   8   9
ENDBRANCH   7   8
ENDBRANCH   6   7
ENDBRANCH   5   6
ENDBRANCH   4   5
ENDBRANCH   3   4
ENDBRANCH   2   3
ENDBRANCH   1   2
BRANCH   1  13
ATOM     13  C   UNL     1       1.331  51.682  22.485  1.00  0.00     0.000 C 
BRANCH  13  14
ATOM     14  C   UNL     1       2.217  50.474  22.854  1.00  0.00     0.000 C 
BRANCH  14  15
ATOM     15  C   UNL     1       1.519  49.104  22.797  1.00  0.00     0.000 C 
BRANCH  15  16
ATOM     16  C   UNL     1       2.437  47.947  23.224  1.00  0.00     0.000 C 
BRANCH  16  17
ATOM     17  C   UNL     1       2.109  47.406  24.629  1.00  0.00     0.000 C 
BRANCH  17  18
ATOM     18  C   UNL     1       3.253  47.496  25.656  1.00  0.00     0.000 C 
BRANCH  18  19
ATOM     19  C   UNL     1       4.271  48.602  25.326  1.00  0.00     0.000 C 
BRANCH  19  20
ATOM     20  C   UNL     1       5.715  48.075  25.237  1.00  0.00     0.006 C 
BRANCH  20  21
ATOM     21  C   UNL     1       6.754  49.137  24.845  1.00  0.00     0.053 C 
BRANCH  21  22
ATOM     22  C   UNL     1       7.761  49.368  25.931  1.00  0.00     0.041 C 
ATOM     23  O   UNL     1       8.759  50.107  25.723  1.00  0.00    -0.550 OA
ATOM     24  O   UNL     1       7.617  48.735  27.159  1.00  0.00    -0.550 OA
ENDBRANCH  21  22
ENDBRANCH  20  21
ENDBRANCH  19  20
ENDBRANCH  18  19
ENDBRANCH  17  18
ENDBRANCH  16  17
ENDBRANCH  15  16
ENDBRANCH  14  15
ENDBRANCH  13  14
ENDBRANCH   1  13
TORSDOF 20
ENDMDL
MODEL 2
REMARK VINA RESULT:    -4.813      3.911     10.154
REMARK INTER + INTRA:         -11.959
REMARK INTER:                 -10.095
REMARK INTRA:                  -1.865
REMARK UNBOUND:                -1.519
REMARK SMILES CCCCCCCCCCCCCCCCCCCCCC(=O)[O-]
REMARK SMILES IDX 12 1 11 2 10 3 9 4 8 5 7 6 6 7 5 8 4 9 3 10 2 11 1 12 13 13
REMARK SMILES IDX 14 14 15 15 16 16 17 17 18 18 19 19 20 20 21 21 22 22 23 23
REMARK SMILES IDX 24 24
REMARK H PARENT
REMARK Flexibility Score: inf
ROOT
ATOM      1  C   UNL     1       2.335  51.047  22.410  1.00  0.00     0.000 C 
ENDROOT
BRANCH   1   2
ATOM      2  C   UNL     1       1.529  49.850  22.937  1.00  0.00     0.000 C 
BRANCH   2   3
ATOM      3  C   UNL     1       2.166  48.523  22.497  1.00  0.00     0.000 C 
BRANCH   3   4
ATOM      4  C   UNL     1       1.495  47.298  23.138  1.00  0.00    -0.000 C 
BRANCH   4   5
ATOM      5  C   UNL     1       1.673  47.257  24.664  1.00  0.00    -0.000 C 
BRANCH   5   6
ATOM      6  C   UNL     1       3.132  47.007  25.090  1.00  0.00    -0.000 C 
BRANCH   6   7
ATOM      7  C   UNL     1       3.789  48.150  25.891  1.00  0.00    -0.000 C 
BRANCH   7   8
ATOM      8  C   UNL     1       4.699  49.086  25.073  1.00  0.00    -0.000 C 
BRANCH   8   9
ATOM      9  C   UNL     1       6.182  48.682  25.138  1.00  0.00    -0.000 C 
BRANCH   9  10
ATOM     10  C   UNL     1       6.777  48.398  23.742  1.00  0.00    -0.000 C 
BRANCH  10  11
ATOM     11  C   UNL     1       6.104  47.226  23.007  1.00  0.00    -0.003 C 
ATOM     12  C   UNL     1       5.338  47.660  21.759  1.00  0.00     0.004 C 
ENDBRANCH  10  11
ENDBRANCH   9  10
ENDBRANCH   8   9
ENDBRANCH   7   8
ENDBRANCH   6   7
ENDBRANCH   5   6
ENDBRANCH   4   5
ENDBRANCH   3   4
ENDBRANCH   2   3
ENDBRANCH   1   2
BRANCH   1  13
ATOM     13  C   UNL     1       1.564  52.375  22.507  1.00  0.00     0.000 C 
BRANCH  13  14
ATOM     14  C   UNL     1       2.411  53.642  22.266  1.00  0.00     0.000 C 
BRANCH  14  15
ATOM     15  C   UNL     1       2.844  54.396  23.536  1.00  0.00     0.000 C 
BRANCH  15  16
ATOM     16  C   UNL     1       2.231  55.804  23.634  1.00  0.00     0.000 C 
BRANCH  16  17
ATOM     17  C   UNL     1       2.882  56.667  24.730  1.00  0.00     0.000 C 
BRANCH  17  18
ATOM     18  C   UNL     1       3.648  57.906  24.228  1.00  0.00     0.000 C 
BRANCH  18  19
ATOM     19  C   UNL     1       3.008  58.544  22.983  1.00  0.00     0.000 C 
BRANCH  19  20
ATOM     20  C   UNL     1       2.121  59.756  23.324  1.00  0.00     0.006 C 
BRANCH  20  21
ATOM     21  C   UNL     1       0.640  59.412  23.552  1.00  0.00     0.053 C 
BRANCH  21  22
ATOM     22  C   UNL     1       0.256  59.505  24.997  1.00  0.00     0.041 C 
ATOM     23  O   UNL     1      -0.043  58.465  25.642  1.00  0.00    -0.550 OA
ATOM     24  O   UNL     1       0.192  60.744  25.622  1.00  0.00    -0.550 OA
ENDBRANCH  21  22
ENDBRANCH  20  21
ENDBRANCH  19  20
ENDBRANCH  18  19
ENDBRANCH  17  18
ENDBRANCH  16  17
ENDBRANCH  15  16
ENDBRANCH  14  15
ENDBRANCH  13  14
ENDBRANCH   1  13
TORSDOF 20
ENDMDL
MODEL 3
REMARK VINA RESULT:    -4.783      6.825     12.857
REMARK INTER + INTRA:         -11.894
REMARK INTER:                  -9.734
REMARK INTRA:                  -2.160
REMARK UNBOUND:                -1.519
REMARK SMILES CCCCCCCCCCCCCCCCCCCCCC(=O)[O-]
REMARK SMILES IDX 12 1 11 2 10 3 9 4 8 5 7 6 6 7 5 8 4 9 3 10 2 11 1 12 13 13
REMARK SMILES IDX 14 14 15 15 16 16 17 17 18 18 19 19 20 20 21 21 22 22 23 23
REMARK SMILES IDX 24 24
REMARK H PARENT
REMARK Flexibility Score: inf
ROOT
ATOM      1  C   UNL     1      -0.075  58.554  25.718  1.00  0.00     0.000 C 
ENDROOT
BRANCH   1   2
ATOM      2  C   UNL     1       0.781  57.749  24.729  1.00  0.00     0.000 C 
BRANCH   2   3
ATOM      3  C   UNL     1       2.131  57.368  25.355  1.00  0.00     0.000 C 
BRANCH   3   4
ATOM      4  C   UNL     1       3.331  57.883  24.544  1.00  0.00    -0.000 C 
BRANCH   4   5
ATOM      5  C   UNL     1       2.906  58.738  23.339  1.00  0.00    -0.000 C 
BRANCH   5   6
ATOM      6  C   UNL     1       3.205  58.060  21.989  1.00  0.00    -0.000 C 
BRANCH   6   7
ATOM      7  C   UNL     1       2.073  57.172  21.433  1.00  0.00    -0.000 C 
BRANCH   7   8
ATOM      8  C   UNL     1       2.362  55.659  21.439  1.00  0.00    -0.000 C 
BRANCH   8   9
ATOM      9  C   UNL     1       1.846  54.959  22.708  1.00  0.00    -0.000 C 
BRANCH   9  10
ATOM     10  C   UNL     1       2.802  53.850  23.199  1.00  0.00    -0.000 C 
BRANCH  10  11
ATOM     11  C   UNL     1       3.930  54.361  24.111  1.00  0.00    -0.003 C 
ATOM     12  C   UNL     1       3.654  54.131  25.595  1.00  0.00     0.004 C 
ENDBRANCH  10  11
ENDBRANCH   9  10
ENDBRANCH   8   9
ENDBRANCH   7   8
ENDBRANCH   6   7
ENDBRANCH   5   6
ENDBRANCH   4   5
ENDBRANCH   3   4
ENDBRANCH   2   3
ENDBRANCH   1   2
BRANCH   1  13
ATOM     13  C   UNL     1      -0.323  60.000  25.254  1.00  0.00     0.000 C 
BRANCH  13  14
ATOM     14  C   UNL     1       0.116  60.308  23.807  1.00  0.00     0.000 C 
BRANCH  14  15
ATOM     15  C   UNL     1       0.604  61.747  23.559  1.00  0.00     0.000 C 
BRANCH  15  16
ATOM     16  C   UNL     1      -0.295  62.805  24.220  1.00  0.00     0.000 C 
BRANCH  16  17
ATOM     17  C   UNL     1      -1.053  63.673  23.197  1.00  0.00     0.000 C 
BRANCH  17  18
ATOM     18  C   UNL     1      -0.861  65.194  23.351  1.00  0.00     0.000 C 
BRANCH  18  19
ATOM     19  C   UNL     1      -1.310  65.984  22.109  1.00  0.00     0.000 C 
BRANCH  19  20
ATOM     20  C   UNL     1      -2.508  66.909  22.393  1.00  0.00     0.006 C 
BRANCH  20  21
ATOM     21  C   UNL     1      -3.600  66.278  23.272  1.00  0.00     0.053 C 
BRANCH  21  22
ATOM     22  C   UNL     1      -4.548  65.435  22.474  1.00  0.00     0.041 C 
ATOM     23  O   UNL     1      -4.454  64.179  22.499  1.00  0.00    -0.550 OA
ATOM     24  O   UNL     1      -5.508  66.037  21.672  1.00  0.00    -0.550 OA
ENDBRANCH  21  22
ENDBRANCH  20  21
ENDBRANCH  19  20
ENDBRANCH  18  19
ENDBRANCH  17  18
ENDBRANCH  16  17
ENDBRANCH  15  16
ENDBRANCH  14  15
ENDBRANCH  13  14
ENDBRANCH   1  13
TORSDOF 20
ENDMDL
MODEL 4
REMARK VINA RESULT:    -4.722      4.317     10.334
REMARK INTER + INTRA:         -11.761
REMARK INTER:                 -10.372
REMARK INTRA:                  -1.390
REMARK UNBOUND:                -1.519
REMARK SMILES CCCCCCCCCCCCCCCCCCCCCC(=O)[O-]
REMARK SMILES IDX 12 1 11 2 10 3 9 4 8 5 7 6 6 7 5 8 4 9 3 10 2 11 1 12 13 13
REMARK SMILES IDX 14 14 15 15 16 16 17 17 18 18 19 19 20 20 21 21 22 22 23 23
REMARK SMILES IDX 24 24
REMARK H PARENT
REMARK Flexibility Score: inf
ROOT
ATOM      1  C   UNL     1       2.330  50.951  22.886  1.00  0.00     0.000 C 
ENDROOT
BRANCH   1   2
ATOM      2  C   UNL     1       1.538  49.650  22.688  1.00  0.00     0.000 C 
BRANCH   2   3
ATOM      3  C   UNL     1       2.368  48.431  23.116  1.00  0.00     0.000 C 
BRANCH   3   4
ATOM      4  C   UNL     1       2.087  47.187  22.258  1.00  0.00    -0.000 C 
BRANCH   4   5
ATOM      5  C   UNL     1       3.101  47.017  21.114  1.00  0.00    -0.000 C 
BRANCH   5   6
ATOM      6  C   UNL     1       4.370  47.867  21.307  1.00  0.00    -0.000 C 
BRANCH   6   7
ATOM      7  C   UNL     1       5.523  47.169  22.058  1.00  0.00    -0.000 C 
BRANCH   7   8
ATOM      8  C   UNL     1       6.566  48.114  22.684  1.00  0.00    -0.000 C 
BRANCH   8   9
ATOM      9  C   UNL     1       6.353  48.320  24.194  1.00  0.00    -0.000 C 
BRANCH   9  10
ATOM     10  C   UNL     1       5.506  47.195  24.827  1.00  0.00    -0.000 C 
BRANCH  10  11
ATOM     11  C   UNL     1       4.951  47.544  26.219  1.00  0.00    -0.003 C 
ATOM     12  C   UNL     1       3.480  47.953  26.193  1.00  0.00     0.004 C 
ENDBRANCH  10  11
ENDBRANCH   9  10
ENDBRANCH   8   9
ENDBRANCH   7   8
ENDBRANCH   6   7
ENDBRANCH   5   6
ENDBRANCH   4   5
ENDBRANCH   3   4
ENDBRANCH   2   3
ENDBRANCH   1   2
BRANCH   1  13
ATOM     13  C   UNL     1       1.540  52.202  22.464  1.00  0.00     0.000 C 
BRANCH  13  14
ATOM     14  C   UNL     1       2.404  53.410  22.043  1.00  0.00     0.000 C 
BRANCH  14  15
ATOM     15  C   UNL     1       2.096  54.727  22.778  1.00  0.00     0.000 C 
BRANCH  15  16
ATOM     16  C   UNL     1       3.118  55.050  23.881  1.00  0.00     0.000 C 
BRANCH  16  17
ATOM     17  C   UNL     1       2.740  56.296  24.704  1.00  0.00     0.000 C 
BRANCH  17  18
ATOM     18  C   UNL     1       3.542  57.570  24.379  1.00  0.00     0.000 C 
BRANCH  18  19
ATOM     19  C   UNL     1       3.095  58.243  23.069  1.00  0.00     0.000 C 
BRANCH  19  20
ATOM     20  C   UNL     1       2.232  59.496  23.308  1.00  0.00     0.006 C 
BRANCH  20  21
ATOM     21  C   UNL     1       0.846  59.205  23.906  1.00  0.00     0.053 C 
BRANCH  21  22
ATOM     22  C   UNL     1       0.095  60.462  24.222  1.00  0.00     0.041 C 
ATOM     23  O   UNL     1      -0.500  61.092  23.308  1.00  0.00    -0.550 OA
ATOM     24  O   UNL     1       0.083  60.959  25.519  1.00  0.00    -0.550 OA
ENDBRANCH  21  22
ENDBRANCH  20  21
ENDBRANCH  19  20
ENDBRANCH  18  19
ENDBRANCH  17  18
ENDBRANCH  16  17
ENDBRANCH  15  16
ENDBRANCH  14  15
ENDBRANCH  13  14
ENDBRANCH   1  13
TORSDOF 20
ENDMDL
MODEL 5
REMARK VINA RESULT:    -4.706      1.229      2.047
REMARK INTER + INTRA:         -11.727
REMARK INTER:                 -10.348
REMARK INTRA:                  -1.379
REMARK UNBOUND:                -1.519
REMARK SMILES CCCCCCCCCCCCCCCCCCCCCC(=O)[O-]
REMARK SMILES IDX 12 1 11 2 10 3 9 4 8 5 7 6 6 7 5 8 4 9 3 10 2 11 1 12 13 13
REMARK SMILES IDX 14 14 15 15 16 16 17 17 18 18 19 19 20 20 21 21 22 22 23 23
REMARK SMILES IDX 24 24
REMARK H PARENT
REMARK Flexibility Score: inf
ROOT
ATOM      1  C   UNL     1       2.377  53.265  21.805  1.00  0.00     0.000 C 
ENDROOT
BRANCH   1   2
ATOM      2  C   UNL     1       2.123  54.657  22.404  1.00  0.00     0.000 C 
BRANCH   2   3
ATOM      3  C   UNL     1       2.329  55.754  21.349  1.00  0.00     0.000 C 
BRANCH   3   4
ATOM      4  C   UNL     1       1.870  57.140  21.832  1.00  0.00    -0.000 C 
BRANCH   4   5
ATOM      5  C   UNL     1       3.045  58.107  22.052  1.00  0.00    -0.000 C 
BRANCH   5   6
ATOM      6  C   UNL     1       3.223  58.506  23.529  1.00  0.00    -0.000 C 
BRANCH   6   7
ATOM      7  C   UNL     1       3.111  57.349  24.542  1.00  0.00    -0.000 C 
BRANCH   7   8
ATOM      8  C   UNL     1       1.858  57.380  25.437  1.00  0.00    -0.000 C 
BRANCH   8   9
ATOM      9  C   UNL     1       0.624  57.949  24.715  1.00  0.00    -0.000 C 
BRANCH   9  10
ATOM     10  C   UNL     1      -0.159  58.951  25.590  1.00  0.00    -0.000 C 
BRANCH  10  11
ATOM     11  C   UNL     1       0.053  60.422  25.192  1.00  0.00    -0.003 C 
ATOM     12  C   UNL     1       0.161  60.626  23.682  1.00  0.00     0.004 C 
ENDBRANCH  10  11
ENDBRANCH   9  10
ENDBRANCH   8   9
ENDBRANCH   7   8
ENDBRANCH   6   7
ENDBRANCH   5   6
ENDBRANCH   4   5
ENDBRANCH   3   4
ENDBRANCH   2   3
ENDBRANCH   1   2
BRANCH   1  13
ATOM     13  C   UNL     1       1.660  52.143  22.577  1.00  0.00     0.000 C 
BRANCH  13  14
ATOM     14  C   UNL     1       2.485  50.853  22.772  1.00  0.00     0.000 C 
BRANCH  14  15
ATOM     15  C   UNL     1       1.663  49.557  22.883  1.00  0.00     0.000 C 
BRANCH  15  16
ATOM     16  C   UNL     1       2.486  48.298  22.560  1.00  0.00     0.000 C 
BRANCH  16  17
ATOM     17  C   UNL     1       2.118  47.095  23.449  1.00  0.00     0.000 C 
BRANCH  17  18
ATOM     18  C   UNL     1       2.049  47.386  24.960  1.00  0.00     0.000 C 
BRANCH  18  19
ATOM     19  C   UNL     1       3.395  47.173  25.675  1.00  0.00     0.000 C 
BRANCH  19  20
ATOM     20  C   UNL     1       4.345  48.376  25.525  1.00  0.00     0.006 C 
BRANCH  20  21
ATOM     21  C   UNL     1       5.835  48.026  25.660  1.00  0.00     0.053 C 
BRANCH  21  22
ATOM     22  C   UNL     1       6.698  48.897  24.799  1.00  0.00     0.041 C 
ATOM     23  O   UNL     1       6.916  50.094  25.125  1.00  0.00    -0.550 OA
ATOM     24  O   UNL     1       7.230  48.399  23.617  1.00  0.00    -0.550 OA
ENDBRANCH  21  22
ENDBRANCH  20  21
ENDBRANCH  19  20
ENDBRANCH  18  19
ENDBRANCH  17  18
ENDBRANCH  16  17
ENDBRANCH  15  16
ENDBRANCH  14  15
ENDBRANCH  13  14
ENDBRANCH   1  13
TORSDOF 20
ENDMDL
MODEL 6
REMARK VINA RESULT:    -4.640      4.209     10.514
REMARK INTER + INTRA:         -11.585
REMARK INTER:                 -10.120
REMARK INTRA:                  -1.465
REMARK UNBOUND:                -1.519
REMARK SMILES CCCCCCCCCCCCCCCCCCCCCC(=O)[O-]
REMARK SMILES IDX 12 1 11 2 10 3 9 4 8 5 7 6 6 7 5 8 4 9 3 10 2 11 1 12 13 13
REMARK SMILES IDX 14 14 15 15 16 16 17 17 18 18 19 19 20 20 21 21 22 22 23 23
REMARK SMILES IDX 24 24
REMARK H PARENT
REMARK Flexibility Score: inf
ROOT
ATOM      1  C   UNL     1       2.336  53.905  21.798  1.00  0.00     0.000 C 
ENDROOT
BRANCH   1   2
ATOM      2  C   UNL     1       1.537  52.773  22.460  1.00  0.00     0.000 C 
BRANCH   2   3
ATOM      3  C   UNL     1       2.420  51.538  22.689  1.00  0.00     0.000 C 
BRANCH   3   4
ATOM      4  C   UNL     1       1.617  50.227  22.712  1.00  0.00    -0.000 C 
BRANCH   4   5
ATOM      5  C   UNL     1       2.500  48.998  22.984  1.00  0.00    -0.000 C 
BRANCH   5   6
ATOM      6  C   UNL     1       1.770  47.900  23.779  1.00  0.00    -0.000 C 
BRANCH   6   7
ATOM      7  C   UNL     1       2.655  47.088  24.746  1.00  0.00    -0.000 C 
BRANCH   7   8
ATOM      8  C   UNL     1       3.379  47.916  25.825  1.00  0.00    -0.000 C 
BRANCH   8   9
ATOM      9  C   UNL     1       4.889  47.625  25.885  1.00  0.00    -0.000 C 
BRANCH   9  10
ATOM     10  C   UNL     1       5.414  46.970  24.589  1.00  0.00    -0.000 C 
BRANCH  10  11
ATOM     11  C   UNL     1       6.016  47.970  23.588  1.00  0.00    -0.003 C 
ATOM     12  C   UNL     1       7.213  48.736  24.148  1.00  0.00     0.004 C 
ENDBRANCH  10  11
ENDBRANCH   9  10
ENDBRANCH   8   9
ENDBRANCH   7   8
ENDBRANCH   6   7
ENDBRANCH   5   6
ENDBRANCH   4   5
ENDBRANCH   3   4
ENDBRANCH   2   3
ENDBRANCH   1   2
BRANCH   1  13
ATOM     13  C   UNL     1       2.120  55.268  22.478  1.00  0.00     0.000 C 
BRANCH  13  14
ATOM     14  C   UNL     1       2.104  56.480  21.523  1.00  0.00     0.000 C 
BRANCH  14  15
ATOM     15  C   UNL     1       2.753  57.762  22.076  1.00  0.00     0.000 C 
BRANCH  15  16
ATOM     16  C   UNL     1       3.618  57.504  23.322  1.00  0.00     0.000 C 
BRANCH  16  17
ATOM     17  C   UNL     1       3.062  58.179  24.589  1.00  0.00     0.000 C 
BRANCH  17  18
ATOM     18  C   UNL     1       1.820  57.508  25.205  1.00  0.00     0.000 C 
BRANCH  18  19
ATOM     19  C   UNL     1       0.503  57.978  24.562  1.00  0.00     0.000 C 
BRANCH  19  20
ATOM     20  C   UNL     1      -0.297  58.928  25.472  1.00  0.00     0.006 C 
BRANCH  20  21
ATOM     21  C   UNL     1       0.123  60.403  25.374  1.00  0.00     0.053 C 
BRANCH  21  22
ATOM     22  C   UNL     1       0.304  60.843  23.953  1.00  0.00     0.041 C 
ATOM     23  O   UNL     1       1.456  61.086  23.506  1.00  0.00    -0.550 OA
ATOM     24  O   UNL     1      -0.804  61.023  23.134  1.00  0.00    -0.550 OA
ENDBRANCH  21  22
ENDBRANCH  20  21
ENDBRANCH  19  20
ENDBRANCH  18  19
ENDBRANCH  17  18
ENDBRANCH  16  17
ENDBRANCH  15  16
ENDBRANCH  14  15
ENDBRANCH  13  14
ENDBRANCH   1  13
TORSDOF 20
ENDMDL
MODEL 7
REMARK VINA RESULT:    -4.616      2.948      9.546
REMARK INTER + INTRA:         -11.533
REMARK INTER:                  -9.653
REMARK INTRA:                  -1.880
REMARK UNBOUND:                -1.519
REMARK SMILES CCCCCCCCCCCCCCCCCCCCCC(=O)[O-]
REMARK SMILES IDX 12 1 11 2 10 3 9 4 8 5 7 6 6 7 5 8 4 9 3 10 2 11 1 12 13 13
REMARK SMILES IDX 14 14 15 15 16 16 17 17 18 18 19 19 20 20 21 21 22 22 23 23
REMARK SMILES IDX 24 24
REMARK H PARENT
REMARK Flexibility Score: inf
ROOT
ATOM      1  C   UNL     1       1.960  49.784  22.898  1.00  0.00     0.000 C 
ENDROOT
BRANCH   1   2
ATOM      2  C   UNL     1       1.046  48.613  22.508  1.00  0.00     0.000 C 
BRANCH   2   3
ATOM      3  C   UNL     1       1.060  47.521  23.587  1.00  0.00     0.000 C 
BRANCH   3   4
ATOM      4  C   UNL     1       2.483  47.096  23.987  1.00  0.00    -0.000 C 
BRANCH   4   5
ATOM      5  C   UNL     1       2.750  47.266  25.491  1.00  0.00    -0.000 C 
BRANCH   5   6
ATOM      6  C   UNL     1       3.814  48.337  25.793  1.00  0.00    -0.000 C 
BRANCH   6   7
ATOM      7  C   UNL     1       5.182  47.796  26.256  1.00  0.00    -0.000 C 
BRANCH   7   8
ATOM      8  C   UNL     1       6.150  47.404  25.124  1.00  0.00    -0.000 C 
BRANCH   8   9
ATOM      9  C   UNL     1       6.457  48.573  24.171  1.00  0.00    -0.000 C 
BRANCH   9  10
ATOM     10  C   UNL     1       6.590  48.115  22.703  1.00  0.00    -0.000 C 
BRANCH  10  11
ATOM     11  C   UNL     1       5.404  47.270  22.205  1.00  0.00    -0.003 C 
ATOM     12  C   UNL     1       4.631  47.933  21.067  1.00  0.00     0.004 C 
ENDBRANCH  10  11
ENDBRANCH   9  10
ENDBRANCH   8   9
ENDBRANCH   7   8
ENDBRANCH   6   7
ENDBRANCH   5   6
ENDBRANCH   4   5
ENDBRANCH   3   4
ENDBRANCH   2   3
ENDBRANCH   1   2
BRANCH   1  13
ATOM     13  C   UNL     1       1.383  51.153  22.496  1.00  0.00     0.000 C 
BRANCH  13  14
ATOM     14  C   UNL     1       2.278  52.364  22.834  1.00  0.00     0.000 C 
BRANCH  14  15
ATOM     15  C   UNL     1       2.353  53.450  21.746  1.00  0.00     0.000 C 
BRANCH  15  16
ATOM     16  C   UNL     1       2.351  54.876  22.324  1.00  0.00     0.000 C 
BRANCH  16  17
ATOM     17  C   UNL     1       2.243  55.964  21.239  1.00  0.00     0.000 C 
BRANCH  17  18
ATOM     18  C   UNL     1       1.740  57.336  21.727  1.00  0.00     0.000 C 
BRANCH  18  19
ATOM     19  C   UNL     1       0.657  57.226  22.813  1.00  0.00     0.000 C 
BRANCH  19  20
ATOM     20  C   UNL     1       0.800  58.302  23.906  1.00  0.00     0.006 C 
BRANCH  20  21
ATOM     21  C   UNL     1       1.145  57.749  25.298  1.00  0.00     0.053 C 
BRANCH  21  22
ATOM     22  C   UNL     1       2.515  57.143  25.340  1.00  0.00     0.041 C 
ATOM     23  O   UNL     1       2.739  56.130  26.053  1.00  0.00    -0.550 OA
ATOM     24  O   UNL     1       3.553  57.722  24.621  1.00  0.00    -0.550 OA
ENDBRANCH  21  22
ENDBRANCH  20  21
ENDBRANCH  19  20
ENDBRANCH  18  19
ENDBRANCH  17  18
ENDBRANCH  16  17
ENDBRANCH  15  16
ENDBRANCH  14  15
ENDBRANCH  13  14
ENDBRANCH   1  13
TORSDOF 20
ENDMDL
MODEL 8
REMARK VINA RESULT:    -4.615      1.229      2.075
REMARK INTER + INTRA:         -11.531
REMARK INTER:                 -10.021
REMARK INTRA:                  -1.509
REMARK UNBOUND:                -1.519
REMARK SMILES CCCCCCCCCCCCCCCCCCCCCC(=O)[O-]
REMARK SMILES IDX 12 1 11 2 10 3 9 4 8 5 7 6 6 7 5 8 4 9 3 10 2 11 1 12 13 13
REMARK SMILES IDX 14 14 15 15 16 16 17 17 18 18 19 19 20 20 21 21 22 22 23 23
REMARK SMILES IDX 24 24
REMARK H PARENT
REMARK Flexibility Score: inf
ROOT
ATOM      1  C   UNL     1       2.461  51.213  22.728  1.00  0.00     0.000 C 
ENDROOT
BRANCH   1   2
ATOM      2  C   UNL     1       1.554  52.430  22.497  1.00  0.00     0.000 C 
BRANCH   2   3
ATOM      3  C   UNL     1       2.368  53.636  22.004  1.00  0.00     0.000 C 
BRANCH   3   4
ATOM      4  C   UNL     1       2.387  54.795  23.014  1.00  0.00    -0.000 C 
BRANCH   4   5
ATOM      5  C   UNL     1       3.334  54.533  24.196  1.00  0.00    -0.000 C 
BRANCH   5   6
ATOM      6  C   UNL     1       3.154  55.543  25.344  1.00  0.00    -0.000 C 
BRANCH   6   7
ATOM      7  C   UNL     1       2.772  56.973  24.909  1.00  0.00    -0.000 C 
BRANCH   7   8
ATOM      8  C   UNL     1       1.343  57.412  25.279  1.00  0.00    -0.000 C 
BRANCH   8   9
ATOM      9  C   UNL     1       0.801  58.517  24.355  1.00  0.00    -0.000 C 
BRANCH   9  10
ATOM     10  C   UNL     1      -0.280  59.380  25.041  1.00  0.00    -0.000 C 
BRANCH  10  11
ATOM     11  C   UNL     1       0.146  60.839  25.275  1.00  0.00    -0.003 C 
ATOM     12  C   UNL     1       0.041  61.704  24.021  1.00  0.00     0.004 C 
ENDBRANCH  10  11
ENDBRANCH   9  10
ENDBRANCH   8   9
ENDBRANCH   7   8
ENDBRANCH   6   7
ENDBRANCH   5   6
ENDBRANCH   4   5
ENDBRANCH   3   4
ENDBRANCH   2   3
ENDBRANCH   1   2
BRANCH   1  13
ATOM     13  C   UNL     1       1.674  49.896  22.855  1.00  0.00     0.000 C 
BRANCH  13  14
ATOM     14  C   UNL     1       2.511  48.673  23.286  1.00  0.00     0.000 C 
BRANCH  14  15
ATOM     15  C   UNL     1       2.366  47.428  22.391  1.00  0.00     0.000 C 
BRANCH  15  16
ATOM     16  C   UNL     1       3.718  46.888  21.896  1.00  0.00     0.000 C 
BRANCH  16  17
ATOM     17  C   UNL     1       4.761  47.997  21.666  1.00  0.00     0.000 C 
BRANCH  17  18
ATOM     18  C   UNL     1       6.064  47.856  22.475  1.00  0.00     0.000 C 
BRANCH  18  19
ATOM     19  C   UNL     1       5.848  47.213  23.855  1.00  0.00     0.000 C 
BRANCH  19  20
ATOM     20  C   UNL     1       5.635  48.253  24.970  1.00  0.00     0.006 C 
BRANCH  20  21
ATOM     21  C   UNL     1       6.585  49.460  24.899  1.00  0.00     0.053 C 
BRANCH  21  22
ATOM     22  C   UNL     1       7.774  49.294  25.795  1.00  0.00     0.041 C 
ATOM     23  O   UNL     1       8.931  49.549  25.367  1.00  0.00    -0.550 OA
ATOM     24  O   UNL     1       7.609  48.822  27.091  1.00  0.00    -0.550 OA
ENDBRANCH  21  22
ENDBRANCH  20  21
ENDBRANCH  19  20
ENDBRANCH  18  19
ENDBRANCH  17  18
ENDBRANCH  16  17
ENDBRANCH  15  16
ENDBRANCH  14  15
ENDBRANCH  13  14
ENDBRANCH   1  13
TORSDOF 20
ENDMDL
MODEL 9
REMARK VINA RESULT:    -4.605      4.107     10.133
REMARK INTER + INTRA:         -11.509
REMARK INTER:                  -9.813
REMARK INTRA:                  -1.696
REMARK UNBOUND:                -1.519
REMARK SMILES CCCCCCCCCCCCCCCCCCCCCC(=O)[O-]
REMARK SMILES IDX 12 1 11 2 10 3 9 4 8 5 7 6 6 7 5 8 4 9 3 10 2 11 1 12 13 13
REMARK SMILES IDX 14 14 15 15 16 16 17 17 18 18 19 19 20 20 21 21 22 22 23 23
REMARK SMILES IDX 24 24
REMARK H PARENT
REMARK Flexibility Score: inf
ROOT
ATOM      1  C   UNL     1       2.612  50.826  22.818  1.00  0.00     0.000 C 
ENDROOT
BRANCH   1   2
ATOM      2  C   UNL     1       1.807  49.522  22.907  1.00  0.00     0.000 C 
BRANCH   2   3
ATOM      3  C   UNL     1       2.626  48.334  22.378  1.00  0.00     0.000 C 
BRANCH   3   4
ATOM      4  C   UNL     1       2.573  47.112  23.310  1.00  0.00    -0.000 C 
BRANCH   4   5
ATOM      5  C   UNL     1       1.919  47.430  24.664  1.00  0.00    -0.000 C 
BRANCH   5   6
ATOM      6  C   UNL     1       2.942  47.572  25.806  1.00  0.00    -0.000 C 
BRANCH   6   7
ATOM      7  C   UNL     1       4.411  47.322  25.409  1.00  0.00    -0.000 C 
BRANCH   7   8
ATOM      8  C   UNL     1       5.260  48.591  25.203  1.00  0.00    -0.000 C 
BRANCH   8   9
ATOM      9  C   UNL     1       6.156  48.512  23.954  1.00  0.00    -0.000 C 
BRANCH   9  10
ATOM     10  C   UNL     1       7.641  48.780  24.278  1.00  0.00    -0.000 C 
BRANCH  10  11
ATOM     11  C   UNL     1       7.895  49.187  25.740  1.00  0.00    -0.003 C 
ATOM     12  C   UNL     1       8.495  50.584  25.879  1.00  0.00     0.004 C 
ENDBRANCH  10  11
ENDBRANCH   9  10
ENDBRANCH   8   9
ENDBRANCH   7   8
ENDBRANCH   6   7
ENDBRANCH   5   6
ENDBRANCH   4   5
ENDBRANCH   3   4
ENDBRANCH   2   3
ENDBRANCH   1   2
BRANCH   1  13
ATOM     13  C   UNL     1       1.728  52.058  22.552  1.00  0.00     0.000 C 
BRANCH  13  14
ATOM     14  C   UNL     1       2.480  53.305  22.043  1.00  0.00     0.000 C 
BRANCH  14  15
ATOM     15  C   UNL     1       2.310  54.572  22.900  1.00  0.00     0.000 C 
BRANCH  15  16
ATOM     16  C   UNL     1       1.881  55.798  22.076  1.00  0.00     0.000 C 
BRANCH  16  17
ATOM     17  C   UNL     1       2.328  57.131  22.705  1.00  0.00     0.000 C 
BRANCH  17  18
ATOM     18  C   UNL     1       2.793  57.047  24.172  1.00  0.00     0.000 C 
BRANCH  18  19
ATOM     19  C   UNL     1       1.674  57.373  25.176  1.00  0.00     0.000 C 
BRANCH  19  20
ATOM     20  C   UNL     1       0.505  58.144  24.535  1.00  0.00     0.006 C 
BRANCH  20  21
ATOM     21  C   UNL     1       0.265  59.540  25.131  1.00  0.00     0.053 C 
BRANCH  21  22
ATOM     22  C   UNL     1       0.625  60.633  24.171  1.00  0.00     0.041 C 
ATOM     23  O   UNL     1       1.647  60.526  23.444  1.00  0.00    -0.550 OA
ATOM     24  O   UNL     1      -0.147  61.785  24.107  1.00  0.00    -0.550 OA
ENDBRANCH  21  22
ENDBRANCH  20  21
ENDBRANCH  19  20
ENDBRANCH  18  19
ENDBRANCH  17  18
ENDBRANCH  16  17
ENDBRANCH  15  16
ENDBRANCH  14  15
ENDBRANCH  13  14
ENDBRANCH   1  13
TORSDOF 20
ENDMDL
