MODEL 1
REMARK VINA RESULT:    -7.209      0.000      0.000
REMARK INTER + INTRA:          -8.768
REMARK INTER:                  -8.473
REMARK INTRA:                  -0.295
REMARK UNBOUND:                -0.295
REMARK SMILES O=c1c(O)c(-c2ccc(O)cc2)oc2cc(O)cc(O)c12
REMARK SMILES IDX 5 1 3 2 2 3 1 4 21 5 19 6 18 7 16 8 15 9 14 10 13 11 6 12
REMARK SMILES IDX 7 13 8 14 9 15 12 16 11 17 10 18 4 20 20 22 17 24
REMARK H PARENT 10 19 4 21 20 23 17 25
REMARK Flexibility Score: inf
ROOT
ATOM      1  C   UNL     1      24.008 -25.598  27.603  1.00  0.00     0.180 A 
ATOM      2  C   UNL     1      22.856 -25.504  26.803  1.00  0.00     0.208 A 
ATOM      3  C   UNL     1      22.873 -24.665  25.677  1.00  0.00     0.238 A 
ATOM      4  O   UNL     1      21.816 -24.530  25.009  1.00  0.00    -0.285 OA
ATOM      5  C   UNL     1      24.060 -23.973  25.333  1.00  0.00     0.111 A 
ATOM      6  C   UNL     1      24.206 -23.131  24.189  1.00  0.00     0.134 A 
ATOM      7  C   UNL     1      25.394 -22.412  24.008  1.00  0.00     0.093 A 
ATOM      8  C   UNL     1      26.465 -22.555  24.894  1.00  0.00     0.123 A 
ATOM      9  C   UNL     1      26.352 -23.416  25.982  1.00  0.00     0.094 A 
ATOM     10  C   UNL     1      25.166 -24.117  26.211  1.00  0.00     0.146 A 
ATOM     11  O   UNL     1      25.094 -24.910  27.272  1.00  0.00    -0.452 OA
ENDROOT
BRANCH   1  12
ATOM     12  C   UNL     1      24.061 -26.449  28.813  1.00  0.00     0.021 A 
ATOM     13  C   UNL     1      24.617 -27.737  28.727  1.00  0.00     0.016 A 
ATOM     14  C   UNL     1      24.698 -28.550  29.861  1.00  0.00     0.047 A 
ATOM     15  C   UNL     1      24.239 -28.080  31.099  1.00  0.00     0.115 A 
ATOM     16  C   UNL     1      23.621 -25.976  30.063  1.00  0.00     0.016 A 
ATOM     17  C   UNL     1      23.704 -26.792  31.196  1.00  0.00     0.047 A 
BRANCH  15  18
ATOM     18  O   UNL     1      24.314 -28.881  32.235  1.00  0.00    -0.508 OA
ATOM     19  H   UNL     1      23.739 -28.701  33.050  1.00  0.00     0.293 HD
ENDBRANCH  15  18
ENDBRANCH   1  12
BRANCH   2  20
ATOM     20  O   UNL     1      21.719 -26.256  27.117  1.00  0.00    -0.502 OA
ATOM     21  H   UNL     1      21.331 -26.943  26.482  1.00  0.00     0.293 HD
ENDBRANCH   2  20
BRANCH   6  22
ATOM     22  O   UNL     1      23.234 -22.984  23.196  1.00  0.00    -0.507 OA
ATOM     23  H   UNL     1      23.133 -22.176  22.599  1.00  0.00     0.293 HD
ENDBRANCH   6  22
BRANCH   8  24
ATOM     24  O   UNL     1      27.650 -21.849  24.695  1.00  0.00    -0.508 OA
ATOM     25  H   UNL     1      28.556 -22.291  24.805  1.00  0.00     0.293 HD
ENDBRANCH   8  24
TORSDOF 5
ENDMDL
MODEL 2
REMARK VINA RESULT:    -7.080      3.991      6.424
REMARK INTER + INTRA:          -8.617
REMARK INTER:                  -8.326
REMARK INTRA:                  -0.291
REMARK UNBOUND:                -0.295
REMARK SMILES O=c1c(O)c(-c2ccc(O)cc2)oc2cc(O)cc(O)c12
REMARK SMILES IDX 5 1 3 2 2 3 1 4 21 5 19 6 18 7 16 8 15 9 14 10 13 11 6 12
REMARK SMILES IDX 7 13 8 14 9 15 12 16 11 17 10 18 4 20 20 22 17 24
REMARK H PARENT 10 19 4 21 20 23 17 25
REMARK Flexibility Score: inf
ROOT
ATOM      1  C   UNL     1      26.599 -22.518  24.183  1.00  0.00     0.180 A 
ATOM      2  C   UNL     1      27.468 -23.565  23.830  1.00  0.00     0.208 A 
ATOM      3  C   UNL     1      28.743 -23.254  23.331  1.00  0.00     0.238 A 
ATOM      4  O   UNL     1      29.487 -24.194  22.948  1.00  0.00    -0.285 OA
ATOM      5  C   UNL     1      29.155 -21.902  23.243  1.00  0.00     0.111 A 
ATOM      6  C   UNL     1      30.440 -21.471  22.794  1.00  0.00     0.134 A 
ATOM      7  C   UNL     1      30.698 -20.103  22.648  1.00  0.00     0.093 A 
ATOM      8  C   UNL     1      29.740 -19.148  22.995  1.00  0.00     0.123 A 
ATOM      9  C   UNL     1      28.502 -19.556  23.485  1.00  0.00     0.094 A 
ATOM     10  C   UNL     1      28.201 -20.915  23.606  1.00  0.00     0.146 A 
ATOM     11  O   UNL     1      27.002 -21.260  24.058  1.00  0.00    -0.452 OA
ENDROOT
BRANCH   1  12
ATOM     12  C   UNL     1      25.236 -22.767  24.701  1.00  0.00     0.021 A 
ATOM     13  C   UNL     1      25.005 -22.725  26.087  1.00  0.00     0.016 A 
ATOM     14  C   UNL     1      23.721 -22.934  26.599  1.00  0.00     0.047 A 
ATOM     15  C   UNL     1      22.648 -23.173  25.730  1.00  0.00     0.115 A 
ATOM     16  C   UNL     1      24.149 -22.987  23.835  1.00  0.00     0.016 A 
ATOM     17  C   UNL     1      22.865 -23.195  24.349  1.00  0.00     0.047 A 
BRANCH  15  18
ATOM     18  O   UNL     1      21.364 -23.383  26.228  1.00  0.00    -0.508 OA
ATOM     19  H   UNL     1      20.946 -22.750  26.901  1.00  0.00     0.293 HD
ENDBRANCH  15  18
ENDBRANCH   1  12
BRANCH   2  20
ATOM     20  O   UNL     1      27.071 -24.895  23.997  1.00  0.00    -0.502 OA
ATOM     21  H   UNL     1      26.497 -25.197  24.775  1.00  0.00     0.293 HD
ENDBRANCH   2  20
BRANCH   6  22
ATOM     22  O   UNL     1      31.499 -22.337  22.505  1.00  0.00    -0.507 OA
ATOM     23  H   UNL     1      31.958 -22.411  21.610  1.00  0.00     0.293 HD
ENDBRANCH   6  22
BRANCH   8  24
ATOM     24  O   UNL     1      30.012 -17.788  22.862  1.00  0.00    -0.508 OA
ATOM     25  H   UNL     1      29.312 -17.137  22.524  1.00  0.00     0.293 HD
ENDBRANCH   8  24
TORSDOF 5
ENDMDL
MODEL 3
REMARK VINA RESULT:    -7.046      1.927      6.659
REMARK INTER + INTRA:          -8.577
REMARK INTER:                  -8.280
REMARK INTRA:                  -0.297
REMARK UNBOUND:                -0.295
REMARK SMILES O=c1c(O)c(-c2ccc(O)cc2)oc2cc(O)cc(O)c12
REMARK SMILES IDX 5 1 3 2 2 3 1 4 21 5 19 6 18 7 16 8 15 9 14 10 13 11 6 12
REMARK SMILES IDX 7 13 8 14 9 15 12 16 11 17 10 18 4 20 20 22 17 24
REMARK H PARENT 10 19 4 21 20 23 17 25
REMARK Flexibility Score: inf
ROOT
ATOM      1  C   UNL     1      25.798 -23.805  24.880  1.00  0.00     0.180 A 
ATOM      2  C   UNL     1      24.666 -24.122  24.109  1.00  0.00     0.208 A 
ATOM      3  C   UNL     1      23.582 -24.769  24.723  1.00  0.00     0.238 A 
ATOM      4  O   UNL     1      22.604 -25.115  24.012  1.00  0.00    -0.285 OA
ATOM      5  C   UNL     1      23.619 -25.040  26.113  1.00  0.00     0.111 A 
ATOM      6  C   UNL     1      22.559 -25.651  26.850  1.00  0.00     0.134 A 
ATOM      7  C   UNL     1      22.750 -25.968  28.200  1.00  0.00     0.093 A 
ATOM      8  C   UNL     1      23.938 -25.638  28.857  1.00  0.00     0.123 A 
ATOM      9  C   UNL     1      24.957 -24.993  28.161  1.00  0.00     0.094 A 
ATOM     10  C   UNL     1      24.811 -24.698  26.803  1.00  0.00     0.146 A 
ATOM     11  O   UNL     1      25.816 -24.102  26.174  1.00  0.00    -0.452 OA
ENDROOT
BRANCH   1  12
ATOM     12  C   UNL     1      26.985 -23.137  24.301  1.00  0.00     0.021 A 
ATOM     13  C   UNL     1      27.111 -21.741  24.402  1.00  0.00     0.016 A 
ATOM     14  C   UNL     1      28.234 -21.091  23.883  1.00  0.00     0.047 A 
ATOM     15  C   UNL     1      29.253 -21.830  23.268  1.00  0.00     0.115 A 
ATOM     16  C   UNL     1      28.022 -23.874  23.701  1.00  0.00     0.016 A 
ATOM     17  C   UNL     1      29.145 -23.222  23.182  1.00  0.00     0.047 A 
BRANCH  15  18
ATOM     18  O   UNL     1      30.376 -21.194  22.746  1.00  0.00    -0.508 OA
ATOM     19  H   UNL     1      30.599 -21.238  21.758  1.00  0.00     0.293 HD
ENDBRANCH  15  18
ENDBRANCH   1  12
BRANCH   2  20
ATOM     20  O   UNL     1      24.618 -23.775  22.756  1.00  0.00    -0.502 OA
ATOM     21  H   UNL     1      23.941 -23.118  22.387  1.00  0.00     0.293 HD
ENDBRANCH   2  20
BRANCH   6  22
ATOM     22  O   UNL     1      21.300 -25.942  26.315  1.00  0.00    -0.507 OA
ATOM     23  H   UNL     1      20.459 -25.414  26.494  1.00  0.00     0.293 HD
ENDBRANCH   6  22
BRANCH   8  24
ATOM     24  O   UNL     1      24.112 -25.942  30.206  1.00  0.00    -0.508 OA
ATOM     25  H   UNL     1      23.963 -26.880  30.562  1.00  0.00     0.293 HD
ENDBRANCH   8  24
TORSDOF 5
ENDMDL
MODEL 4
REMARK VINA RESULT:    -6.805      4.148      6.536
REMARK INTER + INTRA:          -8.293
REMARK INTER:                  -8.109
REMARK INTRA:                  -0.184
REMARK UNBOUND:                -0.295
REMARK SMILES O=c1c(O)c(-c2ccc(O)cc2)oc2cc(O)cc(O)c12
REMARK SMILES IDX 5 1 3 2 2 3 1 4 21 5 19 6 18 7 16 8 15 9 14 10 13 11 6 12
REMARK SMILES IDX 7 13 8 14 9 15 12 16 11 17 10 18 4 20 20 22 17 24
REMARK H PARENT 10 19 4 21 20 23 17 25
REMARK Flexibility Score: inf
ROOT
ATOM      1  C   UNL     1      23.188 -22.585  26.266  1.00  0.00     0.180 A 
ATOM      2  C   UNL     1      23.891 -22.852  27.454  1.00  0.00     0.208 A 
ATOM      3  C   UNL     1      23.773 -21.960  28.532  1.00  0.00     0.238 A 
ATOM      4  O   UNL     1      24.462 -22.165  29.564  1.00  0.00    -0.285 OA
ATOM      5  C   UNL     1      22.909 -20.842  28.428  1.00  0.00     0.111 A 
ATOM      6  C   UNL     1      22.676 -19.896  29.473  1.00  0.00     0.134 A 
ATOM      7  C   UNL     1      21.883 -18.770  29.221  1.00  0.00     0.093 A 
ATOM      8  C   UNL     1      21.262 -18.588  27.983  1.00  0.00     0.123 A 
ATOM      9  C   UNL     1      21.438 -19.533  26.976  1.00  0.00     0.094 A 
ATOM     10  C   UNL     1      22.255 -20.647  27.184  1.00  0.00     0.146 A 
ATOM     11  O   UNL     1      22.412 -21.511  26.189  1.00  0.00    -0.452 OA
ENDROOT
BRANCH   1  12
ATOM     12  C   UNL     1      23.275 -23.470  25.083  1.00  0.00     0.021 A 
ATOM     13  C   UNL     1      23.988 -23.042  23.951  1.00  0.00     0.016 A 
ATOM     14  C   UNL     1      24.102 -23.871  22.831  1.00  0.00     0.047 A 
ATOM     15  C   UNL     1      23.518 -25.144  22.834  1.00  0.00     0.115 A 
ATOM     16  C   UNL     1      22.708 -24.758  25.087  1.00  0.00     0.016 A 
ATOM     17  C   UNL     1      22.824 -25.585  23.965  1.00  0.00     0.047 A 
BRANCH  15  18
ATOM     18  O   UNL     1      23.624 -25.978  21.724  1.00  0.00    -0.508 OA
ATOM     19  H   UNL     1      24.484 -26.471  21.512  1.00  0.00     0.293 HD
ENDBRANCH  15  18
ENDBRANCH   1  12
BRANCH   2  20
ATOM     20  O   UNL     1      24.678 -24.002  27.562  1.00  0.00    -0.502 OA
ATOM     21  H   UNL     1      24.367 -24.907  27.229  1.00  0.00     0.293 HD
ENDBRANCH   2  20
BRANCH   6  22
ATOM     22  O   UNL     1      23.175 -20.026  30.773  1.00  0.00    -0.507 OA
ATOM     23  H   UNL     1      23.847 -20.719  31.068  1.00  0.00     0.293 HD
ENDBRANCH   6  22
BRANCH   8  24
ATOM     24  O   UNL     1      20.460 -17.473  27.748  1.00  0.00    -0.508 OA
ATOM     25  H   UNL     1      19.466 -17.484  27.943  1.00  0.00     0.293 HD
ENDBRANCH   8  24
TORSDOF 5
ENDMDL
MODEL 5
REMARK VINA RESULT:    -6.730      2.296      2.641
REMARK INTER + INTRA:          -8.205
REMARK INTER:                  -8.577
REMARK INTRA:                   0.372
REMARK UNBOUND:                -0.295
REMARK SMILES O=c1c(O)c(-c2ccc(O)cc2)oc2cc(O)cc(O)c12
REMARK SMILES IDX 5 1 3 2 2 3 1 4 21 5 19 6 18 7 16 8 15 9 14 10 13 11 6 12
REMARK SMILES IDX 7 13 8 14 9 15 12 16 11 17 10 18 4 20 20 22 17 24
REMARK H PARENT 10 19 4 21 20 23 17 25
REMARK Flexibility Score: inf
ROOT
ATOM      1  C   UNL     1      23.671 -25.706  28.190  1.00  0.00     0.180 A 
ATOM      2  C   UNL     1      22.908 -24.614  28.638  1.00  0.00     0.208 A 
ATOM      3  C   UNL     1      22.357 -23.733  27.694  1.00  0.00     0.238 A 
ATOM      4  O   UNL     1      21.739 -22.717  28.104  1.00  0.00    -0.285 OA
ATOM      5  C   UNL     1      22.529 -23.986  26.311  1.00  0.00     0.111 A 
ATOM      6  C   UNL     1      21.977 -23.186  25.264  1.00  0.00     0.134 A 
ATOM      7  C   UNL     1      22.302 -23.472  23.932  1.00  0.00     0.093 A 
ATOM      8  C   UNL     1      23.106 -24.566  23.606  1.00  0.00     0.123 A 
ATOM      9  C   UNL     1      23.604 -25.385  24.616  1.00  0.00     0.094 A 
ATOM     10  C   UNL     1      23.329 -25.104  25.956  1.00  0.00     0.146 A 
ATOM     11  O   UNL     1      23.842 -25.897  26.888  1.00  0.00    -0.452 OA
ENDROOT
BRANCH   1  12
ATOM     12  C   UNL     1      24.296 -26.668  29.125  1.00  0.00     0.021 A 
ATOM     13  C   UNL     1      24.689 -27.933  28.655  1.00  0.00     0.016 A 
ATOM     14  C   UNL     1      25.302 -28.849  29.514  1.00  0.00     0.047 A 
ATOM     15  C   UNL     1      25.543 -28.508  30.852  1.00  0.00     0.115 A 
ATOM     16  C   UNL     1      24.561 -26.325  30.464  1.00  0.00     0.016 A 
ATOM     17  C   UNL     1      25.174 -27.244  31.321  1.00  0.00     0.047 A 
BRANCH  15  18
ATOM     18  O   UNL     1      26.152 -29.412  31.717  1.00  0.00    -0.508 OA
ATOM     19  H   UNL     1      26.408 -30.346  31.415  1.00  0.00     0.293 HD
ENDBRANCH  15  18
ENDBRANCH   1  12
BRANCH   2  20
ATOM     20  O   UNL     1      22.686 -24.425  30.006  1.00  0.00    -0.502 OA
ATOM     21  H   UNL     1      22.369 -25.172  30.613  1.00  0.00     0.293 HD
ENDBRANCH   2  20
BRANCH   6  22
ATOM     22  O   UNL     1      21.093 -22.124  25.474  1.00  0.00    -0.507 OA
ATOM     23  H   UNL     1      21.333 -21.147  25.399  1.00  0.00     0.293 HD
ENDBRANCH   6  22
BRANCH   8  24
ATOM     24  O   UNL     1      23.410 -24.853  22.276  1.00  0.00    -0.508 OA
ATOM     25  H   UNL     1      22.710 -24.787  21.546  1.00  0.00     0.293 HD
ENDBRANCH   8  24
TORSDOF 5
ENDMDL
MODEL 6
REMARK VINA RESULT:    -6.696      4.456      6.466
REMARK INTER + INTRA:          -8.166
REMARK INTER:                  -8.115
REMARK INTRA:                  -0.051
REMARK UNBOUND:                -0.295
REMARK SMILES O=c1c(O)c(-c2ccc(O)cc2)oc2cc(O)cc(O)c12
REMARK SMILES IDX 5 1 3 2 2 3 1 4 21 5 19 6 18 7 16 8 15 9 14 10 13 11 6 12
REMARK SMILES IDX 7 13 8 14 9 15 12 16 11 17 10 18 4 20 20 22 17 24
REMARK H PARENT 10 19 4 21 20 23 17 25
REMARK Flexibility Score: inf
ROOT
ATOM      1  C   UNL     1      22.326 -21.379  27.276  1.00  0.00     0.180 A 
ATOM      2  C   UNL     1      22.120 -22.517  28.076  1.00  0.00     0.208 A 
ATOM      3  C   UNL     1      22.347 -23.788  27.525  1.00  0.00     0.238 A 
ATOM      4  O   UNL     1      22.090 -24.803  28.223  1.00  0.00    -0.285 OA
ATOM      5  C   UNL     1      22.829 -23.904  26.198  1.00  0.00     0.111 A 
ATOM      6  C   UNL     1      23.136 -25.140  25.551  1.00  0.00     0.134 A 
ATOM      7  C   UNL     1      23.505 -25.140  24.200  1.00  0.00     0.093 A 
ATOM      8  C   UNL     1      23.640 -23.944  23.491  1.00  0.00     0.123 A 
ATOM      9  C   UNL     1      23.396 -22.730  24.128  1.00  0.00     0.094 A 
ATOM     10  C   UNL     1      22.989 -22.700  25.464  1.00  0.00     0.146 A 
ATOM     11  O   UNL     1      22.746 -21.523  26.026  1.00  0.00    -0.452 OA
ENDROOT
BRANCH   1  12
ATOM     12  C   UNL     1      22.094 -20.008  27.782  1.00  0.00     0.021 A 
ATOM     13  C   UNL     1      22.820 -19.550  28.895  1.00  0.00     0.016 A 
ATOM     14  C   UNL     1      22.635 -18.251  29.376  1.00  0.00     0.047 A 
ATOM     15  C   UNL     1      21.732 -17.387  28.742  1.00  0.00     0.115 A 
ATOM     16  C   UNL     1      21.204 -19.128  27.138  1.00  0.00     0.016 A 
ATOM     17  C   UNL     1      21.021 -17.828  27.622  1.00  0.00     0.047 A 
BRANCH  15  18
ATOM     18  O   UNL     1      21.538 -16.091  29.213  1.00  0.00    -0.508 OA
ATOM     19  H   UNL     1      21.713 -15.282  28.627  1.00  0.00     0.293 HD
ENDBRANCH  15  18
ENDBRANCH   1  12
BRANCH   2  20
ATOM     20  O   UNL     1      21.718 -22.377  29.408  1.00  0.00    -0.502 OA
ATOM     21  H   UNL     1      22.354 -22.082  30.139  1.00  0.00     0.293 HD
ENDBRANCH   2  20
BRANCH   6  22
ATOM     22  O   UNL     1      23.119 -26.384  26.190  1.00  0.00    -0.507 OA
ATOM     23  H   UNL     1      23.902 -26.795  26.677  1.00  0.00     0.293 HD
ENDBRANCH   6  22
BRANCH   8  24
ATOM     24  O   UNL     1      24.024 -23.952  22.152  1.00  0.00    -0.508 OA
ATOM     25  H   UNL     1      24.995 -24.059  21.879  1.00  0.00     0.293 HD
ENDBRANCH   8  24
TORSDOF 5
ENDMDL
MODEL 7
REMARK VINA RESULT:    -6.606      3.504      3.858
REMARK INTER + INTRA:          -8.060
REMARK INTER:                  -7.956
REMARK INTRA:                  -0.104
REMARK UNBOUND:                -0.295
REMARK SMILES O=c1c(O)c(-c2ccc(O)cc2)oc2cc(O)cc(O)c12
REMARK SMILES IDX 5 1 3 2 2 3 1 4 21 5 19 6 18 7 16 8 15 9 14 10 13 11 6 12
REMARK SMILES IDX 7 13 8 14 9 15 12 16 11 17 10 18 4 20 20 22 17 24
REMARK H PARENT 10 19 4 21 20 23 17 25
REMARK Flexibility Score: inf
ROOT
ATOM      1  C   UNL     1      23.506 -24.265  28.243  1.00  0.00     0.180 A 
ATOM      2  C   UNL     1      22.732 -24.058  27.088  1.00  0.00     0.208 A 
ATOM      3  C   UNL     1      22.206 -22.781  26.838  1.00  0.00     0.238 A 
ATOM      4  O   UNL     1      21.454 -22.621  25.843  1.00  0.00    -0.285 OA
ATOM      5  C   UNL     1      22.508 -21.711  27.717  1.00  0.00     0.111 A 
ATOM      6  C   UNL     1      22.067 -20.365  27.539  1.00  0.00     0.134 A 
ATOM      7  C   UNL     1      22.337 -19.412  28.529  1.00  0.00     0.093 A 
ATOM      8  C   UNL     1      23.088 -19.743  29.660  1.00  0.00     0.123 A 
ATOM      9  C   UNL     1      23.569 -21.040  29.817  1.00  0.00     0.094 A 
ATOM     10  C   UNL     1      23.283 -22.022  28.865  1.00  0.00     0.146 A 
ATOM     11  O   UNL     1      23.743 -23.250  29.065  1.00  0.00    -0.452 OA
ENDROOT
BRANCH   1  12
ATOM     12  C   UNL     1      24.081 -25.586  28.581  1.00  0.00     0.021 A 
ATOM     13  C   UNL     1      23.647 -26.252  29.741  1.00  0.00     0.016 A 
ATOM     14  C   UNL     1      24.159 -27.511  30.068  1.00  0.00     0.047 A 
ATOM     15  C   UNL     1      25.100 -28.127  29.232  1.00  0.00     0.115 A 
ATOM     16  C   UNL     1      25.010 -26.221  27.737  1.00  0.00     0.016 A 
ATOM     17  C   UNL     1      25.521 -27.481  28.066  1.00  0.00     0.047 A 
BRANCH  15  18
ATOM     18  O   UNL     1      25.618 -29.381  29.548  1.00  0.00    -0.508 OA
ATOM     19  H   UNL     1      25.212 -29.953  30.281  1.00  0.00     0.293 HD
ENDBRANCH  15  18
ENDBRANCH   1  12
BRANCH   2  20
ATOM     20  O   UNL     1      22.510 -25.109  26.193  1.00  0.00    -0.502 OA
ATOM     21  H   UNL     1      22.294 -26.050  26.502  1.00  0.00     0.293 HD
ENDBRANCH   2  20
BRANCH   6  22
ATOM     22  O   UNL     1      21.388 -19.907  26.406  1.00  0.00    -0.507 OA
ATOM     23  H   UNL     1      20.501 -20.261  26.080  1.00  0.00     0.293 HD
ENDBRANCH   6  22
BRANCH   8  24
ATOM     24  O   UNL     1      23.366 -18.784  30.632  1.00  0.00    -0.508 OA
ATOM     25  H   UNL     1      23.957 -18.993  31.430  1.00  0.00     0.293 HD
ENDBRANCH   8  24
TORSDOF 5
ENDMDL
MODEL 8
REMARK VINA RESULT:    -6.546      2.095      6.713
REMARK INTER + INTRA:          -7.989
REMARK INTER:                  -7.703
REMARK INTRA:                  -0.286
REMARK UNBOUND:                -0.295
REMARK SMILES O=c1c(O)c(-c2ccc(O)cc2)oc2cc(O)cc(O)c12
REMARK SMILES IDX 5 1 3 2 2 3 1 4 21 5 19 6 18 7 16 8 15 9 14 10 13 11 6 12
REMARK SMILES IDX 7 13 8 14 9 15 12 16 11 17 10 18 4 20 20 22 17 24
REMARK H PARENT 10 19 4 21 20 23 17 25
REMARK Flexibility Score: inf
ROOT
ATOM      1  C   UNL     1      23.888 -25.444  27.467  1.00  0.00     0.180 A 
ATOM      2  C   UNL     1      23.531 -24.367  28.298  1.00  0.00     0.208 A 
ATOM      3  C   UNL     1      23.577 -24.536  29.691  1.00  0.00     0.238 A 
ATOM      4  O   UNL     1      23.185 -23.593  30.426  1.00  0.00    -0.285 OA
ATOM      5  C   UNL     1      24.032 -25.761  30.237  1.00  0.00     0.111 A 
ATOM      6  C   UNL     1      24.162 -26.028  31.634  1.00  0.00     0.134 A 
ATOM      7  C   UNL     1      24.521 -27.313  32.061  1.00  0.00     0.093 A 
ATOM      8  C   UNL     1      24.817 -28.321  31.140  1.00  0.00     0.123 A 
ATOM      9  C   UNL     1      24.746 -28.055  29.775  1.00  0.00     0.094 A 
ATOM     10  C   UNL     1      24.354 -26.794  29.319  1.00  0.00     0.146 A 
ATOM     11  O   UNL     1      24.278 -26.590  28.010  1.00  0.00    -0.452 OA
ENDROOT
BRANCH   1  12
ATOM     12  C   UNL     1      23.850 -25.347  25.991  1.00  0.00     0.021 A 
ATOM     13  C   UNL     1      22.680 -25.712  25.304  1.00  0.00     0.016 A 
ATOM     14  C   UNL     1      22.614 -25.607  23.912  1.00  0.00     0.047 A 
ATOM     15  C   UNL     1      23.712 -25.121  23.189  1.00  0.00     0.115 A 
ATOM     16  C   UNL     1      24.941 -24.840  25.260  1.00  0.00     0.016 A 
ATOM     17  C   UNL     1      24.872 -24.736  23.867  1.00  0.00     0.047 A 
BRANCH  15  18
ATOM     18  O   UNL     1      23.658 -25.013  21.802  1.00  0.00    -0.508 OA
ATOM     19  H   UNL     1      24.456 -24.696  21.263  1.00  0.00     0.293 HD
ENDBRANCH  15  18
ENDBRANCH   1  12
BRANCH   2  20
ATOM     20  O   UNL     1      23.158 -23.141  27.738  1.00  0.00    -0.502 OA
ATOM     21  H   UNL     1      22.347 -22.623  28.056  1.00  0.00     0.293 HD
ENDBRANCH   2  20
BRANCH   6  22
ATOM     22  O   UNL     1      23.977 -25.071  32.635  1.00  0.00    -0.507 OA
ATOM     23  H   UNL     1      24.476 -24.196  32.699  1.00  0.00     0.293 HD
ENDBRANCH   6  22
BRANCH   8  24
ATOM     24  O   UNL     1      25.190 -29.592  31.574  1.00  0.00    -0.508 OA
ATOM     25  H   UNL     1      26.141 -29.928  31.475  1.00  0.00     0.293 HD
ENDBRANCH   8  24
TORSDOF 5
ENDMDL
MODEL 9
REMARK VINA RESULT:    -6.457      2.987      4.767
REMARK INTER + INTRA:          -7.885
REMARK INTER:                  -7.620
REMARK INTRA:                  -0.264
REMARK UNBOUND:                -0.295
REMARK SMILES O=c1c(O)c(-c2ccc(O)cc2)oc2cc(O)cc(O)c12
REMARK SMILES IDX 5 1 3 2 2 3 1 4 21 5 19 6 18 7 16 8 15 9 14 10 13 11 6 12
REMARK SMILES IDX 7 13 8 14 9 15 12 16 11 17 10 18 4 20 20 22 17 24
REMARK H PARENT 10 19 4 21 20 23 17 25
REMARK Flexibility Score: inf
ROOT
ATOM      1  C   UNL     1      24.724 -26.909  31.186  1.00  0.00     0.180 A 
ATOM      2  C   UNL     1      24.902 -27.765  30.085  1.00  0.00     0.208 A 
ATOM      3  C   UNL     1      24.383 -27.387  28.837  1.00  0.00     0.238 A 
ATOM      4  O   UNL     1      24.480 -28.191  27.874  1.00  0.00    -0.285 OA
ATOM      5  C   UNL     1      23.742 -26.132  28.691  1.00  0.00     0.111 A 
ATOM      6  C   UNL     1      23.218 -25.626  27.463  1.00  0.00     0.134 A 
ATOM      7  C   UNL     1      22.509 -24.418  27.461  1.00  0.00     0.093 A 
ATOM      8  C   UNL     1      22.362 -23.667  28.629  1.00  0.00     0.123 A 
ATOM      9  C   UNL     1      22.917 -24.125  29.821  1.00  0.00     0.094 A 
ATOM     10  C   UNL     1      23.596 -25.345  29.863  1.00  0.00     0.146 A 
ATOM     11  O   UNL     1      24.090 -25.755  31.025  1.00  0.00    -0.452 OA
ENDROOT
BRANCH   1  12
ATOM     12  C   UNL     1      25.230 -27.246  32.536  1.00  0.00     0.021 A 
ATOM     13  C   UNL     1      24.496 -28.127  33.349  1.00  0.00     0.016 A 
ATOM     14  C   UNL     1      24.965 -28.477  34.618  1.00  0.00     0.047 A 
ATOM     15  C   UNL     1      26.182 -27.963  35.086  1.00  0.00     0.115 A 
ATOM     16  C   UNL     1      26.460 -26.750  33.004  1.00  0.00     0.016 A 
ATOM     17  C   UNL     1      26.928 -27.102  34.275  1.00  0.00     0.047 A 
BRANCH  15  18
ATOM     18  O   UNL     1      26.658 -28.304  36.348  1.00  0.00    -0.508 OA
ATOM     19  H   UNL     1      27.280 -27.690  36.864  1.00  0.00     0.293 HD
ENDBRANCH  15  18
ENDBRANCH   1  12
BRANCH   2  20
ATOM     20  O   UNL     1      25.605 -28.964  30.233  1.00  0.00    -0.502 OA
ATOM     21  H   UNL     1      26.300 -29.273  29.563  1.00  0.00     0.293 HD
ENDBRANCH   2  20
BRANCH   6  22
ATOM     22  O   UNL     1      23.384 -26.251  26.224  1.00  0.00    -0.507 OA
ATOM     23  H   UNL     1      22.679 -26.305  25.504  1.00  0.00     0.293 HD
ENDBRANCH   6  22
BRANCH   8  24
ATOM     24  O   UNL     1      21.670 -22.457  28.613  1.00  0.00    -0.508 OA
ATOM     25  H   UNL     1      20.667 -22.422  28.471  1.00  0.00     0.293 HD
ENDBRANCH   8  24
TORSDOF 5
ENDMDL
