MODEL 1
REMARK VINA RESULT:    -6.763      0.000      0.000
REMARK INTER + INTRA:          -8.500
REMARK INTER:                  -8.146
REMARK INTRA:                  -0.354
REMARK UNBOUND:                -0.354
REMARK SMILES O=c1c(O)c(-c2ccc(O)cc2O)oc2cc(O)cc(O)c12
REMARK SMILES IDX 5 1 3 2 2 3 1 4 22 5 20 6 19 7 17 8 16 9 15 10 14 11 6 12
REMARK SMILES IDX 8 13 7 14 9 15 11 16 12 17 10 18 13 20 4 22 21 24 18 26
REMARK H PARENT 10 19 13 21 4 23 21 25 18 27
REMARK Flexibility Score: inf
ROOT
ATOM      1  C   UNL     1      31.886 -38.495  33.756  1.00  0.00     0.184 A 
ATOM      2  C   UNL     1      32.694 -38.120  34.841  1.00  0.00     0.208 A 
ATOM      3  C   UNL     1      34.086 -38.083  34.671  1.00  0.00     0.238 A 
ATOM      4  O   UNL     1      34.802 -37.694  35.631  1.00  0.00    -0.285 OA
ATOM      5  C   UNL     1      34.653 -38.437  33.423  1.00  0.00     0.111 A 
ATOM      6  C   UNL     1      36.053 -38.474  33.150  1.00  0.00     0.134 A 
ATOM      7  C   UNL     1      36.495 -38.713  31.843  1.00  0.00     0.093 A 
ATOM      8  C   UNL     1      35.593 -38.981  30.814  1.00  0.00     0.123 A 
ATOM      9  C   UNL     1      34.224 -39.006  31.083  1.00  0.00     0.094 A 
ATOM     10  C   UNL     1      33.750 -38.736  32.369  1.00  0.00     0.146 A 
ATOM     11  O   UNL     1      32.439 -38.758  32.579  1.00  0.00    -0.451 OA
ENDROOT
BRANCH   1  12
ATOM     12  C   UNL     1      30.414 -38.570  33.872  1.00  0.00     0.063 A 
ATOM     13  C   UNL     1      28.240 -37.590  33.402  1.00  0.00     0.047 A 
ATOM     14  C   UNL     1      29.634 -37.546  33.314  1.00  0.00     0.020 A 
ATOM     15  C   UNL     1      27.609 -38.662  34.034  1.00  0.00     0.119 A 
ATOM     16  C   UNL     1      28.377 -39.703  34.573  1.00  0.00     0.093 A 
ATOM     17  C   UNL     1      29.776 -39.670  34.485  1.00  0.00     0.130 A 
BRANCH  15  18
ATOM     18  O   UNL     1      26.217 -38.690  34.118  1.00  0.00    -0.508 OA
ATOM     19  H   UNL     1      25.723 -39.507  34.455  1.00  0.00     0.293 HD
ENDBRANCH  15  18
BRANCH  17  20
ATOM     20  O   UNL     1      30.528 -40.735  34.982  1.00  0.00    -0.507 OA
ATOM     21  H   UNL     1      30.963 -41.411  34.368  1.00  0.00     0.293 HD
ENDBRANCH  17  20
ENDBRANCH   1  12
BRANCH   2  22
ATOM     22  O   UNL     1      32.106 -37.758  36.057  1.00  0.00    -0.502 OA
ATOM     23  H   UNL     1      31.825 -38.442  36.748  1.00  0.00     0.293 HD
ENDBRANCH   2  22
BRANCH   6  24
ATOM     24  O   UNL     1      37.043 -38.311  34.124  1.00  0.00    -0.507 OA
ATOM     25  H   UNL     1      38.020 -38.518  33.991  1.00  0.00     0.293 HD
ENDBRANCH   6  24
BRANCH   8  26
ATOM     26  O   UNL     1      36.070 -39.228  29.529  1.00  0.00    -0.508 OA
ATOM     27  H   UNL     1      36.994 -39.615  29.372  1.00  0.00     0.293 HD
ENDBRANCH   8  26
TORSDOF 6
ENDMDL
MODEL 2
REMARK VINA RESULT:    -6.277      3.937      5.796
REMARK INTER + INTRA:          -7.915
REMARK INTER:                  -7.497
REMARK INTRA:                  -0.418
REMARK UNBOUND:                -0.354
REMARK SMILES O=c1c(O)c(-c2ccc(O)cc2O)oc2cc(O)cc(O)c12
REMARK SMILES IDX 5 1 3 2 2 3 1 4 22 5 20 6 19 7 17 8 16 9 15 10 14 11 6 12
REMARK SMILES IDX 8 13 7 14 9 15 11 16 12 17 10 18 13 20 4 22 21 24 18 26
REMARK H PARENT 10 19 13 21 4 23 21 25 18 27
REMARK Flexibility Score: inf
ROOT
ATOM      1  C   UNL     1      32.393 -35.300  35.549  1.00  0.00     0.184 A 
ATOM      2  C   UNL     1      31.323 -35.673  34.720  1.00  0.00     0.208 A 
ATOM      3  C   UNL     1      31.472 -36.786  33.877  1.00  0.00     0.238 A 
ATOM      4  O   UNL     1      30.491 -37.148  33.176  1.00  0.00    -0.285 OA
ATOM      5  C   UNL     1      32.694 -37.501  33.865  1.00  0.00     0.111 A 
ATOM      6  C   UNL     1      32.970 -38.619  33.022  1.00  0.00     0.134 A 
ATOM      7  C   UNL     1      34.166 -39.329  33.186  1.00  0.00     0.093 A 
ATOM      8  C   UNL     1      35.123 -38.923  34.116  1.00  0.00     0.123 A 
ATOM      9  C   UNL     1      34.889 -37.796  34.904  1.00  0.00     0.094 A 
ATOM     10  C   UNL     1      33.690 -37.088  34.788  1.00  0.00     0.146 A 
ATOM     11  O   UNL     1      33.502 -36.027  35.565  1.00  0.00    -0.451 OA
ENDROOT
BRANCH   1  12
ATOM     12  C   UNL     1      32.308 -34.130  36.448  1.00  0.00     0.063 A 
ATOM     13  C   UNL     1      31.512 -33.163  38.532  1.00  0.00     0.047 A 
ATOM     14  C   UNL     1      31.607 -34.249  37.658  1.00  0.00     0.020 A 
ATOM     15  C   UNL     1      32.128 -31.951  38.216  1.00  0.00     0.119 A 
ATOM     16  C   UNL     1      32.851 -31.827  37.022  1.00  0.00     0.093 A 
ATOM     17  C   UNL     1      32.955 -32.913  36.141  1.00  0.00     0.130 A 
BRANCH  15  18
ATOM     18  O   UNL     1      32.021 -30.875  39.096  1.00  0.00    -0.508 OA
ATOM     19  H   UNL     1      31.213 -30.265  39.092  1.00  0.00     0.293 HD
ENDBRANCH  15  18
BRANCH  17  20
ATOM     20  O   UNL     1      33.717 -32.794  34.979  1.00  0.00    -0.507 OA
ATOM     21  H   UNL     1      34.727 -32.858  34.997  1.00  0.00     0.293 HD
ENDBRANCH  17  20
ENDBRANCH   1  12
BRANCH   2  22
ATOM     22  O   UNL     1      30.121 -34.960  34.766  1.00  0.00    -0.502 OA
ATOM     23  H   UNL     1      29.242 -35.397  35.012  1.00  0.00     0.293 HD
ENDBRANCH   2  22
BRANCH   6  24
ATOM     24  O   UNL     1      32.122 -39.053  31.999  1.00  0.00    -0.507 OA
ATOM     25  H   UNL     1      32.035 -40.009  31.690  1.00  0.00     0.293 HD
ENDBRANCH   6  24
BRANCH   8  26
ATOM     26  O   UNL     1      36.307 -39.645  34.241  1.00  0.00    -0.508 OA
ATOM     27  H   UNL     1      36.566 -40.359  33.570  1.00  0.00     0.293 HD
ENDBRANCH   8  26
TORSDOF 6
ENDMDL
MODEL 3
REMARK VINA RESULT:    -6.268      4.026      6.209
REMARK INTER + INTRA:          -7.905
REMARK INTER:                  -7.565
REMARK INTRA:                  -0.340
REMARK UNBOUND:                -0.354
REMARK SMILES O=c1c(O)c(-c2ccc(O)cc2O)oc2cc(O)cc(O)c12
REMARK SMILES IDX 5 1 3 2 2 3 1 4 22 5 20 6 19 7 17 8 16 9 15 10 14 11 6 12
REMARK SMILES IDX 8 13 7 14 9 15 11 16 12 17 10 18 13 20 4 22 21 24 18 26
REMARK H PARENT 10 19 13 21 4 23 21 25 18 27
REMARK Flexibility Score: inf
ROOT
ATOM      1  C   UNL     1      32.115 -35.309  35.807  1.00  0.00     0.184 A 
ATOM      2  C   UNL     1      33.035 -35.341  34.747  1.00  0.00     0.208 A 
ATOM      3  C   UNL     1      33.100 -36.486  33.938  1.00  0.00     0.238 A 
ATOM      4  O   UNL     1      33.889 -36.489  32.956  1.00  0.00    -0.285 OA
ATOM      5  C   UNL     1      32.254 -37.589  34.209  1.00  0.00     0.111 A 
ATOM      6  C   UNL     1      32.263 -38.815  33.479  1.00  0.00     0.134 A 
ATOM      7  C   UNL     1      31.293 -39.788  33.753  1.00  0.00     0.093 A 
ATOM      8  C   UNL     1      30.358 -39.608  34.772  1.00  0.00     0.123 A 
ATOM      9  C   UNL     1      30.379 -38.437  35.531  1.00  0.00     0.094 A 
ATOM     10  C   UNL     1      31.311 -37.433  35.258  1.00  0.00     0.146 A 
ATOM     11  O   UNL     1      31.289 -36.329  35.997  1.00  0.00    -0.451 OA
ENDROOT
BRANCH   1  12
ATOM     12  C   UNL     1      32.007 -34.141  36.706  1.00  0.00     0.063 A 
ATOM     13  C   UNL     1      32.445 -33.146  38.881  1.00  0.00     0.047 A 
ATOM     14  C   UNL     1      32.526 -34.233  38.007  1.00  0.00     0.020 A 
ATOM     15  C   UNL     1      31.859 -31.950  38.463  1.00  0.00     0.119 A 
ATOM     16  C   UNL     1      31.360 -31.839  37.158  1.00  0.00     0.093 A 
ATOM     17  C   UNL     1      31.441 -32.923  36.273  1.00  0.00     0.130 A 
BRANCH  15  18
ATOM     18  O   UNL     1      31.781 -30.875  39.347  1.00  0.00    -0.508 OA
ATOM     19  H   UNL     1      31.211 -30.917  40.183  1.00  0.00     0.293 HD
ENDBRANCH  15  18
BRANCH  17  20
ATOM     20  O   UNL     1      30.984 -32.785  34.962  1.00  0.00    -0.507 OA
ATOM     21  H   UNL     1      30.170 -33.285  34.627  1.00  0.00     0.293 HD
ENDBRANCH  17  20
ENDBRANCH   1  12
BRANCH   2  22
ATOM     22  O   UNL     1      33.845 -34.231  34.491  1.00  0.00    -0.502 OA
ATOM     23  H   UNL     1      34.817 -34.193  34.772  1.00  0.00     0.293 HD
ENDBRANCH   2  22
BRANCH   6  24
ATOM     24  O   UNL     1      33.210 -39.135  32.502  1.00  0.00    -0.507 OA
ATOM     25  H   UNL     1      34.208 -39.071  32.627  1.00  0.00     0.293 HD
ENDBRANCH   6  24
BRANCH   8  26
ATOM     26  O   UNL     1      29.418 -40.603  35.025  1.00  0.00    -0.508 OA
ATOM     27  H   UNL     1      28.554 -40.663  34.499  1.00  0.00     0.293 HD
ENDBRANCH   8  26
TORSDOF 6
ENDMDL
MODEL 4
REMARK VINA RESULT:    -6.069      5.314      6.624
REMARK INTER + INTRA:          -7.664
REMARK INTER:                  -7.392
REMARK INTRA:                  -0.272
REMARK UNBOUND:                -0.354
REMARK SMILES O=c1c(O)c(-c2ccc(O)cc2O)oc2cc(O)cc(O)c12
REMARK SMILES IDX 5 1 3 2 2 3 1 4 22 5 20 6 19 7 17 8 16 9 15 10 14 11 6 12
REMARK SMILES IDX 8 13 7 14 9 15 11 16 12 17 10 18 13 20 4 22 21 24 18 26
REMARK H PARENT 10 19 13 21 4 23 21 25 18 27
REMARK Flexibility Score: inf
ROOT
ATOM      1  C   UNL     1      31.829 -34.060  37.325  1.00  0.00     0.184 A 
ATOM      2  C   UNL     1      32.620 -33.266  36.482  1.00  0.00     0.208 A 
ATOM      3  C   UNL     1      33.236 -33.859  35.369  1.00  0.00     0.238 A 
ATOM      4  O   UNL     1      33.900 -33.130  34.586  1.00  0.00    -0.285 OA
ATOM      5  C   UNL     1      33.063 -35.242  35.123  1.00  0.00     0.111 A 
ATOM      6  C   UNL     1      33.672 -35.956  34.047  1.00  0.00     0.134 A 
ATOM      7  C   UNL     1      33.327 -37.295  33.825  1.00  0.00     0.093 A 
ATOM      8  C   UNL     1      32.447 -37.964  34.676  1.00  0.00     0.123 A 
ATOM      9  C   UNL     1      31.892 -37.291  35.765  1.00  0.00     0.094 A 
ATOM     10  C   UNL     1      32.189 -35.945  35.992  1.00  0.00     0.146 A 
ATOM     11  O   UNL     1      31.630 -35.339  37.034  1.00  0.00    -0.451 OA
ENDROOT
BRANCH   1  12
ATOM     12  C   UNL     1      31.167 -33.502  38.523  1.00  0.00     0.063 A 
ATOM     13  C   UNL     1      29.109 -33.010  39.720  1.00  0.00     0.047 A 
ATOM     14  C   UNL     1      29.765 -33.525  38.599  1.00  0.00     0.020 A 
ATOM     15  C   UNL     1      29.842 -32.481  40.783  1.00  0.00     0.119 A 
ATOM     16  C   UNL     1      31.242 -32.476  40.729  1.00  0.00     0.093 A 
ATOM     17  C   UNL     1      31.910 -32.995  39.610  1.00  0.00     0.130 A 
BRANCH  15  18
ATOM     18  O   UNL     1      29.173 -31.967  41.893  1.00  0.00    -0.508 OA
ATOM     19  H   UNL     1      28.802 -32.573  42.616  1.00  0.00     0.293 HD
ENDBRANCH  15  18
BRANCH  17  20
ATOM     20  O   UNL     1      33.304 -33.028  39.588  1.00  0.00    -0.507 OA
ATOM     21  H   UNL     1      33.822 -33.042  38.718  1.00  0.00     0.293 HD
ENDBRANCH  17  20
ENDBRANCH   1  12
BRANCH   2  22
ATOM     22  O   UNL     1      32.759 -31.898  36.738  1.00  0.00    -0.502 OA
ATOM     23  H   UNL     1      32.421 -31.469  37.590  1.00  0.00     0.293 HD
ENDBRANCH   2  22
BRANCH   6  24
ATOM     24  O   UNL     1      34.633 -35.409  33.193  1.00  0.00    -0.507 OA
ATOM     25  H   UNL     1      35.161 -34.571  33.382  1.00  0.00     0.293 HD
ENDBRANCH   6  24
BRANCH   8  26
ATOM     26  O   UNL     1      32.139 -39.300  34.433  1.00  0.00    -0.508 OA
ATOM     27  H   UNL     1      31.881 -39.624  33.508  1.00  0.00     0.293 HD
ENDBRANCH   8  26
TORSDOF 6
ENDMDL
MODEL 5
REMARK VINA RESULT:    -6.053      2.277      6.693
REMARK INTER + INTRA:          -7.645
REMARK INTER:                  -7.227
REMARK INTRA:                  -0.418
REMARK UNBOUND:                -0.354
REMARK SMILES O=c1c(O)c(-c2ccc(O)cc2O)oc2cc(O)cc(O)c12
REMARK SMILES IDX 5 1 3 2 2 3 1 4 22 5 20 6 19 7 17 8 16 9 15 10 14 11 6 12
REMARK SMILES IDX 8 13 7 14 9 15 11 16 12 17 10 18 13 20 4 22 21 24 18 26
REMARK H PARENT 10 19 13 21 4 23 21 25 18 27
REMARK Flexibility Score: inf
ROOT
ATOM      1  C   UNL     1      32.194 -37.432  32.920  1.00  0.00     0.184 A 
ATOM      2  C   UNL     1      32.391 -38.737  33.398  1.00  0.00     0.208 A 
ATOM      3  C   UNL     1      31.285 -39.464  33.863  1.00  0.00     0.238 A 
ATOM      4  O   UNL     1      31.459 -40.653  34.240  1.00  0.00    -0.285 OA
ATOM      5  C   UNL     1      29.999 -38.871  33.858  1.00  0.00     0.111 A 
ATOM      6  C   UNL     1      28.814 -39.501  34.344  1.00  0.00     0.134 A 
ATOM      7  C   UNL     1      27.577 -38.870  34.170  1.00  0.00     0.093 A 
ATOM      8  C   UNL     1      27.487 -37.605  33.590  1.00  0.00     0.123 A 
ATOM      9  C   UNL     1      28.646 -36.955  33.166  1.00  0.00     0.094 A 
ATOM     10  C   UNL     1      29.892 -37.574  33.292  1.00  0.00     0.146 A 
ATOM     11  O   UNL     1      30.969 -36.925  32.865  1.00  0.00    -0.451 OA
ENDROOT
BRANCH   1  12
ATOM     12  C   UNL     1      33.318 -36.606  32.431  1.00  0.00     0.063 A 
ATOM     13  C   UNL     1      34.663 -35.823  30.563  1.00  0.00     0.047 A 
ATOM     14  C   UNL     1      33.610 -36.597  31.058  1.00  0.00     0.020 A 
ATOM     15  C   UNL     1      35.426 -35.037  31.429  1.00  0.00     0.119 A 
ATOM     16  C   UNL     1      35.127 -35.019  32.798  1.00  0.00     0.093 A 
ATOM     17  C   UNL     1      34.070 -35.789  33.303  1.00  0.00     0.130 A 
BRANCH  15  18
ATOM     18  O   UNL     1      36.475 -34.273  30.921  1.00  0.00    -0.508 OA
ATOM     19  H   UNL     1      36.614 -34.159  29.924  1.00  0.00     0.293 HD
ENDBRANCH  15  18
BRANCH  17  20
ATOM     20  O   UNL     1      33.751 -35.726  34.660  1.00  0.00    -0.507 OA
ATOM     21  H   UNL     1      32.891 -35.302  34.985  1.00  0.00     0.293 HD
ENDBRANCH  17  20
ENDBRANCH   1  12
BRANCH   2  22
ATOM     22  O   UNL     1      33.669 -39.305  33.374  1.00  0.00    -0.502 OA
ATOM     23  H   UNL     1      33.998 -39.928  34.100  1.00  0.00     0.293 HD
ENDBRANCH   2  22
BRANCH   6  24
ATOM     24  O   UNL     1      28.802 -40.724  35.021  1.00  0.00    -0.507 OA
ATOM     25  H   UNL     1      28.070 -41.414  34.950  1.00  0.00     0.293 HD
ENDBRANCH   6  24
BRANCH   8  26
ATOM     26  O   UNL     1      26.240 -37.002  33.447  1.00  0.00    -0.508 OA
ATOM     27  H   UNL     1      26.126 -35.997  33.520  1.00  0.00     0.293 HD
ENDBRANCH   8  26
TORSDOF 6
ENDMDL
MODEL 6
REMARK VINA RESULT:    -6.023      8.275     10.952
REMARK INTER + INTRA:          -7.608
REMARK INTER:                  -7.197
REMARK INTRA:                  -0.412
REMARK UNBOUND:                -0.354
REMARK SMILES O=c1c(O)c(-c2ccc(O)cc2O)oc2cc(O)cc(O)c12
REMARK SMILES IDX 5 1 3 2 2 3 1 4 22 5 20 6 19 7 17 8 16 9 15 10 14 11 6 12
REMARK SMILES IDX 8 13 7 14 9 15 11 16 12 17 10 18 13 20 4 22 21 24 18 26
REMARK H PARENT 10 19 13 21 4 23 21 25 18 27
REMARK Flexibility Score: inf
ROOT
ATOM      1  C   UNL     1      30.486 -33.327  40.176  1.00  0.00     0.184 A 
ATOM      2  C   UNL     1      29.612 -32.260  40.433  1.00  0.00     0.208 A 
ATOM      3  C   UNL     1      29.124 -32.079  41.736  1.00  0.00     0.238 A 
ATOM      4  O   UNL     1      28.383 -31.088  41.972  1.00  0.00    -0.285 OA
ATOM      5  C   UNL     1      29.507 -32.976  42.762  1.00  0.00     0.111 A 
ATOM      6  C   UNL     1      29.043 -32.912  44.110  1.00  0.00     0.134 A 
ATOM      7  C   UNL     1      29.588 -33.773  45.070  1.00  0.00     0.093 A 
ATOM      8  C   UNL     1      30.531 -34.739  44.719  1.00  0.00     0.123 A 
ATOM      9  C   UNL     1      30.948 -34.850  43.392  1.00  0.00     0.094 A 
ATOM     10  C   UNL     1      30.449 -33.981  42.419  1.00  0.00     0.146 A 
ATOM     11  O   UNL     1      30.880 -34.113  41.169  1.00  0.00    -0.451 OA
ENDROOT
BRANCH   1  12
ATOM     12  C   UNL     1      31.023 -33.584  38.823  1.00  0.00     0.063 A 
ATOM     13  C   UNL     1      30.627 -34.288  36.530  1.00  0.00     0.047 A 
ATOM     14  C   UNL     1      30.153 -34.041  37.821  1.00  0.00     0.020 A 
ATOM     15  C   UNL     1      31.971 -34.068  36.220  1.00  0.00     0.119 A 
ATOM     16  C   UNL     1      32.843 -33.588  37.206  1.00  0.00     0.093 A 
ATOM     17  C   UNL     1      32.374 -33.333  38.503  1.00  0.00     0.130 A 
BRANCH  15  18
ATOM     18  O   UNL     1      32.430 -34.323  34.929  1.00  0.00    -0.508 OA
ATOM     19  H   UNL     1      32.304 -33.653  34.179  1.00  0.00     0.293 HD
ENDBRANCH  15  18
BRANCH  17  20
ATOM     20  O   UNL     1      33.241 -32.810  39.463  1.00  0.00    -0.507 OA
ATOM     21  H   UNL     1      33.224 -33.127  40.424  1.00  0.00     0.293 HD
ENDBRANCH  17  20
ENDBRANCH   1  12
BRANCH   2  22
ATOM     22  O   UNL     1      29.265 -31.378  39.405  1.00  0.00    -0.502 OA
ATOM     23  H   UNL     1      29.948 -31.000  38.761  1.00  0.00     0.293 HD
ENDBRANCH   2  22
BRANCH   6  24
ATOM     24  O   UNL     1      28.037 -32.045  44.548  1.00  0.00    -0.507 OA
ATOM     25  H   UNL     1      28.179 -31.272  45.180  1.00  0.00     0.293 HD
ENDBRANCH   6  24
BRANCH   8  26
ATOM     26  O   UNL     1      31.041 -35.588  45.698  1.00  0.00    -0.508 OA
ATOM     27  H   UNL     1      31.124 -36.587  45.543  1.00  0.00     0.293 HD
ENDBRANCH   8  26
TORSDOF 6
ENDMDL
MODEL 7
REMARK VINA RESULT:    -5.996      3.713      6.833
REMARK INTER + INTRA:          -7.577
REMARK INTER:                  -7.161
REMARK INTRA:                  -0.416
REMARK UNBOUND:                -0.354
REMARK SMILES O=c1c(O)c(-c2ccc(O)cc2O)oc2cc(O)cc(O)c12
REMARK SMILES IDX 5 1 3 2 2 3 1 4 22 5 20 6 19 7 17 8 16 9 15 10 14 11 6 12
REMARK SMILES IDX 8 13 7 14 9 15 11 16 12 17 10 18 13 20 4 22 21 24 18 26
REMARK H PARENT 10 19 13 21 4 23 21 25 18 27
REMARK Flexibility Score: inf
ROOT
ATOM      1  C   UNL     1      32.303 -36.648  35.430  1.00  0.00     0.184 A 
ATOM      2  C   UNL     1      31.047 -37.001  35.947  1.00  0.00     0.208 A 
ATOM      3  C   UNL     1      30.420 -36.138  36.859  1.00  0.00     0.238 A 
ATOM      4  O   UNL     1      29.270 -36.433  37.279  1.00  0.00    -0.285 OA
ATOM      5  C   UNL     1      31.065 -34.940  37.252  1.00  0.00     0.111 A 
ATOM      6  C   UNL     1      30.541 -34.010  38.199  1.00  0.00     0.134 A 
ATOM      7  C   UNL     1      31.204 -32.796  38.414  1.00  0.00     0.093 A 
ATOM      8  C   UNL     1      32.405 -32.506  37.767  1.00  0.00     0.123 A 
ATOM      9  C   UNL     1      32.957 -33.434  36.884  1.00  0.00     0.094 A 
ATOM     10  C   UNL     1      32.300 -34.638  36.621  1.00  0.00     0.146 A 
ATOM     11  O   UNL     1      32.854 -35.489  35.764  1.00  0.00    -0.451 OA
ENDROOT
BRANCH   1  12
ATOM     12  C   UNL     1      33.024 -37.520  34.479  1.00  0.00     0.063 A 
ATOM     13  C   UNL     1      33.241 -38.406  32.226  1.00  0.00     0.047 A 
ATOM     14  C   UNL     1      32.578 -37.596  33.150  1.00  0.00     0.020 A 
ATOM     15  C   UNL     1      34.365 -39.140  32.611  1.00  0.00     0.119 A 
ATOM     16  C   UNL     1      34.834 -39.053  33.929  1.00  0.00     0.093 A 
ATOM     17  C   UNL     1      34.177 -38.238  34.863  1.00  0.00     0.130 A 
BRANCH  15  18
ATOM     18  O   UNL     1      35.014 -39.947  31.679  1.00  0.00    -0.508 OA
ATOM     19  H   UNL     1      34.949 -39.766  30.684  1.00  0.00     0.293 HD
ENDBRANCH  15  18
BRANCH  17  20
ATOM     20  O   UNL     1      34.682 -38.123  36.159  1.00  0.00    -0.507 OA
ATOM     21  H   UNL     1      34.736 -37.228  36.630  1.00  0.00     0.293 HD
ENDBRANCH  17  20
ENDBRANCH   1  12
BRANCH   2  22
ATOM     22  O   UNL     1      30.424 -38.181  35.528  1.00  0.00    -0.502 OA
ATOM     23  H   UNL     1      29.580 -38.180  34.969  1.00  0.00     0.293 HD
ENDBRANCH   2  22
BRANCH   6  24
ATOM     24  O   UNL     1      29.396 -34.242  38.968  1.00  0.00    -0.507 OA
ATOM     25  H   UNL     1      28.456 -34.270  38.605  1.00  0.00     0.293 HD
ENDBRANCH   6  24
BRANCH   8  26
ATOM     26  O   UNL     1      33.044 -31.294  38.017  1.00  0.00    -0.508 OA
ATOM     27  H   UNL     1      34.055 -31.221  38.032  1.00  0.00     0.293 HD
ENDBRANCH   8  26
TORSDOF 6
ENDMDL
MODEL 8
REMARK VINA RESULT:    -5.981      1.579      6.892
REMARK INTER + INTRA:          -7.559
REMARK INTER:                  -7.148
REMARK INTRA:                  -0.410
REMARK UNBOUND:                -0.354
REMARK SMILES O=c1c(O)c(-c2ccc(O)cc2O)oc2cc(O)cc(O)c12
REMARK SMILES IDX 5 1 3 2 2 3 1 4 22 5 20 6 19 7 17 8 16 9 15 10 14 11 6 12
REMARK SMILES IDX 8 13 7 14 9 15 11 16 12 17 10 18 13 20 4 22 21 24 18 26
REMARK H PARENT 10 19 13 21 4 23 21 25 18 27
REMARK Flexibility Score: inf
ROOT
ATOM      1  C   UNL     1      31.158 -38.247  33.942  1.00  0.00     0.184 A 
ATOM      2  C   UNL     1      30.398 -39.367  34.314  1.00  0.00     0.208 A 
ATOM      3  C   UNL     1      28.998 -39.282  34.270  1.00  0.00     0.238 A 
ATOM      4  O   UNL     1      28.322 -40.307  34.553  1.00  0.00    -0.285 OA
ATOM      5  C   UNL     1      28.377 -38.075  33.869  1.00  0.00     0.111 A 
ATOM      6  C   UNL     1      26.967 -37.864  33.825  1.00  0.00     0.134 A 
ATOM      7  C   UNL     1      26.463 -36.673  33.289  1.00  0.00     0.093 A 
ATOM      8  C   UNL     1      27.317 -35.659  32.855  1.00  0.00     0.123 A 
ATOM      9  C   UNL     1      28.699 -35.831  32.949  1.00  0.00     0.094 A 
ATOM     10  C   UNL     1      29.232 -37.023  33.446  1.00  0.00     0.146 A 
ATOM     11  O   UNL     1      30.552 -37.151  33.507  1.00  0.00    -0.451 OA
ENDROOT
BRANCH   1  12
ATOM     12  C   UNL     1      32.636 -38.264  33.982  1.00  0.00     0.063 A 
ATOM     13  C   UNL     1      34.685 -37.898  35.238  1.00  0.00     0.047 A 
ATOM     14  C   UNL     1      33.290 -37.889  35.166  1.00  0.00     0.020 A 
ATOM     15  C   UNL     1      35.444 -38.296  34.135  1.00  0.00     0.119 A 
ATOM     16  C   UNL     1      34.801 -38.697  32.956  1.00  0.00     0.093 A 
ATOM     17  C   UNL     1      33.401 -38.694  32.877  1.00  0.00     0.130 A 
BRANCH  15  18
ATOM     18  O   UNL     1      36.835 -38.297  34.221  1.00  0.00    -0.508 OA
ATOM     19  H   UNL     1      37.383 -39.101  33.939  1.00  0.00     0.293 HD
ENDBRANCH  15  18
BRANCH  17  20
ATOM     20  O   UNL     1      32.771 -39.141  31.714  1.00  0.00    -0.507 OA
ATOM     21  H   UNL     1      31.788 -38.972  31.544  1.00  0.00     0.293 HD
ENDBRANCH  17  20
ENDBRANCH   1  12
BRANCH   2  22
ATOM     22  O   UNL     1      31.037 -40.553  34.689  1.00  0.00    -0.502 OA
ATOM     23  H   UNL     1      32.044 -40.652  34.679  1.00  0.00     0.293 HD
ENDBRANCH   2  22
BRANCH   6  24
ATOM     24  O   UNL     1      26.026 -38.774  34.316  1.00  0.00    -0.507 OA
ATOM     25  H   UNL     1      25.106 -38.529  34.646  1.00  0.00     0.293 HD
ENDBRANCH   6  24
BRANCH   8  26
ATOM     26  O   UNL     1      26.780 -34.482  32.341  1.00  0.00    -0.508 OA
ATOM     27  H   UNL     1      25.787 -34.386  32.162  1.00  0.00     0.293 HD
ENDBRANCH   8  26
TORSDOF 6
ENDMDL
MODEL 9
REMARK VINA RESULT:    -5.917      4.415      7.223
REMARK INTER + INTRA:          -7.481
REMARK INTER:                  -7.071
REMARK INTRA:                  -0.410
REMARK UNBOUND:                -0.354
REMARK SMILES O=c1c(O)c(-c2ccc(O)cc2O)oc2cc(O)cc(O)c12
REMARK SMILES IDX 5 1 3 2 2 3 1 4 22 5 20 6 19 7 17 8 16 9 15 10 14 11 6 12
REMARK SMILES IDX 8 13 7 14 9 15 11 16 12 17 10 18 13 20 4 22 21 24 18 26
REMARK H PARENT 10 19 13 21 4 23 21 25 18 27
REMARK Flexibility Score: inf
ROOT
ATOM      1  C   UNL     1      32.434 -35.402  34.902  1.00  0.00     0.184 A 
ATOM      2  C   UNL     1      31.648 -34.498  34.170  1.00  0.00     0.208 A 
ATOM      3  C   UNL     1      31.111 -33.379  34.826  1.00  0.00     0.238 A 
ATOM      4  O   UNL     1      30.452 -32.543  34.153  1.00  0.00    -0.285 OA
ATOM      5  C   UNL     1      31.355 -33.188  36.207  1.00  0.00     0.111 A 
ATOM      6  C   UNL     1      30.829 -32.111  36.982  1.00  0.00     0.134 A 
ATOM      7  C   UNL     1      31.241 -31.951  38.310  1.00  0.00     0.093 A 
ATOM      8  C   UNL     1      32.109 -32.862  38.911  1.00  0.00     0.123 A 
ATOM      9  C   UNL     1      32.583 -33.952  38.180  1.00  0.00     0.094 A 
ATOM     10  C   UNL     1      32.218 -34.120  36.842  1.00  0.00     0.146 A 
ATOM     11  O   UNL     1      32.701 -35.164  36.179  1.00  0.00    -0.451 OA
ENDROOT
BRANCH   1  12
ATOM     12  C   UNL     1      33.015 -36.609  34.276  1.00  0.00     0.063 A 
ATOM     13  C   UNL     1      34.661 -37.584  32.776  1.00  0.00     0.047 A 
ATOM     14  C   UNL     1      34.085 -36.464  33.380  1.00  0.00     0.020 A 
ATOM     15  C   UNL     1      34.185 -38.864  33.070  1.00  0.00     0.119 A 
ATOM     16  C   UNL     1      33.133 -39.023  33.982  1.00  0.00     0.093 A 
ATOM     17  C   UNL     1      32.553 -37.904  34.596  1.00  0.00     0.130 A 
BRANCH  15  18
ATOM     18  O   UNL     1      34.766 -39.972  32.457  1.00  0.00    -0.508 OA
ATOM     19  H   UNL     1      35.424 -39.871  31.693  1.00  0.00     0.293 HD
ENDBRANCH  15  18
BRANCH  17  20
ATOM     20  O   UNL     1      31.538 -38.077  35.539  1.00  0.00    -0.507 OA
ATOM     21  H   UNL     1      31.425 -37.444  36.320  1.00  0.00     0.293 HD
ENDBRANCH  17  20
ENDBRANCH   1  12
BRANCH   2  22
ATOM     22  O   UNL     1      31.438 -34.701  32.803  1.00  0.00    -0.502 OA
ATOM     23  H   UNL     1      30.558 -35.038  32.434  1.00  0.00     0.293 HD
ENDBRANCH   2  22
BRANCH   6  24
ATOM     24  O   UNL     1      29.885 -31.197  36.506  1.00  0.00    -0.507 OA
ATOM     25  H   UNL     1      29.013 -30.979  36.963  1.00  0.00     0.293 HD
ENDBRANCH   6  24
BRANCH   8  26
ATOM     26  O   UNL     1      32.486 -32.679  40.239  1.00  0.00    -0.508 OA
ATOM     27  H   UNL     1      32.892 -33.431  40.784  1.00  0.00     0.293 HD
ENDBRANCH   8  26
TORSDOF 6
ENDMDL
