MODEL 1
REMARK VINA RESULT:    -3.484      0.000      0.000
REMARK INTER + INTRA:          -5.195
REMARK INTER:                  -4.706
REMARK INTRA:                  -0.489
REMARK UNBOUND:                -0.489
REMARK SMILES CCCCCCCC(=O)[O-]
REMARK SMILES IDX 5 1 6 2 7 3 8 4 9 5 10 6 4 7 3 8 2 9 1 10
REMARK H PARENT
REMARK Flexibility Score: inf
ROOT
ATOM      1  C   UNL     1       4.369  -1.497  -4.103  1.00  0.00     0.000 C 
ENDROOT
BRANCH   1   2
ATOM      2  C   UNL     1       4.086  -0.005  -3.852  1.00  0.00     0.006 C 
BRANCH   2   3
ATOM      3  C   UNL     1       2.745   0.489  -4.418  1.00  0.00     0.053 C 
BRANCH   3   4
ATOM      4  C   UNL     1       2.933   1.511  -5.498  1.00  0.00     0.041 C 
ATOM      5  O   UNL     1       3.846   1.367  -6.354  1.00  0.00    -0.550 OA
ATOM      6  O   UNL     1       2.077   2.602  -5.580  1.00  0.00    -0.550 OA
ENDBRANCH   3   4
ENDBRANCH   2   3
ENDBRANCH   1   2
BRANCH   1   7
ATOM      7  C   UNL     1       3.254  -2.190  -4.900  1.00  0.00     0.000 C 
BRANCH   7   8
ATOM      8  C   UNL     1       3.682  -2.418  -6.357  1.00  0.00    -0.000 C 
BRANCH   8   9
ATOM      9  C   UNL     1       2.486  -2.524  -7.316  1.00  0.00    -0.003 C 
ATOM     10  C   UNL     1       2.242  -1.236  -8.101  1.00  0.00     0.004 C 
ENDBRANCH   8   9
ENDBRANCH   7   8
ENDBRANCH   1   7
TORSDOF 6
ENDMDL
MODEL 2
REMARK VINA RESULT:    -3.459      2.614      4.294
REMARK INTER + INTRA:          -5.161
REMARK INTER:                  -4.739
REMARK INTRA:                  -0.422
REMARK UNBOUND:                -0.489
REMARK SMILES CCCCCCCC(=O)[O-]
REMARK SMILES IDX 5 1 6 2 7 3 8 4 9 5 10 6 4 7 3 8 2 9 1 10
REMARK H PARENT
REMARK Flexibility Score: inf
ROOT
ATOM      1  C   UNL     1       3.234  -2.179  -4.958  1.00  0.00     0.000 C 
ENDROOT
BRANCH   1   2
ATOM      2  C   UNL     1       3.596  -2.441  -6.431  1.00  0.00     0.006 C 
BRANCH   2   3
ATOM      3  C   UNL     1       2.665  -1.756  -7.444  1.00  0.00     0.053 C 
BRANCH   3   4
ATOM      4  C   UNL     1       1.841  -2.746  -8.209  1.00  0.00     0.041 C 
ATOM      5  O   UNL     1       0.602  -2.565  -8.347  1.00  0.00    -0.550 OA
ATOM      6  O   UNL     1       2.446  -3.848  -8.798  1.00  0.00    -0.550 OA
ENDBRANCH   3   4
ENDBRANCH   2   3
ENDBRANCH   1   2
BRANCH   1   7
ATOM      7  C   UNL     1       4.380  -1.532  -4.167  1.00  0.00     0.000 C 
BRANCH   7   8
ATOM      8  C   UNL     1       4.119  -0.034  -3.952  1.00  0.00    -0.000 C 
BRANCH   8   9
ATOM      9  C   UNL     1       2.658   0.357  -4.221  1.00  0.00    -0.003 C 
ATOM     10  C   UNL     1       2.517   1.364  -5.363  1.00  0.00     0.004 C 
ENDBRANCH   8   9
ENDBRANCH   7   8
ENDBRANCH   1   7
TORSDOF 6
ENDMDL
MODEL 3
REMARK VINA RESULT:    -3.424      1.229      1.924
REMARK INTER + INTRA:          -5.113
REMARK INTER:                  -4.714
REMARK INTRA:                  -0.399
REMARK UNBOUND:                -0.489
REMARK SMILES CCCCCCCC(=O)[O-]
REMARK SMILES IDX 5 1 6 2 7 3 8 4 9 5 10 6 4 7 3 8 2 9 1 10
REMARK H PARENT
REMARK Flexibility Score: inf
ROOT
ATOM      1  C   UNL     1       3.215   0.169  -3.937  1.00  0.00     0.000 C 
ENDROOT
BRANCH   1   2
ATOM      2  C   UNL     1       3.431   1.233  -5.029  1.00  0.00     0.006 C 
BRANCH   2   3
ATOM      3  C   UNL     1       2.212   1.465  -5.935  1.00  0.00     0.053 C 
BRANCH   3   4
ATOM      4  C   UNL     1       1.984   2.920  -6.209  1.00  0.00     0.041 C 
ATOM      5  O   UNL     1       1.173   3.276  -7.105  1.00  0.00    -0.550 OA
ATOM      6  O   UNL     1       2.640   3.882  -5.452  1.00  0.00    -0.550 OA
ENDBRANCH   3   4
ENDBRANCH   2   3
ENDBRANCH   1   2
BRANCH   1   7
ATOM      7  C   UNL     1       4.047  -1.101  -4.168  1.00  0.00     0.000 C 
BRANCH   7   8
ATOM      8  C   UNL     1       3.233  -2.158  -4.928  1.00  0.00    -0.000 C 
BRANCH   8   9
ATOM      9  C   UNL     1       3.654  -2.284  -6.401  1.00  0.00    -0.003 C 
ATOM     10  C   UNL     1       2.470  -2.541  -7.333  1.00  0.00     0.004 C 
ENDBRANCH   8   9
ENDBRANCH   7   8
ENDBRANCH   1   7
TORSDOF 6
ENDMDL
MODEL 4
REMARK VINA RESULT:    -3.368      2.024      3.110
REMARK INTER + INTRA:          -5.037
REMARK INTER:                  -4.614
REMARK INTRA:                  -0.423
REMARK UNBOUND:                -0.489
REMARK SMILES CCCCCCCC(=O)[O-]
REMARK SMILES IDX 5 1 6 2 7 3 8 4 9 5 10 6 4 7 3 8 2 9 1 10
REMARK H PARENT
REMARK Flexibility Score: inf
ROOT
ATOM      1  C   UNL     1       3.285   1.281  -5.130  1.00  0.00     0.000 C 
ENDROOT
BRANCH   1   2
ATOM      2  C   UNL     1       2.105   1.656  -6.046  1.00  0.00     0.006 C 
BRANCH   2   3
ATOM      3  C   UNL     1       2.332   1.340  -7.532  1.00  0.00     0.053 C 
BRANCH   3   4
ATOM      4  C   UNL     1       1.104   0.780  -8.182  1.00  0.00     0.041 C 
ATOM      5  O   UNL     1       1.107  -0.396  -8.633  1.00  0.00    -0.550 OA
ATOM      6  O   UNL     1      -0.054   1.544  -8.257  1.00  0.00    -0.550 OA
ENDBRANCH   3   4
ENDBRANCH   2   3
ENDBRANCH   1   2
BRANCH   1   7
ATOM      7  C   UNL     1       2.937   0.165  -4.135  1.00  0.00     0.000 C 
BRANCH   7   8
ATOM      8  C   UNL     1       3.945  -0.989  -4.231  1.00  0.00    -0.000 C 
BRANCH   8   9
ATOM      9  C   UNL     1       3.318  -2.279  -4.781  1.00  0.00    -0.003 C 
ATOM     10  C   UNL     1       3.079  -2.223  -6.290  1.00  0.00     0.004 C 
ENDBRANCH   8   9
ENDBRANCH   7   8
ENDBRANCH   1   7
TORSDOF 6
ENDMDL
MODEL 5
REMARK VINA RESULT:    -3.221      1.138      2.909
REMARK INTER + INTRA:          -4.840
REMARK INTER:                  -4.432
REMARK INTRA:                  -0.408
REMARK UNBOUND:                -0.489
REMARK SMILES CCCCCCCC(=O)[O-]
REMARK SMILES IDX 5 1 6 2 7 3 8 4 9 5 10 6 4 7 3 8 2 9 1 10
REMARK H PARENT
REMARK Flexibility Score: inf
ROOT
ATOM      1  C   UNL     1       2.275  -1.199  -8.029  1.00  0.00     0.000 C 
ENDROOT
BRANCH   1   2
ATOM      2  C   UNL     1       2.925   0.078  -7.466  1.00  0.00     0.006 C 
BRANCH   2   3
ATOM      3  C   UNL     1       1.927   1.186  -7.096  1.00  0.00     0.053 C 
BRANCH   3   4
ATOM      4  C   UNL     1       2.226   1.789  -5.758  1.00  0.00     0.041 C 
ATOM      5  O   UNL     1       2.429   1.048  -4.760  1.00  0.00    -0.550 OA
ATOM      6  O   UNL     1       2.317   3.169  -5.621  1.00  0.00    -0.550 OA
ENDBRANCH   3   4
ENDBRANCH   2   3
ENDBRANCH   1   2
BRANCH   1   7
ATOM      7  C   UNL     1       2.506  -2.429  -7.138  1.00  0.00     0.000 C 
BRANCH   7   8
ATOM      8  C   UNL     1       3.776  -2.261  -6.291  1.00  0.00    -0.000 C 
BRANCH   8   9
ATOM      9  C   UNL     1       3.492  -2.316  -4.782  1.00  0.00    -0.003 C 
ATOM     10  C   UNL     1       4.623  -1.715  -3.946  1.00  0.00     0.004 C 
ENDBRANCH   8   9
ENDBRANCH   7   8
ENDBRANCH   1   7
TORSDOF 6
ENDMDL
MODEL 6
REMARK VINA RESULT:    -3.194      1.636      3.647
REMARK INTER + INTRA:          -4.802
REMARK INTER:                  -4.472
REMARK INTRA:                  -0.330
REMARK UNBOUND:                -0.489
REMARK SMILES CCCCCCCC(=O)[O-]
REMARK SMILES IDX 5 1 6 2 7 3 8 4 9 5 10 6 4 7 3 8 2 9 1 10
REMARK H PARENT
REMARK Flexibility Score: inf
ROOT
ATOM      1  C   UNL     1       2.537  -2.399  -7.165  1.00  0.00     0.000 C 
ENDROOT
BRANCH   1   2
ATOM      2  C   UNL     1       2.647  -1.327  -8.265  1.00  0.00     0.006 C 
BRANCH   2   3
ATOM      3  C   UNL     1       1.298  -0.767  -8.741  1.00  0.00     0.053 C 
BRANCH   3   4
ATOM      4  C   UNL     1       1.045   0.613  -8.218  1.00  0.00     0.041 C 
ATOM      5  O   UNL     1      -0.070   1.168  -8.406  1.00  0.00    -0.550 OA
ATOM      6  O   UNL     1       2.029   1.273  -7.491  1.00  0.00    -0.550 OA
ENDBRANCH   3   4
ENDBRANCH   2   3
ENDBRANCH   1   2
BRANCH   1   7
ATOM      7  C   UNL     1       3.754  -2.422  -6.229  1.00  0.00     0.000 C 
BRANCH   7   8
ATOM      8  C   UNL     1       3.332  -2.169  -4.775  1.00  0.00    -0.000 C 
BRANCH   8   9
ATOM      9  C   UNL     1       3.869  -0.839  -4.225  1.00  0.00    -0.003 C 
ATOM     10  C   UNL     1       2.799   0.251  -4.167  1.00  0.00     0.004 C 
ENDBRANCH   8   9
ENDBRANCH   7   8
ENDBRANCH   1   7
TORSDOF 6
ENDMDL
MODEL 7
REMARK VINA RESULT:    -3.183     20.720     21.297
REMARK INTER + INTRA:          -4.789
REMARK INTER:                  -4.575
REMARK INTRA:                  -0.214
REMARK UNBOUND:                -0.489
REMARK SMILES CCCCCCCC(=O)[O-]
REMARK SMILES IDX 5 1 6 2 7 3 8 4 9 5 10 6 4 7 3 8 2 9 1 10
REMARK H PARENT
REMARK Flexibility Score: inf
ROOT
ATOM      1  C   UNL     1     -14.008 -10.907   3.550  1.00  0.00     0.000 C 
ENDROOT
BRANCH   1   2
ATOM      2  C   UNL     1     -13.327  -9.871   4.463  1.00  0.00     0.006 C 
BRANCH   2   3
ATOM      3  C   UNL     1     -11.800 -10.015   4.554  1.00  0.00     0.053 C 
BRANCH   3   4
ATOM      4  C   UNL     1     -11.386 -10.918   5.675  1.00  0.00     0.041 C 
ATOM      5  O   UNL     1     -10.915 -12.060   5.428  1.00  0.00    -0.550 OA
ATOM      6  O   UNL     1     -11.486 -10.484   6.992  1.00  0.00    -0.550 OA
ENDBRANCH   3   4
ENDBRANCH   2   3
ENDBRANCH   1   2
BRANCH   1   7
ATOM      7  C   UNL     1     -13.049 -11.511   2.513  1.00  0.00     0.000 C 
BRANCH   7   8
ATOM      8  C   UNL     1     -13.797 -11.880   1.224  1.00  0.00    -0.000 C 
BRANCH   8   9
ATOM      9  C   UNL     1     -12.883 -11.888  -0.010  1.00  0.00    -0.003 C 
ATOM     10  C   UNL     1     -13.647 -11.650  -1.313  1.00  0.00     0.004 C 
ENDBRANCH   8   9
ENDBRANCH   7   8
ENDBRANCH   1   7
TORSDOF 6
ENDMDL
MODEL 8
REMARK VINA RESULT:    -3.163      2.319      3.447
REMARK INTER + INTRA:          -4.761
REMARK INTER:                  -4.137
REMARK INTRA:                  -0.625
REMARK UNBOUND:                -0.489
REMARK SMILES CCCCCCCC(=O)[O-]
REMARK SMILES IDX 5 1 6 2 7 3 8 4 9 5 10 6 4 7 3 8 2 9 1 10
REMARK H PARENT
REMARK Flexibility Score: inf
ROOT
ATOM      1  C   UNL     1       2.878   0.184  -4.003  1.00  0.00     0.000 C 
ENDROOT
BRANCH   1   2
ATOM      2  C   UNL     1       3.879  -0.917  -4.398  1.00  0.00     0.006 C 
BRANCH   2   3
ATOM      3  C   UNL     1       3.228  -2.224  -4.874  1.00  0.00     0.053 C 
BRANCH   3   4
ATOM      4  C   UNL     1       3.370  -2.418  -6.353  1.00  0.00     0.041 C 
ATOM      5  O   UNL     1       4.511  -2.412  -6.885  1.00  0.00    -0.550 OA
ATOM      6  O   UNL     1       2.245  -2.640  -7.137  1.00  0.00    -0.550 OA
ENDBRANCH   3   4
ENDBRANCH   2   3
ENDBRANCH   1   2
BRANCH   1   7
ATOM      7  C   UNL     1       2.469   1.073  -5.187  1.00  0.00     0.000 C 
BRANCH   7   8
ATOM      8  C   UNL     1       3.648   1.279  -6.149  1.00  0.00    -0.000 C 
BRANCH   8   9
ATOM      9  C   UNL     1       3.241   1.138  -7.623  1.00  0.00    -0.003 C 
ATOM     10  C   UNL     1       1.764   0.781  -7.796  1.00  0.00     0.004 C 
ENDBRANCH   8   9
ENDBRANCH   7   8
ENDBRANCH   1   7
TORSDOF 6
ENDMDL
MODEL 9
REMARK VINA RESULT:    -3.147     21.097     22.042
REMARK INTER + INTRA:          -4.740
REMARK INTER:                  -4.256
REMARK INTRA:                  -0.484
REMARK UNBOUND:                -0.489
REMARK SMILES CCCCCCCC(=O)[O-]
REMARK SMILES IDX 5 1 6 2 7 3 8 4 9 5 10 6 4 7 3 8 2 9 1 10
REMARK H PARENT
REMARK Flexibility Score: inf
ROOT
ATOM      1  C   UNL     1     -12.724 -11.349   3.496  1.00  0.00     0.000 C 
ENDROOT
BRANCH   1   2
ATOM      2  C   UNL     1     -12.685 -12.578   4.422  1.00  0.00     0.006 C 
BRANCH   2   3
ATOM      3  C   UNL     1     -11.505 -13.528   4.164  1.00  0.00     0.053 C 
BRANCH   3   4
ATOM      4  C   UNL     1     -10.483 -13.466   5.257  1.00  0.00     0.041 C 
ATOM      5  O   UNL     1      -9.258 -13.585   4.987  1.00  0.00    -0.550 OA
ATOM      6  O   UNL     1     -10.880 -13.242   6.570  1.00  0.00    -0.550 OA
ENDBRANCH   3   4
ENDBRANCH   2   3
ENDBRANCH   1   2
BRANCH   1   7
ATOM      7  C   UNL     1     -12.720 -10.021   4.267  1.00  0.00     0.000 C 
BRANCH   7   8
ATOM      8  C   UNL     1     -11.522  -9.947   5.225  1.00  0.00    -0.000 C 
BRANCH   8   9
ATOM      9  C   UNL     1     -11.934  -9.581   6.659  1.00  0.00    -0.003 C 
ATOM     10  C   UNL     1     -13.423  -9.803   6.921  1.00  0.00     0.004 C 
ENDBRANCH   8   9
ENDBRANCH   7   8
ENDBRANCH   1   7
TORSDOF 6
ENDMDL
