MODEL 1
REMARK VINA RESULT:    -4.055      0.000      0.000
REMARK INTER + INTRA:          -8.803
REMARK INTER:                  -6.901
REMARK INTRA:                  -1.902
REMARK UNBOUND:                -1.902
REMARK SMILES CCCCCCCCCCCCCC(=O)[O-]
REMARK SMILES IDX 8 1 9 2 10 3 11 4 12 5 13 6 14 7 15 8 16 9 7 10 6 11 5 12
REMARK SMILES IDX 4 13 3 14 2 15 1 16
REMARK H PARENT
REMARK Flexibility Score: inf
ROOT
ATOM      1  C   UNL     1      -7.349  25.666  22.477  1.00  0.00     0.000 C 
ENDROOT
BRANCH   1   2
ATOM      2  C   UNL     1      -8.132  26.739  21.701  1.00  0.00     0.000 C 
BRANCH   2   3
ATOM      3  C   UNL     1      -9.192  26.146  20.763  1.00  0.00     0.000 C 
BRANCH   3   4
ATOM      4  C   UNL     1     -10.534  25.971  21.489  1.00  0.00     0.000 C 
BRANCH   4   5
ATOM      5  C   UNL     1     -11.099  24.544  21.363  1.00  0.00     0.006 C 
BRANCH   5   6
ATOM      6  C   UNL     1     -10.625  23.577  22.460  1.00  0.00     0.053 C 
BRANCH   6   7
ATOM      7  C   UNL     1      -9.794  22.462  21.903  1.00  0.00     0.041 C 
ATOM      8  O   UNL     1      -8.643  22.238  22.364  1.00  0.00    -0.550 OA
ATOM      9  O   UNL     1     -10.303  21.649  20.898  1.00  0.00    -0.550 OA
ENDBRANCH   6   7
ENDBRANCH   5   6
ENDBRANCH   4   5
ENDBRANCH   3   4
ENDBRANCH   2   3
ENDBRANCH   1   2
BRANCH   1  10
ATOM     10  C   UNL     1      -7.224  25.963  23.986  1.00  0.00     0.000 C 
BRANCH  10  11
ATOM     11  C   UNL     1      -8.516  25.636  24.752  1.00  0.00    -0.000 C 
BRANCH  11  12
ATOM     12  C   UNL     1      -8.985  26.787  25.658  1.00  0.00    -0.000 C 
BRANCH  12  13
ATOM     13  C   UNL     1      -9.824  27.852  24.922  1.00  0.00    -0.000 C 
BRANCH  13  14
ATOM     14  C   UNL     1      -8.984  29.065  24.496  1.00  0.00    -0.000 C 
BRANCH  14  15
ATOM     15  C   UNL     1      -9.525  29.681  23.201  1.00  0.00    -0.003 C 
ATOM     16  C   UNL     1     -10.987  29.303  22.979  1.00  0.00     0.004 C 
ENDBRANCH  14  15
ENDBRANCH  13  14
ENDBRANCH  12  13
ENDBRANCH  11  12
ENDBRANCH  10  11
ENDBRANCH   1  10
TORSDOF 12
ENDMDL
MODEL 2
REMARK VINA RESULT:    -4.015      3.124      5.895
REMARK INTER + INTRA:          -8.734
REMARK INTER:                  -7.605
REMARK INTRA:                  -1.130
REMARK UNBOUND:                -1.902
REMARK SMILES CCCCCCCCCCCCCC(=O)[O-]
REMARK SMILES IDX 8 1 9 2 10 3 11 4 12 5 13 6 14 7 15 8 16 9 7 10 6 11 5 12
REMARK SMILES IDX 4 13 3 14 2 15 1 16
REMARK H PARENT
REMARK Flexibility Score: inf
ROOT
ATOM      1  C   UNL     1      -7.164  25.851  22.590  1.00  0.00     0.000 C 
ENDROOT
BRANCH   1   2
ATOM      2  C   UNL     1      -7.419  25.844  24.108  1.00  0.00     0.000 C 
BRANCH   2   3
ATOM      3  C   UNL     1      -8.109  27.121  24.604  1.00  0.00     0.000 C 
BRANCH   3   4
ATOM      4  C   UNL     1      -9.413  26.789  25.345  1.00  0.00     0.000 C 
BRANCH   4   5
ATOM      5  C   UNL     1     -10.657  27.382  24.659  1.00  0.00     0.006 C 
BRANCH   5   6
ATOM      6  C   UNL     1     -10.498  27.607  23.147  1.00  0.00     0.053 C 
BRANCH   6   7
ATOM      7  C   UNL     1     -10.609  29.056  22.782  1.00  0.00     0.041 C 
ATOM      8  O   UNL     1     -10.266  29.449  21.635  1.00  0.00    -0.550 OA
ATOM      9  O   UNL     1     -11.123  29.967  23.696  1.00  0.00    -0.550 OA
ENDBRANCH   6   7
ENDBRANCH   5   6
ENDBRANCH   4   5
ENDBRANCH   3   4
ENDBRANCH   2   3
ENDBRANCH   1   2
BRANCH   1  10
ATOM     10  C   UNL     1      -8.042  24.849  21.813  1.00  0.00     0.000 C 
BRANCH  10  11
ATOM     11  C   UNL     1      -9.000  24.078  22.735  1.00  0.00    -0.000 C 
BRANCH  11  12
ATOM     12  C   UNL     1      -9.179  22.608  22.320  1.00  0.00    -0.000 C 
BRANCH  12  13
ATOM     13  C   UNL     1     -10.522  22.323  21.616  1.00  0.00    -0.000 C 
BRANCH  13  14
ATOM     14  C   UNL     1     -10.422  21.160  20.618  1.00  0.00    -0.000 C 
BRANCH  14  15
ATOM     15  C   UNL     1     -10.925  21.580  19.232  1.00  0.00    -0.003 C 
ATOM     16  C   UNL     1     -10.725  23.075  19.002  1.00  0.00     0.004 C 
ENDBRANCH  14  15
ENDBRANCH  13  14
ENDBRANCH  12  13
ENDBRANCH  11  12
ENDBRANCH  10  11
ENDBRANCH   1  10
TORSDOF 12
ENDMDL
MODEL 3
REMARK VINA RESULT:    -3.971      3.097      5.922
REMARK INTER + INTRA:          -8.660
REMARK INTER:                  -7.345
REMARK INTRA:                  -1.314
REMARK UNBOUND:                -1.902
REMARK SMILES CCCCCCCCCCCCCC(=O)[O-]
REMARK SMILES IDX 8 1 9 2 10 3 11 4 12 5 13 6 14 7 15 8 16 9 7 10 6 11 5 12
REMARK SMILES IDX 4 13 3 14 2 15 1 16
REMARK H PARENT
REMARK Flexibility Score: inf
ROOT
ATOM      1  C   UNL     1      -8.122  24.452  21.772  1.00  0.00     0.000 C 
ENDROOT
BRANCH   1   2
ATOM      2  C   UNL     1      -8.002  25.890  22.304  1.00  0.00     0.000 C 
BRANCH   2   3
ATOM      3  C   UNL     1      -7.199  25.980  23.609  1.00  0.00     0.000 C 
BRANCH   3   4
ATOM      4  C   UNL     1      -8.007  26.690  24.705  1.00  0.00     0.000 C 
BRANCH   4   5
ATOM      5  C   UNL     1      -9.499  26.830  24.350  1.00  0.00     0.006 C 
BRANCH   5   6
ATOM      6  C   UNL     1     -10.053  28.256  24.495  1.00  0.00     0.053 C 
BRANCH   6   7
ATOM      7  C   UNL     1      -9.335  29.229  23.610  1.00  0.00     0.041 C 
ATOM      8  O   UNL     1      -8.608  30.126  24.112  1.00  0.00    -0.550 OA
ATOM      9  O   UNL     1      -9.443  29.124  22.229  1.00  0.00    -0.550 OA
ENDBRANCH   6   7
ENDBRANCH   5   6
ENDBRANCH   4   5
ENDBRANCH   3   4
ENDBRANCH   2   3
ENDBRANCH   1   2
BRANCH   1  10
ATOM     10  C   UNL     1      -8.977  23.532  22.668  1.00  0.00     0.000 C 
BRANCH  10  11
ATOM     11  C   UNL     1      -9.286  22.186  21.994  1.00  0.00    -0.000 C 
BRANCH  11  12
ATOM     12  C   UNL     1     -10.635  22.180  21.255  1.00  0.00    -0.000 C 
BRANCH  12  13
ATOM     13  C   UNL     1     -10.548  21.644  19.811  1.00  0.00    -0.000 C 
BRANCH  13  14
ATOM     14  C   UNL     1     -11.123  22.634  18.786  1.00  0.00    -0.000 C 
BRANCH  14  15
ATOM     15  C   UNL     1     -10.782  24.079  19.166  1.00  0.00    -0.003 C 
ATOM     16  C   UNL     1      -9.571  24.583  18.385  1.00  0.00     0.004 C 
ENDBRANCH  14  15
ENDBRANCH  13  14
ENDBRANCH  12  13
ENDBRANCH  11  12
ENDBRANCH  10  11
ENDBRANCH   1  10
TORSDOF 12
ENDMDL
MODEL 4
REMARK VINA RESULT:    -3.930      2.905      5.947
REMARK INTER + INTRA:          -8.589
REMARK INTER:                  -7.109
REMARK INTRA:                  -1.480
REMARK UNBOUND:                -1.902
REMARK SMILES CCCCCCCCCCCCCC(=O)[O-]
REMARK SMILES IDX 8 1 9 2 10 3 11 4 12 5 13 6 14 7 15 8 16 9 7 10 6 11 5 12
REMARK SMILES IDX 4 13 3 14 2 15 1 16
REMARK H PARENT
REMARK Flexibility Score: inf
ROOT
ATOM      1  C   UNL     1      -8.182  26.663  21.641  1.00  0.00     0.000 C 
ENDROOT
BRANCH   1   2
ATOM      2  C   UNL     1      -7.365  25.638  22.447  1.00  0.00     0.000 C 
BRANCH   2   3
ATOM      3  C   UNL     1      -7.291  25.976  23.942  1.00  0.00     0.000 C 
BRANCH   3   4
ATOM      4  C   UNL     1      -8.660  25.797  24.615  1.00  0.00     0.000 C 
BRANCH   4   5
ATOM      5  C   UNL     1      -9.115  27.051  25.384  1.00  0.00     0.006 C 
BRANCH   5   6
ATOM      6  C   UNL     1      -8.531  28.368  24.850  1.00  0.00     0.053 C 
BRANCH   6   7
ATOM      7  C   UNL     1      -9.528  29.134  24.036  1.00  0.00     0.041 C 
ATOM      8  O   UNL     1     -10.677  29.368  24.496  1.00  0.00    -0.550 OA
ATOM      9  O   UNL     1      -9.177  29.620  22.782  1.00  0.00    -0.550 OA
ENDBRANCH   6   7
ENDBRANCH   5   6
ENDBRANCH   4   5
ENDBRANCH   3   4
ENDBRANCH   2   3
ENDBRANCH   1   2
BRANCH   1  10
ATOM     10  C   UNL     1      -9.463  26.074  21.015  1.00  0.00     0.000 C 
BRANCH  10  11
ATOM     11  C   UNL     1      -9.270  25.700  19.537  1.00  0.00    -0.000 C 
BRANCH  11  12
ATOM     12  C   UNL     1      -9.671  24.249  19.227  1.00  0.00    -0.000 C 
BRANCH  12  13
ATOM     13  C   UNL     1     -10.925  23.777  19.992  1.00  0.00    -0.000 C 
BRANCH  13  14
ATOM     14  C   UNL     1     -10.693  22.448  20.727  1.00  0.00    -0.000 C 
BRANCH  14  15
ATOM     15  C   UNL     1     -10.238  22.689  22.171  1.00  0.00    -0.003 C 
ATOM     16  C   UNL     1      -8.773  22.302  22.359  1.00  0.00     0.004 C 
ENDBRANCH  14  15
ENDBRANCH  13  14
ENDBRANCH  12  13
ENDBRANCH  11  12
ENDBRANCH  10  11
ENDBRANCH   1  10
TORSDOF 12
ENDMDL
MODEL 5
REMARK VINA RESULT:    -3.897      2.895      5.712
REMARK INTER + INTRA:          -8.533
REMARK INTER:                  -6.825
REMARK INTRA:                  -1.709
REMARK UNBOUND:                -1.902
REMARK SMILES CCCCCCCCCCCCCC(=O)[O-]
REMARK SMILES IDX 8 1 9 2 10 3 11 4 12 5 13 6 14 7 15 8 16 9 7 10 6 11 5 12
REMARK SMILES IDX 4 13 3 14 2 15 1 16
REMARK H PARENT
REMARK Flexibility Score: inf
ROOT
ATOM      1  C   UNL     1      -7.376  25.648  22.502  1.00  0.00     0.000 C 
ENDROOT
BRANCH   1   2
ATOM      2  C   UNL     1      -7.408  25.998  24.000  1.00  0.00     0.000 C 
BRANCH   2   3
ATOM      3  C   UNL     1      -8.797  25.817  24.627  1.00  0.00     0.000 C 
BRANCH   3   4
ATOM      4  C   UNL     1      -9.006  26.795  25.792  1.00  0.00     0.000 C 
BRANCH   4   5
ATOM      5  C   UNL     1     -10.265  27.666  25.622  1.00  0.00     0.006 C 
BRANCH   5   6
ATOM      6  C   UNL     1     -10.625  27.977  24.161  1.00  0.00     0.053 C 
BRANCH   6   7
ATOM      7  C   UNL     1     -10.100  29.310  23.726  1.00  0.00     0.041 C 
ATOM      8  O   UNL     1      -9.683  29.474  22.548  1.00  0.00    -0.550 OA
ATOM      9  O   UNL     1     -10.100  30.382  24.611  1.00  0.00    -0.550 OA
ENDBRANCH   6   7
ENDBRANCH   5   6
ENDBRANCH   4   5
ENDBRANCH   3   4
ENDBRANCH   2   3
ENDBRANCH   1   2
BRANCH   1  10
ATOM     10  C   UNL     1      -8.107  26.675  21.613  1.00  0.00     0.000 C 
BRANCH  10  11
ATOM     11  C   UNL     1      -9.077  26.004  20.626  1.00  0.00    -0.000 C 
BRANCH  11  12
ATOM     12  C   UNL     1     -10.517  25.924  21.161  1.00  0.00    -0.000 C 
BRANCH  12  13
ATOM     13  C   UNL     1     -10.951  24.498  21.559  1.00  0.00    -0.000 C 
BRANCH  13  14
ATOM     14  C   UNL     1     -10.270  23.421  20.700  1.00  0.00    -0.000 C 
BRANCH  14  15
ATOM     15  C   UNL     1     -10.037  22.140  21.509  1.00  0.00    -0.003 C 
ATOM     16  C   UNL     1      -8.798  22.261  22.392  1.00  0.00     0.004 C 
ENDBRANCH  14  15
ENDBRANCH  13  14
ENDBRANCH  12  13
ENDBRANCH  11  12
ENDBRANCH  10  11
ENDBRANCH   1  10
TORSDOF 12
ENDMDL
MODEL 6
REMARK VINA RESULT:    -3.891      1.929      3.968
REMARK INTER + INTRA:          -8.522
REMARK INTER:                  -6.881
REMARK INTRA:                  -1.641
REMARK UNBOUND:                -1.902
REMARK SMILES CCCCCCCCCCCCCC(=O)[O-]
REMARK SMILES IDX 8 1 9 2 10 3 11 4 12 5 13 6 14 7 15 8 16 9 7 10 6 11 5 12
REMARK SMILES IDX 4 13 3 14 2 15 1 16
REMARK H PARENT
REMARK Flexibility Score: inf
ROOT
ATOM      1  C   UNL     1      -9.275  29.274  24.339  1.00  0.00     0.000 C 
ENDROOT
BRANCH   1   2
ATOM      2  C   UNL     1      -9.741  29.356  22.875  1.00  0.00     0.000 C 
BRANCH   2   3
ATOM      3  C   UNL     1     -10.719  28.237  22.495  1.00  0.00     0.000 C 
BRANCH   3   4
ATOM      4  C   UNL     1     -10.746  28.024  20.974  1.00  0.00     0.000 C 
BRANCH   4   5
ATOM      5  C   UNL     1     -10.526  26.553  20.574  1.00  0.00     0.006 C 
BRANCH   5   6
ATOM      6  C   UNL     1      -9.576  26.358  19.382  1.00  0.00     0.053 C 
BRANCH   6   7
ATOM      7  C   UNL     1      -9.993  25.210  18.514  1.00  0.00     0.041 C 
ATOM      8  O   UNL     1      -9.960  25.318  17.260  1.00  0.00    -0.550 OA
ATOM      9  O   UNL     1     -10.386  24.008  19.092  1.00  0.00    -0.550 OA
ENDBRANCH   6   7
ENDBRANCH   5   6
ENDBRANCH   4   5
ENDBRANCH   3   4
ENDBRANCH   2   3
ENDBRANCH   1   2
BRANCH   1  10
ATOM     10  C   UNL     1      -9.918  28.113  25.127  1.00  0.00     0.000 C 
BRANCH  10  11
ATOM     11  C   UNL     1      -8.868  27.186  25.759  1.00  0.00    -0.000 C 
BRANCH  11  12
ATOM     12  C   UNL     1      -7.816  26.695  24.751  1.00  0.00    -0.000 C 
BRANCH  12  13
ATOM     13  C   UNL     1      -8.372  25.700  23.711  1.00  0.00    -0.000 C 
BRANCH  13  14
ATOM     14  C   UNL     1      -7.432  25.529  22.508  1.00  0.00    -0.000 C 
BRANCH  14  15
ATOM     15  C   UNL     1      -7.812  24.292  21.685  1.00  0.00    -0.003 C 
ATOM     16  C   UNL     1      -8.958  23.525  22.340  1.00  0.00     0.004 C 
ENDBRANCH  14  15
ENDBRANCH  13  14
ENDBRANCH  12  13
ENDBRANCH  11  12
ENDBRANCH  10  11
ENDBRANCH   1  10
TORSDOF 12
ENDMDL
MODEL 7
REMARK VINA RESULT:    -3.765      1.575      3.128
REMARK INTER + INTRA:          -8.309
REMARK INTER:                  -6.558
REMARK INTRA:                  -1.750
REMARK UNBOUND:                -1.902
REMARK SMILES CCCCCCCCCCCCCC(=O)[O-]
REMARK SMILES IDX 8 1 9 2 10 3 11 4 12 5 13 6 14 7 15 8 16 9 7 10 6 11 5 12
REMARK SMILES IDX 4 13 3 14 2 15 1 16
REMARK H PARENT
REMARK Flexibility Score: inf
ROOT
ATOM      1  C   UNL     1      -8.207  26.848  21.753  1.00  0.00     0.000 C 
ENDROOT
BRANCH   1   2
ATOM      2  C   UNL     1      -7.819  25.488  22.357  1.00  0.00     0.000 C 
BRANCH   2   3
ATOM      3  C   UNL     1      -9.036  24.639  22.750  1.00  0.00     0.000 C 
BRANCH   3   4
ATOM      4  C   UNL     1      -8.843  23.174  22.330  1.00  0.00     0.000 C 
BRANCH   4   5
ATOM      5  C   UNL     1     -10.102  22.569  21.681  1.00  0.00     0.006 C 
BRANCH   5   6
ATOM      6  C   UNL     1     -10.856  23.530  20.749  1.00  0.00     0.053 C 
BRANCH   6   7
ATOM      7  C   UNL     1     -10.277  23.541  19.367  1.00  0.00     0.041 C 
ATOM      8  O   UNL     1     -10.680  22.718  18.503  1.00  0.00    -0.550 OA
ATOM      9  O   UNL     1      -9.315  24.484  19.024  1.00  0.00    -0.550 OA
ENDBRANCH   6   7
ENDBRANCH   5   6
ENDBRANCH   4   5
ENDBRANCH   3   4
ENDBRANCH   2   3
ENDBRANCH   1   2
BRANCH   1  10
ATOM     10  C   UNL     1      -9.721  27.000  21.497  1.00  0.00     0.000 C 
BRANCH  10  11
ATOM     11  C   UNL     1     -10.309  28.233  22.202  1.00  0.00    -0.000 C 
BRANCH  11  12
ATOM     12  C   UNL     1      -9.237  29.111  22.870  1.00  0.00    -0.000 C 
BRANCH  12  13
ATOM     13  C   UNL     1      -9.332  29.140  24.409  1.00  0.00    -0.000 C 
BRANCH  13  14
ATOM     14  C   UNL     1     -10.066  27.913  24.972  1.00  0.00    -0.000 C 
BRANCH  14  15
ATOM     15  C   UNL     1      -9.080  26.931  25.616  1.00  0.00    -0.003 C 
ATOM     16  C   UNL     1      -9.816  25.814  26.351  1.00  0.00     0.004 C 
ENDBRANCH  14  15
ENDBRANCH  13  14
ENDBRANCH  12  13
ENDBRANCH  11  12
ENDBRANCH  10  11
ENDBRANCH   1  10
TORSDOF 12
ENDMDL
MODEL 8
REMARK VINA RESULT:    -3.701      2.867      5.332
REMARK INTER + INTRA:          -8.199
REMARK INTER:                  -6.307
REMARK INTRA:                  -1.892
REMARK UNBOUND:                -1.902
REMARK SMILES CCCCCCCCCCCCCC(=O)[O-]
REMARK SMILES IDX 8 1 9 2 10 3 11 4 12 5 13 6 14 7 15 8 16 9 7 10 6 11 5 12
REMARK SMILES IDX 4 13 3 14 2 15 1 16
REMARK H PARENT
REMARK Flexibility Score: inf
ROOT
ATOM      1  C   UNL     1      -8.403  26.538  21.202  1.00  0.00     0.000 C 
ENDROOT
BRANCH   1   2
ATOM      2  C   UNL     1      -9.365  27.470  21.959  1.00  0.00     0.000 C 
BRANCH   2   3
ATOM      3  C   UNL     1     -10.704  26.800  22.297  1.00  0.00     0.000 C 
BRANCH   3   4
ATOM      4  C   UNL     1     -11.045  26.973  23.785  1.00  0.00     0.000 C 
BRANCH   4   5
ATOM      5  C   UNL     1     -10.781  25.699  24.609  1.00  0.00     0.006 C 
BRANCH   5   6
ATOM      6  C   UNL     1      -9.381  25.633  25.239  1.00  0.00     0.053 C 
BRANCH   6   7
ATOM      7  C   UNL     1      -8.974  26.943  25.841  1.00  0.00     0.041 C 
ATOM      8  O   UNL     1      -8.116  27.666  25.267  1.00  0.00    -0.550 OA
ATOM      9  O   UNL     1      -9.566  27.382  27.019  1.00  0.00    -0.550 OA
ENDBRANCH   6   7
ENDBRANCH   5   6
ENDBRANCH   4   5
ENDBRANCH   3   4
ENDBRANCH   2   3
ENDBRANCH   1   2
BRANCH   1  10
ATOM     10  C   UNL     1      -7.784  25.438  22.089  1.00  0.00     0.000 C 
BRANCH  10  11
ATOM     11  C   UNL     1      -8.060  24.028  21.543  1.00  0.00    -0.000 C 
BRANCH  11  12
ATOM     12  C   UNL     1      -9.025  23.220  22.427  1.00  0.00    -0.000 C 
BRANCH  12  13
ATOM     13  C   UNL     1     -10.425  23.034  21.807  1.00  0.00    -0.000 C 
BRANCH  13  14
ATOM     14  C   UNL     1     -10.507  23.589  20.376  1.00  0.00    -0.000 C 
BRANCH  14  15
ATOM     15  C   UNL     1     -10.710  22.461  19.359  1.00  0.00    -0.003 C 
ATOM     16  C   UNL     1     -10.914  21.119  20.058  1.00  0.00     0.004 C 
ENDBRANCH  14  15
ENDBRANCH  13  14
ENDBRANCH  12  13
ENDBRANCH  11  12
ENDBRANCH  10  11
ENDBRANCH   1  10
TORSDOF 12
ENDMDL
MODEL 9
REMARK VINA RESULT:    -1.625      2.771      6.002
REMARK INTER + INTRA:          -4.668
REMARK INTER:                  -3.278
REMARK INTRA:                  -1.390
REMARK UNBOUND:                -1.902
REMARK SMILES CCCCCCCCCCCCCC(=O)[O-]
REMARK SMILES IDX 8 1 9 2 10 3 11 4 12 5 13 6 14 7 15 8 16 9 7 10 6 11 5 12
REMARK SMILES IDX 4 13 3 14 2 15 1 16
REMARK H PARENT
REMARK Flexibility Score: inf
ROOT
ATOM      1  C   UNL     1      -9.545  26.090  19.845  1.00  0.00     0.000 C 
ENDROOT
BRANCH   1   2
ATOM      2  C   UNL     1      -9.419  25.866  21.362  1.00  0.00     0.000 C 
BRANCH   2   3
ATOM      3  C   UNL     1      -8.331  26.735  22.007  1.00  0.00     0.000 C 
BRANCH   3   4
ATOM      4  C   UNL     1      -7.308  25.869  22.756  1.00  0.00     0.000 C 
BRANCH   4   5
ATOM      5  C   UNL     1      -7.395  26.031  24.285  1.00  0.00     0.006 C 
BRANCH   5   6
ATOM      6  C   UNL     1      -8.697  25.500  24.904  1.00  0.00     0.053 C 
BRANCH   6   7
ATOM      7  C   UNL     1      -9.537  26.601  25.474  1.00  0.00     0.041 C 
ATOM      8  O   UNL     1      -9.219  27.142  26.566  1.00  0.00    -0.550 OA
ATOM      9  O   UNL     1     -10.655  27.053  24.782  1.00  0.00    -0.550 OA
ENDBRANCH   6   7
ENDBRANCH   5   6
ENDBRANCH   4   5
ENDBRANCH   3   4
ENDBRANCH   2   3
ENDBRANCH   1   2
BRANCH   1  10
ATOM     10  C   UNL     1      -9.134  24.863  19.004  1.00  0.00     0.000 C 
BRANCH  10  11
ATOM     11  C   UNL     1     -10.344  24.170  18.358  1.00  0.00    -0.000 C 
BRANCH  11  12
ATOM     12  C   UNL     1     -11.125  23.283  19.342  1.00  0.00    -0.000 C 
BRANCH  12  13
ATOM     13  C   UNL     1     -10.752  21.788  19.259  1.00  0.00    -0.000 C 
BRANCH  13  14
ATOM     14  C   UNL     1     -10.501  21.172  20.643  1.00  0.00    -0.000 C 
BRANCH  14  15
ATOM     15  C   UNL     1     -10.334  22.261  21.708  1.00  0.00    -0.003 C 
ATOM     16  C   UNL     1      -8.881  22.372  22.161  1.00  0.00     0.004 C 
ENDBRANCH  14  15
ENDBRANCH  13  14
ENDBRANCH  12  13
ENDBRANCH  11  12
ENDBRANCH  10  11
ENDBRANCH   1  10
TORSDOF 12
ENDMDL
