MODEL 1
REMARK VINA RESULT:    -6.049      0.000      0.000
REMARK INTER + INTRA:          -7.591
REMARK INTER:                  -7.287
REMARK INTRA:                  -0.304
REMARK UNBOUND:                -0.304
REMARK SMILES O=c1c(O)c(-c2ccc(O)c(O)c2)oc2cc(O)cc(O)c12
REMARK SMILES IDX 5 1 3 2 2 3 1 4 22 5 20 6 19 7 17 8 16 9 15 10 14 11 6 12
REMARK SMILES IDX 7 13 8 14 9 15 13 16 11 17 10 18 12 20 4 22 21 24 18 26
REMARK H PARENT 10 19 12 21 4 23 21 25 18 27
REMARK Flexibility Score: inf
ROOT
ATOM      1  C   UNL     1      12.043  -2.976  24.098  1.00  0.00     0.180 A 
ATOM      2  C   UNL     1      11.156  -1.935  24.421  1.00  0.00     0.208 A 
ATOM      3  C   UNL     1      11.351  -0.670  23.843  1.00  0.00     0.238 A 
ATOM      4  O   UNL     1      10.587   0.272  24.179  1.00  0.00    -0.285 OA
ATOM      5  C   UNL     1      12.420  -0.466  22.937  1.00  0.00     0.111 A 
ATOM      6  C   UNL     1      12.687   0.764  22.263  1.00  0.00     0.134 A 
ATOM      7  C   UNL     1      13.848   0.888  21.490  1.00  0.00     0.093 A 
ATOM      8  C   UNL     1      14.716  -0.188  21.314  1.00  0.00     0.123 A 
ATOM      9  C   UNL     1      14.433  -1.412  21.921  1.00  0.00     0.094 A 
ATOM     10  C   UNL     1      13.302  -1.557  22.728  1.00  0.00     0.146 A 
ATOM     11  O   UNL     1      13.074  -2.735  23.296  1.00  0.00    -0.452 OA
ENDROOT
BRANCH   1  12
ATOM     12  C   UNL     1      11.889  -4.342  24.647  1.00  0.00     0.025 A 
ATOM     13  C   UNL     1      10.950  -5.243  24.114  1.00  0.00     0.016 A 
ATOM     14  C   UNL     1      10.838  -6.535  24.633  1.00  0.00     0.051 A 
ATOM     15  C   UNL     1      11.670  -6.952  25.680  1.00  0.00     0.157 A 
ATOM     16  C   UNL     1      12.735  -4.771  25.683  1.00  0.00     0.062 A 
ATOM     17  C   UNL     1      12.626  -6.065  26.205  1.00  0.00     0.158 A 
BRANCH  15  18
ATOM     18  O   UNL     1      11.555  -8.242  26.196  1.00  0.00    -0.504 OA
ATOM     19  H   UNL     1      11.906  -8.478  27.117  1.00  0.00     0.293 HD
ENDBRANCH  15  18
BRANCH  17  20
ATOM     20  O   UNL     1      13.473  -6.451  27.242  1.00  0.00    -0.504 OA
ATOM     21  H   UNL     1      13.138  -6.965  28.048  1.00  0.00     0.293 HD
ENDBRANCH  17  20
ENDBRANCH   1  12
BRANCH   2  22
ATOM     22  O   UNL     1      10.121  -2.151  25.335  1.00  0.00    -0.502 OA
ATOM     23  H   UNL     1      10.111  -2.942  25.968  1.00  0.00     0.293 HD
ENDBRANCH   2  22
BRANCH   6  24
ATOM     24  O   UNL     1      11.836   1.873  22.296  1.00  0.00    -0.507 OA
ATOM     25  H   UNL     1      11.795   2.588  21.587  1.00  0.00     0.293 HD
ENDBRANCH   6  24
BRANCH   8  26
ATOM     26  O   UNL     1      15.854  -0.032  20.525  1.00  0.00    -0.508 OA
ATOM     27  H   UNL     1      16.634   0.540  20.826  1.00  0.00     0.293 HD
ENDBRANCH   8  26
TORSDOF 6
ENDMDL
MODEL 2
REMARK VINA RESULT:    -6.036      2.176      7.387
REMARK INTER + INTRA:          -7.575
REMARK INTER:                  -7.281
REMARK INTRA:                  -0.294
REMARK UNBOUND:                -0.304
REMARK SMILES O=c1c(O)c(-c2ccc(O)c(O)c2)oc2cc(O)cc(O)c12
REMARK SMILES IDX 5 1 3 2 2 3 1 4 22 5 20 6 19 7 17 8 16 9 15 10 14 11 6 12
REMARK SMILES IDX 7 13 8 14 9 15 13 16 11 17 10 18 12 20 4 22 21 24 18 26
REMARK H PARENT 10 19 12 21 4 23 21 25 18 27
REMARK Flexibility Score: inf
ROOT
ATOM      1  C   UNL     1      13.262  -0.973  22.045  1.00  0.00     0.180 A 
ATOM      2  C   UNL     1      14.471  -1.365  22.645  1.00  0.00     0.208 A 
ATOM      3  C   UNL     1      14.432  -2.190  23.780  1.00  0.00     0.238 A 
ATOM      4  O   UNL     1      15.516  -2.493  24.345  1.00  0.00    -0.285 OA
ATOM      5  C   UNL     1      13.186  -2.627  24.292  1.00  0.00     0.111 A 
ATOM      6  C   UNL     1      13.030  -3.496  25.413  1.00  0.00     0.134 A 
ATOM      7  C   UNL     1      11.748  -3.757  25.911  1.00  0.00     0.093 A 
ATOM      8  C   UNL     1      10.614  -3.233  25.293  1.00  0.00     0.123 A 
ATOM      9  C   UNL     1      10.752  -2.429  24.161  1.00  0.00     0.094 A 
ATOM     10  C   UNL     1      12.020  -2.122  23.661  1.00  0.00     0.146 A 
ATOM     11  O   UNL     1      12.108  -1.345  22.588  1.00  0.00    -0.452 OA
ENDROOT
BRANCH   1  12
ATOM     12  C   UNL     1      13.222  -0.125  20.833  1.00  0.00     0.025 A 
ATOM     13  C   UNL     1      13.490  -0.656  19.559  1.00  0.00     0.016 A 
ATOM     14  C   UNL     1      13.424   0.158  18.425  1.00  0.00     0.051 A 
ATOM     15  C   UNL     1      13.075   1.510  18.544  1.00  0.00     0.157 A 
ATOM     16  C   UNL     1      12.852   1.226  20.944  1.00  0.00     0.062 A 
ATOM     17  C   UNL     1      12.785   2.044  19.811  1.00  0.00     0.158 A 
BRANCH  15  18
ATOM     18  O   UNL     1      13.010   2.319  17.412  1.00  0.00    -0.504 OA
ATOM     19  H   UNL     1      12.577   3.235  17.438  1.00  0.00     0.293 HD
ENDBRANCH  15  18
BRANCH  17  20
ATOM     20  O   UNL     1      12.428   3.383  19.963  1.00  0.00    -0.504 OA
ATOM     21  H   UNL     1      11.462   3.688  19.951  1.00  0.00     0.293 HD
ENDBRANCH  17  20
ENDBRANCH   1  12
BRANCH   2  22
ATOM     22  O   UNL     1      15.690  -0.905  22.137  1.00  0.00    -0.502 OA
ATOM     23  H   UNL     1      15.880   0.079  21.990  1.00  0.00     0.293 HD
ENDBRANCH   2  22
BRANCH   6  24
ATOM     24  O   UNL     1      14.092  -4.147  26.049  1.00  0.00    -0.507 OA
ATOM     25  H   UNL     1      14.666  -3.741  26.771  1.00  0.00     0.293 HD
ENDBRANCH   6  24
BRANCH   8  26
ATOM     26  O   UNL     1       9.353  -3.526  25.806  1.00  0.00    -0.508 OA
ATOM     27  H   UNL     1       8.823  -4.328  25.485  1.00  0.00     0.293 HD
ENDBRANCH   8  26
TORSDOF 6
ENDMDL
MODEL 3
REMARK VINA RESULT:    -6.026      2.887      4.007
REMARK INTER + INTRA:          -7.563
REMARK INTER:                  -7.238
REMARK INTRA:                  -0.326
REMARK UNBOUND:                -0.304
REMARK SMILES O=c1c(O)c(-c2ccc(O)c(O)c2)oc2cc(O)cc(O)c12
REMARK SMILES IDX 5 1 3 2 2 3 1 4 22 5 20 6 19 7 17 8 16 9 15 10 14 11 6 12
REMARK SMILES IDX 7 13 8 14 9 15 13 16 11 17 10 18 12 20 4 22 21 24 18 26
REMARK H PARENT 10 19 12 21 4 23 21 25 18 27
REMARK Flexibility Score: inf
ROOT
ATOM      1  C   UNL     1      14.707  -4.498  25.620  1.00  0.00     0.180 A 
ATOM      2  C   UNL     1      13.301  -4.503  25.608  1.00  0.00     0.208 A 
ATOM      3  C   UNL     1      12.626  -3.661  24.709  1.00  0.00     0.238 A 
ATOM      4  O   UNL     1      11.368  -3.629  24.741  1.00  0.00    -0.285 OA
ATOM      5  C   UNL     1      13.363  -2.839  23.823  1.00  0.00     0.111 A 
ATOM      6  C   UNL     1      12.782  -1.978  22.844  1.00  0.00     0.134 A 
ATOM      7  C   UNL     1      13.604  -1.114  22.111  1.00  0.00     0.093 A 
ATOM      8  C   UNL     1      14.988  -1.124  22.274  1.00  0.00     0.123 A 
ATOM      9  C   UNL     1      15.571  -2.004  23.186  1.00  0.00     0.094 A 
ATOM     10  C   UNL     1      14.775  -2.853  23.958  1.00  0.00     0.146 A 
ATOM     11  O   UNL     1      15.369  -3.668  24.822  1.00  0.00    -0.452 OA
ENDROOT
BRANCH   1  12
ATOM     12  C   UNL     1      15.490  -5.375  26.521  1.00  0.00     0.025 A 
ATOM     13  C   UNL     1      15.774  -6.709  26.179  1.00  0.00     0.016 A 
ATOM     14  C   UNL     1      16.535  -7.510  27.034  1.00  0.00     0.051 A 
ATOM     15  C   UNL     1      17.036  -6.988  28.234  1.00  0.00     0.157 A 
ATOM     16  C   UNL     1      16.011  -4.850  27.715  1.00  0.00     0.062 A 
ATOM     17  C   UNL     1      16.774  -5.650  28.573  1.00  0.00     0.158 A 
BRANCH  15  18
ATOM     18  O   UNL     1      17.793  -7.791  29.085  1.00  0.00    -0.504 OA
ATOM     19  H   UNL     1      18.166  -8.682  28.781  1.00  0.00     0.293 HD
ENDBRANCH  15  18
BRANCH  17  20
ATOM     20  O   UNL     1      17.263  -5.099  29.757  1.00  0.00    -0.504 OA
ATOM     21  H   UNL     1      16.831  -5.282  30.655  1.00  0.00     0.293 HD
ENDBRANCH  17  20
ENDBRANCH   1  12
BRANCH   2  22
ATOM     22  O   UNL     1      12.593  -5.306  26.507  1.00  0.00    -0.502 OA
ATOM     23  H   UNL     1      11.589  -5.238  26.621  1.00  0.00     0.293 HD
ENDBRANCH   2  22
BRANCH   6  24
ATOM     24  O   UNL     1      11.418  -1.955  22.536  1.00  0.00    -0.507 OA
ATOM     25  H   UNL     1      10.675  -2.093  23.204  1.00  0.00     0.293 HD
ENDBRANCH   6  24
BRANCH   8  26
ATOM     26  O   UNL     1      15.776  -0.261  21.516  1.00  0.00    -0.508 OA
ATOM     27  H   UNL     1      15.483   0.688  21.317  1.00  0.00     0.293 HD
ENDBRANCH   8  26
TORSDOF 6
ENDMDL
MODEL 4
REMARK VINA RESULT:    -5.998      2.946      8.168
REMARK INTER + INTRA:          -7.529
REMARK INTER:                  -7.196
REMARK INTRA:                  -0.333
REMARK UNBOUND:                -0.304
REMARK SMILES O=c1c(O)c(-c2ccc(O)c(O)c2)oc2cc(O)cc(O)c12
REMARK SMILES IDX 5 1 3 2 2 3 1 4 22 5 20 6 19 7 17 8 16 9 15 10 14 11 6 12
REMARK SMILES IDX 7 13 8 14 9 15 13 16 11 17 10 18 12 20 4 22 21 24 18 26
REMARK H PARENT 10 19 12 21 4 23 21 25 18 27
REMARK Flexibility Score: inf
ROOT
ATOM      1  C   UNL     1      11.322   1.510  22.246  1.00  0.00     0.180 A 
ATOM      2  C   UNL     1      12.575   1.050  21.804  1.00  0.00     0.208 A 
ATOM      3  C   UNL     1      13.037  -0.199  22.250  1.00  0.00     0.238 A 
ATOM      4  O   UNL     1      14.182  -0.581  21.895  1.00  0.00    -0.285 OA
ATOM      5  C   UNL     1      12.235  -0.980  23.116  1.00  0.00     0.111 A 
ATOM      6  C   UNL     1      12.586  -2.277  23.598  1.00  0.00     0.134 A 
ATOM      7  C   UNL     1      11.776  -2.901  24.554  1.00  0.00     0.093 A 
ATOM      8  C   UNL     1      10.596  -2.306  24.998  1.00  0.00     0.123 A 
ATOM      9  C   UNL     1      10.212  -1.065  24.489  1.00  0.00     0.094 A 
ATOM     10  C   UNL     1      11.018  -0.400  23.561  1.00  0.00     0.146 A 
ATOM     11  O   UNL     1      10.622   0.784  23.110  1.00  0.00    -0.452 OA
ENDROOT
BRANCH   1  12
ATOM     12  C   UNL     1      10.756   2.804  21.801  1.00  0.00     0.025 A 
ATOM     13  C   UNL     1       9.997   2.904  20.623  1.00  0.00     0.016 A 
ATOM     14  C   UNL     1       9.452   4.131  20.235  1.00  0.00     0.051 A 
ATOM     15  C   UNL     1       9.646   5.272  21.025  1.00  0.00     0.157 A 
ATOM     16  C   UNL     1      10.930   3.946  22.600  1.00  0.00     0.062 A 
ATOM     17  C   UNL     1      10.387   5.177  22.215  1.00  0.00     0.158 A 
BRANCH  15  18
ATOM     18  O   UNL     1       9.103   6.495  20.635  1.00  0.00    -0.504 OA
ATOM     19  H   UNL     1       8.501   7.029  21.251  1.00  0.00     0.293 HD
ENDBRANCH  15  18
BRANCH  17  20
ATOM     20  O   UNL     1      10.593   6.292  23.026  1.00  0.00    -0.504 OA
ATOM     21  H   UNL     1      10.348   7.228  22.727  1.00  0.00     0.293 HD
ENDBRANCH  17  20
ENDBRANCH   1  12
BRANCH   2  22
ATOM     22  O   UNL     1      13.361   1.846  20.966  1.00  0.00    -0.502 OA
ATOM     23  H   UNL     1      14.284   1.566  20.660  1.00  0.00     0.293 HD
ENDBRANCH   2  22
BRANCH   6  24
ATOM     24  O   UNL     1      13.696  -3.000  23.151  1.00  0.00    -0.507 OA
ATOM     25  H   UNL     1      13.933  -3.149  22.182  1.00  0.00     0.293 HD
ENDBRANCH   6  24
BRANCH   8  26
ATOM     26  O   UNL     1       9.805  -2.964  25.938  1.00  0.00    -0.508 OA
ATOM     27  H   UNL     1       9.180  -2.456  26.553  1.00  0.00     0.293 HD
ENDBRANCH   8  26
TORSDOF 6
ENDMDL
MODEL 5
REMARK VINA RESULT:    -5.901      3.219      7.925
REMARK INTER + INTRA:          -7.412
REMARK INTER:                  -7.142
REMARK INTRA:                  -0.271
REMARK UNBOUND:                -0.304
REMARK SMILES O=c1c(O)c(-c2ccc(O)c(O)c2)oc2cc(O)cc(O)c12
REMARK SMILES IDX 5 1 3 2 2 3 1 4 22 5 20 6 19 7 17 8 16 9 15 10 14 11 6 12
REMARK SMILES IDX 7 13 8 14 9 15 13 16 11 17 10 18 12 20 4 22 21 24 18 26
REMARK H PARENT 10 19 12 21 4 23 21 25 18 27
REMARK Flexibility Score: inf
ROOT
ATOM      1  C   UNL     1      11.494   1.416  21.595  1.00  0.00     0.180 A 
ATOM      2  C   UNL     1      12.789   1.388  21.050  1.00  0.00     0.208 A 
ATOM      3  C   UNL     1      13.731   0.490  21.579  1.00  0.00     0.238 A 
ATOM      4  O   UNL     1      14.904   0.508  21.124  1.00  0.00    -0.285 OA
ATOM      5  C   UNL     1      13.362  -0.380  22.633  1.00  0.00     0.111 A 
ATOM      6  C   UNL     1      14.223  -1.357  23.217  1.00  0.00     0.134 A 
ATOM      7  C   UNL     1      13.792  -2.073  24.341  1.00  0.00     0.093 A 
ATOM      8  C   UNL     1      12.511  -1.895  24.862  1.00  0.00     0.123 A 
ATOM      9  C   UNL     1      11.640  -0.984  24.262  1.00  0.00     0.094 A 
ATOM     10  C   UNL     1      12.053  -0.229  23.162  1.00  0.00     0.146 A 
ATOM     11  O   UNL     1      11.198   0.633  22.627  1.00  0.00    -0.452 OA
ENDROOT
BRANCH   1  12
ATOM     12  C   UNL     1      10.440   2.316  21.076  1.00  0.00     0.025 A 
ATOM     13  C   UNL     1      10.439   3.690  21.375  1.00  0.00     0.016 A 
ATOM     14  C   UNL     1       9.448   4.526  20.854  1.00  0.00     0.051 A 
ATOM     15  C   UNL     1       8.452   4.006  20.016  1.00  0.00     0.157 A 
ATOM     16  C   UNL     1       9.452   1.804  20.219  1.00  0.00     0.062 A 
ATOM     17  C   UNL     1       8.458   2.637  19.695  1.00  0.00     0.158 A 
BRANCH  15  18
ATOM     18  O   UNL     1       7.464   4.841  19.499  1.00  0.00    -0.504 OA
ATOM     19  H   UNL     1       6.635   5.076  20.033  1.00  0.00     0.293 HD
ENDBRANCH  15  18
BRANCH  17  20
ATOM     20  O   UNL     1       7.485   2.090  18.860  1.00  0.00    -0.504 OA
ATOM     21  H   UNL     1       6.567   1.831  19.200  1.00  0.00     0.293 HD
ENDBRANCH  17  20
ENDBRANCH   1  12
BRANCH   2  22
ATOM     22  O   UNL     1      13.140   2.271  20.025  1.00  0.00    -0.502 OA
ATOM     23  H   UNL     1      13.176   3.274  20.160  1.00  0.00     0.293 HD
ENDBRANCH   2  22
BRANCH   6  24
ATOM     24  O   UNL     1      15.488  -1.680  22.718  1.00  0.00    -0.507 OA
ATOM     25  H   UNL     1      16.292  -1.899  23.286  1.00  0.00     0.293 HD
ENDBRANCH   6  24
BRANCH   8  26
ATOM     26  O   UNL     1      12.111  -2.636  25.971  1.00  0.00    -0.508 OA
ATOM     27  H   UNL     1      12.779  -3.145  26.538  1.00  0.00     0.293 HD
ENDBRANCH   8  26
TORSDOF 6
ENDMDL
MODEL 6
REMARK VINA RESULT:    -5.842      2.539      3.499
REMARK INTER + INTRA:          -7.341
REMARK INTER:                  -7.019
REMARK INTRA:                  -0.323
REMARK UNBOUND:                -0.304
REMARK SMILES O=c1c(O)c(-c2ccc(O)c(O)c2)oc2cc(O)cc(O)c12
REMARK SMILES IDX 5 1 3 2 2 3 1 4 22 5 20 6 19 7 17 8 16 9 15 10 14 11 6 12
REMARK SMILES IDX 7 13 8 14 9 15 13 16 11 17 10 18 12 20 4 22 21 24 18 26
REMARK H PARENT 10 19 12 21 4 23 21 25 18 27
REMARK Flexibility Score: inf
ROOT
ATOM      1  C   UNL     1      14.534  -4.190  25.258  1.00  0.00     0.180 A 
ATOM      2  C   UNL     1      13.185  -3.896  25.520  1.00  0.00     0.208 A 
ATOM      3  C   UNL     1      12.561  -2.863  24.802  1.00  0.00     0.238 A 
ATOM      4  O   UNL     1      11.370  -2.568  25.080  1.00  0.00    -0.285 OA
ATOM      5  C   UNL     1      13.288  -2.149  23.819  1.00  0.00     0.111 A 
ATOM      6  C   UNL     1      12.745  -1.110  23.005  1.00  0.00     0.134 A 
ATOM      7  C   UNL     1      13.591  -0.385  22.157  1.00  0.00     0.093 A 
ATOM      8  C   UNL     1      14.944  -0.700  22.046  1.00  0.00     0.123 A 
ATOM      9  C   UNL     1      15.473  -1.753  22.794  1.00  0.00     0.094 A 
ATOM     10  C   UNL     1      14.663  -2.472  23.676  1.00  0.00     0.146 A 
ATOM     11  O   UNL     1      15.207  -3.459  24.377  1.00  0.00    -0.452 OA
ENDROOT
BRANCH   1  12
ATOM     12  C   UNL     1      15.253  -5.280  25.956  1.00  0.00     0.025 A 
ATOM     13  C   UNL     1      15.909  -5.058  27.180  1.00  0.00     0.016 A 
ATOM     14  C   UNL     1      16.560  -6.107  27.832  1.00  0.00     0.051 A 
ATOM     15  C   UNL     1      16.555  -7.396  27.282  1.00  0.00     0.157 A 
ATOM     16  C   UNL     1      15.233  -6.577  25.418  1.00  0.00     0.062 A 
ATOM     17  C   UNL     1      15.885  -7.631  26.069  1.00  0.00     0.158 A 
BRANCH  15  18
ATOM     18  O   UNL     1      17.208  -8.440  27.935  1.00  0.00    -0.504 OA
ATOM     19  H   UNL     1      16.696  -9.137  28.462  1.00  0.00     0.293 HD
ENDBRANCH  15  18
BRANCH  17  20
ATOM     20  O   UNL     1      15.856  -8.902  25.498  1.00  0.00    -0.504 OA
ATOM     21  H   UNL     1      15.295  -9.653  25.883  1.00  0.00     0.293 HD
ENDBRANCH  17  20
ENDBRANCH   1  12
BRANCH   2  22
ATOM     22  O   UNL     1      12.492  -4.598  26.511  1.00  0.00    -0.502 OA
ATOM     23  H   UNL     1      11.587  -5.021  26.344  1.00  0.00     0.293 HD
ENDBRANCH   2  22
BRANCH   6  24
ATOM     24  O   UNL     1      11.388  -0.775  22.970  1.00  0.00    -0.507 OA
ATOM     25  H   UNL     1      10.717  -1.021  23.681  1.00  0.00     0.293 HD
ENDBRANCH   6  24
BRANCH   8  26
ATOM     26  O   UNL     1      15.753   0.033  21.180  1.00  0.00    -0.508 OA
ATOM     27  H   UNL     1      16.763  -0.001  21.242  1.00  0.00     0.293 HD
ENDBRANCH   8  26
TORSDOF 6
ENDMDL
MODEL 7
REMARK VINA RESULT:    -5.803      3.278      5.504
REMARK INTER + INTRA:          -7.294
REMARK INTER:                  -6.974
REMARK INTRA:                  -0.320
REMARK UNBOUND:                -0.304
REMARK SMILES O=c1c(O)c(-c2ccc(O)c(O)c2)oc2cc(O)cc(O)c12
REMARK SMILES IDX 5 1 3 2 2 3 1 4 22 5 20 6 19 7 17 8 16 9 15 10 14 11 6 12
REMARK SMILES IDX 7 13 8 14 9 15 13 16 11 17 10 18 12 20 4 22 21 24 18 26
REMARK H PARENT 10 19 12 21 4 23 21 25 18 27
REMARK Flexibility Score: inf
ROOT
ATOM      1  C   UNL     1      11.090   0.972  22.458  1.00  0.00     0.180 A 
ATOM      2  C   UNL     1      10.694   0.754  21.127  1.00  0.00     0.208 A 
ATOM      3  C   UNL     1      10.317   1.854  20.340  1.00  0.00     0.238 A 
ATOM      4  O   UNL     1       9.911   1.647  19.167  1.00  0.00    -0.285 OA
ATOM      5  C   UNL     1      10.356   3.159  20.887  1.00  0.00     0.111 A 
ATOM      6  C   UNL     1      10.032   4.350  20.169  1.00  0.00     0.134 A 
ATOM      7  C   UNL     1       9.980   5.573  20.848  1.00  0.00     0.093 A 
ATOM      8  C   UNL     1      10.300   5.660  22.202  1.00  0.00     0.123 A 
ATOM      9  C   UNL     1      10.674   4.511  22.900  1.00  0.00     0.094 A 
ATOM     10  C   UNL     1      10.702   3.271  22.259  1.00  0.00     0.146 A 
ATOM     11  O   UNL     1      11.053   2.201  22.962  1.00  0.00    -0.452 OA
ENDROOT
BRANCH   1  12
ATOM     12  C   UNL     1      11.526  -0.133  23.341  1.00  0.00     0.025 A 
ATOM     13  C   UNL     1      12.886  -0.453  23.498  1.00  0.00     0.016 A 
ATOM     14  C   UNL     1      13.275  -1.484  24.356  1.00  0.00     0.051 A 
ATOM     15  C   UNL     1      12.314  -2.202  25.081  1.00  0.00     0.157 A 
ATOM     16  C   UNL     1      10.568  -0.841  24.086  1.00  0.00     0.062 A 
ATOM     17  C   UNL     1      10.954  -1.875  24.946  1.00  0.00     0.158 A 
BRANCH  15  18
ATOM     18  O   UNL     1      12.705  -3.232  25.935  1.00  0.00    -0.504 OA
ATOM     19  H   UNL     1      13.302  -3.059  26.735  1.00  0.00     0.293 HD
ENDBRANCH  15  18
BRANCH  17  20
ATOM     20  O   UNL     1       9.974  -2.566  25.658  1.00  0.00    -0.504 OA
ATOM     21  H   UNL     1      10.171  -3.434  26.141  1.00  0.00     0.293 HD
ENDBRANCH  17  20
ENDBRANCH   1  12
BRANCH   2  22
ATOM     22  O   UNL     1      10.642  -0.545  20.613  1.00  0.00    -0.502 OA
ATOM     23  H   UNL     1      10.962  -1.350  21.137  1.00  0.00     0.293 HD
ENDBRANCH   2  22
BRANCH   6  24
ATOM     24  O   UNL     1       9.786   4.387  18.793  1.00  0.00    -0.507 OA
ATOM     25  H   UNL     1       9.666   3.575  18.208  1.00  0.00     0.293 HD
ENDBRANCH   6  24
BRANCH   8  26
ATOM     26  O   UNL     1      10.253   6.897  22.842  1.00  0.00    -0.508 OA
ATOM     27  H   UNL     1       9.428   7.201  23.346  1.00  0.00     0.293 HD
ENDBRANCH   8  26
TORSDOF 6
ENDMDL
MODEL 8
REMARK VINA RESULT:    -5.774      3.529      7.890
REMARK INTER + INTRA:          -7.259
REMARK INTER:                  -6.924
REMARK INTRA:                  -0.335
REMARK UNBOUND:                -0.304
REMARK SMILES O=c1c(O)c(-c2ccc(O)c(O)c2)oc2cc(O)cc(O)c12
REMARK SMILES IDX 5 1 3 2 2 3 1 4 22 5 20 6 19 7 17 8 16 9 15 10 14 11 6 12
REMARK SMILES IDX 7 13 8 14 9 15 13 16 11 17 10 18 12 20 4 22 21 24 18 26
REMARK H PARENT 10 19 12 21 4 23 21 25 18 27
REMARK Flexibility Score: inf
ROOT
ATOM      1  C   UNL     1      14.939  -4.720  25.613  1.00  0.00     0.180 A 
ATOM      2  C   UNL     1      14.870  -6.027  25.099  1.00  0.00     0.208 A 
ATOM      3  C   UNL     1      15.473  -7.073  25.817  1.00  0.00     0.238 A 
ATOM      4  O   UNL     1      15.456  -8.231  25.325  1.00  0.00    -0.285 OA
ATOM      5  C   UNL     1      16.121  -6.803  27.046  1.00  0.00     0.111 A 
ATOM      6  C   UNL     1      16.731  -7.792  27.876  1.00  0.00     0.134 A 
ATOM      7  C   UNL     1      17.457  -7.394  29.005  1.00  0.00     0.093 A 
ATOM      8  C   UNL     1      17.542  -6.051  29.370  1.00  0.00     0.123 A 
ATOM      9  C   UNL     1      16.900  -5.081  28.599  1.00  0.00     0.094 A 
ATOM     10  C   UNL     1      16.198  -5.443  27.447  1.00  0.00     0.146 A 
ATOM     11  O   UNL     1      15.611  -4.489  26.735  1.00  0.00    -0.452 OA
ENDROOT
BRANCH   1  12
ATOM     12  C   UNL     1      14.307  -3.570  24.928  1.00  0.00     0.025 A 
ATOM     13  C   UNL     1      12.973  -3.209  25.183  1.00  0.00     0.016 A 
ATOM     14  C   UNL     1      12.405  -2.105  24.542  1.00  0.00     0.051 A 
ATOM     15  C   UNL     1      13.164  -1.337  23.649  1.00  0.00     0.157 A 
ATOM     16  C   UNL     1      15.070  -2.785  24.047  1.00  0.00     0.062 A 
ATOM     17  C   UNL     1      14.505  -1.679  23.403  1.00  0.00     0.158 A 
BRANCH  15  18
ATOM     18  O   UNL     1      12.594  -0.237  23.010  1.00  0.00    -0.504 OA
ATOM     19  H   UNL     1      12.881   0.043  22.080  1.00  0.00     0.293 HD
ENDBRANCH  15  18
BRANCH  17  20
ATOM     20  O   UNL     1      15.289  -0.932  22.525  1.00  0.00    -0.504 OA
ATOM     21  H   UNL     1      14.945  -0.089  22.081  1.00  0.00     0.293 HD
ENDBRANCH  17  20
ENDBRANCH   1  12
BRANCH   2  22
ATOM     22  O   UNL     1      14.245  -6.268  23.873  1.00  0.00    -0.502 OA
ATOM     23  H   UNL     1      14.418  -7.105  23.330  1.00  0.00     0.293 HD
ENDBRANCH   2  22
BRANCH   6  24
ATOM     24  O   UNL     1      16.629  -9.168  27.652  1.00  0.00    -0.507 OA
ATOM     25  H   UNL     1      16.085  -9.804  28.215  1.00  0.00     0.293 HD
ENDBRANCH   6  24
BRANCH   8  26
ATOM     26  O   UNL     1      18.260  -5.693  30.510  1.00  0.00    -0.508 OA
ATOM     27  H   UNL     1      19.099  -6.188  30.785  1.00  0.00     0.293 HD
ENDBRANCH   8  26
TORSDOF 6
ENDMDL
MODEL 9
REMARK VINA RESULT:    -5.636      5.964      8.928
REMARK INTER + INTRA:          -7.093
REMARK INTER:                  -6.763
REMARK INTRA:                  -0.330
REMARK UNBOUND:                -0.304
REMARK SMILES O=c1c(O)c(-c2ccc(O)c(O)c2)oc2cc(O)cc(O)c12
REMARK SMILES IDX 5 1 3 2 2 3 1 4 22 5 20 6 19 7 17 8 16 9 15 10 14 11 6 12
REMARK SMILES IDX 7 13 8 14 9 15 13 16 11 17 10 18 12 20 4 22 21 24 18 26
REMARK H PARENT 10 19 12 21 4 23 21 25 18 27
REMARK Flexibility Score: inf
ROOT
ATOM      1  C   UNL     1      16.894  -6.533  27.921  1.00  0.00     0.180 A 
ATOM      2  C   UNL     1      17.324  -5.429  28.678  1.00  0.00     0.208 A 
ATOM      3  C   UNL     1      18.682  -5.327  29.020  1.00  0.00     0.238 A 
ATOM      4  O   UNL     1      19.052  -4.366  29.744  1.00  0.00    -0.285 OA
ATOM      5  C   UNL     1      19.595  -6.318  28.586  1.00  0.00     0.111 A 
ATOM      6  C   UNL     1      21.000  -6.294  28.841  1.00  0.00     0.134 A 
ATOM      7  C   UNL     1      21.786  -7.393  28.477  1.00  0.00     0.093 A 
ATOM      8  C   UNL     1      21.233  -8.486  27.811  1.00  0.00     0.123 A 
ATOM      9  C   UNL     1      19.872  -8.494  27.505  1.00  0.00     0.094 A 
ATOM     10  C   UNL     1      19.054  -7.428  27.887  1.00  0.00     0.146 A 
ATOM     11  O   UNL     1      17.763  -7.479  27.585  1.00  0.00    -0.452 OA
ENDROOT
BRANCH   1  12
ATOM     12  C   UNL     1      15.484  -6.698  27.501  1.00  0.00     0.025 A 
ATOM     13  C   UNL     1      14.992  -6.091  26.332  1.00  0.00     0.016 A 
ATOM     14  C   UNL     1      13.664  -6.280  25.943  1.00  0.00     0.051 A 
ATOM     15  C   UNL     1      12.811  -7.089  26.706  1.00  0.00     0.157 A 
ATOM     16  C   UNL     1      14.631  -7.524  28.251  1.00  0.00     0.062 A 
ATOM     17  C   UNL     1      13.300  -7.716  27.864  1.00  0.00     0.158 A 
BRANCH  15  18
ATOM     18  O   UNL     1      11.486  -7.275  26.315  1.00  0.00    -0.504 OA
ATOM     19  H   UNL     1      10.765  -7.517  26.984  1.00  0.00     0.293 HD
ENDBRANCH  15  18
BRANCH  17  20
ATOM     20  O   UNL     1      12.479  -8.532  28.642  1.00  0.00    -0.504 OA
ATOM     21  H   UNL     1      12.669  -9.518  28.774  1.00  0.00     0.293 HD
ENDBRANCH  17  20
ENDBRANCH   1  12
BRANCH   2  22
ATOM     22  O   UNL     1      16.403  -4.473  29.115  1.00  0.00    -0.502 OA
ATOM     23  H   UNL     1      15.672  -4.109  28.515  1.00  0.00     0.293 HD
ENDBRANCH   2  22
BRANCH   6  24
ATOM     24  O   UNL     1      21.669  -5.210  29.418  1.00  0.00    -0.507 OA
ATOM     25  H   UNL     1      22.650  -5.198  29.650  1.00  0.00     0.293 HD
ENDBRANCH   6  24
BRANCH   8  26
ATOM     26  O   UNL     1      22.049  -9.556  27.450  1.00  0.00    -0.508 OA
ATOM     27  H   UNL     1      21.713 -10.512  27.475  1.00  0.00     0.293 HD
ENDBRANCH   8  26
TORSDOF 6
ENDMDL
