MODEL 1
REMARK VINA RESULT:    -2.576      0.000      0.000
REMARK INTER + INTRA:          -2.909
REMARK INTER:                  -2.878
REMARK INTRA:                  -0.031
REMARK UNBOUND:                -0.031
REMARK SMILES CCCC(=O)[O-]
REMARK SMILES IDX 3 1 4 2 5 3 6 4 2 5 1 6
REMARK H PARENT
REMARK Flexibility Score: inf
ROOT
ATOM      1  C   UNL     1      60.991  -1.004  94.814  1.00  0.00     0.052 C 
ENDROOT
BRANCH   1   2
ATOM      2  C   UNL     1      60.397  -1.077  93.442  1.00  0.00     0.041 C 
ATOM      3  O   UNL     1      59.654  -0.150  93.023  1.00  0.00    -0.550 OA
ATOM      4  O   UNL     1      60.704  -2.144  92.607  1.00  0.00    -0.550 OA
ENDBRANCH   1   2
BRANCH   1   5
ATOM      5  C   UNL     1      59.939  -0.547  95.828  1.00  0.00     0.003 C 
ATOM      6  C   UNL     1      60.482   0.566  96.720  1.00  0.00     0.004 C 
ENDBRANCH   1   5
TORSDOF 2
ENDMDL
MODEL 2
REMARK VINA RESULT:    -2.535      1.020      1.825
REMARK INTER + INTRA:          -2.863
REMARK INTER:                  -2.846
REMARK INTRA:                  -0.017
REMARK UNBOUND:                -0.031
REMARK SMILES CCCC(=O)[O-]
REMARK SMILES IDX 3 1 4 2 5 3 6 4 2 5 1 6
REMARK H PARENT
REMARK Flexibility Score: inf
ROOT
ATOM      1  C   UNL     1      59.649  -0.600  95.908  1.00  0.00     0.052 C 
ENDROOT
BRANCH   1   2
ATOM      2  C   UNL     1      60.256  -0.922  94.578  1.00  0.00     0.041 C 
ATOM      3  O   UNL     1      61.125  -1.828  94.480  1.00  0.00    -0.550 OA
ATOM      4  O   UNL     1      59.826  -0.255  93.438  1.00  0.00    -0.550 OA
ENDBRANCH   1   2
BRANCH   1   5
ATOM      5  C   UNL     1      60.616   0.238  96.748  1.00  0.00     0.003 C 
ATOM      6  C   UNL     1      60.000   1.585  97.115  1.00  0.00     0.004 C 
ENDBRANCH   1   5
TORSDOF 2
ENDMDL
MODEL 3
REMARK VINA RESULT:    -2.460      2.220      3.326
REMARK INTER + INTRA:          -2.778
REMARK INTER:                  -2.738
REMARK INTRA:                  -0.040
REMARK UNBOUND:                -0.031
REMARK SMILES CCCC(=O)[O-]
REMARK SMILES IDX 3 1 4 2 5 3 6 4 2 5 1 6
REMARK H PARENT
REMARK Flexibility Score: inf
ROOT
ATOM      1  C   UNL     1      61.125  -0.988  94.909  1.00  0.00     0.052 C 
ENDROOT
BRANCH   1   2
ATOM      2  C   UNL     1      60.237  -0.415  95.968  1.00  0.00     0.041 C 
ATOM      3  O   UNL     1      59.074  -0.870  96.134  1.00  0.00    -0.550 OA
ATOM      4  O   UNL     1      60.710   0.587  96.805  1.00  0.00    -0.550 OA
ENDBRANCH   1   2
BRANCH   1   5
ATOM      5  C   UNL     1      60.293  -1.708  93.844  1.00  0.00     0.003 C 
ATOM      6  C   UNL     1      59.986  -0.784  92.669  1.00  0.00     0.004 C 
ENDBRANCH   1   5
TORSDOF 2
ENDMDL
MODEL 4
REMARK VINA RESULT:    -2.405      3.051      4.071
REMARK INTER + INTRA:          -2.717
REMARK INTER:                  -2.679
REMARK INTRA:                  -0.038
REMARK UNBOUND:                -0.031
REMARK SMILES CCCC(=O)[O-]
REMARK SMILES IDX 3 1 4 2 5 3 6 4 2 5 1 6
REMARK H PARENT
REMARK Flexibility Score: inf
ROOT
ATOM      1  C   UNL     1      60.377   0.651  96.744  1.00  0.00     0.052 C 
ENDROOT
BRANCH   1   2
ATOM      2  C   UNL     1      59.286   1.671  96.836  1.00  0.00     0.041 C 
ATOM      3  O   UNL     1      58.083   1.327  96.696  1.00  0.00    -0.550 OA
ATOM      4  O   UNL     1      59.594   2.994  97.125  1.00  0.00    -0.550 OA
ENDBRANCH   1   2
BRANCH   1   5
ATOM      5  C   UNL     1      59.883  -0.597  96.007  1.00  0.00     0.003 C 
ATOM      6  C   UNL     1      60.401  -0.629  94.572  1.00  0.00     0.004 C 
ENDBRANCH   1   5
TORSDOF 2
ENDMDL
MODEL 5
REMARK VINA RESULT:    -2.405      2.767      3.436
REMARK INTER + INTRA:          -2.717
REMARK INTER:                  -2.666
REMARK INTRA:                  -0.051
REMARK UNBOUND:                -0.031
REMARK SMILES CCCC(=O)[O-]
REMARK SMILES IDX 3 1 4 2 5 3 6 4 2 5 1 6
REMARK H PARENT
REMARK Flexibility Score: inf
ROOT
ATOM      1  C   UNL     1      59.966   1.103  96.762  1.00  0.00     0.052 C 
ENDROOT
BRANCH   1   2
ATOM      2  C   UNL     1      58.590   1.090  96.172  1.00  0.00     0.041 C 
ATOM      3  O   UNL     1      58.243   1.982  95.354  1.00  0.00    -0.550 OA
ATOM      4  O   UNL     1      57.708   0.066  96.490  1.00  0.00    -0.550 OA
ENDBRANCH   1   2
BRANCH   1   5
ATOM      5  C   UNL     1      60.650  -0.251  96.554  1.00  0.00     0.003 C 
ATOM      6  C   UNL     1      60.791  -0.574  95.069  1.00  0.00     0.004 C 
ENDBRANCH   1   5
TORSDOF 2
ENDMDL
MODEL 6
REMARK VINA RESULT:    -2.274      3.091      3.578
REMARK INTER + INTRA:          -2.571
REMARK INTER:                  -2.514
REMARK INTRA:                  -0.057
REMARK UNBOUND:                -0.031
REMARK SMILES CCCC(=O)[O-]
REMARK SMILES IDX 3 1 4 2 5 3 6 4 2 5 1 6
REMARK H PARENT
REMARK Flexibility Score: inf
ROOT
ATOM      1  C   UNL     1      58.938  -1.050  95.335  1.00  0.00     0.052 C 
ENDROOT
BRANCH   1   2
ATOM      2  C   UNL     1      57.749  -0.873  96.227  1.00  0.00     0.041 C 
ATOM      3  O   UNL     1      57.203  -1.873  96.762  1.00  0.00    -0.550 OA
ATOM      4  O   UNL     1      57.275   0.402  96.506  1.00  0.00    -0.550 OA
ENDBRANCH   1   2
BRANCH   1   5
ATOM      5  C   UNL     1      59.945   0.082  95.553  1.00  0.00     0.003 C 
ATOM      6  C   UNL     1      60.785  -0.162  96.803  1.00  0.00     0.004 C 
ENDBRANCH   1   5
TORSDOF 2
ENDMDL
MODEL 7
REMARK VINA RESULT:    -2.268      2.402      2.783
REMARK INTER + INTRA:          -2.564
REMARK INTER:                  -2.522
REMARK INTRA:                  -0.043
REMARK UNBOUND:                -0.031
REMARK SMILES CCCC(=O)[O-]
REMARK SMILES IDX 3 1 4 2 5 3 6 4 2 5 1 6
REMARK H PARENT
REMARK Flexibility Score: inf
ROOT
ATOM      1  C   UNL     1      58.961  -0.441  95.929  1.00  0.00     0.052 C 
ENDROOT
BRANCH   1   2
ATOM      2  C   UNL     1      60.456  -0.502  95.889  1.00  0.00     0.041 C 
ATOM      3  O   UNL     1      61.125  -0.356  96.947  1.00  0.00    -0.550 OA
ATOM      4  O   UNL     1      61.110  -0.768  94.693  1.00  0.00    -0.550 OA
ENDBRANCH   1   2
BRANCH   1   5
ATOM      5  C   UNL     1      58.466   0.908  95.401  1.00  0.00     0.003 C 
ATOM      6  C   UNL     1      58.484   1.968  96.498  1.00  0.00     0.004 C 
ENDBRANCH   1   5
TORSDOF 2
ENDMDL
MODEL 8
REMARK VINA RESULT:    -2.252      2.402      3.040
REMARK INTER + INTRA:          -2.547
REMARK INTER:                  -2.487
REMARK INTRA:                  -0.059
REMARK UNBOUND:                -0.031
REMARK SMILES CCCC(=O)[O-]
REMARK SMILES IDX 3 1 4 2 5 3 6 4 2 5 1 6
REMARK H PARENT
REMARK Flexibility Score: inf
ROOT
ATOM      1  C   UNL     1      59.027   0.229  95.011  1.00  0.00     0.052 C 
ENDROOT
BRANCH   1   2
ATOM      2  C   UNL     1      60.368  -0.220  95.499  1.00  0.00     0.041 C 
ATOM      3  O   UNL     1      61.124  -0.891  94.748  1.00  0.00    -0.550 OA
ATOM      4  O   UNL     1      60.803   0.143  96.767  1.00  0.00    -0.550 OA
ENDBRANCH   1   2
BRANCH   1   5
ATOM      5  C   UNL     1      57.984   0.113  96.126  1.00  0.00     0.003 C 
ATOM      6  C   UNL     1      57.530  -1.332  96.306  1.00  0.00     0.004 C 
ENDBRANCH   1   5
TORSDOF 2
ENDMDL
MODEL 9
REMARK VINA RESULT:    -2.162     19.457     20.459
REMARK INTER + INTRA:          -2.446
REMARK INTER:                  -2.389
REMARK INTRA:                  -0.057
REMARK UNBOUND:                -0.031
REMARK SMILES CCCC(=O)[O-]
REMARK SMILES IDX 3 1 4 2 5 3 6 4 2 5 1 6
REMARK H PARENT
REMARK Flexibility Score: inf
ROOT
ATOM      1  C   UNL     1      48.387  -8.125  78.741  1.00  0.00     0.052 C 
ENDROOT
BRANCH   1   2
ATOM      2  C   UNL     1      48.739  -7.570  80.086  1.00  0.00     0.041 C 
ATOM      3  O   UNL     1      47.999  -6.708  80.629  1.00  0.00    -0.550 OA
ATOM      4  O   UNL     1      49.856  -8.042  80.762  1.00  0.00    -0.550 OA
ENDBRANCH   1   2
BRANCH   1   5
ATOM      5  C   UNL     1      48.009  -6.996  77.779  1.00  0.00     0.003 C 
ATOM      6  C   UNL     1      49.251  -6.284  77.250  1.00  0.00     0.004 C 
ENDBRANCH   1   5
TORSDOF 2
ENDMDL
