MODEL 1
REMARK VINA RESULT:    -4.250      0.000      0.000
REMARK INTER + INTRA:          -8.371
REMARK INTER:                  -6.734
REMARK INTRA:                  -1.637
REMARK UNBOUND:                -1.637
REMARK SMILES CCCCCCCCCCCC(=O)[O-]
REMARK SMILES IDX 7 1 8 2 9 3 10 4 11 5 12 6 13 7 14 8 6 9 5 10 4 11 3 12 2 13
REMARK SMILES IDX 1 14
REMARK H PARENT
REMARK Flexibility Score: inf
ROOT
ATOM      1  C   UNL     1     -20.325  44.621  -9.387  1.00  0.00     0.000 C 
ENDROOT
BRANCH   1   2
ATOM      2  C   UNL     1     -20.683  45.382  -8.100  1.00  0.00     0.000 C 
BRANCH   2   3
ATOM      3  C   UNL     1     -20.416  44.555  -6.831  1.00  0.00     0.000 C 
BRANCH   3   4
ATOM      4  C   UNL     1     -19.366  45.203  -5.913  1.00  0.00     0.006 C 
BRANCH   4   5
ATOM      5  C   UNL     1     -19.131  46.684  -6.235  1.00  0.00     0.053 C 
BRANCH   5   6
ATOM      6  C   UNL     1     -18.094  47.257  -5.321  1.00  0.00     0.041 C 
ATOM      7  O   UNL     1     -18.417  48.115  -4.457  1.00  0.00    -0.550 OA
ATOM      8  O   UNL     1     -16.764  46.881  -5.456  1.00  0.00    -0.550 OA
ENDBRANCH   5   6
ENDBRANCH   4   5
ENDBRANCH   3   4
ENDBRANCH   2   3
ENDBRANCH   1   2
BRANCH   1   9
ATOM      9  C   UNL     1     -20.543  43.102  -9.257  1.00  0.00     0.000 C 
BRANCH   9  10
ATOM     10  C   UNL     1     -19.297  42.290  -9.645  1.00  0.00    -0.000 C 
BRANCH  10  11
ATOM     11  C   UNL     1     -17.997  43.101  -9.505  1.00  0.00    -0.000 C 
BRANCH  11  12
ATOM     12  C   UNL     1     -17.290  42.856  -8.162  1.00  0.00    -0.000 C 
BRANCH  12  13
ATOM     13  C   UNL     1     -16.469  44.068  -7.695  1.00  0.00    -0.003 C 
ATOM     14  C   UNL     1     -16.680  45.264  -8.620  1.00  0.00     0.004 C 
ENDBRANCH  12  13
ENDBRANCH  11  12
ENDBRANCH  10  11
ENDBRANCH   9  10
ENDBRANCH   1   9
TORSDOF 10
ENDMDL
MODEL 2
REMARK VINA RESULT:    -4.166      1.600      3.168
REMARK INTER + INTRA:          -8.239
REMARK INTER:                  -6.574
REMARK INTRA:                  -1.665
REMARK UNBOUND:                -1.637
REMARK SMILES CCCCCCCCCCCC(=O)[O-]
REMARK SMILES IDX 7 1 8 2 9 3 10 4 11 5 12 6 13 7 14 8 6 9 5 10 4 11 3 12 2 13
REMARK SMILES IDX 1 14
REMARK H PARENT
REMARK Flexibility Score: inf
ROOT
ATOM      1  C   UNL     1     -17.157  43.973  -6.253  1.00  0.00     0.000 C 
ENDROOT
BRANCH   1   2
ATOM      2  C   UNL     1     -18.546  44.010  -5.597  1.00  0.00     0.000 C 
BRANCH   2   3
ATOM      3  C   UNL     1     -19.344  45.269  -5.976  1.00  0.00     0.000 C 
BRANCH   3   4
ATOM      4  C   UNL     1     -18.496  46.550  -5.904  1.00  0.00     0.006 C 
BRANCH   4   5
ATOM      5  C   UNL     1     -18.624  47.417  -7.163  1.00  0.00     0.053 C 
BRANCH   5   6
ATOM      6  C   UNL     1     -17.452  47.199  -8.068  1.00  0.00     0.041 C 
ATOM      7  O   UNL     1     -16.305  47.008  -7.583  1.00  0.00    -0.550 OA
ATOM      8  O   UNL     1     -17.617  47.255  -9.445  1.00  0.00    -0.550 OA
ENDBRANCH   5   6
ENDBRANCH   4   5
ENDBRANCH   3   4
ENDBRANCH   2   3
ENDBRANCH   1   2
BRANCH   1   9
ATOM      9  C   UNL     1     -17.066  42.938  -7.390  1.00  0.00     0.000 C 
BRANCH   9  10
ATOM     10  C   UNL     1     -16.697  43.573  -8.741  1.00  0.00    -0.000 C 
BRANCH  10  11
ATOM     11  C   UNL     1     -17.885  43.613  -9.717  1.00  0.00    -0.000 C 
BRANCH  11  12
ATOM     12  C   UNL     1     -19.018  42.658  -9.308  1.00  0.00    -0.000 C 
BRANCH  12  13
ATOM     13  C   UNL     1     -20.350  43.386  -9.071  1.00  0.00    -0.003 C 
ATOM     14  C   UNL     1     -20.263  44.846  -9.507  1.00  0.00     0.004 C 
ENDBRANCH  12  13
ENDBRANCH  11  12
ENDBRANCH  10  11
ENDBRANCH   9  10
ENDBRANCH   1   9
TORSDOF 10
ENDMDL
MODEL 3
REMARK VINA RESULT:    -4.093      1.746      4.094
REMARK INTER + INTRA:          -8.123
REMARK INTER:                  -6.500
REMARK INTRA:                  -1.623
REMARK UNBOUND:                -1.637
REMARK SMILES CCCCCCCCCCCC(=O)[O-]
REMARK SMILES IDX 7 1 8 2 9 3 10 4 11 5 12 6 13 7 14 8 6 9 5 10 4 11 3 12 2 13
REMARK SMILES IDX 1 14
REMARK H PARENT
REMARK Flexibility Score: inf
ROOT
ATOM      1  C   UNL     1     -18.463  43.966  -5.551  1.00  0.00     0.000 C 
ENDROOT
BRANCH   1   2
ATOM      2  C   UNL     1     -17.123  44.069  -6.298  1.00  0.00     0.000 C 
BRANCH   2   3
ATOM      3  C   UNL     1     -17.127  43.294  -7.626  1.00  0.00     0.000 C 
BRANCH   3   4
ATOM      4  C   UNL     1     -16.674  44.157  -8.815  1.00  0.00     0.006 C 
BRANCH   4   5
ATOM      5  C   UNL     1     -16.230  45.563  -8.391  1.00  0.00     0.053 C 
BRANCH   5   6
ATOM      6  C   UNL     1     -17.171  46.592  -8.932  1.00  0.00     0.041 C 
ATOM      7  O   UNL     1     -17.713  47.424  -8.157  1.00  0.00    -0.550 OA
ATOM      8  O   UNL     1     -17.489  46.603 -10.284  1.00  0.00    -0.550 OA
ENDBRANCH   5   6
ENDBRANCH   4   5
ENDBRANCH   3   4
ENDBRANCH   2   3
ENDBRANCH   1   2
BRANCH   1   9
ATOM      9  C   UNL     1     -19.441  45.093  -5.931  1.00  0.00     0.000 C 
BRANCH   9  10
ATOM     10  C   UNL     1     -20.570  44.611  -6.856  1.00  0.00    -0.000 C 
BRANCH  10  11
ATOM     11  C   UNL     1     -20.664  45.437  -8.151  1.00  0.00    -0.000 C 
BRANCH  11  12
ATOM     12  C   UNL     1     -20.336  44.609  -9.404  1.00  0.00    -0.000 C 
BRANCH  12  13
ATOM     13  C   UNL     1     -20.449  43.096  -9.162  1.00  0.00    -0.003 C 
ATOM     14  C   UNL     1     -20.033  42.309 -10.401  1.00  0.00     0.004 C 
ENDBRANCH  12  13
ENDBRANCH  11  12
ENDBRANCH  10  11
ENDBRANCH   9  10
ENDBRANCH   1   9
TORSDOF 10
ENDMDL
MODEL 4
REMARK VINA RESULT:    -3.972      1.693      3.506
REMARK INTER + INTRA:          -7.930
REMARK INTER:                  -6.541
REMARK INTRA:                  -1.390
REMARK UNBOUND:                -1.637
REMARK SMILES CCCCCCCCCCCC(=O)[O-]
REMARK SMILES IDX 7 1 8 2 9 3 10 4 11 5 12 6 13 7 14 8 6 9 5 10 4 11 3 12 2 13
REMARK SMILES IDX 1 14
REMARK H PARENT
REMARK Flexibility Score: inf
ROOT
ATOM      1  C   UNL     1     -19.255  45.031  -5.830  1.00  0.00     0.000 C 
ENDROOT
BRANCH   1   2
ATOM      2  C   UNL     1     -18.008  44.133  -5.872  1.00  0.00     0.000 C 
BRANCH   2   3
ATOM      3  C   UNL     1     -16.700  44.941  -5.889  1.00  0.00     0.000 C 
BRANCH   3   4
ATOM      4  C   UNL     1     -16.196  45.218  -7.315  1.00  0.00     0.006 C 
BRANCH   4   5
ATOM      5  C   UNL     1     -16.087  46.717  -7.623  1.00  0.00     0.053 C 
BRANCH   5   6
ATOM      6  C   UNL     1     -17.377  47.228  -8.185  1.00  0.00     0.041 C 
ATOM      7  O   UNL     1     -17.645  47.063  -9.405  1.00  0.00    -0.550 OA
ATOM      8  O   UNL     1     -18.260  47.928  -7.374  1.00  0.00    -0.550 OA
ENDBRANCH   5   6
ENDBRANCH   4   5
ENDBRANCH   3   4
ENDBRANCH   2   3
ENDBRANCH   1   2
BRANCH   1   9
ATOM      9  C   UNL     1     -20.397  44.503  -6.717  1.00  0.00     0.000 C 
BRANCH   9  10
ATOM     10  C   UNL     1     -20.643  45.384  -7.953  1.00  0.00    -0.000 C 
BRANCH  10  11
ATOM     11  C   UNL     1     -20.278  44.673  -9.267  1.00  0.00    -0.000 C 
BRANCH  11  12
ATOM     12  C   UNL     1     -20.548  43.161  -9.215  1.00  0.00    -0.000 C 
BRANCH  12  13
ATOM     13  C   UNL     1     -19.331  42.326  -9.641  1.00  0.00    -0.003 C 
ATOM     14  C   UNL     1     -18.044  43.141  -9.542  1.00  0.00     0.004 C 
ENDBRANCH  12  13
ENDBRANCH  11  12
ENDBRANCH  10  11
ENDBRANCH   9  10
ENDBRANCH   1   9
TORSDOF 10
ENDMDL
MODEL 5
REMARK VINA RESULT:    -3.969      1.488      2.216
REMARK INTER + INTRA:          -7.926
REMARK INTER:                  -6.336
REMARK INTRA:                  -1.590
REMARK UNBOUND:                -1.637
REMARK SMILES CCCCCCCCCCCC(=O)[O-]
REMARK SMILES IDX 7 1 8 2 9 3 10 4 11 5 12 6 13 7 14 8 6 9 5 10 4 11 3 12 2 13
REMARK SMILES IDX 1 14
REMARK H PARENT
REMARK Flexibility Score: inf
ROOT
ATOM      1  C   UNL     1     -20.607  45.443  -7.816  1.00  0.00     0.000 C 
ENDROOT
BRANCH   1   2
ATOM      2  C   UNL     1     -20.487  44.433  -6.664  1.00  0.00     0.000 C 
BRANCH   2   3
ATOM      3  C   UNL     1     -19.334  44.768  -5.703  1.00  0.00     0.000 C 
BRANCH   3   4
ATOM      4  C   UNL     1     -18.720  46.151  -5.976  1.00  0.00     0.006 C 
BRANCH   4   5
ATOM      5  C   UNL     1     -17.192  46.106  -6.103  1.00  0.00     0.053 C 
BRANCH   5   6
ATOM      6  C   UNL     1     -16.756  46.759  -7.377  1.00  0.00     0.041 C 
ATOM      7  O   UNL     1     -15.530  46.852  -7.653  1.00  0.00    -0.550 OA
ATOM      8  O   UNL     1     -17.699  47.306  -8.237  1.00  0.00    -0.550 OA
ENDBRANCH   5   6
ENDBRANCH   4   5
ENDBRANCH   3   4
ENDBRANCH   2   3
ENDBRANCH   1   2
BRANCH   1   9
ATOM      9  C   UNL     1     -20.208  44.841  -9.176  1.00  0.00     0.000 C 
BRANCH   9  10
ATOM     10  C   UNL     1     -20.324  43.308  -9.202  1.00  0.00    -0.000 C 
BRANCH  10  11
ATOM     11  C   UNL     1     -18.961  42.616  -9.372  1.00  0.00    -0.000 C 
BRANCH  11  12
ATOM     12  C   UNL     1     -17.842  43.599  -9.751  1.00  0.00    -0.000 C 
BRANCH  12  13
ATOM     13  C   UNL     1     -16.610  43.474  -8.843  1.00  0.00    -0.003 C 
ATOM     14  C   UNL     1     -16.944  42.707  -7.566  1.00  0.00     0.004 C 
ENDBRANCH  12  13
ENDBRANCH  11  12
ENDBRANCH  10  11
ENDBRANCH   9  10
ENDBRANCH   1   9
TORSDOF 10
ENDMDL
MODEL 6
REMARK VINA RESULT:    -3.935      1.253      3.247
REMARK INTER + INTRA:          -7.872
REMARK INTER:                  -6.204
REMARK INTRA:                  -1.669
REMARK UNBOUND:                -1.637
REMARK SMILES CCCCCCCCCCCC(=O)[O-]
REMARK SMILES IDX 7 1 8 2 9 3 10 4 11 5 12 6 13 7 14 8 6 9 5 10 4 11 3 12 2 13
REMARK SMILES IDX 1 14
REMARK H PARENT
REMARK Flexibility Score: inf
ROOT
ATOM      1  C   UNL     1     -16.522  43.319  -8.612  1.00  0.00     0.000 C 
ENDROOT
BRANCH   1   2
ATOM      2  C   UNL     1     -17.185  43.036  -7.255  1.00  0.00     0.000 C 
BRANCH   2   3
ATOM      3  C   UNL     1     -17.273  44.289  -6.368  1.00  0.00     0.000 C 
BRANCH   3   4
ATOM      4  C   UNL     1     -18.667  44.477  -5.747  1.00  0.00     0.006 C 
BRANCH   4   5
ATOM      5  C   UNL     1     -19.451  45.629  -6.388  1.00  0.00     0.053 C 
BRANCH   5   6
ATOM      6  C   UNL     1     -18.714  46.919  -6.218  1.00  0.00     0.041 C 
ATOM      7  O   UNL     1     -18.510  47.384  -5.065  1.00  0.00    -0.550 OA
ATOM      8  O   UNL     1     -18.294  47.633  -7.332  1.00  0.00    -0.550 OA
ENDBRANCH   5   6
ENDBRANCH   4   5
ENDBRANCH   3   4
ENDBRANCH   2   3
ENDBRANCH   1   2
BRANCH   1   9
ATOM      9  C   UNL     1     -16.584  44.807  -9.004  1.00  0.00     0.000 C 
BRANCH   9  10
ATOM     10  C   UNL     1     -17.440  45.055 -10.257  1.00  0.00    -0.000 C 
BRANCH  10  11
ATOM     11  C   UNL     1     -18.878  45.478  -9.915  1.00  0.00    -0.000 C 
BRANCH  11  12
ATOM     12  C   UNL     1     -19.926  44.475 -10.423  1.00  0.00    -0.000 C 
BRANCH  12  13
ATOM     13  C   UNL     1     -20.339  43.455  -9.350  1.00  0.00    -0.003 C 
ATOM     14  C   UNL     1     -19.887  42.047  -9.728  1.00  0.00     0.004 C 
ENDBRANCH  12  13
ENDBRANCH  11  12
ENDBRANCH  10  11
ENDBRANCH   9  10
ENDBRANCH   1   9
TORSDOF 10
ENDMDL
MODEL 7
REMARK VINA RESULT:    -3.928      1.530      3.508
REMARK INTER + INTRA:          -7.861
REMARK INTER:                  -6.250
REMARK INTRA:                  -1.611
REMARK UNBOUND:                -1.637
REMARK SMILES CCCCCCCCCCCC(=O)[O-]
REMARK SMILES IDX 7 1 8 2 9 3 10 4 11 5 12 6 13 7 14 8 6 9 5 10 4 11 3 12 2 13
REMARK SMILES IDX 1 14
REMARK H PARENT
REMARK Flexibility Score: inf
ROOT
ATOM      1  C   UNL     1     -19.354  42.260  -9.406  1.00  0.00     0.000 C 
ENDROOT
BRANCH   1   2
ATOM      2  C   UNL     1     -18.018  43.009  -9.277  1.00  0.00     0.000 C 
BRANCH   2   3
ATOM      3  C   UNL     1     -17.248  42.628  -8.002  1.00  0.00     0.000 C 
BRANCH   3   4
ATOM      4  C   UNL     1     -16.508  43.824  -7.379  1.00  0.00     0.006 C 
BRANCH   4   5
ATOM      5  C   UNL     1     -16.196  44.924  -8.401  1.00  0.00     0.053 C 
BRANCH   5   6
ATOM      6  C   UNL     1     -15.779  46.181  -7.702  1.00  0.00     0.041 C 
ATOM      7  O   UNL     1     -16.113  47.303  -8.166  1.00  0.00    -0.550 OA
ATOM      8  O   UNL     1     -14.982  46.114  -6.567  1.00  0.00    -0.550 OA
ENDBRANCH   5   6
ENDBRANCH   4   5
ENDBRANCH   3   4
ENDBRANCH   2   3
ENDBRANCH   1   2
BRANCH   1   9
ATOM      9  C   UNL     1     -20.568  43.207  -9.393  1.00  0.00     0.000 C 
BRANCH   9  10
ATOM     10  C   UNL     1     -20.164  44.687  -9.306  1.00  0.00    -0.000 C 
BRANCH  10  11
ATOM     11  C   UNL     1     -20.642  45.353  -8.004  1.00  0.00    -0.000 C 
BRANCH  11  12
ATOM     12  C   UNL     1     -19.540  46.183  -7.326  1.00  0.00    -0.000 C 
BRANCH  12  13
ATOM     13  C   UNL     1     -19.203  45.680  -5.914  1.00  0.00    -0.003 C 
ATOM     14  C   UNL     1     -19.869  44.334  -5.637  1.00  0.00     0.004 C 
ENDBRANCH  12  13
ENDBRANCH  11  12
ENDBRANCH  10  11
ENDBRANCH   9  10
ENDBRANCH   1   9
TORSDOF 10
ENDMDL
MODEL 8
REMARK VINA RESULT:    -3.913      1.660      2.537
REMARK INTER + INTRA:          -7.838
REMARK INTER:                  -6.143
REMARK INTRA:                  -1.695
REMARK UNBOUND:                -1.637
REMARK SMILES CCCCCCCCCCCC(=O)[O-]
REMARK SMILES IDX 7 1 8 2 9 3 10 4 11 5 12 6 13 7 14 8 6 9 5 10 4 11 3 12 2 13
REMARK SMILES IDX 1 14
REMARK H PARENT
REMARK Flexibility Score: inf
ROOT
ATOM      1  C   UNL     1     -20.330  44.377  -6.833  1.00  0.00     0.000 C 
ENDROOT
BRANCH   1   2
ATOM      2  C   UNL     1     -19.377  45.353  -6.125  1.00  0.00     0.000 C 
BRANCH   2   3
ATOM      3  C   UNL     1     -19.052  46.587  -6.983  1.00  0.00     0.000 C 
BRANCH   3   4
ATOM      4  C   UNL     1     -17.544  46.887  -7.038  1.00  0.00     0.006 C 
BRANCH   4   5
ATOM      5  C   UNL     1     -16.765  46.215  -5.901  1.00  0.00     0.053 C 
BRANCH   5   6
ATOM      6  C   UNL     1     -15.293  46.291  -6.162  1.00  0.00     0.041 C 
ATOM      7  O   UNL     1     -14.867  46.481  -7.332  1.00  0.00    -0.550 OA
ATOM      8  O   UNL     1     -14.392  46.104  -5.123  1.00  0.00    -0.550 OA
ENDBRANCH   5   6
ENDBRANCH   4   5
ENDBRANCH   3   4
ENDBRANCH   2   3
ENDBRANCH   1   2
BRANCH   1   9
ATOM      9  C   UNL     1     -20.550  44.733  -8.315  1.00  0.00     0.000 C 
BRANCH   9  10
ATOM     10  C   UNL     1     -20.363  43.525  -9.248  1.00  0.00    -0.000 C 
BRANCH  10  11
ATOM     11  C   UNL     1     -18.983  42.865  -9.090  1.00  0.00    -0.000 C 
BRANCH  11  12
ATOM     12  C   UNL     1     -17.834  43.783  -9.539  1.00  0.00    -0.000 C 
BRANCH  12  13
ATOM     13  C   UNL     1     -16.583  43.640  -8.660  1.00  0.00    -0.003 C 
ATOM     14  C   UNL     1     -16.883  42.824  -7.406  1.00  0.00     0.004 C 
ENDBRANCH  12  13
ENDBRANCH  11  12
ENDBRANCH  10  11
ENDBRANCH   9  10
ENDBRANCH   1   9
TORSDOF 10
ENDMDL
MODEL 9
REMARK VINA RESULT:    -3.852      1.374      2.868
REMARK INTER + INTRA:          -7.741
REMARK INTER:                  -6.235
REMARK INTRA:                  -1.506
REMARK UNBOUND:                -1.637
REMARK SMILES CCCCCCCCCCCC(=O)[O-]
REMARK SMILES IDX 7 1 8 2 9 3 10 4 11 5 12 6 13 7 14 8 6 9 5 10 4 11 3 12 2 13
REMARK SMILES IDX 1 14
REMARK H PARENT
REMARK Flexibility Score: inf
ROOT
ATOM      1  C   UNL     1     -20.354  44.555  -6.557  1.00  0.00     0.000 C 
ENDROOT
BRANCH   1   2
ATOM      2  C   UNL     1     -19.088  45.046  -5.835  1.00  0.00     0.000 C 
BRANCH   2   3
ATOM      3  C   UNL     1     -17.984  43.977  -5.789  1.00  0.00     0.000 C 
BRANCH   3   4
ATOM      4  C   UNL     1     -16.876  44.228  -6.825  1.00  0.00     0.006 C 
BRANCH   4   5
ATOM      5  C   UNL     1     -16.807  45.692  -7.277  1.00  0.00     0.053 C 
BRANCH   5   6
ATOM      6  C   UNL     1     -15.723  46.414  -6.542  1.00  0.00     0.041 C 
ATOM      7  O   UNL     1     -14.573  46.513  -7.046  1.00  0.00    -0.550 OA
ATOM      8  O   UNL     1     -15.968  46.936  -5.278  1.00  0.00    -0.550 OA
ENDBRANCH   5   6
ENDBRANCH   4   5
ENDBRANCH   3   4
ENDBRANCH   2   3
ENDBRANCH   1   2
BRANCH   1   9
ATOM      9  C   UNL     1     -20.724  45.433  -7.766  1.00  0.00     0.000 C 
BRANCH   9  10
ATOM     10  C   UNL     1     -20.281  44.817  -9.103  1.00  0.00    -0.000 C 
BRANCH  10  11
ATOM     11  C   UNL     1     -20.273  43.279  -9.071  1.00  0.00    -0.000 C 
BRANCH  11  12
ATOM     12  C   UNL     1     -18.932  42.685  -9.531  1.00  0.00    -0.000 C 
BRANCH  12  13
ATOM     13  C   UNL     1     -18.316  43.454 -10.709  1.00  0.00    -0.003 C 
ATOM     14  C   UNL     1     -16.832  43.721 -10.476  1.00  0.00     0.004 C 
ENDBRANCH  12  13
ENDBRANCH  11  12
ENDBRANCH  10  11
ENDBRANCH   9  10
ENDBRANCH   1   9
TORSDOF 10
ENDMDL
