MODEL 1
REMARK VINA RESULT:    -3.320      0.000      0.000
REMARK INTER + INTRA:          -6.857
REMARK INTER:                  -5.066
REMARK INTRA:                  -1.791
REMARK UNBOUND:                -1.791
REMARK SMILES CC(=O)CCC=C(C)CCC=C(C)CCC=C(C)C
REMARK SMILES IDX 10 1 11 2 12 3 13 4 14 5 15 6 16 7 18 8 17 9 19 10 9 11 7 12
REMARK SMILES IDX 6 13 8 14 5 15 4 16 2 17 3 18 1 19
REMARK H PARENT
REMARK Flexibility Score: inf
ROOT
ATOM      1  C   UNL     1       9.426  22.365  22.111  1.00  0.00     0.032 C 
ENDROOT
BRANCH   1   2
ATOM      2  C   UNL     1      10.272  22.497  23.352  1.00  0.00    -0.028 C 
ATOM      3  C   UNL     1       9.841  22.222  24.605  1.00  0.00    -0.077 C 
ATOM      4  C   UNL     1       8.449  21.698  24.875  1.00  0.00     0.039 C 
BRANCH   3   5
ATOM      5  C   UNL     1      10.787  22.435  25.766  1.00  0.00     0.034 C 
BRANCH   5   6
ATOM      6  C   UNL     1      11.124  23.921  25.930  1.00  0.00     0.032 C 
BRANCH   6   7
ATOM      7  C   UNL     1       9.998  24.653  26.616  1.00  0.00    -0.028 C 
ATOM      8  C   UNL     1       9.276  25.827  24.525  1.00  0.00     0.039 C 
ATOM      9  C   UNL     1       9.143  25.494  25.993  1.00  0.00    -0.080 C 
ATOM     10  C   UNL     1       8.039  26.124  26.801  1.00  0.00     0.039 C 
ENDBRANCH   6   7
ENDBRANCH   5   6
ENDBRANCH   3   5
ENDBRANCH   1   2
BRANCH   1  11
ATOM     11  C   UNL     1       9.982  23.234  20.979  1.00  0.00     0.034 C 
BRANCH  11  12
ATOM     12  C   UNL     1       9.172  24.503  20.833  1.00  0.00    -0.077 C 
ATOM     13  C   UNL     1       7.854  24.479  21.139  1.00  0.00    -0.028 C 
ATOM     14  C   UNL     1       9.870  25.769  20.395  1.00  0.00     0.039 C 
BRANCH  13  15
ATOM     15  C   UNL     1       6.930  25.667  21.025  1.00  0.00     0.035 C 
BRANCH  15  16
ATOM     16  C   UNL     1       6.178  25.647  19.690  1.00  0.00     0.079 C 
BRANCH  16  17
ATOM     17  C   UNL     1       4.820  25.017  19.856  1.00  0.00     0.130 C 
ATOM     18  O   UNL     1       4.362  24.331  18.954  1.00  0.00    -0.300 OA
ATOM     19  C   UNL     1       4.012  25.219  21.102  1.00  0.00     0.087 C 
ENDBRANCH  16  17
ENDBRANCH  15  16
ENDBRANCH  13  15
ENDBRANCH  11  12
ENDBRANCH   1  11
TORSDOF 9
ENDMDL
MODEL 2
REMARK VINA RESULT:    -2.552      2.265      6.296
REMARK INTER + INTRA:          -5.685
REMARK INTER:                  -4.444
REMARK INTRA:                  -1.242
REMARK UNBOUND:                -1.791
REMARK SMILES CC(=O)CCC=C(C)CCC=C(C)CCC=C(C)C
REMARK SMILES IDX 10 1 11 2 12 3 13 4 14 5 15 6 16 7 18 8 17 9 19 10 9 11 7 12
REMARK SMILES IDX 6 13 8 14 5 15 4 16 2 17 3 18 1 19
REMARK H PARENT
REMARK Flexibility Score: inf
ROOT
ATOM      1  C   UNL     1       9.040  22.418  21.677  1.00  0.00     0.032 C 
ENDROOT
BRANCH   1   2
ATOM      2  C   UNL     1       8.417  23.711  21.214  1.00  0.00    -0.028 C 
ATOM      3  C   UNL     1       9.078  24.887  21.114  1.00  0.00    -0.077 C 
ATOM      4  C   UNL     1      10.554  25.003  21.422  1.00  0.00     0.039 C 
BRANCH   3   5
ATOM      5  C   UNL     1       8.319  26.118  20.671  1.00  0.00     0.034 C 
BRANCH   5   6
ATOM      6  C   UNL     1       6.974  25.733  20.045  1.00  0.00     0.032 C 
BRANCH   6   7
ATOM      7  C   UNL     1       5.835  26.073  20.972  1.00  0.00    -0.028 C 
ATOM      8  C   UNL     1       4.330  24.308  20.028  1.00  0.00     0.039 C 
ATOM      9  C   UNL     1       4.649  25.425  20.994  1.00  0.00    -0.080 C 
ATOM     10  C   UNL     1       3.616  25.851  22.005  1.00  0.00     0.039 C 
ENDBRANCH   6   7
ENDBRANCH   5   6
ENDBRANCH   3   5
ENDBRANCH   1   2
BRANCH   1  11
ATOM     11  C   UNL     1       8.569  22.062  23.090  1.00  0.00     0.034 C 
BRANCH  11  12
ATOM     12  C   UNL     1       9.714  22.162  24.074  1.00  0.00    -0.077 C 
ATOM     13  C   UNL     1       9.441  22.390  25.379  1.00  0.00    -0.028 C 
ATOM     14  C   UNL     1      11.125  21.957  23.574  1.00  0.00     0.039 C 
BRANCH  13  15
ATOM     15  C   UNL     1      10.485  22.526  26.459  1.00  0.00     0.035 C 
BRANCH  15  16
ATOM     16  C   UNL     1      10.406  23.904  27.125  1.00  0.00     0.079 C 
BRANCH  16  17
ATOM     17  C   UNL     1      10.074  24.966  26.109  1.00  0.00     0.130 C 
ATOM     18  O   UNL     1       8.932  25.392  26.037  1.00  0.00    -0.300 OA
ATOM     19  C   UNL     1      11.115  25.505  25.175  1.00  0.00     0.087 C 
ENDBRANCH  16  17
ENDBRANCH  15  16
ENDBRANCH  13  15
ENDBRANCH  11  12
ENDBRANCH   1  11
TORSDOF 9
ENDMDL
MODEL 3
REMARK VINA RESULT:    -1.345      1.679      3.170
REMARK INTER + INTRA:          -3.843
REMARK INTER:                  -4.123
REMARK INTRA:                   0.280
REMARK UNBOUND:                -1.791
REMARK SMILES CC(=O)CCC=C(C)CCC=C(C)CCC=C(C)C
REMARK SMILES IDX 10 1 11 2 12 3 13 4 14 5 15 6 16 7 18 8 17 9 19 10 9 11 7 12
REMARK SMILES IDX 6 13 8 14 5 15 4 16 2 17 3 18 1 19
REMARK H PARENT
REMARK Flexibility Score: inf
ROOT
ATOM      1  C   UNL     1       8.335  24.719  21.783  1.00  0.00     0.032 C 
ENDROOT
BRANCH   1   2
ATOM      2  C   UNL     1       9.601  24.751  22.602  1.00  0.00    -0.028 C 
ATOM      3  C   UNL     1       9.726  25.373  23.797  1.00  0.00    -0.077 C 
ATOM      4  C   UNL     1       8.561  26.073  24.458  1.00  0.00     0.039 C 
BRANCH   3   5
ATOM      5  C   UNL     1      11.068  25.357  24.493  1.00  0.00     0.034 C 
BRANCH   5   6
ATOM      6  C   UNL     1      11.083  24.324  25.626  1.00  0.00     0.032 C 
BRANCH   6   7
ATOM      7  C   UNL     1       9.795  23.543  25.654  1.00  0.00    -0.028 C 
ATOM      8  C   UNL     1      10.776  21.576  24.454  1.00  0.00     0.039 C 
ATOM      9  C   UNL     1       9.647  22.296  25.155  1.00  0.00    -0.080 C 
ATOM     10  C   UNL     1       8.307  21.621  25.291  1.00  0.00     0.039 C 
ENDBRANCH   6   7
ENDBRANCH   5   6
ENDBRANCH   3   5
ENDBRANCH   1   2
BRANCH   1  11
ATOM     11  C   UNL     1       8.501  25.527  20.492  1.00  0.00     0.034 C 
BRANCH  11  12
ATOM     12  C   UNL     1       7.153  25.819  19.869  1.00  0.00    -0.077 C 
ATOM     13  C   UNL     1       6.056  25.838  20.659  1.00  0.00    -0.028 C 
ATOM     14  C   UNL     1       7.084  26.124  18.391  1.00  0.00     0.039 C 
BRANCH  13  15
ATOM     15  C   UNL     1       4.654  26.101  20.166  1.00  0.00     0.035 C 
BRANCH  15  16
ATOM     16  C   UNL     1       3.620  25.428  21.075  1.00  0.00     0.079 C 
BRANCH  16  17
ATOM     17  C   UNL     1       3.872  25.782  22.517  1.00  0.00     0.130 C 
ATOM     18  O   UNL     1       5.016  25.784  22.944  1.00  0.00    -0.300 OA
ATOM     19  C   UNL     1       2.746  26.125  23.446  1.00  0.00     0.087 C 
ENDBRANCH  16  17
ENDBRANCH  15  16
ENDBRANCH  13  15
ENDBRANCH  11  12
ENDBRANCH   1  11
TORSDOF 9
ENDMDL
MODEL 4
REMARK VINA RESULT:    -1.257      1.809      2.286
REMARK INTER + INTRA:          -3.710
REMARK INTER:                  -2.166
REMARK INTRA:                  -1.544
REMARK UNBOUND:                -1.791
REMARK SMILES CC(=O)CCC=C(C)CCC=C(C)CCC=C(C)C
REMARK SMILES IDX 10 1 11 2 12 3 13 4 14 5 15 6 16 7 18 8 17 9 19 10 9 11 7 12
REMARK SMILES IDX 6 13 8 14 5 15 4 16 2 17 3 18 1 19
REMARK H PARENT
REMARK Flexibility Score: inf
ROOT
ATOM      1  C   UNL     1       9.021  23.012  21.646  1.00  0.00     0.032 C 
ENDROOT
BRANCH   1   2
ATOM      2  C   UNL     1       9.841  22.467  22.787  1.00  0.00    -0.028 C 
ATOM      3  C   UNL     1       9.338  22.115  23.993  1.00  0.00    -0.077 C 
ATOM      4  C   UNL     1       7.860  22.197  24.296  1.00  0.00     0.039 C 
BRANCH   3   5
ATOM      5  C   UNL     1      10.284  21.616  25.063  1.00  0.00     0.034 C 
BRANCH   5   6
ATOM      6  C   UNL     1      11.125  22.767  25.627  1.00  0.00     0.032 C 
BRANCH   6   7
ATOM      7  C   UNL     1      10.260  23.742  26.384  1.00  0.00    -0.028 C 
ATOM      8  C   UNL     1      11.016  25.708  25.030  1.00  0.00     0.039 C 
ATOM      9  C   UNL     1      10.180  25.063  26.111  1.00  0.00    -0.080 C 
ATOM     10  C   UNL     1       9.240  25.910  26.929  1.00  0.00     0.039 C 
ENDBRANCH   6   7
ENDBRANCH   5   6
ENDBRANCH   3   5
ENDBRANCH   1   2
BRANCH   1  11
ATOM     11  C   UNL     1       8.989  24.543  21.681  1.00  0.00     0.034 C 
BRANCH  11  12
ATOM     12  C   UNL     1       7.590  25.053  21.409  1.00  0.00    -0.077 C 
ATOM     13  C   UNL     1       6.879  25.593  22.424  1.00  0.00    -0.028 C 
ATOM     14  C   UNL     1       7.051  24.984  19.999  1.00  0.00     0.039 C 
BRANCH  13  15
ATOM     15  C   UNL     1       5.473  26.125  22.294  1.00  0.00     0.035 C 
BRANCH  15  16
ATOM     16  C   UNL     1       4.735  26.053  23.635  1.00  0.00     0.079 C 
BRANCH  16  17
ATOM     17  C   UNL     1       3.277  25.742  23.422  1.00  0.00     0.130 C 
ATOM     18  O   UNL     1       2.825  25.729  22.288  1.00  0.00    -0.300 OA
ATOM     19  C   UNL     1       2.363  25.455  24.576  1.00  0.00     0.087 C 
ENDBRANCH  16  17
ENDBRANCH  15  16
ENDBRANCH  13  15
ENDBRANCH  11  12
ENDBRANCH   1  11
TORSDOF 9
ENDMDL
