MODEL 1
REMARK VINA RESULT:     4.675      0.000      0.000
REMARK INTER + INTRA:           6.068
REMARK INTER:                   5.495
REMARK INTRA:                   0.573
REMARK UNBOUND:                 0.573
REMARK SMILES O=c1c(O)c(-c2ccc(O)cc2)oc2cc(O)cc(O)c12
REMARK SMILES IDX 5 1 3 2 2 3 1 4 21 5 19 6 18 7 16 8 15 9 14 10 13 11 6 12
REMARK SMILES IDX 7 13 8 14 9 15 12 16 11 17 10 18 4 20 20 22 17 24
REMARK H PARENT 10 19 4 21 20 23 17 25
REMARK Flexibility Score: inf
ROOT
ATOM      1  C   UNL     1     -34.921 -36.015 -35.130  1.00  0.00     0.180 A 
ATOM      2  C   UNL     1     -36.198 -35.871 -34.560  1.00  0.00     0.208 A 
ATOM      3  C   UNL     1     -37.322 -35.854 -35.403  1.00  0.00     0.238 A 
ATOM      4  O   UNL     1     -38.458 -35.671 -34.893  1.00  0.00    -0.285 OA
ATOM      5  C   UNL     1     -37.155 -35.997 -36.802  1.00  0.00     0.111 A 
ATOM      6  C   UNL     1     -38.226 -36.035 -37.746  1.00  0.00     0.134 A 
ATOM      7  C   UNL     1     -37.937 -36.048 -39.116  1.00  0.00     0.093 A 
ATOM      8  C   UNL     1     -36.622 -36.092 -39.575  1.00  0.00     0.123 A 
ATOM      9  C   UNL     1     -35.569 -36.116 -38.659  1.00  0.00     0.094 A 
ATOM     10  C   UNL     1     -35.823 -36.066 -37.287  1.00  0.00     0.146 A 
ATOM     11  O   UNL     1     -34.793 -36.081 -36.450  1.00  0.00    -0.452 OA
ENDROOT
BRANCH   1  12
ATOM     12  C   UNL     1     -33.693 -36.066 -34.305  1.00  0.00     0.021 A 
ATOM     13  C   UNL     1     -33.798 -36.056 -32.904  1.00  0.00     0.016 A 
ATOM     14  C   UNL     1     -32.651 -36.080 -32.106  1.00  0.00     0.047 A 
ATOM     15  C   UNL     1     -31.384 -36.099 -32.697  1.00  0.00     0.115 A 
ATOM     16  C   UNL     1     -32.415 -36.065 -34.893  1.00  0.00     0.016 A 
ATOM     17  C   UNL     1     -31.268 -36.088 -34.093  1.00  0.00     0.047 A 
BRANCH  15  18
ATOM     18  O   UNL     1     -30.249 -36.125 -31.891  1.00  0.00    -0.508 OA
ATOM     19  H   UNL     1     -30.200 -36.707 -31.062  1.00  0.00     0.293 HD
ENDBRANCH  15  18
ENDBRANCH   1  12
BRANCH   2  20
ATOM     20  O   UNL     1     -36.339 -35.709 -33.180  1.00  0.00    -0.502 OA
ATOM     21  H   UNL     1     -35.789 -35.041 -32.652  1.00  0.00     0.293 HD
ENDBRANCH   2  20
BRANCH   6  22
ATOM     22  O   UNL     1     -39.577 -36.088 -37.392  1.00  0.00    -0.507 OA
ATOM     23  H   UNL     1     -40.086 -35.337 -36.953  1.00  0.00     0.293 HD
ENDBRANCH   6  22
BRANCH   8  24
ATOM     24  O   UNL     1     -36.373 -36.120 -40.945  1.00  0.00    -0.508 OA
ATOM     25  H   UNL     1     -35.428 -36.094 -41.313  1.00  0.00     0.293 HD
ENDBRANCH   8  24
TORSDOF 5
ENDMDL
MODEL 2
REMARK VINA RESULT:     4.743     21.471     24.296
REMARK INTER + INTRA:           6.148
REMARK INTER:                   5.682
REMARK INTRA:                   0.466
REMARK UNBOUND:                 0.573
REMARK SMILES O=c1c(O)c(-c2ccc(O)cc2)oc2cc(O)cc(O)c12
REMARK SMILES IDX 5 1 3 2 2 3 1 4 21 5 19 6 18 7 16 8 15 9 14 10 13 11 6 12
REMARK SMILES IDX 7 13 8 14 9 15 12 16 11 17 10 18 4 20 20 22 17 24
REMARK H PARENT 10 19 4 21 20 23 17 25
REMARK Flexibility Score: inf
ROOT
ATOM      1  C   UNL     1     -20.165 -20.872 -27.028  1.00  0.00     0.180 A 
ATOM      2  C   UNL     1     -20.136 -21.997 -26.186  1.00  0.00     0.208 A 
ATOM      3  C   UNL     1     -20.255 -21.812 -24.798  1.00  0.00     0.238 A 
ATOM      4  O   UNL     1     -20.175 -22.817 -24.045  1.00  0.00    -0.285 OA
ATOM      5  C   UNL     1     -20.417 -20.507 -24.273  1.00  0.00     0.111 A 
ATOM      6  C   UNL     1     -20.586 -20.207 -22.888  1.00  0.00     0.134 A 
ATOM      7  C   UNL     1     -20.606 -18.871 -22.469  1.00  0.00     0.093 A 
ATOM      8  C   UNL     1     -20.528 -17.827 -23.389  1.00  0.00     0.123 A 
ATOM      9  C   UNL     1     -20.421 -18.109 -24.751  1.00  0.00     0.094 A 
ATOM     10  C   UNL     1     -20.362 -19.431 -25.197  1.00  0.00     0.146 A 
ATOM     11  O   UNL     1     -20.251 -19.657 -26.500  1.00  0.00    -0.452 OA
ENDROOT
BRANCH   1  12
ATOM     12  C   UNL     1     -20.070 -20.989 -28.501  1.00  0.00     0.021 A 
ATOM     13  C   UNL     1     -19.949 -19.827 -29.281  1.00  0.00     0.016 A 
ATOM     14  C   UNL     1     -19.882 -19.912 -30.675  1.00  0.00     0.047 A 
ATOM     15  C   UNL     1     -19.949 -21.157 -31.307  1.00  0.00     0.115 A 
ATOM     16  C   UNL     1     -20.157 -22.237 -29.145  1.00  0.00     0.016 A 
ATOM     17  C   UNL     1     -20.090 -22.320 -30.539  1.00  0.00     0.047 A 
BRANCH  15  18
ATOM     18  O   UNL     1     -19.879 -21.228 -32.696  1.00  0.00    -0.508 OA
ATOM     19  H   UNL     1     -19.277 -20.611 -33.229  1.00  0.00     0.293 HD
ENDBRANCH  15  18
ENDBRANCH   1  12
BRANCH   2  20
ATOM     20  O   UNL     1     -19.954 -23.274 -26.723  1.00  0.00    -0.502 OA
ATOM     21  H   UNL     1     -20.285 -24.112 -26.260  1.00  0.00     0.293 HD
ENDBRANCH   2  20
BRANCH   6  22
ATOM     22  O   UNL     1     -20.767 -21.175 -21.896  1.00  0.00    -0.507 OA
ATOM     23  H   UNL     1     -21.005 -22.139 -22.070  1.00  0.00     0.293 HD
ENDBRANCH   6  22
BRANCH   8  24
ATOM     24  O   UNL     1     -20.566 -16.509 -22.937  1.00  0.00    -0.508 OA
ATOM     25  H   UNL     1     -19.870 -15.829 -23.224  1.00  0.00     0.293 HD
ENDBRANCH   8  24
TORSDOF 5
ENDMDL
