MODEL 1
REMARK VINA RESULT:    -4.271      0.000      0.000
REMARK INTER + INTRA:          -6.388
REMARK INTER:                  -5.769
REMARK INTRA:                  -0.619
REMARK UNBOUND:                -0.619
REMARK SMILES CC(=O)CCC=C(C)CCC=C(C)C
REMARK SMILES IDX 7 1 6 2 8 3 9 4 10 5 11 6 13 7 12 8 14 9 5 10 4 11 2 12 3 13
REMARK SMILES IDX 1 14
REMARK H PARENT
REMARK Flexibility Score: inf
ROOT
ATOM      1  C   UNL     1       9.727  16.891  14.540  1.00  0.00    -0.077 C 
ATOM      2  C   UNL     1       8.415  16.932  14.870  1.00  0.00    -0.028 C 
ATOM      3  C   UNL     1      10.425  18.067  13.899  1.00  0.00     0.039 C 
ENDROOT
BRANCH   1   4
ATOM      4  C   UNL     1      10.509  15.622  14.801  1.00  0.00     0.034 C 
BRANCH   4   5
ATOM      5  C   UNL     1      11.992  15.937  15.031  1.00  0.00     0.032 C 
BRANCH   5   6
ATOM      6  C   UNL     1      12.628  14.896  15.918  1.00  0.00    -0.028 C 
ATOM      7  C   UNL     1      14.228  13.980  17.543  1.00  0.00     0.039 C 
ATOM      8  C   UNL     1      13.672  15.130  16.743  1.00  0.00    -0.080 C 
ATOM      9  C   UNL     1      14.278  16.505  16.896  1.00  0.00     0.039 C 
ENDBRANCH   5   6
ENDBRANCH   4   5
ENDBRANCH   1   4
BRANCH   2  10
ATOM     10  C   UNL     1       7.531  18.145  14.716  1.00  0.00     0.035 C 
BRANCH  10  11
ATOM     11  C   UNL     1       7.524  19.017  15.980  1.00  0.00     0.079 C 
BRANCH  11  12
ATOM     12  C   UNL     1       8.090  20.389  15.719  1.00  0.00     0.130 C 
ATOM     13  O   UNL     1       7.463  21.186  15.038  1.00  0.00    -0.300 OA
ATOM     14  C   UNL     1       9.400  20.796  16.321  1.00  0.00     0.087 C 
ENDBRANCH  11  12
ENDBRANCH  10  11
ENDBRANCH   2  10
TORSDOF 6
ENDMDL
MODEL 2
REMARK VINA RESULT:    -4.239     11.920     14.806
REMARK INTER + INTRA:          -6.344
REMARK INTER:                  -5.319
REMARK INTRA:                  -1.025
REMARK UNBOUND:                -0.619
REMARK SMILES CC(=O)CCC=C(C)CCC=C(C)C
REMARK SMILES IDX 7 1 6 2 8 3 9 4 10 5 11 6 13 7 12 8 14 9 5 10 4 11 2 12 3 13
REMARK SMILES IDX 1 14
REMARK H PARENT
REMARK Flexibility Score: inf
ROOT
ATOM      1  C   UNL     1       6.624  30.063  14.938  1.00  0.00    -0.077 C 
ATOM      2  C   UNL     1       5.985  29.128  15.677  1.00  0.00    -0.028 C 
ATOM      3  C   UNL     1       6.858  29.885  13.456  1.00  0.00     0.039 C 
ENDROOT
BRANCH   1   4
ATOM      4  C   UNL     1       7.140  31.312  15.620  1.00  0.00     0.034 C 
BRANCH   4   5
ATOM      5  C   UNL     1       5.987  32.101  16.250  1.00  0.00     0.032 C 
BRANCH   5   6
ATOM      6  C   UNL     1       5.376  33.048  15.248  1.00  0.00    -0.028 C 
ATOM      7  C   UNL     1       3.737  33.853  13.604  1.00  0.00     0.039 C 
ATOM      8  C   UNL     1       4.203  32.834  14.612  1.00  0.00    -0.080 C 
ATOM      9  C   UNL     1       3.348  31.622  14.895  1.00  0.00     0.039 C 
ENDBRANCH   5   6
ENDBRANCH   4   5
ENDBRANCH   1   4
BRANCH   2  10
ATOM     10  C   UNL     1       5.375  27.865  15.119  1.00  0.00     0.035 C 
BRANCH  10  11
ATOM     11  C   UNL     1       3.855  27.817  15.331  1.00  0.00     0.079 C 
BRANCH  11  12
ATOM     12  C   UNL     1       3.401  26.471  15.835  1.00  0.00     0.130 C 
ATOM     13  O   UNL     1       3.546  25.480  15.137  1.00  0.00    -0.300 OA
ATOM     14  C   UNL     1       2.806  26.335  17.204  1.00  0.00     0.087 C 
ENDBRANCH  11  12
ENDBRANCH  10  11
ENDBRANCH   2  10
TORSDOF 6
ENDMDL
MODEL 3
REMARK VINA RESULT:    -4.224      3.791      6.694
REMARK INTER + INTRA:          -6.325
REMARK INTER:                  -5.177
REMARK INTRA:                  -1.148
REMARK UNBOUND:                -0.619
REMARK SMILES CC(=O)CCC=C(C)CCC=C(C)C
REMARK SMILES IDX 7 1 6 2 8 3 9 4 10 5 11 6 13 7 12 8 14 9 5 10 4 11 2 12 3 13
REMARK SMILES IDX 1 14
REMARK H PARENT
REMARK Flexibility Score: inf
ROOT
ATOM      1  C   UNL     1       6.595  16.784  13.961  1.00  0.00    -0.077 C 
ATOM      2  C   UNL     1       7.190  16.964  15.163  1.00  0.00    -0.028 C 
ATOM      3  C   UNL     1       7.062  17.513  12.723  1.00  0.00     0.039 C 
ENDROOT
BRANCH   1   4
ATOM      4  C   UNL     1       5.413  15.844  13.861  1.00  0.00     0.034 C 
BRANCH   4   5
ATOM      5  C   UNL     1       4.257  16.330  14.743  1.00  0.00     0.032 C 
BRANCH   5   6
ATOM      6  C   UNL     1       3.533  17.480  14.090  1.00  0.00    -0.028 C 
ATOM      7  C   UNL     1       2.706  19.780  13.835  1.00  0.00     0.039 C 
ATOM      8  C   UNL     1       3.505  18.740  14.577  1.00  0.00    -0.080 C 
ATOM      9  C   UNL     1       4.260  19.133  15.825  1.00  0.00     0.039 C 
ENDBRANCH   5   6
ENDBRANCH   4   5
ENDBRANCH   1   4
BRANCH   2  10
ATOM     10  C   UNL     1       8.406  17.828  15.396  1.00  0.00     0.035 C 
BRANCH  10  11
ATOM     11  C   UNL     1       8.035  19.201  15.974  1.00  0.00     0.079 C 
BRANCH  11  12
ATOM     12  C   UNL     1       9.125  20.217  15.752  1.00  0.00     0.130 C 
ATOM     13  O   UNL     1       9.418  20.999  16.643  1.00  0.00    -0.300 OA
ATOM     14  C   UNL     1       9.878  20.250  14.457  1.00  0.00     0.087 C 
ENDBRANCH  11  12
ENDBRANCH  10  11
ENDBRANCH   2  10
TORSDOF 6
ENDMDL
MODEL 4
REMARK VINA RESULT:    -4.195     11.713     15.615
REMARK INTER + INTRA:          -6.285
REMARK INTER:                  -5.501
REMARK INTRA:                  -0.784
REMARK UNBOUND:                -0.619
REMARK SMILES CC(=O)CCC=C(C)CCC=C(C)C
REMARK SMILES IDX 7 1 6 2 8 3 9 4 10 5 11 6 13 7 12 8 14 9 5 10 4 11 2 12 3 13
REMARK SMILES IDX 1 14
REMARK H PARENT
REMARK Flexibility Score: inf
ROOT
ATOM      1  C   UNL     1       8.274  31.411  14.645  1.00  0.00    -0.077 C 
ATOM      2  C   UNL     1       9.443  31.819  14.101  1.00  0.00    -0.028 C 
ATOM      3  C   UNL     1       7.510  30.227  14.099  1.00  0.00     0.039 C 
ENDROOT
BRANCH   1   4
ATOM      4  C   UNL     1       7.703  32.177  15.818  1.00  0.00     0.034 C 
BRANCH   4   5
ATOM      5  C   UNL     1       6.202  31.905  15.967  1.00  0.00     0.032 C 
BRANCH   5   6
ATOM      6  C   UNL     1       5.393  33.016  15.346  1.00  0.00    -0.028 C 
ATOM      7  C   UNL     1       3.544  34.040  14.094  1.00  0.00     0.039 C 
ATOM      8  C   UNL     1       4.221  32.837  14.698  1.00  0.00    -0.080 C 
ATOM      9  C   UNL     1       3.570  31.479  14.581  1.00  0.00     0.039 C 
ENDBRANCH   5   6
ENDBRANCH   4   5
ENDBRANCH   1   4
BRANCH   2  10
ATOM     10  C   UNL     1      10.150  31.118  12.966  1.00  0.00     0.035 C 
BRANCH  10  11
ATOM     11  C   UNL     1      11.587  30.726  13.337  1.00  0.00     0.079 C 
BRANCH  11  12
ATOM     12  C   UNL     1      11.672  29.304  13.827  1.00  0.00     0.130 C 
ATOM     13  O   UNL     1      12.575  28.973  14.581  1.00  0.00    -0.300 OA
ATOM     14  C   UNL     1      10.634  28.300  13.426  1.00  0.00     0.087 C 
ENDBRANCH  11  12
ENDBRANCH  10  11
ENDBRANCH   2  10
TORSDOF 6
ENDMDL
MODEL 5
REMARK VINA RESULT:    -4.188      1.239      2.114
REMARK INTER + INTRA:          -6.275
REMARK INTER:                  -5.507
REMARK INTRA:                  -0.768
REMARK UNBOUND:                -0.619
REMARK SMILES CC(=O)CCC=C(C)CCC=C(C)C
REMARK SMILES IDX 7 1 6 2 8 3 9 4 10 5 11 6 13 7 12 8 14 9 5 10 4 11 2 12 3 13
REMARK SMILES IDX 1 14
REMARK H PARENT
REMARK Flexibility Score: inf
ROOT
ATOM      1  C   UNL     1      11.599  15.905  14.757  1.00  0.00    -0.077 C 
ATOM      2  C   UNL     1      10.251  15.968  14.852  1.00  0.00    -0.028 C 
ATOM      3  C   UNL     1      12.402  16.990  14.079  1.00  0.00     0.039 C 
ENDROOT
BRANCH   1   4
ATOM      4  C   UNL     1      12.320  14.702  15.325  1.00  0.00     0.034 C 
BRANCH   4   5
ATOM      5  C   UNL     1      12.887  15.015  16.715  1.00  0.00     0.032 C 
BRANCH   5   6
ATOM      6  C   UNL     1      14.394  15.026  16.687  1.00  0.00    -0.028 C 
ATOM      7  C   UNL     1      16.649  16.003  16.675  1.00  0.00     0.039 C 
ATOM      8  C   UNL     1      15.151  16.144  16.754  1.00  0.00    -0.080 C 
ATOM      9  C   UNL     1      14.540  17.515  16.923  1.00  0.00     0.039 C 
ENDBRANCH   5   6
ENDBRANCH   4   5
ENDBRANCH   1   4
BRANCH   2  10
ATOM     10  C   UNL     1       9.412  17.130  14.378  1.00  0.00     0.035 C 
BRANCH  10  11
ATOM     11  C   UNL     1       8.096  17.247  15.161  1.00  0.00     0.079 C 
BRANCH  11  12
ATOM     12  C   UNL     1       7.901  18.630  15.726  1.00  0.00     0.130 C 
ATOM     13  O   UNL     1       6.858  18.913  16.296  1.00  0.00    -0.300 OA
ATOM     14  C   UNL     1       8.993  19.651  15.626  1.00  0.00     0.087 C 
ENDBRANCH  11  12
ENDBRANCH  10  11
ENDBRANCH   2  10
TORSDOF 6
ENDMDL
MODEL 6
REMARK VINA RESULT:    -4.179      2.643      6.832
REMARK INTER + INTRA:          -6.263
REMARK INTER:                  -5.543
REMARK INTRA:                  -0.720
REMARK UNBOUND:                -0.619
REMARK SMILES CC(=O)CCC=C(C)CCC=C(C)C
REMARK SMILES IDX 7 1 6 2 8 3 9 4 10 5 11 6 13 7 12 8 14 9 5 10 4 11 2 12 3 13
REMARK SMILES IDX 1 14
REMARK H PARENT
REMARK Flexibility Score: inf
ROOT
ATOM      1  C   UNL     1       9.166  17.482  14.467  1.00  0.00    -0.077 C 
ATOM      2  C   UNL     1      10.503  17.585  14.283  1.00  0.00    -0.028 C 
ATOM      3  C   UNL     1       8.429  16.182  14.251  1.00  0.00     0.039 C 
ENDROOT
BRANCH   1   4
ATOM      4  C   UNL     1       8.386  18.712  14.878  1.00  0.00     0.034 C 
BRANCH   4   5
ATOM      5  C   UNL     1       7.472  18.402  16.070  1.00  0.00     0.032 C 
BRANCH   5   6
ATOM      6  C   UNL     1       6.193  19.195  15.982  1.00  0.00    -0.028 C 
ATOM      7  C   UNL     1       3.836  19.634  15.441  1.00  0.00     0.039 C 
ATOM      8  C   UNL     1       5.025  18.711  15.504  1.00  0.00    -0.080 C 
ATOM      9  C   UNL     1       4.879  17.277  15.051  1.00  0.00     0.039 C 
ENDBRANCH   5   6
ENDBRANCH   4   5
ENDBRANCH   1   4
BRANCH   2  10
ATOM     10  C   UNL     1      11.408  16.431  13.926  1.00  0.00     0.035 C 
BRANCH  10  11
ATOM     11  C   UNL     1      12.513  16.222  14.972  1.00  0.00     0.079 C 
BRANCH  11  12
ATOM     12  C   UNL     1      12.240  15.025  15.846  1.00  0.00     0.130 C 
ATOM     13  O   UNL     1      11.222  14.371  15.680  1.00  0.00    -0.300 OA
ATOM     14  C   UNL     1      13.228  14.610  16.893  1.00  0.00     0.087 C 
ENDBRANCH  11  12
ENDBRANCH  10  11
ENDBRANCH   2  10
TORSDOF 6
ENDMDL
MODEL 7
REMARK VINA RESULT:    -4.175     11.516     14.019
REMARK INTER + INTRA:          -6.258
REMARK INTER:                  -5.433
REMARK INTRA:                  -0.825
REMARK UNBOUND:                -0.619
REMARK SMILES CC(=O)CCC=C(C)CCC=C(C)C
REMARK SMILES IDX 7 1 6 2 8 3 9 4 10 5 11 6 13 7 12 8 14 9 5 10 4 11 2 12 3 13
REMARK SMILES IDX 1 14
REMARK H PARENT
REMARK Flexibility Score: inf
ROOT
ATOM      1  C   UNL     1       8.755  31.351  14.214  1.00  0.00    -0.077 C 
ATOM      2  C   UNL     1       8.141  31.843  15.315  1.00  0.00    -0.028 C 
ATOM      3  C   UNL     1       8.151  30.233  13.397  1.00  0.00     0.039 C 
ENDROOT
BRANCH   1   4
ATOM      4  C   UNL     1      10.095  31.922  13.805  1.00  0.00     0.034 C 
BRANCH   4   5
ATOM      5  C   UNL     1      10.895  30.898  12.990  1.00  0.00     0.032 C 
BRANCH   5   6
ATOM      6  C   UNL     1      12.057  30.369  13.791  1.00  0.00    -0.028 C 
ATOM      7  C   UNL     1      13.371  28.718  15.051  1.00  0.00     0.039 C 
ATOM      8  C   UNL     1      12.168  29.094  14.225  1.00  0.00    -0.080 C 
ATOM      9  C   UNL     1      11.136  28.042  13.891  1.00  0.00     0.039 C 
ENDBRANCH   5   6
ENDBRANCH   4   5
ENDBRANCH   1   4
BRANCH   2  10
ATOM     10  C   UNL     1       6.782  31.405  15.805  1.00  0.00     0.035 C 
BRANCH  10  11
ATOM     11  C   UNL     1       5.783  32.571  15.851  1.00  0.00     0.079 C 
BRANCH  11  12
ATOM     12  C   UNL     1       4.925  32.624  14.615  1.00  0.00     0.130 C 
ATOM     13  O   UNL     1       4.887  31.667  13.858  1.00  0.00    -0.300 OA
ATOM     14  C   UNL     1       4.085  33.832  14.326  1.00  0.00     0.087 C 
ENDBRANCH  11  12
ENDBRANCH  10  11
ENDBRANCH   2  10
TORSDOF 6
ENDMDL
MODEL 8
REMARK VINA RESULT:    -4.149     10.687     14.220
REMARK INTER + INTRA:          -6.223
REMARK INTER:                  -5.467
REMARK INTRA:                  -0.756
REMARK UNBOUND:                -0.619
REMARK SMILES CC(=O)CCC=C(C)CCC=C(C)C
REMARK SMILES IDX 7 1 6 2 8 3 9 4 10 5 11 6 13 7 12 8 14 9 5 10 4 11 2 12 3 13
REMARK SMILES IDX 1 14
REMARK H PARENT
REMARK Flexibility Score: inf
ROOT
ATOM      1  C   UNL     1       9.706  30.605  13.654  1.00  0.00    -0.077 C 
ATOM      2  C   UNL     1      11.057  30.637  13.707  1.00  0.00    -0.028 C 
ATOM      3  C   UNL     1       8.952  29.347  13.291  1.00  0.00     0.039 C 
ENDROOT
BRANCH   1   4
ATOM      4  C   UNL     1       8.930  31.871  13.945  1.00  0.00     0.034 C 
BRANCH   4   5
ATOM      5  C   UNL     1       8.356  31.841  15.367  1.00  0.00     0.032 C 
BRANCH   5   6
ATOM      6  C   UNL     1       6.850  31.916  15.336  1.00  0.00    -0.028 C 
ATOM      7  C   UNL     1       4.540  31.091  15.493  1.00  0.00     0.039 C 
ATOM      8  C   UNL     1       6.028  30.877  15.601  1.00  0.00    -0.080 C 
ATOM      9  C   UNL     1       6.557  29.523  16.015  1.00  0.00     0.039 C 
ENDBRANCH   5   6
ENDBRANCH   4   5
ENDBRANCH   1   4
BRANCH   2  10
ATOM     10  C   UNL     1      11.952  29.440  13.492  1.00  0.00     0.035 C 
BRANCH  10  11
ATOM     11  C   UNL     1      13.211  29.497  14.370  1.00  0.00     0.079 C 
BRANCH  11  12
ATOM     12  C   UNL     1      13.465  28.189  15.072  1.00  0.00     0.130 C 
ATOM     13  O   UNL     1      14.566  27.958  15.548  1.00  0.00    -0.300 OA
ATOM     14  C   UNL     1      12.365  27.183  15.223  1.00  0.00     0.087 C 
ENDBRANCH  11  12
ENDBRANCH  10  11
ENDBRANCH   2  10
TORSDOF 6
ENDMDL
MODEL 9
REMARK VINA RESULT:    -4.139      2.308      6.469
REMARK INTER + INTRA:          -6.209
REMARK INTER:                  -5.559
REMARK INTRA:                  -0.650
REMARK UNBOUND:                -0.619
REMARK SMILES CC(=O)CCC=C(C)CCC=C(C)C
REMARK SMILES IDX 7 1 6 2 8 3 9 4 10 5 11 6 13 7 12 8 14 9 5 10 4 11 2 12 3 13
REMARK SMILES IDX 1 14
REMARK H PARENT
REMARK Flexibility Score: inf
ROOT
ATOM      1  C   UNL     1       9.863  17.046  14.540  1.00  0.00    -0.077 C 
ATOM      2  C   UNL     1      10.383  15.849  14.897  1.00  0.00    -0.028 C 
ATOM      3  C   UNL     1      10.740  18.209  14.140  1.00  0.00     0.039 C 
ENDROOT
BRANCH   1   4
ATOM      4  C   UNL     1       8.361  17.230  14.564  1.00  0.00     0.034 C 
BRANCH   4   5
ATOM      5  C   UNL     1       7.942  18.120  15.741  1.00  0.00     0.032 C 
BRANCH   5   6
ATOM      6  C   UNL     1       7.217  19.347  15.251  1.00  0.00    -0.028 C 
ATOM      7  C   UNL     1       6.821  21.745  14.881  1.00  0.00     0.039 C 
ATOM      8  C   UNL     1       7.676  20.611  15.387  1.00  0.00    -0.080 C 
ATOM      9  C   UNL     1       9.019  20.912  16.010  1.00  0.00     0.039 C 
ENDBRANCH   5   6
ENDBRANCH   4   5
ENDBRANCH   1   4
BRANCH   2  10
ATOM     10  C   UNL     1      11.854  15.512  14.867  1.00  0.00     0.035 C 
BRANCH  10  11
ATOM     11  C   UNL     1      12.261  14.607  16.039  1.00  0.00     0.079 C 
BRANCH  11  12
ATOM     12  C   UNL     1      13.523  15.087  16.707  1.00  0.00     0.130 C 
ATOM     13  O   UNL     1      13.802  16.276  16.698  1.00  0.00    -0.300 OA
ATOM     14  C   UNL     1      14.420  14.119  17.416  1.00  0.00     0.087 C 
ENDBRANCH  11  12
ENDBRANCH  10  11
ENDBRANCH   2  10
TORSDOF 6
ENDMDL
