MODEL 1
REMARK VINA RESULT:    -4.220      0.000      0.000
REMARK INTER + INTRA:          -4.830
REMARK INTER:                  -4.590
REMARK INTRA:                  -0.241
REMARK UNBOUND:                -0.241
REMARK SMILES O=C([O-])c1ccccc1O
REMARK SMILES IDX 4 1 9 2 5 3 8 4 6 5 7 6 2 7 1 8 3 9 10 10
REMARK H PARENT 10 11
REMARK Flexibility Score: inf
ROOT
ATOM      1  C   UNL     1      27.367  37.354  -0.466  1.00  0.00     0.039 A 
ATOM      2  C   UNL     1      27.123  36.274   0.417  1.00  0.00     0.124 A 
ATOM      3  C   UNL     1      27.870  37.078  -1.753  1.00  0.00     0.014 A 
ATOM      4  C   UNL     1      27.385  34.960   0.003  1.00  0.00     0.047 A 
ATOM      5  C   UNL     1      28.125  35.764  -2.151  1.00  0.00     0.001 A 
ATOM      6  C   UNL     1      27.883  34.707  -1.276  1.00  0.00     0.004 A 
ENDROOT
BRANCH   1   7
ATOM      7  C   UNL     1      27.107  38.764  -0.076  1.00  0.00     0.075 C 
ATOM      8  O   UNL     1      26.332  39.492  -0.750  1.00  0.00    -0.545 OA
ATOM      9  O   UNL     1      27.722  39.305   1.047  1.00  0.00    -0.545 OA
ENDBRANCH   1   7
BRANCH   2  10
ATOM     10  O   UNL     1      26.624  36.501   1.700  1.00  0.00    -0.507 OA
ATOM     11  H   UNL     1      25.638  36.659   1.867  1.00  0.00     0.293 HD
ENDBRANCH   2  10
TORSDOF 2
ENDMDL
MODEL 2
REMARK VINA RESULT:    -4.188     18.177     19.058
REMARK INTER + INTRA:          -4.796
REMARK INTER:                  -4.549
REMARK INTRA:                  -0.248
REMARK UNBOUND:                -0.241
REMARK SMILES O=C([O-])c1ccccc1O
REMARK SMILES IDX 4 1 9 2 5 3 8 4 6 5 7 6 2 7 1 8 3 9 10 10
REMARK H PARENT 10 11
REMARK Flexibility Score: inf
ROOT
ATOM      1  C   UNL     1       9.640  31.481   2.678  1.00  0.00     0.039 A 
ATOM      2  C   UNL     1      10.378  32.259   3.601  1.00  0.00     0.124 A 
ATOM      3  C   UNL     1       8.384  30.974   3.068  1.00  0.00     0.014 A 
ATOM      4  C   UNL     1       9.856  32.510   4.879  1.00  0.00     0.047 A 
ATOM      5  C   UNL     1       7.876  31.234   4.343  1.00  0.00     0.001 A 
ATOM      6  C   UNL     1       8.611  32.000   5.247  1.00  0.00     0.004 A 
ENDROOT
BRANCH   1   7
ATOM      7  C   UNL     1      10.148  31.185   1.314  1.00  0.00     0.075 C 
ATOM      8  O   UNL     1      11.354  30.876   1.123  1.00  0.00    -0.545 OA
ATOM      9  O   UNL     1       9.295  31.246   0.219  1.00  0.00    -0.545 OA
ENDBRANCH   1   7
BRANCH   2  10
ATOM     10  O   UNL     1      11.626  32.780   3.257  1.00  0.00    -0.507 OA
ATOM     11  H   UNL     1      12.221  33.232   3.942  1.00  0.00     0.293 HD
ENDBRANCH   2  10
TORSDOF 2
ENDMDL
MODEL 3
REMARK VINA RESULT:    -3.659     12.207     13.514
REMARK INTER + INTRA:          -4.220
REMARK INTER:                  -3.970
REMARK INTRA:                  -0.251
REMARK UNBOUND:                -0.241
REMARK SMILES O=C([O-])c1ccccc1O
REMARK SMILES IDX 4 1 9 2 5 3 8 4 6 5 7 6 2 7 1 8 3 9 10 10
REMARK H PARENT 10 11
REMARK Flexibility Score: inf
ROOT
ATOM      1  C   UNL     1      24.423  34.004  12.641  1.00  0.00     0.039 A 
ATOM      2  C   UNL     1      23.921  33.884  11.323  1.00  0.00     0.124 A 
ATOM      3  C   UNL     1      25.387  33.078  13.088  1.00  0.00     0.014 A 
ATOM      4  C   UNL     1      24.384  32.854  10.490  1.00  0.00     0.047 A 
ATOM      5  C   UNL     1      25.840  32.059  12.246  1.00  0.00     0.001 A 
ATOM      6  C   UNL     1      25.339  31.947  10.950  1.00  0.00     0.004 A 
ENDROOT
BRANCH   1   7
ATOM      7  C   UNL     1      23.965  35.074  13.563  1.00  0.00     0.075 C 
ATOM      8  O   UNL     1      22.740  35.320  13.715  1.00  0.00    -0.545 OA
ATOM      9  O   UNL     1      24.890  35.828  14.277  1.00  0.00    -0.545 OA
ENDBRANCH   1   7
BRANCH   2  10
ATOM     10  O   UNL     1      22.966  34.778  10.839  1.00  0.00    -0.507 OA
ATOM     11  H   UNL     1      22.779  35.659  11.304  1.00  0.00     0.293 HD
ENDBRANCH   2  10
TORSDOF 2
ENDMDL
MODEL 4
REMARK VINA RESULT:    -3.651     12.253     13.591
REMARK INTER + INTRA:          -4.212
REMARK INTER:                  -3.958
REMARK INTRA:                  -0.254
REMARK UNBOUND:                -0.241
REMARK SMILES O=C([O-])c1ccccc1O
REMARK SMILES IDX 4 1 9 2 5 3 8 4 6 5 7 6 2 7 1 8 3 9 10 10
REMARK H PARENT 10 11
REMARK Flexibility Score: inf
ROOT
ATOM      1  C   UNL     1      24.385  34.085  12.706  1.00  0.00     0.039 A 
ATOM      2  C   UNL     1      23.857  34.009  11.394  1.00  0.00     0.124 A 
ATOM      3  C   UNL     1      25.372  33.158  13.095  1.00  0.00     0.014 A 
ATOM      4  C   UNL     1      24.319  33.022  10.511  1.00  0.00     0.047 A 
ATOM      5  C   UNL     1      25.823  32.182  12.204  1.00  0.00     0.001 A 
ATOM      6  C   UNL     1      25.298  32.113  10.915  1.00  0.00     0.004 A 
ENDROOT
BRANCH   1   7
ATOM      7  C   UNL     1      23.929  35.110  13.679  1.00  0.00     0.075 C 
ATOM      8  O   UNL     1      24.757  35.804  14.327  1.00  0.00    -0.545 OA
ATOM      9  O   UNL     1      22.572  35.320  13.893  1.00  0.00    -0.545 OA
ENDBRANCH   1   7
BRANCH   2  10
ATOM     10  O   UNL     1      22.878  34.907  10.966  1.00  0.00    -0.507 OA
ATOM     11  H   UNL     1      23.116  35.832  10.628  1.00  0.00     0.293 HD
ENDBRANCH   2  10
TORSDOF 2
ENDMDL
MODEL 5
REMARK VINA RESULT:    -3.579     13.052     13.916
REMARK INTER + INTRA:          -4.133
REMARK INTER:                  -3.888
REMARK INTRA:                  -0.246
REMARK UNBOUND:                -0.241
REMARK SMILES O=C([O-])c1ccccc1O
REMARK SMILES IDX 4 1 9 2 5 3 8 4 6 5 7 6 2 7 1 8 3 9 10 10
REMARK H PARENT 10 11
REMARK Flexibility Score: inf
ROOT
ATOM      1  C   UNL     1      23.752  34.654  12.876  1.00  0.00     0.039 A 
ATOM      2  C   UNL     1      25.074  34.274  13.215  1.00  0.00     0.124 A 
ATOM      3  C   UNL     1      23.227  34.248  11.633  1.00  0.00     0.014 A 
ATOM      4  C   UNL     1      25.833  33.510  12.317  1.00  0.00     0.047 A 
ATOM      5  C   UNL     1      23.996  33.486  10.750  1.00  0.00     0.001 A 
ATOM      6  C   UNL     1      25.296  33.118  11.090  1.00  0.00     0.004 A 
ENDROOT
BRANCH   1   7
ATOM      7  C   UNL     1      22.907  35.463  13.790  1.00  0.00     0.075 C 
ATOM      8  O   UNL     1      21.770  35.060  14.152  1.00  0.00    -0.545 OA
ATOM      9  O   UNL     1      23.361  36.689  14.263  1.00  0.00    -0.545 OA
ENDBRANCH   1   7
BRANCH   2  10
ATOM     10  O   UNL     1      25.634  34.654  14.435  1.00  0.00    -0.507 OA
ATOM     11  H   UNL     1      25.077  35.079  15.166  1.00  0.00     0.293 HD
ENDBRANCH   2  10
TORSDOF 2
ENDMDL
MODEL 6
REMARK VINA RESULT:    -3.561     13.807     15.306
REMARK INTER + INTRA:          -4.114
REMARK INTER:                  -3.877
REMARK INTRA:                  -0.237
REMARK UNBOUND:                -0.241
REMARK SMILES O=C([O-])c1ccccc1O
REMARK SMILES IDX 4 1 9 2 5 3 8 4 6 5 7 6 2 7 1 8 3 9 10 10
REMARK H PARENT 10 11
REMARK Flexibility Score: inf
ROOT
ATOM      1  C   UNL     1      23.242  35.449  13.678  1.00  0.00     0.039 A 
ATOM      2  C   UNL     1      24.043  36.497  14.192  1.00  0.00     0.124 A 
ATOM      3  C   UNL     1      22.001  35.182  14.289  1.00  0.00     0.014 A 
ATOM      4  C   UNL     1      23.596  37.245  15.291  1.00  0.00     0.047 A 
ATOM      5  C   UNL     1      21.568  35.937  15.382  1.00  0.00     0.001 A 
ATOM      6  C   UNL     1      22.363  36.966  15.883  1.00  0.00     0.004 A 
ENDROOT
BRANCH   1   7
ATOM      7  C   UNL     1      23.670  34.627  12.518  1.00  0.00     0.075 C 
ATOM      8  O   UNL     1      24.740  33.964  12.551  1.00  0.00    -0.545 OA
ATOM      9  O   UNL     1      22.891  34.578  11.368  1.00  0.00    -0.545 OA
ENDBRANCH   1   7
BRANCH   2  10
ATOM     10  O   UNL     1      25.279  36.797  13.618  1.00  0.00    -0.507 OA
ATOM     11  H   UNL     1      26.148  36.637  14.114  1.00  0.00     0.293 HD
ENDBRANCH   2  10
TORSDOF 2
ENDMDL
MODEL 7
REMARK VINA RESULT:    -3.536     12.993     14.122
REMARK INTER + INTRA:          -4.086
REMARK INTER:                  -3.850
REMARK INTRA:                  -0.237
REMARK UNBOUND:                -0.241
REMARK SMILES O=C([O-])c1ccccc1O
REMARK SMILES IDX 4 1 9 2 5 3 8 4 6 5 7 6 2 7 1 8 3 9 10 10
REMARK H PARENT 10 11
REMARK Flexibility Score: inf
ROOT
ATOM      1  C   UNL     1      24.713  34.614  13.331  1.00  0.00     0.039 A 
ATOM      2  C   UNL     1      23.428  34.857  12.789  1.00  0.00     0.124 A 
ATOM      3  C   UNL     1      25.624  33.832  12.594  1.00  0.00     0.014 A 
ATOM      4  C   UNL     1      23.084  34.321  11.539  1.00  0.00     0.047 A 
ATOM      5  C   UNL     1      25.267  33.305  11.350  1.00  0.00     0.001 A 
ATOM      6  C   UNL     1      24.000  33.548  10.824  1.00  0.00     0.004 A 
ENDROOT
BRANCH   1   7
ATOM      7  C   UNL     1      25.126  35.158  14.650  1.00  0.00     0.075 C 
ATOM      8  O   UNL     1      24.735  36.291  15.037  1.00  0.00    -0.545 OA
ATOM      9  O   UNL     1      25.959  34.420  15.483  1.00  0.00    -0.545 OA
ENDBRANCH   1   7
BRANCH   2  10
ATOM     10  O   UNL     1      22.494  35.626  13.484  1.00  0.00    -0.507 OA
ATOM     11  H   UNL     1      22.470  36.636  13.402  1.00  0.00     0.293 HD
ENDBRANCH   2  10
TORSDOF 2
ENDMDL
MODEL 8
REMARK VINA RESULT:    -3.524     14.352     15.774
REMARK INTER + INTRA:          -4.074
REMARK INTER:                  -3.846
REMARK INTRA:                  -0.228
REMARK UNBOUND:                -0.241
REMARK SMILES O=C([O-])c1ccccc1O
REMARK SMILES IDX 4 1 9 2 5 3 8 4 6 5 7 6 2 7 1 8 3 9 10 10
REMARK H PARENT 10 11
REMARK Flexibility Score: inf
ROOT
ATOM      1  C   UNL     1      22.946  35.842  14.059  1.00  0.00     0.039 A 
ATOM      2  C   UNL     1      21.930  36.151  14.996  1.00  0.00     0.124 A 
ATOM      3  C   UNL     1      24.173  36.530  14.137  1.00  0.00     0.014 A 
ATOM      4  C   UNL     1      22.158  37.129  15.976  1.00  0.00     0.047 A 
ATOM      5  C   UNL     1      24.386  37.500  15.120  1.00  0.00     0.001 A 
ATOM      6  C   UNL     1      23.380  37.799  16.037  1.00  0.00     0.004 A 
ENDROOT
BRANCH   1   7
ATOM      7  C   UNL     1      22.755  34.817  13.002  1.00  0.00     0.075 C 
ATOM      8  O   UNL     1      22.542  33.611  13.296  1.00  0.00    -0.545 OA
ATOM      9  O   UNL     1      22.812  35.176  11.660  1.00  0.00    -0.545 OA
ENDBRANCH   1   7
BRANCH   2  10
ATOM     10  O   UNL     1      20.700  35.495  14.956  1.00  0.00    -0.507 OA
ATOM     11  H   UNL     1      20.520  34.741  14.304  1.00  0.00     0.293 HD
ENDBRANCH   2  10
TORSDOF 2
ENDMDL
MODEL 9
REMARK VINA RESULT:    -3.519     12.379     13.920
REMARK INTER + INTRA:          -4.068
REMARK INTER:                  -3.898
REMARK INTRA:                  -0.170
REMARK UNBOUND:                -0.241
REMARK SMILES O=C([O-])c1ccccc1O
REMARK SMILES IDX 4 1 9 2 5 3 8 4 6 5 7 6 2 7 1 8 3 9 10 10
REMARK H PARENT 10 11
REMARK Flexibility Score: inf
ROOT
ATOM      1  C   UNL     1      25.510  32.920  12.278  1.00  0.00     0.039 A 
ATOM      2  C   UNL     1      26.407  34.000  12.459  1.00  0.00     0.124 A 
ATOM      3  C   UNL     1      24.968  32.289  13.416  1.00  0.00     0.014 A 
ATOM      4  C   UNL     1      26.743  34.421  13.754  1.00  0.00     0.047 A 
ATOM      5  C   UNL     1      25.311  32.721  14.700  1.00  0.00     0.001 A 
ATOM      6  C   UNL     1      26.196  33.784  14.869  1.00  0.00     0.004 A 
ENDROOT
BRANCH   1   7
ATOM      7  C   UNL     1      25.123  32.435  10.928  1.00  0.00     0.075 C 
ATOM      8  O   UNL     1      24.344  33.101  10.197  1.00  0.00    -0.545 OA
ATOM      9  O   UNL     1      25.619  31.228  10.449  1.00  0.00    -0.545 OA
ENDBRANCH   1   7
BRANCH   2  10
ATOM     10  O   UNL     1      26.967  34.653  11.360  1.00  0.00    -0.507 OA
ATOM     11  H   UNL     1      27.505  34.153  10.662  1.00  0.00     0.293 HD
ENDBRANCH   2  10
TORSDOF 2
ENDMDL
