MODEL 1
REMARK VINA RESULT:     2.146      0.000      0.000
REMARK INTER + INTRA:           6.393
REMARK INTER:                   3.024
REMARK INTRA:                   3.370
REMARK UNBOUND:                 3.370
REMARK SMILES C[C@@H](CO)CCC(=O)[C@H](C)[C@H]1C(=O)C[C@@H]2[C@@H]3CC=C4C[C@@H](O)CC[C@@]4(C)[C@H]3CC[C@@]21C
REMARK SMILES IDX 6 1 5 2 2 3 1 4 3 5 4 6 7 8 8 9 9 10 10 11 11 12 12 13 30 14
REMARK SMILES IDX 13 15 14 16 15 17 29 18 31 19 16 20 28 21 27 22 17 23 25 24
REMARK SMILES IDX 18 25 19 26 24 27 26 28 20 29 23 30 21 31 22 32
REMARK H PARENT 4 7 22 33
REMARK Flexibility Score: inf
ROOT
ATOM      1  C   UNL     1      85.120  33.850  64.074  1.00  0.00     0.076 C 
ENDROOT
BRANCH   1   2
ATOM      2  C   UNL     1      84.669  32.397  64.310  1.00  0.00     0.013 C 
BRANCH   2   3
ATOM      3  C   UNL     1      83.344  32.245  65.100  1.00  0.00     0.012 C 
ATOM      4  C   UNL     1      82.673  30.911  64.743  1.00  0.00     0.010 C 
BRANCH   3   5
ATOM      5  C   UNL     1      83.534  32.357  66.627  1.00  0.00     0.159 C 
BRANCH   5   6
ATOM      6  O   UNL     1      82.968  31.258  67.294  1.00  0.00    -0.396 OA
ATOM      7  H   UNL     1      83.719  30.676  67.579  1.00  0.00     0.210 HD
ENDBRANCH   5   6
ENDBRANCH   3   5
ENDBRANCH   2   3
ENDBRANCH   1   2
BRANCH   1   8
ATOM      8  C   UNL     1      86.623  34.018  64.150  1.00  0.00     0.136 C 
ATOM      9  O   UNL     1      87.200  34.377  63.133  1.00  0.00    -0.299 OA
BRANCH   8  10
ATOM     10  C   UNL     1      87.472  33.726  65.385  1.00  0.00     0.064 C 
ATOM     11  C   UNL     1      88.632  34.736  65.471  1.00  0.00     0.017 C 
BRANCH  10  12
ATOM     12  C   UNL     1      87.915  32.224  65.568  1.00  0.00     0.072 C 
ATOM     13  C   UNL     1      87.195  31.559  66.702  1.00  0.00     0.137 C 
ATOM     14  C   UNL     1      87.660  31.236  64.355  1.00  0.00    -0.019 C 
ATOM     15  O   UNL     1      87.379  31.845  67.873  1.00  0.00    -0.299 OA
ATOM     16  C   UNL     1      86.273  30.475  66.312  1.00  0.00     0.080 C 
ATOM     17  C   UNL     1      86.461  30.318  64.794  1.00  0.00     0.007 C 
ATOM     18  C   UNL     1      88.955  30.389  64.076  1.00  0.00     0.008 C 
ATOM     19  C   UNL     1      87.301  31.932  63.015  1.00  0.00     0.012 C 
ATOM     20  C   UNL     1      86.655  28.846  64.335  1.00  0.00     0.001 C 
ATOM     21  C   UNL     1      89.114  29.198  65.029  1.00  0.00     0.005 C 
ATOM     22  C   UNL     1      87.927  28.192  64.929  1.00  0.00     0.003 C 
ATOM     23  C   UNL     1      85.456  27.945  64.643  1.00  0.00     0.031 C 
ATOM     24  C   UNL     1      88.238  26.817  64.220  1.00  0.00    -0.008 C 
ATOM     25  C   UNL     1      85.701  26.563  64.100  1.00  0.00    -0.027 C 
ATOM     26  C   UNL     1      86.940  26.035  63.930  1.00  0.00    -0.065 C 
ATOM     27  C   UNL     1      88.972  27.017  62.856  1.00  0.00     0.014 C 
ATOM     28  C   UNL     1      89.123  25.976  65.181  1.00  0.00     0.016 C 
ATOM     29  C   UNL     1      87.069  24.735  63.165  1.00  0.00     0.063 C 
ATOM     30  C   UNL     1      89.117  25.717  62.034  1.00  0.00     0.033 C 
ATOM     31  C   UNL     1      87.773  24.997  61.823  1.00  0.00     0.118 C 
BRANCH  31  32
ATOM     32  O   UNL     1      86.953  25.773  60.987  1.00  0.00    -0.393 OA
ATOM     33  H   UNL     1      86.312  26.250  61.579  1.00  0.00     0.210 HD
ENDBRANCH  31  32
ENDBRANCH  10  12
ENDBRANCH   8  10
ENDBRANCH   1   8
TORSDOF 8
ENDMDL
MODEL 2
REMARK VINA RESULT:     4.354      1.854      2.906
REMARK INTER + INTRA:           9.505
REMARK INTER:                   6.658
REMARK INTRA:                   2.847
REMARK UNBOUND:                 3.370
REMARK SMILES C[C@@H](CO)CCC(=O)[C@H](C)[C@H]1C(=O)C[C@@H]2[C@@H]3CC=C4C[C@@H](O)CC[C@@]4(C)[C@H]3CC[C@@]21C
REMARK SMILES IDX 6 1 5 2 2 3 1 4 3 5 4 6 7 8 8 9 9 10 10 11 11 12 12 13 30 14
REMARK SMILES IDX 13 15 14 16 15 17 29 18 31 19 16 20 28 21 27 22 17 23 25 24
REMARK SMILES IDX 18 25 19 26 24 27 26 28 20 29 23 30 21 31 22 32
REMARK H PARENT 4 7 22 33
REMARK Flexibility Score: inf
ROOT
ATOM      1  C   UNL     1      85.853  34.300  63.006  1.00  0.00     0.076 C 
ENDROOT
BRANCH   1   2
ATOM      2  C   UNL     1      85.430  35.388  62.003  1.00  0.00     0.013 C 
BRANCH   2   3
ATOM      3  C   UNL     1      85.743  35.066  60.519  1.00  0.00     0.012 C 
ATOM      4  C   UNL     1      85.263  33.648  60.180  1.00  0.00     0.010 C 
BRANCH   3   5
ATOM      5  C   UNL     1      85.132  36.087  59.537  1.00  0.00     0.159 C 
BRANCH   5   6
ATOM      6  O   UNL     1      84.376  35.447  58.542  1.00  0.00    -0.396 OA
ATOM      7  H   UNL     1      83.423  35.658  58.723  1.00  0.00     0.210 HD
ENDBRANCH   5   6
ENDBRANCH   3   5
ENDBRANCH   2   3
ENDBRANCH   1   2
BRANCH   1   8
ATOM      8  C   UNL     1      87.045  34.706  63.846  1.00  0.00     0.136 C 
ATOM      9  O   UNL     1      87.932  35.342  63.292  1.00  0.00    -0.299 OA
BRANCH   8  10
ATOM     10  C   UNL     1      87.244  34.338  65.315  1.00  0.00     0.064 C 
ATOM     11  C   UNL     1      88.093  35.417  66.012  1.00  0.00     0.017 C 
BRANCH  10  12
ATOM     12  C   UNL     1      87.730  32.863  65.588  1.00  0.00     0.072 C 
ATOM     13  C   UNL     1      87.028  32.248  66.761  1.00  0.00     0.137 C 
ATOM     14  C   UNL     1      87.505  31.796  64.437  1.00  0.00    -0.019 C 
ATOM     15  O   UNL     1      87.202  32.609  67.912  1.00  0.00    -0.299 OA
ATOM     16  C   UNL     1      86.138  31.116  66.437  1.00  0.00     0.080 C 
ATOM     17  C   UNL     1      86.332  30.872  64.931  1.00  0.00     0.007 C 
ATOM     18  C   UNL     1      88.824  30.972  64.209  1.00  0.00     0.008 C 
ATOM     19  C   UNL     1      87.128  32.399  63.057  1.00  0.00     0.012 C 
ATOM     20  C   UNL     1      86.570  29.382  64.562  1.00  0.00     0.001 C 
ATOM     21  C   UNL     1      89.017  29.846  65.233  1.00  0.00     0.005 C 
ATOM     22  C   UNL     1      87.860  28.802  65.195  1.00  0.00     0.003 C 
ATOM     23  C   UNL     1      85.397  28.466  64.925  1.00  0.00     0.031 C 
ATOM     24  C   UNL     1      88.211  27.396  64.570  1.00  0.00    -0.008 C 
ATOM     25  C   UNL     1      85.682  27.062  64.467  1.00  0.00    -0.027 C 
ATOM     26  C   UNL     1      86.936  26.561  64.328  1.00  0.00    -0.065 C 
ATOM     27  C   UNL     1      88.941  27.534  63.196  1.00  0.00     0.014 C 
ATOM     28  C   UNL     1      89.119  26.641  65.579  1.00  0.00     0.016 C 
ATOM     29  C   UNL     1      87.104  25.221  63.643  1.00  0.00     0.063 C 
ATOM     30  C   UNL     1      89.124  26.192  62.454  1.00  0.00     0.033 C 
ATOM     31  C   UNL     1      87.802  25.421  62.288  1.00  0.00     0.118 C 
BRANCH  31  32
ATOM     32  O   UNL     1      86.961  26.121  61.407  1.00  0.00    -0.393 OA
ATOM     33  H   UNL     1      86.032  25.827  61.605  1.00  0.00     0.210 HD
ENDBRANCH  31  32
ENDBRANCH  10  12
ENDBRANCH   8  10
ENDBRANCH   1   8
TORSDOF 8
ENDMDL
