MODEL 1
REMARK VINA RESULT:    -4.762      0.000      0.000
REMARK INTER + INTRA:          -5.820
REMARK INTER:                  -5.736
REMARK INTRA:                  -0.084
REMARK UNBOUND:                -0.084
REMARK SMILES NC(=O)C[C@H]([NH3+])C(=O)[O-]
REMARK SMILES IDX 4 1 5 2 6 3 7 7 8 8 9 9 2 10 3 11 1 12
REMARK H PARENT 6 4 6 5 6 6 1 13 1 14
REMARK Flexibility Score: inf
ROOT
ATOM      1  C   UNL     1      14.246  35.008  13.613  1.00  0.00     0.171 C 
ENDROOT
BRANCH   1   2
ATOM      2  C   UNL     1      13.818  33.648  13.025  1.00  0.00     0.237 C 
BRANCH   2   3
ATOM      3  N   UNL     1      12.593  33.146  13.661  1.00  0.00    -0.350 N 
ATOM      4  H   UNL     1      11.767  33.694  13.331  1.00  0.00     0.345 HD
ATOM      5  H   UNL     1      12.439  32.145  13.397  1.00  0.00     0.345 HD
ATOM      6  H   UNL     1      12.659  33.219  14.703  1.00  0.00     0.345 HD
ENDBRANCH   2   3
BRANCH   2   7
ATOM      7  C   UNL     1      14.935  32.650  13.183  1.00  0.00     0.100 C 
ATOM      8  O   UNL     1      15.860  32.854  14.013  1.00  0.00    -0.544 OA
ATOM      9  O   UNL     1      14.958  31.504  12.399  1.00  0.00    -0.544 OA
ENDBRANCH   2   7
ENDBRANCH   1   2
BRANCH   1  10
ATOM     10  C   UNL     1      13.493  36.145  12.984  1.00  0.00     0.223 C 
ATOM     11  O   UNL     1      13.824  36.556  11.840  1.00  0.00    -0.275 OA
ATOM     12  N   UNL     1      12.386  36.743  13.658  1.00  0.00    -0.369 N 
ATOM     13  H   UNL     1      11.859  37.527  13.212  1.00  0.00     0.159 HD
ATOM     14  H   UNL     1      12.084  36.400  14.597  1.00  0.00     0.159 HD
ENDBRANCH   1  10
TORSDOF 4
ENDMDL
MODEL 2
REMARK VINA RESULT:    -4.483     14.778     15.858
REMARK INTER + INTRA:          -5.484
REMARK INTER:                  -5.010
REMARK INTRA:                  -0.474
REMARK UNBOUND:                -0.084
REMARK SMILES NC(=O)C[C@H]([NH3+])C(=O)[O-]
REMARK SMILES IDX 4 1 5 2 6 3 7 7 8 8 9 9 2 10 3 11 1 12
REMARK H PARENT 6 4 6 5 6 6 1 13 1 14
REMARK Flexibility Score: inf
ROOT
ATOM      1  C   UNL     1       2.962  45.863  10.976  1.00  0.00     0.171 C 
ENDROOT
BRANCH   1   2
ATOM      2  C   UNL     1       3.561  45.922   9.556  1.00  0.00     0.237 C 
BRANCH   2   3
ATOM      3  N   UNL     1       4.195  44.650   9.185  1.00  0.00    -0.350 N 
ATOM      4  H   UNL     1       5.017  44.826   8.563  1.00  0.00     0.345 HD
ATOM      5  H   UNL     1       4.544  44.163  10.044  1.00  0.00     0.345 HD
ATOM      6  H   UNL     1       3.516  44.027   8.690  1.00  0.00     0.345 HD
ENDBRANCH   2   3
BRANCH   2   7
ATOM      7  C   UNL     1       4.558  47.047   9.469  1.00  0.00     0.100 C 
ATOM      8  O   UNL     1       5.528  47.104  10.270  1.00  0.00    -0.544 OA
ATOM      9  O   UNL     1       4.401  48.041   8.511  1.00  0.00    -0.544 OA
ENDBRANCH   2   7
ENDBRANCH   1   2
BRANCH   1  10
ATOM     10  C   UNL     1       3.540  44.732  11.776  1.00  0.00     0.223 C 
ATOM     11  O   UNL     1       3.011  43.590  11.714  1.00  0.00    -0.275 OA
ATOM     12  N   UNL     1       4.704  44.930  12.578  1.00  0.00    -0.369 N 
ATOM     13  H   UNL     1       5.109  44.137  13.124  1.00  0.00     0.159 HD
ATOM     14  H   UNL     1       5.169  45.864  12.623  1.00  0.00     0.159 HD
ENDBRANCH   1  10
TORSDOF 4
ENDMDL
MODEL 3
REMARK VINA RESULT:    -4.449     15.617     16.278
REMARK INTER + INTRA:          -5.444
REMARK INTER:                  -5.189
REMARK INTRA:                  -0.255
REMARK UNBOUND:                -0.084
REMARK SMILES NC(=O)C[C@H]([NH3+])C(=O)[O-]
REMARK SMILES IDX 4 1 5 2 6 3 7 7 8 8 9 9 2 10 3 11 1 12
REMARK H PARENT 6 4 6 5 6 6 1 13 1 14
REMARK Flexibility Score: inf
ROOT
ATOM      1  C   UNL     1       4.325  46.391   9.367  1.00  0.00     0.171 C 
ENDROOT
BRANCH   1   2
ATOM      2  C   UNL     1       3.942  46.234  10.853  1.00  0.00     0.237 C 
BRANCH   2   3
ATOM      3  N   UNL     1       4.934  45.435  11.584  1.00  0.00    -0.350 N 
ATOM      4  H   UNL     1       5.184  44.582  11.034  1.00  0.00     0.345 HD
ATOM      5  H   UNL     1       5.808  45.994  11.723  1.00  0.00     0.345 HD
ATOM      6  H   UNL     1       4.561  45.144  12.518  1.00  0.00     0.345 HD
ENDBRANCH   2   3
BRANCH   2   7
ATOM      7  C   UNL     1       2.579  45.604  10.965  1.00  0.00     0.100 C 
ATOM      8  O   UNL     1       2.366  44.688  11.802  1.00  0.00    -0.544 OA
ATOM      9  O   UNL     1       1.550  46.022  10.129  1.00  0.00    -0.544 OA
ENDBRANCH   2   7
ENDBRANCH   1   2
BRANCH   1  10
ATOM     10  C   UNL     1       5.284  47.526   9.157  1.00  0.00     0.223 C 
ATOM     11  O   UNL     1       6.378  47.541   9.782  1.00  0.00    -0.275 OA
ATOM     12  N   UNL     1       4.983  48.570   8.232  1.00  0.00    -0.369 N 
ATOM     13  H   UNL     1       5.658  49.352   8.082  1.00  0.00     0.159 HD
ATOM     14  H   UNL     1       4.091  48.561   7.689  1.00  0.00     0.159 HD
ENDBRANCH   1  10
TORSDOF 4
ENDMDL
MODEL 4
REMARK VINA RESULT:    -4.398     14.445     15.846
REMARK INTER + INTRA:          -5.382
REMARK INTER:                  -5.130
REMARK INTRA:                  -0.252
REMARK UNBOUND:                -0.084
REMARK SMILES NC(=O)C[C@H]([NH3+])C(=O)[O-]
REMARK SMILES IDX 4 1 5 2 6 3 7 7 8 8 9 9 2 10 3 11 1 12
REMARK H PARENT 6 4 6 5 6 6 1 13 1 14
REMARK Flexibility Score: inf
ROOT
ATOM      1  C   UNL     1       4.056  45.236   9.557  1.00  0.00     0.171 C 
ENDROOT
BRANCH   1   2
ATOM      2  C   UNL     1       4.866  46.393  10.176  1.00  0.00     0.237 C 
BRANCH   2   3
ATOM      3  N   UNL     1       4.151  47.010  11.301  1.00  0.00    -0.350 N 
ATOM      4  H   UNL     1       4.589  46.723  12.206  1.00  0.00     0.345 HD
ATOM      5  H   UNL     1       4.213  48.053  11.233  1.00  0.00     0.345 HD
ATOM      6  H   UNL     1       3.144  46.726  11.302  1.00  0.00     0.345 HD
ENDBRANCH   2   3
BRANCH   2   7
ATOM      7  C   UNL     1       5.169  47.425   9.122  1.00  0.00     0.100 C 
ATOM      8  O   UNL     1       6.349  47.830   8.946  1.00  0.00    -0.544 OA
ATOM      9  O   UNL     1       4.142  47.949   8.348  1.00  0.00    -0.544 OA
ENDBRANCH   2   7
ENDBRANCH   1   2
BRANCH   1  10
ATOM     10  C   UNL     1       3.930  44.078  10.505  1.00  0.00     0.223 C 
ATOM     11  O   UNL     1       3.029  44.089  11.386  1.00  0.00    -0.275 OA
ATOM     12  N   UNL     1       4.799  42.951  10.394  1.00  0.00    -0.369 N 
ATOM     13  H   UNL     1       4.700  42.144  11.050  1.00  0.00     0.159 HD
ATOM     14  H   UNL     1       5.536  42.916   9.655  1.00  0.00     0.159 HD
ENDBRANCH   1  10
TORSDOF 4
ENDMDL
MODEL 5
REMARK VINA RESULT:    -4.336     14.871     15.798
REMARK INTER + INTRA:          -5.308
REMARK INTER:                  -5.066
REMARK INTRA:                  -0.242
REMARK UNBOUND:                -0.084
REMARK SMILES NC(=O)C[C@H]([NH3+])C(=O)[O-]
REMARK SMILES IDX 4 1 5 2 6 3 7 7 8 8 9 9 2 10 3 11 1 12
REMARK H PARENT 6 4 6 5 6 6 1 13 1 14
REMARK Flexibility Score: inf
ROOT
ATOM      1  C   UNL     1       4.988  46.864  10.023  1.00  0.00     0.171 C 
ENDROOT
BRANCH   1   2
ATOM      2  C   UNL     1       4.208  45.653   9.473  1.00  0.00     0.237 C 
BRANCH   2   3
ATOM      3  N   UNL     1       2.862  46.035   9.027  1.00  0.00    -0.350 N 
ATOM      4  H   UNL     1       2.559  45.423   8.236  1.00  0.00     0.345 HD
ATOM      5  H   UNL     1       2.178  45.909   9.810  1.00  0.00     0.345 HD
ATOM      6  H   UNL     1       2.844  47.034   8.715  1.00  0.00     0.345 HD
ENDBRANCH   2   3
BRANCH   2   7
ATOM      7  C   UNL     1       4.123  44.580  10.526  1.00  0.00     0.100 C 
ATOM      8  O   UNL     1       4.179  43.364  10.204  1.00  0.00    -0.544 OA
ATOM      9  O   UNL     1       3.965  44.929  11.862  1.00  0.00    -0.544 OA
ENDBRANCH   2   7
ENDBRANCH   1   2
BRANCH   1  10
ATOM     10  C   UNL     1       5.356  47.829   8.933  1.00  0.00     0.223 C 
ATOM     11  O   UNL     1       4.455  48.306   8.193  1.00  0.00    -0.275 OA
ATOM     12  N   UNL     1       6.712  48.235   8.751  1.00  0.00    -0.369 N 
ATOM     13  H   UNL     1       6.961  48.915   7.998  1.00  0.00     0.159 HD
ATOM     14  H   UNL     1       7.468  47.867   9.371  1.00  0.00     0.159 HD
ENDBRANCH   1  10
TORSDOF 4
ENDMDL
MODEL 6
REMARK VINA RESULT:    -4.243     14.392     16.318
REMARK INTER + INTRA:          -5.195
REMARK INTER:                  -4.930
REMARK INTRA:                  -0.265
REMARK UNBOUND:                -0.084
REMARK SMILES NC(=O)C[C@H]([NH3+])C(=O)[O-]
REMARK SMILES IDX 4 1 5 2 6 3 7 7 8 8 9 9 2 10 3 11 1 12
REMARK H PARENT 6 4 6 5 6 6 1 13 1 14
REMARK Flexibility Score: inf
ROOT
ATOM      1  C   UNL     1       3.545  45.173   9.619  1.00  0.00     0.171 C 
ENDROOT
BRANCH   1   2
ATOM      2  C   UNL     1       4.405  46.454   9.622  1.00  0.00     0.237 C 
BRANCH   2   3
ATOM      3  N   UNL     1       4.548  47.003  10.977  1.00  0.00    -0.350 N 
ATOM      4  H   UNL     1       4.682  48.039  10.932  1.00  0.00     0.345 HD
ATOM      5  H   UNL     1       3.679  46.817  11.530  1.00  0.00     0.345 HD
ATOM      6  H   UNL     1       5.366  46.572  11.468  1.00  0.00     0.345 HD
ENDBRANCH   2   3
BRANCH   2   7
ATOM      7  C   UNL     1       3.794  47.480   8.705  1.00  0.00     0.100 C 
ATOM      8  O   UNL     1       2.572  47.423   8.408  1.00  0.00    -0.544 OA
ATOM      9  O   UNL     1       4.585  48.487   8.167  1.00  0.00    -0.544 OA
ENDBRANCH   2   7
ENDBRANCH   1   2
BRANCH   1  10
ATOM     10  C   UNL     1       3.971  44.217  10.696  1.00  0.00     0.223 C 
ATOM     11  O   UNL     1       3.603  44.412  11.885  1.00  0.00    -0.275 OA
ATOM     12  N   UNL     1       4.761  43.071  10.378  1.00  0.00    -0.369 N 
ATOM     13  H   UNL     1       5.046  42.403  11.129  1.00  0.00     0.159 HD
ATOM     14  H   UNL     1       5.055  42.881   9.394  1.00  0.00     0.159 HD
ENDBRANCH   1  10
TORSDOF 4
ENDMDL
MODEL 7
REMARK VINA RESULT:    -4.229     14.688     16.624
REMARK INTER + INTRA:          -5.179
REMARK INTER:                  -4.910
REMARK INTRA:                  -0.268
REMARK UNBOUND:                -0.084
REMARK SMILES NC(=O)C[C@H]([NH3+])C(=O)[O-]
REMARK SMILES IDX 4 1 5 2 6 3 7 7 8 8 9 9 2 10 3 11 1 12
REMARK H PARENT 6 4 6 5 6 6 1 13 1 14
REMARK Flexibility Score: inf
ROOT
ATOM      1  C   UNL     1       3.462  45.735   9.687  1.00  0.00     0.171 C 
ENDROOT
BRANCH   1   2
ATOM      2  C   UNL     1       4.468  46.784   9.172  1.00  0.00     0.237 C 
BRANCH   2   3
ATOM      3  N   UNL     1       5.165  47.452  10.280  1.00  0.00    -0.350 N 
ATOM      4  H   UNL     1       6.185  47.527  10.068  1.00  0.00     0.345 HD
ATOM      5  H   UNL     1       4.791  48.422  10.402  1.00  0.00     0.345 HD
ATOM      6  H   UNL     1       5.037  46.921  11.172  1.00  0.00     0.345 HD
ENDBRANCH   2   3
BRANCH   2   7
ATOM      7  C   UNL     1       3.755  47.798   8.318  1.00  0.00     0.100 C 
ATOM      8  O   UNL     1       4.360  48.822   7.904  1.00  0.00    -0.544 OA
ATOM      9  O   UNL     1       2.416  47.616   7.995  1.00  0.00    -0.544 OA
ENDBRANCH   2   7
ENDBRANCH   1   2
BRANCH   1  10
ATOM     10  C   UNL     1       4.082  44.824  10.706  1.00  0.00     0.223 C 
ATOM     11  O   UNL     1       4.192  45.208  11.901  1.00  0.00    -0.275 OA
ATOM     12  N   UNL     1       4.519  43.515  10.340  1.00  0.00    -0.369 N 
ATOM     13  H   UNL     1       4.941  42.882  11.055  1.00  0.00     0.159 HD
ATOM     14  H   UNL     1       4.415  43.173   9.359  1.00  0.00     0.159 HD
ENDBRANCH   1  10
TORSDOF 4
ENDMDL
MODEL 8
REMARK VINA RESULT:    -4.204     14.083     15.245
REMARK INTER + INTRA:          -5.148
REMARK INTER:                  -4.734
REMARK INTRA:                  -0.414
REMARK UNBOUND:                -0.084
REMARK SMILES NC(=O)C[C@H]([NH3+])C(=O)[O-]
REMARK SMILES IDX 4 1 5 2 6 3 7 7 8 8 9 9 2 10 3 11 1 12
REMARK H PARENT 6 4 6 5 6 6 1 13 1 14
REMARK Flexibility Score: inf
ROOT
ATOM      1  C   UNL     1       2.999  46.105  10.980  1.00  0.00     0.171 C 
ENDROOT
BRANCH   1   2
ATOM      2  C   UNL     1       3.347  44.743  11.615  1.00  0.00     0.237 C 
BRANCH   2   3
ATOM      3  N   UNL     1       4.585  44.815  12.402  1.00  0.00    -0.350 N 
ATOM      4  H   UNL     1       5.141  45.654  12.121  1.00  0.00     0.345 HD
ATOM      5  H   UNL     1       4.355  44.910  13.419  1.00  0.00     0.345 HD
ATOM      6  H   UNL     1       5.165  43.956  12.261  1.00  0.00     0.345 HD
ENDBRANCH   2   3
BRANCH   2   7
ATOM      7  C   UNL     1       3.472  43.696  10.541  1.00  0.00     0.100 C 
ATOM      8  O   UNL     1       4.418  42.866  10.565  1.00  0.00    -0.544 OA
ATOM      9  O   UNL     1       2.548  43.652   9.503  1.00  0.00    -0.544 OA
ENDBRANCH   2   7
ENDBRANCH   1   2
BRANCH   1  10
ATOM     10  C   UNL     1       4.060  46.555  10.018  1.00  0.00     0.223 C 
ATOM     11  O   UNL     1       5.193  46.894  10.452  1.00  0.00    -0.275 OA
ATOM     12  N   UNL     1       3.806  46.571   8.614  1.00  0.00    -0.369 N 
ATOM     13  H   UNL     1       4.550  46.875   7.947  1.00  0.00     0.159 HD
ATOM     14  H   UNL     1       2.880  46.271   8.235  1.00  0.00     0.159 HD
ENDBRANCH   1  10
TORSDOF 4
ENDMDL
MODEL 9
REMARK VINA RESULT:    -4.071     14.243     16.234
REMARK INTER + INTRA:          -4.988
REMARK INTER:                  -4.527
REMARK INTRA:                  -0.461
REMARK UNBOUND:                -0.084
REMARK SMILES NC(=O)C[C@H]([NH3+])C(=O)[O-]
REMARK SMILES IDX 4 1 5 2 6 3 7 7 8 8 9 9 2 10 3 11 1 12
REMARK H PARENT 6 4 6 5 6 6 1 13 1 14
REMARK Flexibility Score: inf
ROOT
ATOM      1  C   UNL     1       2.064  44.022  11.129  1.00  0.00     0.171 C 
ENDROOT
BRANCH   1   2
ATOM      2  C   UNL     1       1.484  45.018  10.105  1.00  0.00     0.237 C 
BRANCH   2   3
ATOM      3  N   UNL     1       1.448  44.443   8.754  1.00  0.00    -0.350 N 
ATOM      4  H   UNL     1       2.175  44.892   8.153  1.00  0.00     0.345 HD
ATOM      5  H   UNL     1       1.658  43.418   8.798  1.00  0.00     0.345 HD
ATOM      6  H   UNL     1       0.507  44.580   8.317  1.00  0.00     0.345 HD
ENDBRANCH   2   3
BRANCH   2   7
ATOM      7  C   UNL     1       2.297  46.286  10.110  1.00  0.00     0.100 C 
ATOM      8  O   UNL     1       2.036  47.215   9.301  1.00  0.00    -0.544 OA
ATOM      9  O   UNL     1       3.353  46.430  11.001  1.00  0.00    -0.544 OA
ENDBRANCH   2   7
ENDBRANCH   1   2
BRANCH   1  10
ATOM     10  C   UNL     1       3.129  43.156  10.520  1.00  0.00     0.223 C 
ATOM     11  O   UNL     1       2.801  42.122   9.879  1.00  0.00    -0.275 OA
ATOM     12  N   UNL     1       4.506  43.513  10.632  1.00  0.00    -0.369 N 
ATOM     13  H   UNL     1       5.243  42.913  10.197  1.00  0.00     0.159 HD
ATOM     14  H   UNL     1       4.794  44.379  11.140  1.00  0.00     0.159 HD
ENDBRANCH   1  10
TORSDOF 4
ENDMDL
