MODEL 1
REMARK VINA RESULT:    -3.924      0.000      0.000
REMARK INTER + INTRA:          -5.391
REMARK INTER:                  -5.071
REMARK INTRA:                  -0.320
REMARK UNBOUND:                -0.320
REMARK SMILES C=CC(=O)CCCCC
REMARK SMILES IDX 6 1 7 2 8 3 9 4 5 5 3 6 4 7 2 8 1 9
REMARK H PARENT
REMARK Flexibility Score: inf
ROOT
ATOM      1  C   UNL     1     210.643 151.013 181.655  1.00  0.00     0.008 C 
ENDROOT
BRANCH   1   2
ATOM      2  C   UNL     1     210.673 152.439 182.234  1.00  0.00     0.000 C 
BRANCH   2   3
ATOM      3  C   UNL     1     211.521 152.538 183.512  1.00  0.00    -0.003 C 
ATOM      4  C   UNL     1     211.248 153.815 184.306  1.00  0.00     0.004 C 
ENDBRANCH   2   3
ENDBRANCH   1   2
BRANCH   1   5
ATOM      5  C   UNL     1     212.020 150.333 181.724  1.00  0.00     0.080 C 
BRANCH   5   6
ATOM      6  C   UNL     1     212.969 150.764 180.626  1.00  0.00     0.155 C 
ATOM      7  O   UNL     1     214.044 151.354 180.921  1.00  0.00    -0.295 OA
BRANCH   6   8
ATOM      8  C   UNL     1     212.709 150.466 179.202  1.00  0.00     0.039 C 
ATOM      9  C   UNL     1     212.190 151.346 178.346  1.00  0.00     0.012 C 
ENDBRANCH   6   8
ENDBRANCH   5   6
ENDBRANCH   1   5
TORSDOF 5
ENDMDL
MODEL 2
REMARK VINA RESULT:    -3.913      2.486      4.492
REMARK INTER + INTRA:          -5.377
REMARK INTER:                  -4.958
REMARK INTRA:                  -0.419
REMARK UNBOUND:                -0.320
REMARK SMILES C=CC(=O)CCCCC
REMARK SMILES IDX 6 1 7 2 8 3 9 4 5 5 3 6 4 7 2 8 1 9
REMARK H PARENT
REMARK Flexibility Score: inf
ROOT
ATOM      1  C   UNL     1     212.027 153.006 182.985  1.00  0.00     0.008 C 
ENDROOT
BRANCH   1   2
ATOM      2  C   UNL     1     210.633 152.430 182.682  1.00  0.00     0.000 C 
BRANCH   2   3
ATOM      3  C   UNL     1     210.679 151.283 181.659  1.00  0.00    -0.003 C 
ATOM      4  C   UNL     1     211.938 150.426 181.788  1.00  0.00     0.004 C 
ENDBRANCH   2   3
ENDBRANCH   1   2
BRANCH   1   5
ATOM      5  C   UNL     1     212.219 153.293 184.484  1.00  0.00     0.080 C 
BRANCH   5   6
ATOM      6  C   UNL     1     213.495 152.716 185.057  1.00  0.00     0.155 C 
ATOM      7  O   UNL     1     214.480 153.472 185.283  1.00  0.00    -0.295 OA
BRANCH   6   8
ATOM      8  C   UNL     1     213.619 151.289 185.421  1.00  0.00     0.039 C 
ATOM      9  C   UNL     1     214.298 150.398 184.699  1.00  0.00     0.012 C 
ENDBRANCH   6   8
ENDBRANCH   5   6
ENDBRANCH   1   5
TORSDOF 5
ENDMDL
MODEL 3
REMARK VINA RESULT:    -3.872      2.032      3.964
REMARK INTER + INTRA:          -5.324
REMARK INTER:                  -5.098
REMARK INTRA:                  -0.226
REMARK UNBOUND:                -0.320
REMARK SMILES C=CC(=O)CCCCC
REMARK SMILES IDX 6 1 7 2 8 3 9 4 5 5 3 6 4 7 2 8 1 9
REMARK H PARENT
REMARK Flexibility Score: inf
ROOT
ATOM      1  C   UNL     1     210.682 151.104 181.002  1.00  0.00     0.008 C 
ENDROOT
BRANCH   1   2
ATOM      2  C   UNL     1     209.269 150.989 181.601  1.00  0.00     0.000 C 
BRANCH   2   3
ATOM      3  C   UNL     1     208.176 150.916 180.522  1.00  0.00    -0.003 C 
ATOM      4  C   UNL     1     206.932 150.162 180.990  1.00  0.00     0.004 C 
ENDBRANCH   2   3
ENDBRANCH   1   2
BRANCH   1   5
ATOM      5  C   UNL     1     211.742 150.436 181.894  1.00  0.00     0.080 C 
BRANCH   5   6
ATOM      6  C   UNL     1     212.347 151.366 182.924  1.00  0.00     0.155 C 
ATOM      7  O   UNL     1     213.181 150.921 183.759  1.00  0.00    -0.295 OA
BRANCH   6   8
ATOM      8  C   UNL     1     212.036 152.810 182.956  1.00  0.00     0.039 C 
ATOM      9  C   UNL     1     211.259 153.379 183.878  1.00  0.00     0.012 C 
ENDBRANCH   6   8
ENDBRANCH   5   6
ENDBRANCH   1   5
TORSDOF 5
ENDMDL
MODEL 4
REMARK VINA RESULT:    -3.863      2.013      3.310
REMARK INTER + INTRA:          -5.312
REMARK INTER:                  -4.759
REMARK INTRA:                  -0.553
REMARK UNBOUND:                -0.320
REMARK SMILES C=CC(=O)CCCCC
REMARK SMILES IDX 6 1 7 2 8 3 9 4 5 5 3 6 4 7 2 8 1 9
REMARK H PARENT
REMARK Flexibility Score: inf
ROOT
ATOM      1  C   UNL     1     211.767 150.993 182.156  1.00  0.00     0.008 C 
ENDROOT
BRANCH   1   2
ATOM      2  C   UNL     1     210.752 152.124 182.399  1.00  0.00     0.000 C 
BRANCH   2   3
ATOM      3  C   UNL     1     211.426 153.446 182.796  1.00  0.00    -0.003 C 
ATOM      4  C   UNL     1     211.230 153.791 184.272  1.00  0.00     0.004 C 
ENDBRANCH   2   3
ENDBRANCH   1   2
BRANCH   1   5
ATOM      5  C   UNL     1     213.196 151.531 181.969  1.00  0.00     0.080 C 
BRANCH   5   6
ATOM      6  C   UNL     1     214.176 151.037 183.011  1.00  0.00     0.155 C 
ATOM      7  O   UNL     1     215.414 151.074 182.776  1.00  0.00    -0.295 OA
BRANCH   6   8
ATOM      8  C   UNL     1     213.736 150.556 184.337  1.00  0.00     0.039 C 
ATOM      9  C   UNL     1     213.743 151.309 185.436  1.00  0.00     0.012 C 
ENDBRANCH   6   8
ENDBRANCH   5   6
ENDBRANCH   1   5
TORSDOF 5
ENDMDL
MODEL 5
REMARK VINA RESULT:    -3.858      1.711      3.993
REMARK INTER + INTRA:          -5.306
REMARK INTER:                  -4.729
REMARK INTRA:                  -0.577
REMARK UNBOUND:                -0.320
REMARK SMILES C=CC(=O)CCCCC
REMARK SMILES IDX 6 1 7 2 8 3 9 4 5 5 3 6 4 7 2 8 1 9
REMARK H PARENT
REMARK Flexibility Score: inf
ROOT
ATOM      1  C   UNL     1     210.790 152.466 182.280  1.00  0.00     0.008 C 
ENDROOT
BRANCH   1   2
ATOM      2  C   UNL     1     210.913 151.023 181.762  1.00  0.00     0.000 C 
BRANCH   2   3
ATOM      3  C   UNL     1     211.734 150.930 180.466  1.00  0.00    -0.003 C 
ATOM      4  C   UNL     1     212.842 149.880 180.542  1.00  0.00     0.004 C 
ENDBRANCH   2   3
ENDBRANCH   1   2
BRANCH   1   5
ATOM      5  C   UNL     1     211.502 152.657 183.630  1.00  0.00     0.080 C 
BRANCH   5   6
ATOM      6  C   UNL     1     212.959 152.250 183.615  1.00  0.00     0.155 C 
ATOM      7  O   UNL     1     213.761 152.819 182.824  1.00  0.00    -0.295 OA
BRANCH   6   8
ATOM      8  C   UNL     1     213.501 151.236 184.542  1.00  0.00     0.039 C 
ATOM      9  C   UNL     1     213.709 149.963 184.206  1.00  0.00     0.012 C 
ENDBRANCH   6   8
ENDBRANCH   5   6
ENDBRANCH   1   5
TORSDOF 5
ENDMDL
MODEL 6
REMARK VINA RESULT:    -3.823      2.026      3.465
REMARK INTER + INTRA:          -5.261
REMARK INTER:                  -4.706
REMARK INTRA:                  -0.555
REMARK UNBOUND:                -0.320
REMARK SMILES C=CC(=O)CCCCC
REMARK SMILES IDX 6 1 7 2 8 3 9 4 5 5 3 6 4 7 2 8 1 9
REMARK H PARENT
REMARK Flexibility Score: inf
ROOT
ATOM      1  C   UNL     1     213.757 149.922 181.876  1.00  0.00     0.008 C 
ENDROOT
BRANCH   1   2
ATOM      2  C   UNL     1     214.352 150.691 183.069  1.00  0.00     0.000 C 
BRANCH   2   3
ATOM      3  C   UNL     1     213.792 150.213 184.417  1.00  0.00    -0.003 C 
ATOM      4  C   UNL     1     213.693 151.337 185.449  1.00  0.00     0.004 C 
ENDBRANCH   2   3
ENDBRANCH   1   2
BRANCH   1   5
ATOM      5  C   UNL     1     212.234 150.108 181.772  1.00  0.00     0.080 C 
BRANCH   5   6
ATOM      6  C   UNL     1     211.805 151.551 181.620  1.00  0.00     0.155 C 
ATOM      7  O   UNL     1     212.240 152.238 180.655  1.00  0.00    -0.295 OA
BRANCH   6   8
ATOM      8  C   UNL     1     210.836 152.183 182.539  1.00  0.00     0.039 C 
ATOM      9  C   UNL     1     211.173 153.084 183.463  1.00  0.00     0.012 C 
ENDBRANCH   6   8
ENDBRANCH   5   6
ENDBRANCH   1   5
TORSDOF 5
ENDMDL
MODEL 7
REMARK VINA RESULT:    -3.817      2.215      3.918
REMARK INTER + INTRA:          -5.254
REMARK INTER:                  -4.687
REMARK INTRA:                  -0.566
REMARK UNBOUND:                -0.320
REMARK SMILES C=CC(=O)CCCCC
REMARK SMILES IDX 6 1 7 2 8 3 9 4 5 5 3 6 4 7 2 8 1 9
REMARK H PARENT
REMARK Flexibility Score: inf
ROOT
ATOM      1  C   UNL     1     213.405 152.864 184.619  1.00  0.00     0.008 C 
ENDROOT
BRANCH   1   2
ATOM      2  C   UNL     1     213.596 151.494 185.295  1.00  0.00     0.000 C 
BRANCH   2   3
ATOM      3  C   UNL     1     213.713 150.347 184.279  1.00  0.00    -0.003 C 
ATOM      4  C   UNL     1     214.545 150.724 183.054  1.00  0.00     0.004 C 
ENDBRANCH   2   3
ENDBRANCH   1   2
BRANCH   1   5
ATOM      5  C   UNL     1     211.928 153.146 184.294  1.00  0.00     0.080 C 
BRANCH   5   6
ATOM      6  C   UNL     1     211.613 153.118 182.815  1.00  0.00     0.155 C 
ATOM      7  O   UNL     1     212.216 153.899 182.029  1.00  0.00    -0.295 OA
BRANCH   6   8
ATOM      8  C   UNL     1     210.650 152.158 182.235  1.00  0.00     0.039 C 
ATOM      9  C   UNL     1     210.994 150.957 181.769  1.00  0.00     0.012 C 
ENDBRANCH   6   8
ENDBRANCH   5   6
ENDBRANCH   1   5
TORSDOF 5
ENDMDL
MODEL 8
REMARK VINA RESULT:    -3.802      1.852      2.997
REMARK INTER + INTRA:          -5.233
REMARK INTER:                  -4.652
REMARK INTRA:                  -0.581
REMARK UNBOUND:                -0.320
REMARK SMILES C=CC(=O)CCCCC
REMARK SMILES IDX 6 1 7 2 8 3 9 4 5 5 3 6 4 7 2 8 1 9
REMARK H PARENT
REMARK Flexibility Score: inf
ROOT
ATOM      1  C   UNL     1     210.925 152.324 182.165  1.00  0.00     0.008 C 
ENDROOT
BRANCH   1   2
ATOM      2  C   UNL     1     211.112 152.882 183.587  1.00  0.00     0.000 C 
BRANCH   2   3
ATOM      3  C   UNL     1     211.862 154.222 183.600  1.00  0.00    -0.003 C 
ATOM      4  C   UNL     1     213.197 154.147 184.341  1.00  0.00     0.004 C 
ENDBRANCH   2   3
ENDBRANCH   1   2
BRANCH   1   5
ATOM      5  C   UNL     1     211.542 150.923 182.009  1.00  0.00     0.080 C 
BRANCH   5   6
ATOM      6  C   UNL     1     212.982 150.836 182.466  1.00  0.00     0.155 C 
ATOM      7  O   UNL     1     213.865 151.530 181.892  1.00  0.00    -0.295 OA
BRANCH   6   8
ATOM      8  C   UNL     1     213.393 150.000 183.612  1.00  0.00     0.039 C 
ATOM      9  C   UNL     1     213.943 150.488 184.724  1.00  0.00     0.012 C 
ENDBRANCH   6   8
ENDBRANCH   5   6
ENDBRANCH   1   5
TORSDOF 5
ENDMDL
MODEL 9
REMARK VINA RESULT:    -3.727      2.329      3.089
REMARK INTER + INTRA:          -5.137
REMARK INTER:                  -4.704
REMARK INTRA:                  -0.433
REMARK UNBOUND:                -0.320
REMARK SMILES C=CC(=O)CCCCC
REMARK SMILES IDX 6 1 7 2 8 3 9 4 5 5 3 6 4 7 2 8 1 9
REMARK H PARENT
REMARK Flexibility Score: inf
ROOT
ATOM      1  C   UNL     1     212.258 152.201 183.877  1.00  0.00     0.008 C 
ENDROOT
BRANCH   1   2
ATOM      2  C   UNL     1     211.058 152.548 182.978  1.00  0.00     0.000 C 
BRANCH   2   3
ATOM      3  C   UNL     1     210.984 151.661 181.726  1.00  0.00    -0.003 C 
ATOM      4  C   UNL     1     209.578 151.121 181.464  1.00  0.00     0.004 C 
ENDBRANCH   2   3
ENDBRANCH   1   2
BRANCH   1   5
ATOM      5  C   UNL     1     212.986 150.932 183.404  1.00  0.00     0.080 C 
BRANCH   5   6
ATOM      6  C   UNL     1     214.455 151.145 183.109  1.00  0.00     0.155 C 
ATOM      7  O   UNL     1     215.308 150.985 184.024  1.00  0.00    -0.295 OA
BRANCH   6   8
ATOM      8  C   UNL     1     214.943 151.483 181.756  1.00  0.00     0.039 C 
ATOM      9  C   UNL     1     214.869 152.705 181.227  1.00  0.00     0.012 C 
ENDBRANCH   6   8
ENDBRANCH   5   6
ENDBRANCH   1   5
TORSDOF 5
ENDMDL
