MODEL 1
REMARK VINA RESULT:    -5.432      0.000      0.000
REMARK INTER + INTRA:          -9.126
REMARK INTER:                  -8.608
REMARK INTRA:                  -0.518
REMARK UNBOUND:                -0.518
REMARK SMILES CCCCCCCCCCCC(=O)[O-]
REMARK SMILES IDX 7 1 8 2 9 3 10 4 11 5 12 6 13 7 14 8 6 9 5 10 4 11 3 12 2 13
REMARK SMILES IDX 1 14
REMARK H PARENT
REMARK Flexibility Score: inf
ROOT
ATOM      1  C   UNL     1       8.768  12.271  42.423  1.00  0.00     0.000 C 
ENDROOT
BRANCH   1   2
ATOM      2  C   UNL     1       8.199  13.154  41.302  1.00  0.00     0.000 C 
BRANCH   2   3
ATOM      3  C   UNL     1       9.247  14.141  40.748  1.00  0.00     0.000 C 
BRANCH   3   4
ATOM      4  C   UNL     1       9.989  14.930  41.841  1.00  0.00     0.006 C 
BRANCH   4   5
ATOM      5  C   UNL     1       9.683  16.431  41.805  1.00  0.00     0.053 C 
BRANCH   5   6
ATOM      6  C   UNL     1       8.363  16.711  42.452  1.00  0.00     0.041 C 
ATOM      7  O   UNL     1       8.132  16.306  43.621  1.00  0.00    -0.550 OA
ATOM      8  O   UNL     1       7.405  17.460  41.781  1.00  0.00    -0.550 OA
ENDBRANCH   5   6
ENDBRANCH   4   5
ENDBRANCH   3   4
ENDBRANCH   2   3
ENDBRANCH   1   2
BRANCH   1   9
ATOM      9  C   UNL     1       8.318  10.815  42.260  1.00  0.00     0.000 C 
BRANCH   9  10
ATOM     10  C   UNL     1       7.962  10.194  43.620  1.00  0.00    -0.000 C 
BRANCH  10  11
ATOM     11  C   UNL     1       8.775   8.925  43.921  1.00  0.00    -0.000 C 
BRANCH  11  12
ATOM     12  C   UNL     1       9.371   8.928  45.340  1.00  0.00    -0.000 C 
BRANCH  12  13
ATOM     13  C   UNL     1      10.801   9.486  45.375  1.00  0.00    -0.003 C 
ATOM     14  C   UNL     1      11.864   8.388  45.418  1.00  0.00     0.004 C 
ENDBRANCH  12  13
ENDBRANCH  11  12
ENDBRANCH  10  11
ENDBRANCH   9  10
ENDBRANCH   1   9
TORSDOF 10
ENDMDL
MODEL 2
REMARK VINA RESULT:    -5.408     10.564     11.857
REMARK INTER + INTRA:          -9.087
REMARK INTER:                  -8.513
REMARK INTRA:                  -0.574
REMARK UNBOUND:                -0.518
REMARK SMILES CCCCCCCCCCCC(=O)[O-]
REMARK SMILES IDX 7 1 8 2 9 3 10 4 11 5 12 6 13 7 14 8 6 9 5 10 4 11 3 12 2 13
REMARK SMILES IDX 1 14
REMARK H PARENT
REMARK Flexibility Score: inf
ROOT
ATOM      1  C   UNL     1      20.456  12.145  42.319  1.00  0.00     0.000 C 
ENDROOT
BRANCH   1   2
ATOM      2  C   UNL     1      21.113  13.230  43.186  1.00  0.00     0.000 C 
BRANCH   2   3
ATOM      3  C   UNL     1      20.083  14.230  43.752  1.00  0.00     0.000 C 
BRANCH   3   4
ATOM      4  C   UNL     1      19.297  14.985  42.666  1.00  0.00     0.006 C 
BRANCH   4   5
ATOM      5  C   UNL     1      19.608  16.485  42.639  1.00  0.00     0.053 C 
BRANCH   5   6
ATOM      6  C   UNL     1      20.929  16.733  41.982  1.00  0.00     0.041 C 
ATOM      7  O   UNL     1      21.823  17.387  42.581  1.00  0.00    -0.550 OA
ATOM      8  O   UNL     1      21.192  16.200  40.726  1.00  0.00    -0.550 OA
ENDBRANCH   5   6
ENDBRANCH   4   5
ENDBRANCH   3   4
ENDBRANCH   2   3
ENDBRANCH   1   2
BRANCH   1   9
ATOM      9  C   UNL     1      21.356  10.910  42.203  1.00  0.00     0.000 C 
BRANCH   9  10
ATOM     10  C   UNL     1      20.575   9.710  41.649  1.00  0.00    -0.000 C 
BRANCH  10  11
ATOM     11  C   UNL     1      21.123   9.219  40.300  1.00  0.00    -0.000 C 
BRANCH  11  12
ATOM     12  C   UNL     1      20.008   8.826  39.315  1.00  0.00    -0.000 C 
BRANCH  12  13
ATOM     13  C   UNL     1      18.611   9.204  39.828  1.00  0.00    -0.003 C 
ATOM     14  C   UNL     1      17.556   8.146  39.506  1.00  0.00     0.004 C 
ENDBRANCH  12  13
ENDBRANCH  11  12
ENDBRANCH  10  11
ENDBRANCH   9  10
ENDBRANCH   1   9
TORSDOF 10
ENDMDL
MODEL 3
REMARK VINA RESULT:    -5.220     10.308     11.825
REMARK INTER + INTRA:          -8.790
REMARK INTER:                  -8.186
REMARK INTRA:                  -0.604
REMARK UNBOUND:                -0.518
REMARK SMILES CCCCCCCCCCCC(=O)[O-]
REMARK SMILES IDX 7 1 8 2 9 3 10 4 11 5 12 6 13 7 14 8 6 9 5 10 4 11 3 12 2 13
REMARK SMILES IDX 1 14
REMARK H PARENT
REMARK Flexibility Score: inf
ROOT
ATOM      1  C   UNL     1      20.601  11.139  44.189  1.00  0.00     0.000 C 
ENDROOT
BRANCH   1   2
ATOM      2  C   UNL     1      21.229  12.527  43.991  1.00  0.00     0.000 C 
BRANCH   2   3
ATOM      3  C   UNL     1      20.206  13.664  44.190  1.00  0.00     0.000 C 
BRANCH   3   4
ATOM      4  C   UNL     1      19.789  14.354  42.880  1.00  0.00     0.006 C 
BRANCH   4   5
ATOM      5  C   UNL     1      20.984  14.847  42.058  1.00  0.00     0.053 C 
BRANCH   5   6
ATOM      6  C   UNL     1      20.908  16.328  41.862  1.00  0.00     0.041 C 
ATOM      7  O   UNL     1      21.877  16.951  41.356  1.00  0.00    -0.550 OA
ATOM      8  O   UNL     1      19.747  17.014  42.196  1.00  0.00    -0.550 OA
ENDBRANCH   5   6
ENDBRANCH   4   5
ENDBRANCH   3   4
ENDBRANCH   2   3
ENDBRANCH   1   2
BRANCH   1   9
ATOM      9  C   UNL     1      21.023  10.178  43.071  1.00  0.00     0.000 C 
BRANCH   9  10
ATOM     10  C   UNL     1      20.639  10.736  41.692  1.00  0.00    -0.000 C 
BRANCH  10  11
ATOM     11  C   UNL     1      20.580   9.647  40.609  1.00  0.00    -0.000 C 
BRANCH  11  12
ATOM     12  C   UNL     1      19.306   9.733  39.752  1.00  0.00    -0.000 C 
BRANCH  12  13
ATOM     13  C   UNL     1      18.757   8.349  39.373  1.00  0.00    -0.003 C 
ATOM     14  C   UNL     1      17.281   8.182  39.729  1.00  0.00     0.004 C 
ENDBRANCH  12  13
ENDBRANCH  11  12
ENDBRANCH  10  11
ENDBRANCH   9  10
ENDBRANCH   1   9
TORSDOF 10
ENDMDL
MODEL 4
REMARK VINA RESULT:    -5.159      1.051      1.350
REMARK INTER + INTRA:          -8.693
REMARK INTER:                  -7.927
REMARK INTRA:                  -0.766
REMARK UNBOUND:                -0.518
REMARK SMILES CCCCCCCCCCCC(=O)[O-]
REMARK SMILES IDX 7 1 8 2 9 3 10 4 11 5 12 6 13 7 14 8 6 9 5 10 4 11 3 12 2 13
REMARK SMILES IDX 1 14
REMARK H PARENT
REMARK Flexibility Score: inf
ROOT
ATOM      1  C   UNL     1       7.940  11.607  42.662  1.00  0.00     0.000 C 
ENDROOT
BRANCH   1   2
ATOM      2  C   UNL     1       8.426  11.478  41.210  1.00  0.00     0.000 C 
BRANCH   2   3
ATOM      3  C   UNL     1       8.997  12.804  40.665  1.00  0.00     0.000 C 
BRANCH   3   4
ATOM      4  C   UNL     1       9.403  13.798  41.767  1.00  0.00     0.006 C 
BRANCH   4   5
ATOM      5  C   UNL     1       8.830  15.202  41.545  1.00  0.00     0.053 C 
BRANCH   5   6
ATOM      6  C   UNL     1       7.874  15.554  42.641  1.00  0.00     0.041 C 
ATOM      7  O   UNL     1       6.830  14.873  42.815  1.00  0.00    -0.550 OA
ATOM      8  O   UNL     1       8.160  16.609  43.500  1.00  0.00    -0.550 OA
ENDBRANCH   5   6
ENDBRANCH   4   5
ENDBRANCH   3   4
ENDBRANCH   2   3
ENDBRANCH   1   2
BRANCH   1   9
ATOM      9  C   UNL     1       7.811  10.231  43.324  1.00  0.00     0.000 C 
BRANCH   9  10
ATOM     10  C   UNL     1       8.694   9.193  42.616  1.00  0.00    -0.000 C 
BRANCH  10  11
ATOM     11  C   UNL     1       9.456   8.294  43.602  1.00  0.00    -0.000 C 
BRANCH  11  12
ATOM     12  C   UNL     1       9.421   8.832  45.043  1.00  0.00    -0.000 C 
BRANCH  12  13
ATOM     13  C   UNL     1      10.789   9.348  45.511  1.00  0.00    -0.003 C 
ATOM     14  C   UNL     1      11.906   8.323  45.315  1.00  0.00     0.004 C 
ENDBRANCH  12  13
ENDBRANCH  11  12
ENDBRANCH  10  11
ENDBRANCH   9  10
ENDBRANCH   1   9
TORSDOF 10
ENDMDL
MODEL 5
REMARK VINA RESULT:    -4.982      1.809      3.185
REMARK INTER + INTRA:          -8.412
REMARK INTER:                  -7.286
REMARK INTRA:                  -1.126
REMARK UNBOUND:                -0.518
REMARK SMILES CCCCCCCCCCCC(=O)[O-]
REMARK SMILES IDX 7 1 8 2 9 3 10 4 11 5 12 6 13 7 14 8 6 9 5 10 4 11 3 12 2 13
REMARK SMILES IDX 1 14
REMARK H PARENT
REMARK Flexibility Score: inf
ROOT
ATOM      1  C   UNL     1       9.008   8.047  42.461  1.00  0.00     0.000 C 
ENDROOT
BRANCH   1   2
ATOM      2  C   UNL     1       8.671   8.828  41.182  1.00  0.00     0.000 C 
BRANCH   2   3
ATOM      3  C   UNL     1       7.719  10.012  41.456  1.00  0.00     0.000 C 
BRANCH   3   4
ATOM      4  C   UNL     1       8.268  11.367  40.975  1.00  0.00     0.006 C 
BRANCH   4   5
ATOM      5  C   UNL     1       8.800  12.235  42.121  1.00  0.00     0.053 C 
BRANCH   5   6
ATOM      6  C   UNL     1       8.798  13.678  41.726  1.00  0.00     0.041 C 
ATOM      7  O   UNL     1       8.403  14.556  42.537  1.00  0.00    -0.550 OA
ATOM      8  O   UNL     1       9.277  14.058  40.478  1.00  0.00    -0.550 OA
ENDBRANCH   5   6
ENDBRANCH   4   5
ENDBRANCH   3   4
ENDBRANCH   2   3
ENDBRANCH   1   2
BRANCH   1   9
ATOM      9  C   UNL     1       7.817   8.026  43.426  1.00  0.00     0.000 C 
BRANCH   9  10
ATOM     10  C   UNL     1       8.262   8.364  44.857  1.00  0.00    -0.000 C 
BRANCH  10  11
ATOM     11  C   UNL     1       8.724   9.822  45.004  1.00  0.00    -0.000 C 
BRANCH  11  12
ATOM     12  C   UNL     1      10.238   9.942  45.252  1.00  0.00    -0.000 C 
BRANCH  12  13
ATOM     13  C   UNL     1      10.871   8.609  45.679  1.00  0.00    -0.003 C 
ATOM     14  C   UNL     1      12.152   8.290  44.909  1.00  0.00     0.004 C 
ENDBRANCH  12  13
ENDBRANCH  11  12
ENDBRANCH  10  11
ENDBRANCH   9  10
ENDBRANCH   1   9
TORSDOF 10
ENDMDL
MODEL 6
REMARK VINA RESULT:    -4.941      2.318      3.027
REMARK INTER + INTRA:          -8.348
REMARK INTER:                  -7.687
REMARK INTRA:                  -0.661
REMARK UNBOUND:                -0.518
REMARK SMILES CCCCCCCCCCCC(=O)[O-]
REMARK SMILES IDX 7 1 8 2 9 3 10 4 11 5 12 6 13 7 14 8 6 9 5 10 4 11 3 12 2 13
REMARK SMILES IDX 1 14
REMARK H PARENT
REMARK Flexibility Score: inf
ROOT
ATOM      1  C   UNL     1       9.169   9.138  40.023  1.00  0.00     0.000 C 
ENDROOT
BRANCH   1   2
ATOM      2  C   UNL     1       8.648  10.269  39.125  1.00  0.00     0.000 C 
BRANCH   2   3
ATOM      3  C   UNL     1       9.788  11.158  38.584  1.00  0.00     0.000 C 
BRANCH   3   4
ATOM      4  C   UNL     1       9.877  12.531  39.273  1.00  0.00     0.006 C 
BRANCH   4   5
ATOM      5  C   UNL     1       8.651  12.846  40.137  1.00  0.00     0.053 C 
BRANCH   5   6
ATOM      6  C   UNL     1       9.076  13.335  41.486  1.00  0.00     0.041 C 
ATOM      7  O   UNL     1       8.662  12.761  42.528  1.00  0.00    -0.550 OA
ATOM      8  O   UNL     1       9.967  14.396  41.592  1.00  0.00    -0.550 OA
ENDBRANCH   5   6
ENDBRANCH   4   5
ENDBRANCH   3   4
ENDBRANCH   2   3
ENDBRANCH   1   2
BRANCH   1   9
ATOM      9  C   UNL     1       8.686   9.313  41.468  1.00  0.00     0.000 C 
BRANCH   9  10
ATOM     10  C   UNL     1       8.705   7.974  42.221  1.00  0.00    -0.000 C 
BRANCH  10  11
ATOM     11  C   UNL     1       9.710   7.964  43.383  1.00  0.00    -0.000 C 
BRANCH  11  12
ATOM     12  C   UNL     1       9.358   8.986  44.478  1.00  0.00    -0.000 C 
BRANCH  12  13
ATOM     13  C   UNL     1      10.557   9.318  45.379  1.00  0.00    -0.003 C 
ATOM     14  C   UNL     1      11.658   8.260  45.310  1.00  0.00     0.004 C 
ENDBRANCH  12  13
ENDBRANCH  11  12
ENDBRANCH  10  11
ENDBRANCH   9  10
ENDBRANCH   1   9
TORSDOF 10
ENDMDL
MODEL 7
REMARK VINA RESULT:    -4.926     11.439     12.323
REMARK INTER + INTRA:          -8.324
REMARK INTER:                  -7.411
REMARK INTRA:                  -0.914
REMARK UNBOUND:                -0.518
REMARK SMILES CCCCCCCCCCCC(=O)[O-]
REMARK SMILES IDX 7 1 8 2 9 3 10 4 11 5 12 6 13 7 14 8 6 9 5 10 4 11 3 12 2 13
REMARK SMILES IDX 1 14
REMARK H PARENT
REMARK Flexibility Score: inf
ROOT
ATOM      1  C   UNL     1      21.058  13.520  43.486  1.00  0.00     0.000 C 
ENDROOT
BRANCH   1   2
ATOM      2  C   UNL     1      19.835  14.416  43.736  1.00  0.00     0.000 C 
BRANCH   2   3
ATOM      3  C   UNL     1      19.441  15.228  42.485  1.00  0.00     0.000 C 
BRANCH   3   4
ATOM      4  C   UNL     1      20.265  16.513  42.299  1.00  0.00     0.006 C 
BRANCH   4   5
ATOM      5  C   UNL     1      21.276  16.413  41.152  1.00  0.00     0.053 C 
BRANCH   5   6
ATOM      6  C   UNL     1      22.669  16.598  41.666  1.00  0.00     0.041 C 
ATOM      7  O   UNL     1      23.396  15.597  41.901  1.00  0.00    -0.550 OA
ATOM      8  O   UNL     1      23.182  17.878  41.840  1.00  0.00    -0.550 OA
ENDBRANCH   5   6
ENDBRANCH   4   5
ENDBRANCH   3   4
ENDBRANCH   2   3
ENDBRANCH   1   2
BRANCH   1   9
ATOM      9  C   UNL     1      20.689  12.315  42.613  1.00  0.00     0.000 C 
BRANCH   9  10
ATOM     10  C   UNL     1      21.628  11.130  42.886  1.00  0.00    -0.000 C 
BRANCH  10  11
ATOM     11  C   UNL     1      20.943  10.002  43.673  1.00  0.00    -0.000 C 
BRANCH  11  12
ATOM     12  C   UNL     1      21.162  10.122  45.191  1.00  0.00    -0.000 C 
BRANCH  12  13
ATOM     13  C   UNL     1      19.847  10.315  45.961  1.00  0.00    -0.003 C 
ATOM     14  C   UNL     1      19.529  11.787  46.225  1.00  0.00     0.004 C 
ENDBRANCH  12  13
ENDBRANCH  11  12
ENDBRANCH  10  11
ENDBRANCH   9  10
ENDBRANCH   1   9
TORSDOF 10
ENDMDL
MODEL 8
REMARK VINA RESULT:    -4.849      1.878      2.893
REMARK INTER + INTRA:          -8.201
REMARK INTER:                  -7.456
REMARK INTRA:                  -0.745
REMARK UNBOUND:                -0.518
REMARK SMILES CCCCCCCCCCCC(=O)[O-]
REMARK SMILES IDX 7 1 8 2 9 3 10 4 11 5 12 6 13 7 14 8 6 9 5 10 4 11 3 12 2 13
REMARK SMILES IDX 1 14
REMARK H PARENT
REMARK Flexibility Score: inf
ROOT
ATOM      1  C   UNL     1       9.769  12.411  38.903  1.00  0.00     0.000 C 
ENDROOT
BRANCH   1   2
ATOM      2  C   UNL     1       9.111  12.704  40.259  1.00  0.00     0.000 C 
BRANCH   2   3
ATOM      3  C   UNL     1       9.012  14.217  40.545  1.00  0.00     0.000 C 
BRANCH   3   4
ATOM      4  C   UNL     1       9.896  14.682  41.715  1.00  0.00     0.006 C 
BRANCH   4   5
ATOM      5  C   UNL     1       9.839  16.196  41.942  1.00  0.00     0.053 C 
BRANCH   5   6
ATOM      6  C   UNL     1       8.494  16.596  42.463  1.00  0.00     0.041 C 
ATOM      7  O   UNL     1       8.152  16.289  43.635  1.00  0.00    -0.550 OA
ATOM      8  O   UNL     1       7.637  17.349  41.671  1.00  0.00    -0.550 OA
ENDBRANCH   5   6
ENDBRANCH   4   5
ENDBRANCH   3   4
ENDBRANCH   2   3
ENDBRANCH   1   2
BRANCH   1   9
ATOM      9  C   UNL     1       9.800  10.905  38.619  1.00  0.00     0.000 C 
BRANCH   9  10
ATOM     10  C   UNL     1       8.587  10.202  39.246  1.00  0.00    -0.000 C 
BRANCH  10  11
ATOM     11  C   UNL     1       8.985   8.997  40.113  1.00  0.00    -0.000 C 
BRANCH  11  12
ATOM     12  C   UNL     1       8.028   8.780  41.299  1.00  0.00    -0.000 C 
BRANCH  12  13
ATOM     13  C   UNL     1       8.687   9.092  42.651  1.00  0.00    -0.003 C 
ATOM     14  C   UNL     1       8.476  10.541  43.090  1.00  0.00     0.004 C 
ENDBRANCH  12  13
ENDBRANCH  11  12
ENDBRANCH  10  11
ENDBRANCH   9  10
ENDBRANCH   1   9
TORSDOF 10
ENDMDL
MODEL 9
REMARK VINA RESULT:    -4.833      1.239      1.700
REMARK INTER + INTRA:          -8.176
REMARK INTER:                  -7.691
REMARK INTRA:                  -0.485
REMARK UNBOUND:                -0.518
REMARK SMILES CCCCCCCCCCCC(=O)[O-]
REMARK SMILES IDX 7 1 8 2 9 3 10 4 11 5 12 6 13 7 14 8 6 9 5 10 4 11 3 12 2 13
REMARK SMILES IDX 1 14
REMARK H PARENT
REMARK Flexibility Score: inf
ROOT
ATOM      1  C   UNL     1       8.252  11.230  42.717  1.00  0.00     0.000 C 
ENDROOT
BRANCH   1   2
ATOM      2  C   UNL     1       6.979  11.610  41.945  1.00  0.00     0.000 C 
BRANCH   2   3
ATOM      3  C   UNL     1       6.912  13.121  41.639  1.00  0.00     0.000 C 
BRANCH   3   4
ATOM      4  C   UNL     1       8.019  13.939  42.326  1.00  0.00     0.006 C 
BRANCH   4   5
ATOM      5  C   UNL     1       8.541  15.086  41.455  1.00  0.00     0.053 C 
BRANCH   5   6
ATOM      6  C   UNL     1       8.993  16.227  42.311  1.00  0.00     0.041 C 
ATOM      7  O   UNL     1      10.020  16.885  41.999  1.00  0.00    -0.550 OA
ATOM      8  O   UNL     1       8.253  16.594  43.428  1.00  0.00    -0.550 OA
ENDBRANCH   5   6
ENDBRANCH   4   5
ENDBRANCH   3   4
ENDBRANCH   2   3
ENDBRANCH   1   2
BRANCH   1   9
ATOM      9  C   UNL     1       8.479   9.714  42.695  1.00  0.00     0.000 C 
BRANCH   9  10
ATOM     10  C   UNL     1       7.888   9.051  43.949  1.00  0.00    -0.000 C 
BRANCH  10  11
ATOM     11  C   UNL     1       8.403   9.685  45.251  1.00  0.00    -0.000 C 
BRANCH  11  12
ATOM     12  C   UNL     1       9.939   9.748  45.311  1.00  0.00    -0.000 C 
BRANCH  12  13
ATOM     13  C   UNL     1      10.568   8.399  45.691  1.00  0.00    -0.003 C 
ATOM     14  C   UNL     1      12.002   8.252  45.183  1.00  0.00     0.004 C 
ENDBRANCH  12  13
ENDBRANCH  11  12
ENDBRANCH  10  11
ENDBRANCH   9  10
ENDBRANCH   1   9
TORSDOF 10
ENDMDL
