MODEL 1
REMARK VINA RESULT:    -5.192      0.000      0.000
REMARK INTER + INTRA:          -5.530
REMARK INTER:                  -5.496
REMARK INTRA:                  -0.034
REMARK UNBOUND:                -0.034
REMARK SMILES COc1ccc2ccc(=O)oc2c1
REMARK SMILES IDX 3 1 13 2 12 3 6 4 5 5 4 6 7 7 8 8 9 9 10 10 11 11 2 12 1 13
REMARK H PARENT
REMARK Flexibility Score: inf
ROOT
ATOM      1  C   UNL     1     -16.966 -45.041  -3.417  1.00  0.00     0.122 A 
ATOM      2  C   UNL     1     -16.648 -46.056  -2.505  1.00  0.00     0.094 A 
ATOM      3  C   UNL     1     -15.617 -46.961  -2.779  1.00  0.00     0.142 A 
ATOM      4  C   UNL     1     -14.891 -46.852  -3.983  1.00  0.00     0.018 A 
ATOM      5  C   UNL     1     -15.203 -45.839  -4.899  1.00  0.00     0.016 A 
ATOM      6  C   UNL     1     -16.235 -44.938  -4.618  1.00  0.00     0.047 A 
ATOM      7  C   UNL     1     -13.865 -47.771  -4.230  1.00  0.00     0.019 A 
ATOM      8  C   UNL     1     -13.594 -48.761  -3.285  1.00  0.00     0.094 A 
ATOM      9  C   UNL     1     -14.356 -48.808  -2.113  1.00  0.00     0.336 A 
ATOM     10  O   UNL     1     -14.126 -49.694  -1.250  1.00  0.00    -0.246 OA
ATOM     11  O   UNL     1     -15.326 -47.921  -1.905  1.00  0.00    -0.423 OA
ENDROOT
BRANCH   1  12
ATOM     12  O   UNL     1     -18.009 -44.159  -3.094  1.00  0.00    -0.497 OA
ATOM     13  C   UNL     1     -17.898 -43.092  -2.159  1.00  0.00     0.278 C 
ENDBRANCH   1  12
TORSDOF 1
ENDMDL
MODEL 2
REMARK VINA RESULT:    -5.145      3.576      4.308
REMARK INTER + INTRA:          -5.479
REMARK INTER:                  -5.436
REMARK INTRA:                  -0.043
REMARK UNBOUND:                -0.034
REMARK SMILES COc1ccc2ccc(=O)oc2c1
REMARK SMILES IDX 3 1 13 2 12 3 6 4 5 5 4 6 7 7 8 8 9 9 10 10 11 11 2 12 1 13
REMARK H PARENT
REMARK Flexibility Score: inf
ROOT
ATOM      1  C   UNL     1     -11.339 -44.799  -1.406  1.00  0.00     0.122 A 
ATOM      2  C   UNL     1     -12.464 -45.611  -1.209  1.00  0.00     0.094 A 
ATOM      3  C   UNL     1     -12.856 -46.531  -2.187  1.00  0.00     0.142 A 
ATOM      4  C   UNL     1     -12.113 -46.644  -3.381  1.00  0.00     0.018 A 
ATOM      5  C   UNL     1     -10.986 -45.836  -3.583  1.00  0.00     0.016 A 
ATOM      6  C   UNL     1     -10.601 -44.918  -2.601  1.00  0.00     0.047 A 
ATOM      7  C   UNL     1     -12.528 -47.574  -4.340  1.00  0.00     0.019 A 
ATOM      8  C   UNL     1     -13.656 -48.355  -4.091  1.00  0.00     0.094 A 
ATOM      9  C   UNL     1     -14.344 -48.188  -2.884  1.00  0.00     0.336 A 
ATOM     10  O   UNL     1     -15.364 -48.884  -2.641  1.00  0.00    -0.246 OA
ATOM     11  O   UNL     1     -13.927 -47.296  -1.989  1.00  0.00    -0.423 OA
ENDROOT
BRANCH   1  12
ATOM     12  O   UNL     1     -10.989 -43.892  -0.394  1.00  0.00    -0.497 OA
ATOM     13  C   UNL     1     -11.704 -43.736   0.828  1.00  0.00     0.278 C 
ENDBRANCH   1  12
TORSDOF 1
ENDMDL
MODEL 3
REMARK VINA RESULT:    -5.137      2.969      4.454
REMARK INTER + INTRA:          -5.471
REMARK INTER:                  -5.429
REMARK INTRA:                  -0.042
REMARK UNBOUND:                -0.034
REMARK SMILES COc1ccc2ccc(=O)oc2c1
REMARK SMILES IDX 3 1 13 2 12 3 6 4 5 5 4 6 7 7 8 8 9 9 10 10 11 11 2 12 1 13
REMARK H PARENT
REMARK Flexibility Score: inf
ROOT
ATOM      1  C   UNL     1     -12.930 -47.658  -5.693  1.00  0.00     0.122 A 
ATOM      2  C   UNL     1     -12.957 -46.802  -4.583  1.00  0.00     0.094 A 
ATOM      3  C   UNL     1     -13.685 -47.144  -3.439  1.00  0.00     0.142 A 
ATOM      4  C   UNL     1     -14.399 -48.360  -3.400  1.00  0.00     0.018 A 
ATOM      5  C   UNL     1     -14.375 -49.221  -4.506  1.00  0.00     0.016 A 
ATOM      6  C   UNL     1     -13.645 -48.871  -5.646  1.00  0.00     0.047 A 
ATOM      7  C   UNL     1     -15.118 -48.675  -2.242  1.00  0.00     0.019 A 
ATOM      8  C   UNL     1     -15.109 -47.785  -1.169  1.00  0.00     0.094 A 
ATOM      9  C   UNL     1     -14.379 -46.596  -1.279  1.00  0.00     0.336 A 
ATOM     10  O   UNL     1     -14.359 -45.781  -0.321  1.00  0.00    -0.246 OA
ATOM     11  O   UNL     1     -13.704 -46.322  -2.393  1.00  0.00    -0.423 OA
ENDROOT
BRANCH   1  12
ATOM     12  O   UNL     1     -12.184 -47.268  -6.815  1.00  0.00    -0.497 OA
ATOM     13  C   UNL     1     -11.781 -45.930  -7.087  1.00  0.00     0.278 C 
ENDBRANCH   1  12
TORSDOF 1
ENDMDL
MODEL 4
REMARK VINA RESULT:    -5.128      3.868      4.990
REMARK INTER + INTRA:          -5.461
REMARK INTER:                  -5.427
REMARK INTRA:                  -0.035
REMARK UNBOUND:                -0.034
REMARK SMILES COc1ccc2ccc(=O)oc2c1
REMARK SMILES IDX 3 1 13 2 12 3 6 4 5 5 4 6 7 7 8 8 9 9 10 10 11 11 2 12 1 13
REMARK H PARENT
REMARK Flexibility Score: inf
ROOT
ATOM      1  C   UNL     1     -10.792 -45.121  -2.796  1.00  0.00     0.122 A 
ATOM      2  C   UNL     1     -11.163 -45.987  -3.835  1.00  0.00     0.094 A 
ATOM      3  C   UNL     1     -12.191 -46.917  -3.652  1.00  0.00     0.142 A 
ATOM      4  C   UNL     1     -12.862 -46.986  -2.412  1.00  0.00     0.018 A 
ATOM      5  C   UNL     1     -12.496 -46.123  -1.371  1.00  0.00     0.016 A 
ATOM      6  C   UNL     1     -11.467 -45.196  -1.561  1.00  0.00     0.047 A 
ATOM      7  C   UNL     1     -13.886 -47.926  -2.259  1.00  0.00     0.019 A 
ATOM      8  C   UNL     1     -14.212 -48.761  -3.328  1.00  0.00     0.094 A 
ATOM      9  C   UNL     1     -13.504 -48.637  -4.527  1.00  0.00     0.336 A 
ATOM     10  O   UNL     1     -13.783 -49.382  -5.502  1.00  0.00    -0.246 OA
ATOM     11  O   UNL     1     -12.533 -47.733  -4.645  1.00  0.00    -0.423 OA
ENDROOT
BRANCH   1  12
ATOM     12  O   UNL     1      -9.754 -44.207  -3.032  1.00  0.00    -0.497 OA
ATOM     13  C   UNL     1      -9.557 -43.007  -2.292  1.00  0.00     0.278 C 
ENDBRANCH   1  12
TORSDOF 1
ENDMDL
MODEL 5
REMARK VINA RESULT:    -5.120      3.744      4.700
REMARK INTER + INTRA:          -5.453
REMARK INTER:                  -5.420
REMARK INTRA:                  -0.033
REMARK UNBOUND:                -0.034
REMARK SMILES COc1ccc2ccc(=O)oc2c1
REMARK SMILES IDX 3 1 13 2 12 3 6 4 5 5 4 6 7 7 8 8 9 9 10 10 11 11 2 12 1 13
REMARK H PARENT
REMARK Flexibility Score: inf
ROOT
ATOM      1  C   UNL     1     -11.099 -45.380  -4.942  1.00  0.00     0.122 A 
ATOM      2  C   UNL     1     -11.531 -46.136  -3.844  1.00  0.00     0.094 A 
ATOM      3  C   UNL     1     -12.433 -47.191  -4.017  1.00  0.00     0.142 A 
ATOM      4  C   UNL     1     -12.912 -47.499  -5.308  1.00  0.00     0.018 A 
ATOM      5  C   UNL     1     -12.484 -46.747  -6.410  1.00  0.00     0.016 A 
ATOM      6  C   UNL     1     -11.582 -45.694  -6.229  1.00  0.00     0.047 A 
ATOM      7  C   UNL     1     -13.813 -48.559  -5.450  1.00  0.00     0.019 A 
ATOM      8  C   UNL     1     -14.208 -49.277  -4.321  1.00  0.00     0.094 A 
ATOM      9  C   UNL     1     -13.691 -48.915  -3.072  1.00  0.00     0.336 A 
ATOM     10  O   UNL     1     -14.036 -49.550  -2.042  1.00  0.00    -0.246 OA
ATOM     11  O   UNL     1     -12.836 -47.901  -2.966  1.00  0.00    -0.423 OA
ENDROOT
BRANCH   1  12
ATOM     12  O   UNL     1     -10.194 -44.333  -4.714  1.00  0.00    -0.497 OA
ATOM     13  C   UNL     1      -8.787 -44.430  -4.903  1.00  0.00     0.278 C 
ENDBRANCH   1  12
TORSDOF 1
ENDMDL
MODEL 6
REMARK VINA RESULT:    -5.087      4.599      5.824
REMARK INTER + INTRA:          -5.418
REMARK INTER:                  -5.384
REMARK INTRA:                  -0.034
REMARK UNBOUND:                -0.034
REMARK SMILES COc1ccc2ccc(=O)oc2c1
REMARK SMILES IDX 3 1 13 2 12 3 6 4 5 5 4 6 7 7 8 8 9 9 10 10 11 11 2 12 1 13
REMARK H PARENT
REMARK Flexibility Score: inf
ROOT
ATOM      1  C   UNL     1     -12.973 -47.239  -2.761  1.00  0.00     0.122 A 
ATOM      2  C   UNL     1     -12.048 -46.799  -3.717  1.00  0.00     0.094 A 
ATOM      3  C   UNL     1     -11.160 -45.759  -3.421  1.00  0.00     0.142 A 
ATOM      4  C   UNL     1     -11.196 -45.147  -2.150  1.00  0.00     0.018 A 
ATOM      5  C   UNL     1     -12.119 -45.583  -1.190  1.00  0.00     0.016 A 
ATOM      6  C   UNL     1     -13.003 -46.623  -1.494  1.00  0.00     0.047 A 
ATOM      7  C   UNL     1     -10.297 -44.110  -1.884  1.00  0.00     0.019 A 
ATOM      8  C   UNL     1      -9.397 -43.714  -2.874  1.00  0.00     0.094 A 
ATOM      9  C   UNL     1      -9.420 -44.367  -4.111  1.00  0.00     0.336 A 
ATOM     10  O   UNL     1      -8.616 -44.023  -5.017  1.00  0.00    -0.246 OA
ATOM     11  O   UNL     1     -10.287 -45.350  -4.338  1.00  0.00    -0.423 OA
ENDROOT
BRANCH   1  12
ATOM     12  O   UNL     1     -13.841 -48.286  -3.108  1.00  0.00    -0.497 OA
ATOM     13  C   UNL     1     -15.149 -48.457  -2.572  1.00  0.00     0.278 C 
ENDBRANCH   1  12
TORSDOF 1
ENDMDL
MODEL 7
REMARK VINA RESULT:    -5.083      3.892      5.644
REMARK INTER + INTRA:          -5.414
REMARK INTER:                  -5.374
REMARK INTRA:                  -0.039
REMARK UNBOUND:                -0.034
REMARK SMILES COc1ccc2ccc(=O)oc2c1
REMARK SMILES IDX 3 1 13 2 12 3 6 4 5 5 4 6 7 7 8 8 9 9 10 10 11 11 2 12 1 13
REMARK H PARENT
REMARK Flexibility Score: inf
ROOT
ATOM      1  C   UNL     1     -17.120 -44.857   2.426  1.00  0.00     0.122 A 
ATOM      2  C   UNL     1     -16.406 -45.263   1.290  1.00  0.00     0.094 A 
ATOM      3  C   UNL     1     -17.009 -45.249   0.029  1.00  0.00     0.142 A 
ATOM      4  C   UNL     1     -18.348 -44.823  -0.103  1.00  0.00     0.018 A 
ATOM      5  C   UNL     1     -19.066 -44.415   1.028  1.00  0.00     0.016 A 
ATOM      6  C   UNL     1     -18.456 -44.432   2.286  1.00  0.00     0.047 A 
ATOM      7  C   UNL     1     -18.925 -44.819  -1.378  1.00  0.00     0.019 A 
ATOM      8  C   UNL     1     -18.166 -45.234  -2.472  1.00  0.00     0.094 A 
ATOM      9  C   UNL     1     -16.845 -45.645  -2.265  1.00  0.00     0.336 A 
ATOM     10  O   UNL     1     -16.145 -46.023  -3.240  1.00  0.00    -0.246 OA
ATOM     11  O   UNL     1     -16.321 -45.638  -1.042  1.00  0.00    -0.423 OA
ENDROOT
BRANCH   1  12
ATOM     12  O   UNL     1     -16.468 -44.891   3.668  1.00  0.00    -0.497 OA
ATOM     13  C   UNL     1     -15.110 -44.513   3.874  1.00  0.00     0.278 C 
ENDBRANCH   1  12
TORSDOF 1
ENDMDL
MODEL 8
REMARK VINA RESULT:    -5.070      2.955      3.739
REMARK INTER + INTRA:          -5.400
REMARK INTER:                  -5.366
REMARK INTRA:                  -0.034
REMARK UNBOUND:                -0.034
REMARK SMILES COc1ccc2ccc(=O)oc2c1
REMARK SMILES IDX 3 1 13 2 12 3 6 4 5 5 4 6 7 7 8 8 9 9 10 10 11 11 2 12 1 13
REMARK H PARENT
REMARK Flexibility Score: inf
ROOT
ATOM      1  C   UNL     1     -14.444 -46.497  -1.283  1.00  0.00     0.122 A 
ATOM      2  C   UNL     1     -13.744 -46.205  -2.461  1.00  0.00     0.094 A 
ATOM      3  C   UNL     1     -13.726 -47.116  -3.523  1.00  0.00     0.142 A 
ATOM      4  C   UNL     1     -14.419 -48.340  -3.407  1.00  0.00     0.018 A 
ATOM      5  C   UNL     1     -15.121 -48.637  -2.232  1.00  0.00     0.016 A 
ATOM      6  C   UNL     1     -15.134 -47.722  -1.175  1.00  0.00     0.047 A 
ATOM      7  C   UNL     1     -14.383 -49.230  -4.485  1.00  0.00     0.019 A 
ATOM      8  C   UNL     1     -13.670 -48.886  -5.633  1.00  0.00     0.094 A 
ATOM      9  C   UNL     1     -13.007 -47.655  -5.676  1.00  0.00     0.336 A 
ATOM     10  O   UNL     1     -12.358 -47.327  -6.703  1.00  0.00    -0.246 OA
ATOM     11  O   UNL     1     -13.057 -46.826  -4.636  1.00  0.00    -0.423 OA
ENDROOT
BRANCH   1  12
ATOM     12  O   UNL     1     -14.430 -45.549  -0.249  1.00  0.00    -0.497 OA
ATOM     13  C   UNL     1     -15.508 -45.329   0.655  1.00  0.00     0.278 C 
ENDBRANCH   1  12
TORSDOF 1
ENDMDL
MODEL 9
REMARK VINA RESULT:    -5.050      3.607      4.992
REMARK INTER + INTRA:          -5.379
REMARK INTER:                  -5.341
REMARK INTRA:                  -0.038
REMARK UNBOUND:                -0.034
REMARK SMILES COc1ccc2ccc(=O)oc2c1
REMARK SMILES IDX 3 1 13 2 12 3 6 4 5 5 4 6 7 7 8 8 9 9 10 10 11 11 2 12 1 13
REMARK H PARENT
REMARK Flexibility Score: inf
ROOT
ATOM      1  C   UNL     1     -13.798 -48.825  -3.186  1.00  0.00     0.122 A 
ATOM      2  C   UNL     1     -12.941 -47.716  -3.170  1.00  0.00     0.094 A 
ATOM      3  C   UNL     1     -12.518 -47.128  -4.366  1.00  0.00     0.142 A 
ATOM      4  C   UNL     1     -12.956 -47.653  -5.600  1.00  0.00     0.018 A 
ATOM      5  C   UNL     1     -13.814 -48.761  -5.622  1.00  0.00     0.016 A 
ATOM      6  C   UNL     1     -14.232 -49.344  -4.422  1.00  0.00     0.047 A 
ATOM      7  C   UNL     1     -12.516 -47.043  -6.779  1.00  0.00     0.019 A 
ATOM      8  C   UNL     1     -11.663 -45.942  -6.702  1.00  0.00     0.094 A 
ATOM      9  C   UNL     1     -11.270 -45.476  -5.443  1.00  0.00     0.336 A 
ATOM     10  O   UNL     1     -10.500 -44.484  -5.353  1.00  0.00    -0.246 OA
ATOM     11  O   UNL     1     -11.703 -46.076  -4.336  1.00  0.00    -0.423 OA
ENDROOT
BRANCH   1  12
ATOM     12  O   UNL     1     -14.193 -49.378  -1.959  1.00  0.00    -0.497 OA
ATOM     13  C   UNL     1     -14.714 -48.626  -0.868  1.00  0.00     0.278 C 
ENDBRANCH   1  12
TORSDOF 1
ENDMDL
