MODEL 1
REMARK VINA RESULT:    -4.241      0.000      0.000
REMARK INTER + INTRA:          -7.115
REMARK INTER:                  -5.853
REMARK INTRA:                  -1.261
REMARK UNBOUND:                -1.261
REMARK SMILES CCCCc1cccc(O)c1CCCC
REMARK SMILES IDX 5 1 11 2 9 3 8 4 7 5 6 6 4 7 3 8 2 9 1 10 12 11 13 12 14 13
REMARK SMILES IDX 15 14 10 15
REMARK H PARENT 10 16
REMARK Flexibility Score: inf
ROOT
ATOM      1  C   UNL     1      13.045   4.049  18.406  1.00  0.00    -0.041 A 
ATOM      2  C   UNL     1      14.199   3.718  17.635  1.00  0.00    -0.003 A 
ATOM      3  C   UNL     1      15.317   3.145  18.284  1.00  0.00     0.119 A 
ATOM      4  C   UNL     1      15.299   2.931  19.666  1.00  0.00     0.046 A 
ATOM      5  C   UNL     1      14.182   3.280  20.419  1.00  0.00     0.004 A 
ATOM      6  C   UNL     1      13.066   3.831  19.795  1.00  0.00     0.004 A 
ENDROOT
BRANCH   1   7
ATOM      7  C   UNL     1      11.771   4.616  17.803  1.00  0.00     0.036 C 
BRANCH   7   8
ATOM      8  C   UNL     1      11.306   5.920  18.470  1.00  0.00     0.004 C 
BRANCH   8   9
ATOM      9  C   UNL     1      11.309   7.111  17.502  1.00  0.00    -0.003 C 
ATOM     10  C   UNL     1      10.926   6.674  16.091  1.00  0.00     0.004 C 
ENDBRANCH   8   9
ENDBRANCH   7   8
ENDBRANCH   1   7
BRANCH   2  11
ATOM     11  C   UNL     1      14.296   3.996  16.145  1.00  0.00     0.040 C 
BRANCH  11  12
ATOM     12  C   UNL     1      14.460   5.502  15.876  1.00  0.00     0.005 C 
BRANCH  12  13
ATOM     13  C   UNL     1      15.543   6.146  16.755  1.00  0.00    -0.003 C 
ATOM     14  C   UNL     1      15.038   7.380  17.500  1.00  0.00     0.004 C 
ENDBRANCH  12  13
ENDBRANCH  11  12
ENDBRANCH   2  11
BRANCH   3  15
ATOM     15  O   UNL     1      16.448   2.785  17.550  1.00  0.00    -0.508 OA
ATOM     16  H   UNL     1      16.392   2.546  16.566  1.00  0.00     0.293 HD
ENDBRANCH   3  15
TORSDOF 7
ENDMDL
MODEL 2
REMARK VINA RESULT:    -4.225      1.514      3.507
REMARK INTER + INTRA:          -7.093
REMARK INTER:                  -5.778
REMARK INTRA:                  -1.315
REMARK UNBOUND:                -1.261
REMARK SMILES CCCCc1cccc(O)c1CCCC
REMARK SMILES IDX 5 1 11 2 9 3 8 4 7 5 6 6 4 7 3 8 2 9 1 10 12 11 13 12 14 13
REMARK SMILES IDX 15 14 10 15
REMARK H PARENT 10 16
REMARK Flexibility Score: inf
ROOT
ATOM      1  C   UNL     1      14.220   3.665  17.804  1.00  0.00    -0.041 A 
ATOM      2  C   UNL     1      13.188   3.965  18.743  1.00  0.00    -0.003 A 
ATOM      3  C   UNL     1      13.374   3.621  20.102  1.00  0.00     0.119 A 
ATOM      4  C   UNL     1      14.543   2.971  20.513  1.00  0.00     0.046 A 
ATOM      5  C   UNL     1      15.536   2.656  19.590  1.00  0.00     0.004 A 
ATOM      6  C   UNL     1      15.377   3.001  18.251  1.00  0.00     0.004 A 
ENDROOT
BRANCH   1   7
ATOM      7  C   UNL     1      14.149   4.040  16.334  1.00  0.00     0.036 C 
BRANCH   7   8
ATOM      8  C   UNL     1      15.132   5.153  15.937  1.00  0.00     0.004 C 
BRANCH   8   9
ATOM      9  C   UNL     1      14.515   6.554  16.055  1.00  0.00    -0.003 C 
ATOM     10  C   UNL     1      15.218   7.374  17.132  1.00  0.00     0.004 C 
ENDBRANCH   8   9
ENDBRANCH   7   8
ENDBRANCH   1   7
BRANCH   2  11
ATOM     11  C   UNL     1      11.872   4.603  18.336  1.00  0.00     0.040 C 
BRANCH  11  12
ATOM     12  C   UNL     1      11.896   6.122  18.583  1.00  0.00     0.005 C 
BRANCH  12  13
ATOM     13  C   UNL     1      10.940   6.887  17.658  1.00  0.00    -0.003 C 
ATOM     14  C   UNL     1      10.875   6.289  16.254  1.00  0.00     0.004 C 
ENDBRANCH  12  13
ENDBRANCH  11  12
ENDBRANCH   2  11
BRANCH   3  15
ATOM     15  O   UNL     1      12.393   3.927  21.046  1.00  0.00    -0.508 OA
ATOM     16  H   UNL     1      11.976   4.850  21.101  1.00  0.00     0.293 HD
ENDBRANCH   3  15
TORSDOF 7
ENDMDL
MODEL 3
REMARK VINA RESULT:    -3.932      2.386      5.028
REMARK INTER + INTRA:          -6.688
REMARK INTER:                  -5.512
REMARK INTRA:                  -1.176
REMARK UNBOUND:                -1.261
REMARK SMILES CCCCc1cccc(O)c1CCCC
REMARK SMILES IDX 5 1 11 2 9 3 8 4 7 5 6 6 4 7 3 8 2 9 1 10 12 11 13 12 14 13
REMARK SMILES IDX 15 14 10 15
REMARK H PARENT 10 16
REMARK Flexibility Score: inf
ROOT
ATOM      1  C   UNL     1      13.889   5.833  16.161  1.00  0.00    -0.041 A 
ATOM      2  C   UNL     1      12.724   6.649  16.049  1.00  0.00    -0.003 A 
ATOM      3  C   UNL     1      12.873   8.056  16.013  1.00  0.00     0.119 A 
ATOM      4  C   UNL     1      14.141   8.636  16.113  1.00  0.00     0.046 A 
ATOM      5  C   UNL     1      15.272   7.838  16.250  1.00  0.00     0.004 A 
ATOM      6  C   UNL     1      15.148   6.451  16.272  1.00  0.00     0.004 A 
ENDROOT
BRANCH   1   7
ATOM      7  C   UNL     1      13.850   4.314  16.152  1.00  0.00     0.036 C 
BRANCH   7   8
ATOM      8  C   UNL     1      14.690   3.674  17.268  1.00  0.00     0.004 C 
BRANCH   8   9
ATOM      9  C   UNL     1      13.905   3.512  18.577  1.00  0.00    -0.003 C 
ATOM     10  C   UNL     1      14.701   4.042  19.766  1.00  0.00     0.004 C 
ENDBRANCH   8   9
ENDBRANCH   7   8
ENDBRANCH   1   7
BRANCH   2  11
ATOM     11  C   UNL     1      11.321   6.072  16.009  1.00  0.00     0.040 C 
BRANCH  11  12
ATOM     12  C   UNL     1      10.876   5.610  17.408  1.00  0.00     0.005 C 
BRANCH  12  13
ATOM     13  C   UNL     1      10.991   6.720  18.462  1.00  0.00    -0.003 C 
ATOM     14  C   UNL     1      11.702   6.255  19.731  1.00  0.00     0.004 C 
ENDBRANCH  12  13
ENDBRANCH  11  12
ENDBRANCH   2  11
BRANCH   3  15
ATOM     15  O   UNL     1      11.753   8.877  15.875  1.00  0.00    -0.508 OA
ATOM     16  H   UNL     1      11.042   8.697  15.175  1.00  0.00     0.293 HD
ENDBRANCH   3  15
TORSDOF 7
ENDMDL
MODEL 4
REMARK VINA RESULT:    -3.869      2.683      4.996
REMARK INTER + INTRA:          -6.600
REMARK INTER:                  -5.836
REMARK INTRA:                  -0.764
REMARK UNBOUND:                -1.261
REMARK SMILES CCCCc1cccc(O)c1CCCC
REMARK SMILES IDX 5 1 11 2 9 3 8 4 7 5 6 6 4 7 3 8 2 9 1 10 12 11 13 12 14 13
REMARK SMILES IDX 15 14 10 15
REMARK H PARENT 10 16
REMARK Flexibility Score: inf
ROOT
ATOM      1  C   UNL     1      11.597   6.652  19.467  1.00  0.00    -0.041 A 
ATOM      2  C   UNL     1      11.542   5.864  18.278  1.00  0.00    -0.003 A 
ATOM      3  C   UNL     1      11.190   6.487  17.058  1.00  0.00     0.119 A 
ATOM      4  C   UNL     1      10.875   7.849  17.024  1.00  0.00     0.046 A 
ATOM      5  C   UNL     1      10.903   8.608  18.190  1.00  0.00     0.004 A 
ATOM      6  C   UNL     1      11.262   8.016  19.398  1.00  0.00     0.004 A 
ENDROOT
BRANCH   1   7
ATOM      7  C   UNL     1      12.017   6.098  20.818  1.00  0.00     0.036 C 
BRANCH   7   8
ATOM      8  C   UNL     1      11.759   7.067  21.983  1.00  0.00     0.004 C 
BRANCH   8   9
ATOM      9  C   UNL     1      11.525   6.338  23.314  1.00  0.00    -0.003 C 
ATOM     10  C   UNL     1      11.896   4.863  23.205  1.00  0.00     0.004 C 
ENDBRANCH   8   9
ENDBRANCH   7   8
ENDBRANCH   1   7
BRANCH   2  11
ATOM     11  C   UNL     1      11.805   4.369  18.274  1.00  0.00     0.040 C 
BRANCH  11  12
ATOM     12  C   UNL     1      13.226   4.061  17.772  1.00  0.00     0.005 C 
BRANCH  12  13
ATOM     13  C   UNL     1      14.287   4.205  18.873  1.00  0.00    -0.003 C 
ATOM     14  C   UNL     1      14.208   3.090  19.914  1.00  0.00     0.004 C 
ENDBRANCH  12  13
ENDBRANCH  11  12
ENDBRANCH   2  11
BRANCH   3  15
ATOM     15  O   UNL     1      11.156   5.746  15.875  1.00  0.00    -0.508 OA
ATOM     16  H   UNL     1      10.938   6.176  14.983  1.00  0.00     0.293 HD
ENDBRANCH   3  15
TORSDOF 7
ENDMDL
MODEL 5
REMARK VINA RESULT:    -3.820      1.931      4.901
REMARK INTER + INTRA:          -6.532
REMARK INTER:                  -5.488
REMARK INTRA:                  -1.044
REMARK UNBOUND:                -1.261
REMARK SMILES CCCCc1cccc(O)c1CCCC
REMARK SMILES IDX 5 1 11 2 9 3 8 4 7 5 6 6 4 7 3 8 2 9 1 10 12 11 13 12 14 13
REMARK SMILES IDX 15 14 10 15
REMARK H PARENT 10 16
REMARK Flexibility Score: inf
ROOT
ATOM      1  C   UNL     1      13.613   6.335  16.314  1.00  0.00    -0.041 A 
ATOM      2  C   UNL     1      13.043   5.225  17.005  1.00  0.00    -0.003 A 
ATOM      3  C   UNL     1      11.663   5.245  17.315  1.00  0.00     0.119 A 
ATOM      4  C   UNL     1      10.876   6.350  16.972  1.00  0.00     0.046 A 
ATOM      5  C   UNL     1      11.442   7.442  16.321  1.00  0.00     0.004 A 
ATOM      6  C   UNL     1      12.795   7.434  15.994  1.00  0.00     0.004 A 
ENDROOT
BRANCH   1   7
ATOM      7  C   UNL     1      15.069   6.394  15.882  1.00  0.00     0.036 C 
BRANCH   7   8
ATOM      8  C   UNL     1      15.983   7.086  16.905  1.00  0.00     0.004 C 
BRANCH   8   9
ATOM      9  C   UNL     1      17.399   6.493  16.926  1.00  0.00    -0.003 C 
ATOM     10  C   UNL     1      17.374   5.000  16.612  1.00  0.00     0.004 C 
ENDBRANCH   8   9
ENDBRANCH   7   8
ENDBRANCH   1   7
BRANCH   2  11
ATOM     11  C   UNL     1      13.866   4.035  17.464  1.00  0.00     0.040 C 
BRANCH  11  12
ATOM     12  C   UNL     1      14.453   4.279  18.866  1.00  0.00     0.005 C 
BRANCH  12  13
ATOM     13  C   UNL     1      14.176   3.118  19.833  1.00  0.00    -0.003 C 
ATOM     14  C   UNL     1      13.167   3.485  20.919  1.00  0.00     0.004 C 
ENDBRANCH  12  13
ENDBRANCH  11  12
ENDBRANCH   2  11
BRANCH   3  15
ATOM     15  O   UNL     1      11.073   4.161  17.966  1.00  0.00    -0.508 OA
ATOM     16  H   UNL     1      10.503   3.486  17.469  1.00  0.00     0.293 HD
ENDBRANCH   3  15
TORSDOF 7
ENDMDL
MODEL 6
REMARK VINA RESULT:    -3.669      1.966      4.072
REMARK INTER + INTRA:          -6.325
REMARK INTER:                  -5.435
REMARK INTRA:                  -0.890
REMARK UNBOUND:                -1.261
REMARK SMILES CCCCc1cccc(O)c1CCCC
REMARK SMILES IDX 5 1 11 2 9 3 8 4 7 5 6 6 4 7 3 8 2 9 1 10 12 11 13 12 14 13
REMARK SMILES IDX 15 14 10 15
REMARK H PARENT 10 16
REMARK Flexibility Score: inf
ROOT
ATOM      1  C   UNL     1      14.032   3.080  20.258  1.00  0.00    -0.041 A 
ATOM      2  C   UNL     1      13.900   3.382  18.870  1.00  0.00    -0.003 A 
ATOM      3  C   UNL     1      14.932   2.996  17.983  1.00  0.00     0.119 A 
ATOM      4  C   UNL     1      16.076   2.352  18.465  1.00  0.00     0.046 A 
ATOM      5  C   UNL     1      16.213   2.084  19.823  1.00  0.00     0.004 A 
ATOM      6  C   UNL     1      15.202   2.442  20.710  1.00  0.00     0.004 A 
ENDROOT
BRANCH   1   7
ATOM      7  C   UNL     1      12.962   3.398  21.289  1.00  0.00     0.036 C 
BRANCH   7   8
ATOM      8  C   UNL     1      12.786   2.298  22.347  1.00  0.00     0.004 C 
BRANCH   8   9
ATOM      9  C   UNL     1      12.293   2.849  23.693  1.00  0.00    -0.003 C 
ATOM     10  C   UNL     1      11.893   4.317  23.572  1.00  0.00     0.004 C 
ENDBRANCH   8   9
ENDBRANCH   7   8
ENDBRANCH   1   7
BRANCH   2  11
ATOM     11  C   UNL     1      12.713   4.141  18.306  1.00  0.00     0.040 C 
BRANCH  11  12
ATOM     12  C   UNL     1      12.884   5.658  18.506  1.00  0.00     0.005 C 
BRANCH  12  13
ATOM     13  C   UNL     1      11.657   6.311  19.158  1.00  0.00    -0.003 C 
ATOM     14  C   UNL     1      11.948   6.837  20.563  1.00  0.00     0.004 C 
ENDBRANCH  12  13
ENDBRANCH  11  12
ENDBRANCH   2  11
BRANCH   3  15
ATOM     15  O   UNL     1      14.816   3.253  16.616  1.00  0.00    -0.508 OA
ATOM     16  H   UNL     1      14.700   4.195  16.258  1.00  0.00     0.293 HD
ENDBRANCH   3  15
TORSDOF 7
ENDMDL
MODEL 7
REMARK VINA RESULT:    -3.658      2.052      3.977
REMARK INTER + INTRA:          -6.310
REMARK INTER:                  -5.277
REMARK INTRA:                  -1.033
REMARK UNBOUND:                -1.261
REMARK SMILES CCCCc1cccc(O)c1CCCC
REMARK SMILES IDX 5 1 11 2 9 3 8 4 7 5 6 6 4 7 3 8 2 9 1 10 12 11 13 12 14 13
REMARK SMILES IDX 15 14 10 15
REMARK H PARENT 10 16
REMARK Flexibility Score: inf
ROOT
ATOM      1  C   UNL     1      14.274   4.282  17.223  1.00  0.00    -0.041 A 
ATOM      2  C   UNL     1      13.013   4.928  17.395  1.00  0.00    -0.003 A 
ATOM      3  C   UNL     1      12.330   4.785  18.625  1.00  0.00     0.119 A 
ATOM      4  C   UNL     1      12.872   3.999  19.648  1.00  0.00     0.046 A 
ATOM      5  C   UNL     1      14.088   3.348  19.467  1.00  0.00     0.004 A 
ATOM      6  C   UNL     1      14.783   3.489  18.269  1.00  0.00     0.004 A 
ENDROOT
BRANCH   1   7
ATOM      7  C   UNL     1      15.117   4.413  15.967  1.00  0.00     0.036 C 
BRANCH   7   8
ATOM      8  C   UNL     1      16.547   4.906  16.238  1.00  0.00     0.004 C 
BRANCH   8   9
ATOM      9  C   UNL     1      16.594   6.388  16.636  1.00  0.00    -0.003 C 
ATOM     10  C   UNL     1      16.959   6.551  18.108  1.00  0.00     0.004 C 
ENDBRANCH   8   9
ENDBRANCH   7   8
ENDBRANCH   1   7
BRANCH   2  11
ATOM     11  C   UNL     1      12.349   5.732  16.292  1.00  0.00     0.040 C 
BRANCH  11  12
ATOM     12  C   UNL     1      12.811   7.199  16.326  1.00  0.00     0.005 C 
BRANCH  12  13
ATOM     13  C   UNL     1      11.715   8.176  15.875  1.00  0.00    -0.003 C 
ATOM     14  C   UNL     1      10.879   8.700  17.041  1.00  0.00     0.004 C 
ENDBRANCH  12  13
ENDBRANCH  11  12
ENDBRANCH   2  11
BRANCH   3  15
ATOM     15  O   UNL     1      11.109   5.429  18.830  1.00  0.00    -0.508 OA
ATOM     16  H   UNL     1      10.236   4.915  18.877  1.00  0.00     0.293 HD
ENDBRANCH   3  15
TORSDOF 7
ENDMDL
MODEL 8
REMARK VINA RESULT:    -3.651      2.034      4.442
REMARK INTER + INTRA:          -6.300
REMARK INTER:                  -5.126
REMARK INTRA:                  -1.174
REMARK UNBOUND:                -1.261
REMARK SMILES CCCCc1cccc(O)c1CCCC
REMARK SMILES IDX 5 1 11 2 9 3 8 4 7 5 6 6 4 7 3 8 2 9 1 10 12 11 13 12 14 13
REMARK SMILES IDX 15 14 10 15
REMARK H PARENT 10 16
REMARK Flexibility Score: inf
ROOT
ATOM      1  C   UNL     1      13.259   4.558  17.496  1.00  0.00    -0.041 A 
ATOM      2  C   UNL     1      13.586   5.705  16.712  1.00  0.00    -0.003 A 
ATOM      3  C   UNL     1      12.648   6.758  16.612  1.00  0.00     0.119 A 
ATOM      4  C   UNL     1      11.407   6.664  17.250  1.00  0.00     0.046 A 
ATOM      5  C   UNL     1      11.080   5.532  17.991  1.00  0.00     0.004 A 
ATOM      6  C   UNL     1      11.997   4.491  18.114  1.00  0.00     0.004 A 
ENDROOT
BRANCH   1   7
ATOM      7  C   UNL     1      14.212   3.396  17.717  1.00  0.00     0.036 C 
BRANCH   7   8
ATOM      8  C   UNL     1      14.721   3.289  19.162  1.00  0.00     0.004 C 
BRANCH   8   9
ATOM      9  C   UNL     1      15.916   2.334  19.297  1.00  0.00    -0.003 C 
ATOM     10  C   UNL     1      17.107   3.032  19.946  1.00  0.00     0.004 C 
ENDBRANCH   8   9
ENDBRANCH   7   8
ENDBRANCH   1   7
BRANCH   2  11
ATOM     11  C   UNL     1      14.889   5.825  15.942  1.00  0.00     0.040 C 
BRANCH  11  12
ATOM     12  C   UNL     1      15.936   6.611  16.750  1.00  0.00     0.005 C 
BRANCH  12  13
ATOM     13  C   UNL     1      17.024   5.705  17.346  1.00  0.00    -0.003 C 
ATOM     14  C   UNL     1      17.458   4.598  16.388  1.00  0.00     0.004 C 
ENDBRANCH  12  13
ENDBRANCH  11  12
ENDBRANCH   2  11
BRANCH   3  15
ATOM     15  O   UNL     1      12.953   7.904  15.875  1.00  0.00    -0.508 OA
ATOM     16  H   UNL     1      12.363   8.222  15.115  1.00  0.00     0.293 HD
ENDBRANCH   3  15
TORSDOF 7
ENDMDL
MODEL 9
REMARK VINA RESULT:    -3.607      1.357      3.434
REMARK INTER + INTRA:          -6.240
REMARK INTER:                  -5.031
REMARK INTRA:                  -1.209
REMARK UNBOUND:                -1.261
REMARK SMILES CCCCc1cccc(O)c1CCCC
REMARK SMILES IDX 5 1 11 2 9 3 8 4 7 5 6 6 4 7 3 8 2 9 1 10 12 11 13 12 14 13
REMARK SMILES IDX 15 14 10 15
REMARK H PARENT 10 16
REMARK Flexibility Score: inf
ROOT
ATOM      1  C   UNL     1      14.995   6.736  16.574  1.00  0.00    -0.041 A 
ATOM      2  C   UNL     1      15.525   5.429  16.360  1.00  0.00    -0.003 A 
ATOM      3  C   UNL     1      16.906   5.206  16.568  1.00  0.00     0.119 A 
ATOM      4  C   UNL     1      17.744   6.259  16.951  1.00  0.00     0.046 A 
ATOM      5  C   UNL     1      17.228   7.538  17.132  1.00  0.00     0.004 A 
ATOM      6  C   UNL     1      15.868   7.774  16.947  1.00  0.00     0.004 A 
ENDROOT
BRANCH   1   7
ATOM      7  C   UNL     1      13.521   7.074  16.435  1.00  0.00     0.036 C 
BRANCH   7   8
ATOM      8  C   UNL     1      12.802   7.244  17.782  1.00  0.00     0.004 C 
BRANCH   8   9
ATOM      9  C   UNL     1      11.452   6.514  17.826  1.00  0.00    -0.003 C 
ATOM     10  C   UNL     1      10.921   6.255  16.419  1.00  0.00     0.004 C 
ENDBRANCH   8   9
ENDBRANCH   7   8
ENDBRANCH   1   7
BRANCH   2  11
ATOM     11  C   UNL     1      14.674   4.269  15.876  1.00  0.00     0.040 C 
BRANCH  11  12
ATOM     12  C   UNL     1      13.758   3.751  16.999  1.00  0.00     0.005 C 
BRANCH  12  13
ATOM     13  C   UNL     1      14.528   3.433  18.289  1.00  0.00    -0.003 C 
ATOM     14  C   UNL     1      13.871   4.037  19.529  1.00  0.00     0.004 C 
ENDBRANCH  12  13
ENDBRANCH  11  12
ENDBRANCH   2  11
BRANCH   3  15
ATOM     15  O   UNL     1      17.446   3.930  16.394  1.00  0.00    -0.508 OA
ATOM     16  H   UNL     1      17.878   3.649  15.521  1.00  0.00     0.293 HD
ENDBRANCH   3  15
TORSDOF 7
ENDMDL
