MODEL 1
REMARK VINA RESULT:    24.787      0.000      0.000
REMARK INTER + INTRA:          29.751
REMARK INTER:                  29.858
REMARK INTRA:                  -0.107
REMARK UNBOUND:                -0.107
REMARK SMILES O=c1c(O)c(-c2ccc(O)c(O)c2)oc2cc(O)cc(O)c12
REMARK SMILES IDX 5 1 3 2 2 3 1 4 22 5 20 6 19 7 17 8 16 9 15 10 14 11 6 12
REMARK SMILES IDX 7 13 8 14 9 15 13 16 11 17 10 18 12 20 4 22 21 24 18 26
REMARK H PARENT 10 19 12 21 4 23 21 25 18 27
REMARK Flexibility Score: inf
ROOT
ATOM      1  C   UNL     1      -3.902   2.600  14.037  1.00  0.00     0.180 A 
ATOM      2  C   UNL     1      -3.946   2.191  15.384  1.00  0.00     0.208 A 
ATOM      3  C   UNL     1      -5.035   2.583  16.177  1.00  0.00     0.238 A 
ATOM      4  O   UNL     1      -5.090   2.213  17.382  1.00  0.00    -0.285 OA
ATOM      5  C   UNL     1      -6.049   3.389  15.620  1.00  0.00     0.111 A 
ATOM      6  C   UNL     1      -7.177   3.830  16.353  1.00  0.00     0.134 A 
ATOM      7  C   UNL     1      -8.139   4.639  15.728  1.00  0.00     0.093 A 
ATOM      8  C   UNL     1      -7.993   5.014  14.388  1.00  0.00     0.123 A 
ATOM      9  C   UNL     1      -6.881   4.582  13.662  1.00  0.00     0.094 A 
ATOM     10  C   UNL     1      -5.913   3.774  14.265  1.00  0.00     0.146 A 
ATOM     11  O   UNL     1      -4.869   3.373  13.550  1.00  0.00    -0.452 OA
ENDROOT
BRANCH   1  12
ATOM     12  C   UNL     1      -2.796   2.212  13.132  1.00  0.00     0.025 A 
ATOM     13  C   UNL     1      -2.088   3.207  12.443  1.00  0.00     0.016 A 
ATOM     14  C   UNL     1      -1.055   2.861  11.569  1.00  0.00     0.051 A 
ATOM     15  C   UNL     1      -0.719   1.521  11.355  1.00  0.00     0.157 A 
ATOM     16  C   UNL     1      -2.478   0.863  12.901  1.00  0.00     0.062 A 
ATOM     17  C   UNL     1      -1.445   0.507  12.024  1.00  0.00     0.158 A 
BRANCH  15  18
ATOM     18  O   UNL     1       0.329   1.244  10.474  1.00  0.00    -0.504 OA
ATOM     19  H   UNL     1       0.232   0.678   9.643  1.00  0.00     0.293 HD
ENDBRANCH  15  18
BRANCH  17  20
ATOM     20  O   UNL     1      -1.181  -0.852  11.845  1.00  0.00    -0.504 OA
ATOM     21  H   UNL     1      -1.897  -1.557  11.744  1.00  0.00     0.293 HD
ENDBRANCH  17  20
ENDBRANCH   1  12
BRANCH   2  22
ATOM     22  O   UNL     1      -2.904   1.433  15.925  1.00  0.00    -0.502 OA
ATOM     23  H   UNL     1      -2.274   0.887  15.350  1.00  0.00     0.293 HD
ENDBRANCH   2  22
BRANCH   6  24
ATOM     24  O   UNL     1      -7.351   3.472  17.690  1.00  0.00    -0.507 OA
ATOM     25  H   UNL     1      -8.271   3.400  18.108  1.00  0.00     0.293 HD
ENDBRANCH   6  24
BRANCH   8  26
ATOM     26  O   UNL     1      -8.947   5.818  13.769  1.00  0.00    -0.508 OA
ATOM     27  H   UNL     1      -9.258   5.639  12.822  1.00  0.00     0.293 HD
ENDBRANCH   8  26
TORSDOF 6
ENDMDL
MODEL 2
REMARK VINA RESULT:    25.139      2.355      6.942
REMARK INTER + INTRA:          30.176
REMARK INTER:                  30.439
REMARK INTRA:                  -0.263
REMARK UNBOUND:                -0.107
REMARK SMILES O=c1c(O)c(-c2ccc(O)c(O)c2)oc2cc(O)cc(O)c12
REMARK SMILES IDX 5 1 3 2 2 3 1 4 22 5 20 6 19 7 17 8 16 9 15 10 14 11 6 12
REMARK SMILES IDX 7 13 8 14 9 15 13 16 11 17 10 18 12 20 4 22 21 24 18 26
REMARK H PARENT 10 19 12 21 4 23 21 25 18 27
REMARK Flexibility Score: inf
ROOT
ATOM      1  C   UNL     1      -6.326   5.404  15.384  1.00  0.00     0.180 A 
ATOM      2  C   UNL     1      -6.565   4.746  16.606  1.00  0.00     0.208 A 
ATOM      3  C   UNL     1      -5.903   3.536  16.866  1.00  0.00     0.238 A 
ATOM      4  O   UNL     1      -6.101   2.944  17.962  1.00  0.00    -0.285 OA
ATOM      5  C   UNL     1      -5.032   2.996  15.898  1.00  0.00     0.111 A 
ATOM      6  C   UNL     1      -4.329   1.781  16.081  1.00  0.00     0.134 A 
ATOM      7  C   UNL     1      -3.487   1.305  15.064  1.00  0.00     0.093 A 
ATOM      8  C   UNL     1      -3.336   2.019  13.871  1.00  0.00     0.123 A 
ATOM      9  C   UNL     1      -4.027   3.218  13.687  1.00  0.00     0.094 A 
ATOM     10  C   UNL     1      -4.868   3.711  14.688  1.00  0.00     0.146 A 
ATOM     11  O   UNL     1      -5.509   4.856  14.488  1.00  0.00    -0.452 OA
ENDROOT
BRANCH   1  12
ATOM     12  C   UNL     1      -6.973   6.692  15.044  1.00  0.00     0.025 A 
ATOM     13  C   UNL     1      -6.527   7.870  15.659  1.00  0.00     0.016 A 
ATOM     14  C   UNL     1      -7.137   9.092  15.369  1.00  0.00     0.051 A 
ATOM     15  C   UNL     1      -8.209   9.161  14.474  1.00  0.00     0.157 A 
ATOM     16  C   UNL     1      -8.066   6.753  14.163  1.00  0.00     0.062 A 
ATOM     17  C   UNL     1      -8.686   7.974  13.869  1.00  0.00     0.158 A 
BRANCH  15  18
ATOM     18  O   UNL     1      -8.770  10.415  14.221  1.00  0.00    -0.504 OA
ATOM     19  H   UNL     1      -8.455  11.271  14.657  1.00  0.00     0.293 HD
ENDBRANCH  15  18
BRANCH  17  20
ATOM     20  O   UNL     1      -9.764   7.960  12.982  1.00  0.00    -0.504 OA
ATOM     21  H   UNL     1      -9.677   8.087  11.985  1.00  0.00     0.293 HD
ENDBRANCH  17  20
ENDBRANCH   1  12
BRANCH   2  22
ATOM     22  O   UNL     1      -7.470   5.277  17.528  1.00  0.00    -0.502 OA
ATOM     23  H   UNL     1      -8.205   5.921  17.259  1.00  0.00     0.293 HD
ENDBRANCH   2  22
BRANCH   6  24
ATOM     24  O   UNL     1      -4.460   1.045  17.259  1.00  0.00    -0.507 OA
ATOM     25  H   UNL     1      -3.654   0.681  17.753  1.00  0.00     0.293 HD
ENDBRANCH   6  24
BRANCH   8  26
ATOM     26  O   UNL     1      -2.500   1.546  12.861  1.00  0.00    -0.508 OA
ATOM     27  H   UNL     1      -2.563   0.592  12.526  1.00  0.00     0.293 HD
ENDBRANCH   8  26
TORSDOF 6
ENDMDL
MODEL 3
REMARK VINA RESULT:    25.517      2.356      4.281
REMARK INTER + INTRA:          30.631
REMARK INTER:                  30.910
REMARK INTRA:                  -0.280
REMARK UNBOUND:                -0.107
REMARK SMILES O=c1c(O)c(-c2ccc(O)c(O)c2)oc2cc(O)cc(O)c12
REMARK SMILES IDX 5 1 3 2 2 3 1 4 22 5 20 6 19 7 17 8 16 9 15 10 14 11 6 12
REMARK SMILES IDX 7 13 8 14 9 15 13 16 11 17 10 18 12 20 4 22 21 24 18 26
REMARK H PARENT 10 19 12 21 4 23 21 25 18 27
REMARK Flexibility Score: inf
ROOT
ATOM      1  C   UNL     1      -5.755   4.012  14.957  1.00  0.00     0.180 A 
ATOM      2  C   UNL     1      -6.940   3.821  14.220  1.00  0.00     0.208 A 
ATOM      3  C   UNL     1      -7.807   4.910  14.036  1.00  0.00     0.238 A 
ATOM      4  O   UNL     1      -8.866   4.754  13.368  1.00  0.00    -0.285 OA
ATOM      5  C   UNL     1      -7.487   6.159  14.605  1.00  0.00     0.111 A 
ATOM      6  C   UNL     1      -8.308   7.304  14.469  1.00  0.00     0.134 A 
ATOM      7  C   UNL     1      -7.924   8.511  15.074  1.00  0.00     0.093 A 
ATOM      8  C   UNL     1      -6.737   8.593  15.810  1.00  0.00     0.123 A 
ATOM      9  C   UNL     1      -5.925   7.466  15.946  1.00  0.00     0.094 A 
ATOM     10  C   UNL     1      -6.288   6.256  15.350  1.00  0.00     0.146 A 
ATOM     11  O   UNL     1      -5.494   5.201  15.491  1.00  0.00    -0.452 OA
ENDROOT
BRANCH   1  12
ATOM     12  C   UNL     1      -4.783   2.917  15.178  1.00  0.00     0.025 A 
ATOM     13  C   UNL     1      -4.672   2.341  16.451  1.00  0.00     0.016 A 
ATOM     14  C   UNL     1      -3.747   1.322  16.687  1.00  0.00     0.051 A 
ATOM     15  C   UNL     1      -2.906   0.870  15.665  1.00  0.00     0.157 A 
ATOM     16  C   UNL     1      -3.923   2.483  14.155  1.00  0.00     0.062 A 
ATOM     17  C   UNL     1      -2.990   1.464  14.384  1.00  0.00     0.158 A 
BRANCH  15  18
ATOM     18  O   UNL     1      -2.008  -0.157  15.965  1.00  0.00    -0.504 OA
ATOM     19  H   UNL     1      -2.253  -1.137  15.967  1.00  0.00     0.293 HD
ENDBRANCH  15  18
BRANCH  17  20
ATOM     20  O   UNL     1      -2.169   1.081  13.320  1.00  0.00    -0.504 OA
ATOM     21  H   UNL     1      -1.929   1.685  12.547  1.00  0.00     0.293 HD
ENDBRANCH  17  20
ENDBRANCH   1  12
BRANCH   2  22
ATOM     22  O   UNL     1      -7.259   2.561  13.708  1.00  0.00    -0.502 OA
ATOM     23  H   UNL     1      -6.577   1.815  13.639  1.00  0.00     0.293 HD
ENDBRANCH   2  22
BRANCH   6  24
ATOM     24  O   UNL     1      -9.498   7.254  13.741  1.00  0.00    -0.507 OA
ATOM     25  H   UNL     1     -10.307   6.746  14.077  1.00  0.00     0.293 HD
ENDBRANCH   6  24
BRANCH   8  26
ATOM     26  O   UNL     1      -6.357   9.791  16.411  1.00  0.00    -0.508 OA
ATOM     27  H   UNL     1      -7.013  10.551  16.539  1.00  0.00     0.293 HD
ENDBRANCH   8  26
TORSDOF 6
ENDMDL
