MODEL 1
REMARK VINA RESULT:    -4.263      0.000      0.000
REMARK INTER + INTRA:         -12.876
REMARK INTER:                  -9.246
REMARK INTRA:                  -3.630
REMARK UNBOUND:                -3.630
REMARK SMILES CCCCCCCCCCCCCCCCCCCCCC(=O)[O-]
REMARK SMILES IDX 12 1 11 2 10 3 9 4 8 5 7 6 6 7 5 8 4 9 3 10 2 11 1 12 13 13
REMARK SMILES IDX 14 14 15 15 16 16 17 17 18 18 19 19 20 20 21 21 22 22 23 23
REMARK SMILES IDX 24 24
REMARK H PARENT
REMARK Flexibility Score: inf
ROOT
ATOM      1  C   UNL     1       9.196 -21.801  23.736  1.00  0.00     0.000 C 
ENDROOT
BRANCH   1   2
ATOM      2  C   UNL     1       7.805 -21.154  23.896  1.00  0.00     0.000 C 
BRANCH   2   3
ATOM      3  C   UNL     1       7.775 -19.618  23.756  1.00  0.00     0.000 C 
BRANCH   3   4
ATOM      4  C   UNL     1       9.055 -18.893  24.213  1.00  0.00    -0.000 C 
BRANCH   4   5
ATOM      5  C   UNL     1       8.910 -18.252  25.602  1.00  0.00    -0.000 C 
BRANCH   5   6
ATOM      6  C   UNL     1       7.447 -18.146  26.058  1.00  0.00    -0.000 C 
BRANCH   6   7
ATOM      7  C   UNL     1       6.910 -16.705  26.018  1.00  0.00    -0.000 C 
BRANCH   7   8
ATOM      8  C   UNL     1       6.335 -16.331  24.633  1.00  0.00    -0.000 C 
BRANCH   8   9
ATOM      9  C   UNL     1       7.180 -15.289  23.879  1.00  0.00    -0.000 C 
BRANCH   9  10
ATOM     10  C   UNL     1       8.158 -14.493  24.765  1.00  0.00    -0.000 C 
BRANCH  10  11
ATOM     11  C   UNL     1       9.646 -14.733  24.424  1.00  0.00    -0.003 C 
ATOM     12  C   UNL     1       9.847 -15.481  23.106  1.00  0.00     0.004 C 
ENDBRANCH  10  11
ENDBRANCH   9  10
ENDBRANCH   8   9
ENDBRANCH   7   8
ENDBRANCH   6   7
ENDBRANCH   5   6
ENDBRANCH   4   5
ENDBRANCH   3   4
ENDBRANCH   2   3
ENDBRANCH   1   2
BRANCH   1  13
ATOM     13  C   UNL     1       9.390 -22.612  22.440  1.00  0.00     0.000 C 
BRANCH  13  14
ATOM     14  C   UNL     1       8.191 -22.585  21.476  1.00  0.00     0.000 C 
BRANCH  14  15
ATOM     15  C   UNL     1       8.514 -21.890  20.141  1.00  0.00     0.000 C 
BRANCH  15  16
ATOM     16  C   UNL     1       8.362 -20.357  20.235  1.00  0.00     0.000 C 
BRANCH  16  17
ATOM     17  C   UNL     1       9.699 -19.609  20.374  1.00  0.00     0.000 C 
BRANCH  17  18
ATOM     18  C   UNL     1       9.520 -18.093  20.549  1.00  0.00     0.000 C 
BRANCH  18  19
ATOM     19  C   UNL     1       8.043 -17.657  20.551  1.00  0.00     0.000 C 
BRANCH  19  20
ATOM     20  C   UNL     1       7.685 -16.551  19.540  1.00  0.00     0.006 C 
BRANCH  20  21
ATOM     21  C   UNL     1       6.860 -15.416  20.160  1.00  0.00     0.053 C 
BRANCH  21  22
ATOM     22  C   UNL     1       6.649 -14.309  19.174  1.00  0.00     0.041 C 
ATOM     23  O   UNL     1       7.000 -14.454  17.973  1.00  0.00    -0.550 OA
ATOM     24  O   UNL     1       6.021 -13.135  19.569  1.00  0.00    -0.550 OA
ENDBRANCH  21  22
ENDBRANCH  20  21
ENDBRANCH  19  20
ENDBRANCH  18  19
ENDBRANCH  17  18
ENDBRANCH  16  17
ENDBRANCH  15  16
ENDBRANCH  14  15
ENDBRANCH  13  14
ENDBRANCH   1  13
TORSDOF 20
ENDMDL
MODEL 2
REMARK VINA RESULT:    -4.253      3.874      7.093
REMARK INTER + INTRA:         -12.856
REMARK INTER:                  -9.213
REMARK INTRA:                  -3.643
REMARK UNBOUND:                -3.630
REMARK SMILES CCCCCCCCCCCCCCCCCCCCCC(=O)[O-]
REMARK SMILES IDX 12 1 11 2 10 3 9 4 8 5 7 6 6 7 5 8 4 9 3 10 2 11 1 12 13 13
REMARK SMILES IDX 14 14 15 15 16 16 17 17 18 18 19 19 20 20 21 21 22 22 23 23
REMARK SMILES IDX 24 24
REMARK H PARENT
REMARK Flexibility Score: inf
ROOT
ATOM      1  C   UNL     1       6.846 -18.028  23.313  1.00  0.00     0.000 C 
ENDROOT
BRANCH   1   2
ATOM      2  C   UNL     1       7.964 -18.177  22.262  1.00  0.00     0.000 C 
BRANCH   2   3
ATOM      3  C   UNL     1       7.641 -19.126  21.090  1.00  0.00     0.000 C 
BRANCH   3   4
ATOM      4  C   UNL     1       7.125 -20.519  21.496  1.00  0.00    -0.000 C 
BRANCH   4   5
ATOM      5  C   UNL     1       7.873 -21.659  20.787  1.00  0.00    -0.000 C 
BRANCH   5   6
ATOM      6  C   UNL     1       8.552 -22.626  21.768  1.00  0.00    -0.000 C 
BRANCH   6   7
ATOM      7  C   UNL     1       9.753 -21.997  22.494  1.00  0.00    -0.000 C 
BRANCH   7   8
ATOM      8  C   UNL     1       9.635 -22.110  24.032  1.00  0.00    -0.000 C 
BRANCH   8   9
ATOM      9  C   UNL     1       8.982 -20.881  24.688  1.00  0.00    -0.000 C 
BRANCH   9  10
ATOM     10  C   UNL     1       7.522 -21.090  25.132  1.00  0.00    -0.000 C 
BRANCH  10  11
ATOM     11  C   UNL     1       7.158 -20.361  26.446  1.00  0.00    -0.003 C 
ATOM     12  C   UNL     1       7.750 -21.028  27.686  1.00  0.00     0.004 C 
ENDBRANCH  10  11
ENDBRANCH   9  10
ENDBRANCH   8   9
ENDBRANCH   7   8
ENDBRANCH   6   7
ENDBRANCH   5   6
ENDBRANCH   4   5
ENDBRANCH   3   4
ENDBRANCH   2   3
ENDBRANCH   1   2
BRANCH   1  13
ATOM     13  C   UNL     1       7.209 -17.151  24.527  1.00  0.00     0.000 C 
BRANCH  13  14
ATOM     14  C   UNL     1       7.157 -15.635  24.267  1.00  0.00     0.000 C 
BRANCH  14  15
ATOM     15  C   UNL     1       8.319 -14.876  24.931  1.00  0.00     0.000 C 
BRANCH  15  16
ATOM     16  C   UNL     1       9.483 -14.624  23.950  1.00  0.00     0.000 C 
BRANCH  16  17
ATOM     17  C   UNL     1      10.793 -15.325  24.349  1.00  0.00     0.000 C 
BRANCH  17  18
ATOM     18  C   UNL     1      11.053 -16.609  23.547  1.00  0.00     0.000 C 
BRANCH  18  19
ATOM     19  C   UNL     1      10.931 -17.887  24.398  1.00  0.00     0.000 C 
BRANCH  19  20
ATOM     20  C   UNL     1      11.068 -17.677  25.918  1.00  0.00     0.006 C 
BRANCH  20  21
ATOM     21  C   UNL     1      11.368 -18.975  26.678  1.00  0.00     0.053 C 
BRANCH  21  22
ATOM     22  C   UNL     1      12.747 -19.470  26.367  1.00  0.00     0.041 C 
ATOM     23  O   UNL     1      12.905 -20.525  25.697  1.00  0.00    -0.550 OA
ATOM     24  O   UNL     1      13.857 -18.743  26.776  1.00  0.00    -0.550 OA
ENDBRANCH  21  22
ENDBRANCH  20  21
ENDBRANCH  19  20
ENDBRANCH  18  19
ENDBRANCH  17  18
ENDBRANCH  16  17
ENDBRANCH  15  16
ENDBRANCH  14  15
ENDBRANCH  13  14
ENDBRANCH   1  13
TORSDOF 20
ENDMDL
MODEL 3
REMARK VINA RESULT:    -4.242      3.309      6.417
REMARK INTER + INTRA:         -12.832
REMARK INTER:                  -8.548
REMARK INTRA:                  -4.284
REMARK UNBOUND:                -3.630
REMARK SMILES CCCCCCCCCCCCCCCCCCCCCC(=O)[O-]
REMARK SMILES IDX 12 1 11 2 10 3 9 4 8 5 7 6 6 7 5 8 4 9 3 10 2 11 1 12 13 13
REMARK SMILES IDX 14 14 15 15 16 16 17 17 18 18 19 19 20 20 21 21 22 22 23 23
REMARK SMILES IDX 24 24
REMARK H PARENT
REMARK Flexibility Score: inf
ROOT
ATOM      1  C   UNL     1       6.681 -17.107  24.489  1.00  0.00     0.000 C 
ENDROOT
BRANCH   1   2
ATOM      2  C   UNL     1       6.847 -16.009  23.419  1.00  0.00     0.000 C 
BRANCH   2   3
ATOM      3  C   UNL     1       7.751 -16.384  22.227  1.00  0.00     0.000 C 
BRANCH   3   4
ATOM      4  C   UNL     1       7.847 -17.892  21.926  1.00  0.00    -0.000 C 
BRANCH   4   5
ATOM      5  C   UNL     1       9.273 -18.441  22.095  1.00  0.00    -0.000 C 
BRANCH   5   6
ATOM      6  C   UNL     1       9.489 -19.123  23.455  1.00  0.00    -0.000 C 
BRANCH   6   7
ATOM      7  C   UNL     1       9.738 -20.636  23.333  1.00  0.00    -0.000 C 
BRANCH   7   8
ATOM      8  C   UNL     1       8.494 -21.469  23.716  1.00  0.00    -0.000 C 
BRANCH   8   9
ATOM      9  C   UNL     1       7.402 -20.650  24.428  1.00  0.00    -0.000 C 
BRANCH   9  10
ATOM     10  C   UNL     1       7.146 -21.056  25.891  1.00  0.00    -0.000 C 
BRANCH  10  11
ATOM     11  C   UNL     1       7.780 -20.099  26.926  1.00  0.00    -0.003 C 
ATOM     12  C   UNL     1       9.250 -20.407  27.207  1.00  0.00     0.004 C 
ENDBRANCH  10  11
ENDBRANCH   9  10
ENDBRANCH   8   9
ENDBRANCH   7   8
ENDBRANCH   6   7
ENDBRANCH   5   6
ENDBRANCH   4   5
ENDBRANCH   3   4
ENDBRANCH   2   3
ENDBRANCH   1   2
BRANCH   1  13
ATOM     13  C   UNL     1       6.877 -16.633  25.942  1.00  0.00     0.000 C 
BRANCH  13  14
ATOM     14  C   UNL     1       8.194 -15.883  26.205  1.00  0.00     0.000 C 
BRANCH  14  15
ATOM     15  C   UNL     1       9.401 -16.827  26.344  1.00  0.00     0.000 C 
BRANCH  15  16
ATOM     16  C   UNL     1      10.654 -16.275  25.632  1.00  0.00     0.000 C 
BRANCH  16  17
ATOM     17  C   UNL     1      10.335 -15.368  24.431  1.00  0.00     0.000 C 
BRANCH  17  18
ATOM     18  C   UNL     1      11.588 -14.965  23.637  1.00  0.00     0.000 C 
BRANCH  18  19
ATOM     19  C   UNL     1      11.771 -15.781  22.345  1.00  0.00     0.000 C 
BRANCH  19  20
ATOM     20  C   UNL     1      13.047 -16.642  22.289  1.00  0.00     0.006 C 
BRANCH  20  21
ATOM     21  C   UNL     1      13.023 -17.814  23.278  1.00  0.00     0.053 C 
BRANCH  21  22
ATOM     22  C   UNL     1      13.133 -19.123  22.558  1.00  0.00     0.041 C 
ATOM     23  O   UNL     1      13.624 -20.127  23.139  1.00  0.00    -0.550 OA
ATOM     24  O   UNL     1      12.652 -19.247  21.261  1.00  0.00    -0.550 OA
ENDBRANCH  21  22
ENDBRANCH  20  21
ENDBRANCH  19  20
ENDBRANCH  18  19
ENDBRANCH  17  18
ENDBRANCH  16  17
ENDBRANCH  15  16
ENDBRANCH  14  15
ENDBRANCH  13  14
ENDBRANCH   1  13
TORSDOF 20
ENDMDL
MODEL 4
REMARK VINA RESULT:    -4.237      4.862      7.020
REMARK INTER + INTRA:         -12.821
REMARK INTER:                  -9.046
REMARK INTRA:                  -3.775
REMARK UNBOUND:                -3.630
REMARK SMILES CCCCCCCCCCCCCCCCCCCCCC(=O)[O-]
REMARK SMILES IDX 12 1 11 2 10 3 9 4 8 5 7 6 6 7 5 8 4 9 3 10 2 11 1 12 13 13
REMARK SMILES IDX 14 14 15 15 16 16 17 17 18 18 19 19 20 20 21 21 22 22 23 23
REMARK SMILES IDX 24 24
REMARK H PARENT
REMARK Flexibility Score: inf
ROOT
ATOM      1  C   UNL     1       7.243 -18.418  23.245  1.00  0.00     0.000 C 
ENDROOT
BRANCH   1   2
ATOM      2  C   UNL     1       7.726 -17.553  22.063  1.00  0.00     0.000 C 
BRANCH   2   3
ATOM      3  C   UNL     1       7.504 -16.035  22.227  1.00  0.00     0.000 C 
BRANCH   3   4
ATOM      4  C   UNL     1       6.892 -15.603  23.572  1.00  0.00    -0.000 C 
BRANCH   4   5
ATOM      5  C   UNL     1       7.657 -14.441  24.226  1.00  0.00    -0.000 C 
BRANCH   5   6
ATOM      6  C   UNL     1       8.241 -14.811  25.598  1.00  0.00    -0.000 C 
BRANCH   6   7
ATOM      7  C   UNL     1       7.645 -16.107  26.172  1.00  0.00    -0.000 C 
BRANCH   7   8
ATOM      8  C   UNL     1       8.722 -17.187  26.427  1.00  0.00    -0.000 C 
BRANCH   8   9
ATOM      9  C   UNL     1      10.115 -16.800  25.900  1.00  0.00    -0.000 C 
BRANCH   9  10
ATOM     10  C   UNL     1      10.594 -17.621  24.688  1.00  0.00    -0.000 C 
BRANCH  10  11
ATOM     11  C   UNL     1      10.981 -16.760  23.464  1.00  0.00    -0.003 C 
ATOM     12  C   UNL     1      11.533 -15.388  23.846  1.00  0.00     0.004 C 
ENDBRANCH  10  11
ENDBRANCH   9  10
ENDBRANCH   8   9
ENDBRANCH   7   8
ENDBRANCH   6   7
ENDBRANCH   5   6
ENDBRANCH   4   5
ENDBRANCH   3   4
ENDBRANCH   2   3
ENDBRANCH   1   2
BRANCH   1  13
ATOM     13  C   UNL     1       6.758 -19.829  22.860  1.00  0.00     0.000 C 
BRANCH  13  14
ATOM     14  C   UNL     1       7.831 -20.731  22.226  1.00  0.00     0.000 C 
BRANCH  14  15
ATOM     15  C   UNL     1       9.112 -20.819  23.074  1.00  0.00     0.000 C 
BRANCH  15  16
ATOM     16  C   UNL     1       8.941 -21.758  24.286  1.00  0.00     0.000 C 
BRANCH  16  17
ATOM     17  C   UNL     1       8.843 -21.020  25.632  1.00  0.00     0.000 C 
BRANCH  17  18
ATOM     18  C   UNL     1      10.196 -20.910  26.353  1.00  0.00     0.000 C 
BRANCH  18  19
ATOM     19  C   UNL     1      10.073 -20.353  27.783  1.00  0.00     0.000 C 
BRANCH  19  20
ATOM     20  C   UNL     1      11.302 -19.577  28.292  1.00  0.00     0.006 C 
BRANCH  20  21
ATOM     21  C   UNL     1      11.965 -20.233  29.510  1.00  0.00     0.053 C 
BRANCH  21  22
ATOM     22  C   UNL     1      13.188 -20.997  29.105  1.00  0.00     0.041 C 
ATOM     23  O   UNL     1      14.273 -20.391  28.896  1.00  0.00    -0.550 OA
ATOM     24  O   UNL     1      13.144 -22.381  29.005  1.00  0.00    -0.550 OA
ENDBRANCH  21  22
ENDBRANCH  20  21
ENDBRANCH  19  20
ENDBRANCH  18  19
ENDBRANCH  17  18
ENDBRANCH  16  17
ENDBRANCH  15  16
ENDBRANCH  14  15
ENDBRANCH  13  14
ENDBRANCH   1  13
TORSDOF 20
ENDMDL
MODEL 5
REMARK VINA RESULT:    -4.216      3.415      6.221
REMARK INTER + INTRA:         -12.774
REMARK INTER:                  -9.053
REMARK INTRA:                  -3.721
REMARK UNBOUND:                -3.630
REMARK SMILES CCCCCCCCCCCCCCCCCCCCCC(=O)[O-]
REMARK SMILES IDX 12 1 11 2 10 3 9 4 8 5 7 6 6 7 5 8 4 9 3 10 2 11 1 12 13 13
REMARK SMILES IDX 14 14 15 15 16 16 17 17 18 18 19 19 20 20 21 21 22 22 23 23
REMARK SMILES IDX 24 24
REMARK H PARENT
REMARK Flexibility Score: inf
ROOT
ATOM      1  C   UNL     1       6.481 -16.500  24.188  1.00  0.00     0.000 C 
ENDROOT
BRANCH   1   2
ATOM      2  C   UNL     1       7.106 -16.324  25.586  1.00  0.00     0.000 C 
BRANCH   2   3
ATOM      3  C   UNL     1       7.493 -17.634  26.303  1.00  0.00     0.000 C 
BRANCH   3   4
ATOM      4  C   UNL     1       8.989 -17.995  26.247  1.00  0.00    -0.000 C 
BRANCH   4   5
ATOM      5  C   UNL     1       9.902 -16.767  26.389  1.00  0.00    -0.000 C 
BRANCH   5   6
ATOM      6  C   UNL     1      10.805 -16.553  25.165  1.00  0.00    -0.000 C 
BRANCH   6   7
ATOM      7  C   UNL     1      12.160 -17.270  25.288  1.00  0.00    -0.000 C 
BRANCH   7   8
ATOM      8  C   UNL     1      12.196 -18.598  24.497  1.00  0.00    -0.000 C 
BRANCH   8   9
ATOM      9  C   UNL     1      13.010 -19.704  25.191  1.00  0.00    -0.000 C 
BRANCH   9  10
ATOM     10  C   UNL     1      12.235 -20.496  26.261  1.00  0.00    -0.000 C 
BRANCH  10  11
ATOM     11  C   UNL     1      12.603 -20.111  27.712  1.00  0.00    -0.003 C 
ATOM     12  C   UNL     1      11.417 -19.569  28.509  1.00  0.00     0.004 C 
ENDBRANCH  10  11
ENDBRANCH   9  10
ENDBRANCH   8   9
ENDBRANCH   7   8
ENDBRANCH   6   7
ENDBRANCH   5   6
ENDBRANCH   4   5
ENDBRANCH   3   4
ENDBRANCH   2   3
ENDBRANCH   1   2
BRANCH   1  13
ATOM     13  C   UNL     1       7.465 -16.343  23.012  1.00  0.00     0.000 C 
BRANCH  13  14
ATOM     14  C   UNL     1       8.258 -17.614  22.660  1.00  0.00     0.000 C 
BRANCH  14  15
ATOM     15  C   UNL     1       7.574 -18.465  21.576  1.00  0.00     0.000 C 
BRANCH  15  16
ATOM     16  C   UNL     1       7.306 -19.907  22.055  1.00  0.00     0.000 C 
BRANCH  16  17
ATOM     17  C   UNL     1       7.164 -20.037  23.581  1.00  0.00     0.000 C 
BRANCH  17  18
ATOM     18  C   UNL     1       7.900 -21.261  24.148  1.00  0.00     0.000 C 
BRANCH  18  19
ATOM     19  C   UNL     1       9.429 -21.172  23.987  1.00  0.00     0.000 C 
BRANCH  19  20
ATOM     20  C   UNL     1      10.162 -22.526  23.938  1.00  0.00     0.006 C 
BRANCH  20  21
ATOM     21  C   UNL     1      10.928 -22.747  22.627  1.00  0.00     0.053 C 
BRANCH  21  22
ATOM     22  C   UNL     1      10.046 -22.492  21.444  1.00  0.00     0.041 C 
ATOM     23  O   UNL     1       9.095 -23.275  21.181  1.00  0.00    -0.550 OA
ATOM     24  O   UNL     1      10.245 -21.364  20.658  1.00  0.00    -0.550 OA
ENDBRANCH  21  22
ENDBRANCH  20  21
ENDBRANCH  19  20
ENDBRANCH  18  19
ENDBRANCH  17  18
ENDBRANCH  16  17
ENDBRANCH  15  16
ENDBRANCH  14  15
ENDBRANCH  13  14
ENDBRANCH   1  13
TORSDOF 20
ENDMDL
MODEL 6
REMARK VINA RESULT:    -4.209      3.144      7.411
REMARK INTER + INTRA:         -12.761
REMARK INTER:                  -9.421
REMARK INTRA:                  -3.340
REMARK UNBOUND:                -3.630
REMARK SMILES CCCCCCCCCCCCCCCCCCCCCC(=O)[O-]
REMARK SMILES IDX 12 1 11 2 10 3 9 4 8 5 7 6 6 7 5 8 4 9 3 10 2 11 1 12 13 13
REMARK SMILES IDX 14 14 15 15 16 16 17 17 18 18 19 19 20 20 21 21 22 22 23 23
REMARK SMILES IDX 24 24
REMARK H PARENT
REMARK Flexibility Score: inf
ROOT
ATOM      1  C   UNL     1       5.796 -14.320  21.708  1.00  0.00     0.000 C 
ENDROOT
BRANCH   1   2
ATOM      2  C   UNL     1       6.021 -13.753  20.292  1.00  0.00     0.000 C 
BRANCH   2   3
ATOM      3  C   UNL     1       6.798 -14.675  19.331  1.00  0.00     0.000 C 
BRANCH   3   4
ATOM      4  C   UNL     1       7.150 -16.064  19.895  1.00  0.00    -0.000 C 
BRANCH   4   5
ATOM      5  C   UNL     1       8.661 -16.255  20.103  1.00  0.00    -0.000 C 
BRANCH   5   6
ATOM      6  C   UNL     1       9.051 -17.725  20.316  1.00  0.00    -0.000 C 
BRANCH   6   7
ATOM      7  C   UNL     1       7.906 -18.701  19.993  1.00  0.00    -0.000 C 
BRANCH   7   8
ATOM      8  C   UNL     1       8.346 -19.823  19.026  1.00  0.00    -0.000 C 
BRANCH   8   9
ATOM      9  C   UNL     1       9.113 -20.964  19.717  1.00  0.00    -0.000 C 
BRANCH   9  10
ATOM     10  C   UNL     1       8.242 -21.884  20.594  1.00  0.00    -0.000 C 
BRANCH  10  11
ATOM     11  C   UNL     1       9.025 -23.038  21.259  1.00  0.00    -0.003 C 
ATOM     12  C   UNL     1      10.192 -22.554  22.120  1.00  0.00     0.004 C 
ENDBRANCH  10  11
ENDBRANCH   9  10
ENDBRANCH   8   9
ENDBRANCH   7   8
ENDBRANCH   6   7
ENDBRANCH   5   6
ENDBRANCH   4   5
ENDBRANCH   3   4
ENDBRANCH   2   3
ENDBRANCH   1   2
BRANCH   1  13
ATOM     13  C   UNL     1       6.740 -13.761  22.790  1.00  0.00     0.000 C 
BRANCH  13  14
ATOM     14  C   UNL     1       7.037 -14.727  23.951  1.00  0.00     0.000 C 
BRANCH  14  15
ATOM     15  C   UNL     1       8.353 -15.501  23.761  1.00  0.00     0.000 C 
BRANCH  15  16
ATOM     16  C   UNL     1       8.159 -17.023  23.935  1.00  0.00     0.000 C 
BRANCH  16  17
ATOM     17  C   UNL     1       6.904 -17.571  23.235  1.00  0.00     0.000 C 
BRANCH  17  18
ATOM     18  C   UNL     1       6.663 -19.061  23.523  1.00  0.00     0.000 C 
BRANCH  18  19
ATOM     19  C   UNL     1       7.967 -19.862  23.690  1.00  0.00     0.000 C 
BRANCH  19  20
ATOM     20  C   UNL     1       7.864 -21.099  24.602  1.00  0.00     0.006 C 
BRANCH  20  21
ATOM     21  C   UNL     1       8.692 -20.969  25.886  1.00  0.00     0.053 C 
BRANCH  21  22
ATOM     22  C   UNL     1       8.364 -19.699  26.608  1.00  0.00     0.041 C 
ATOM     23  O   UNL     1       9.261 -18.841  26.822  1.00  0.00    -0.550 OA
ATOM     24  O   UNL     1       7.057 -19.440  27.003  1.00  0.00    -0.550 OA
ENDBRANCH  21  22
ENDBRANCH  20  21
ENDBRANCH  19  20
ENDBRANCH  18  19
ENDBRANCH  17  18
ENDBRANCH  16  17
ENDBRANCH  15  16
ENDBRANCH  14  15
ENDBRANCH  13  14
ENDBRANCH   1  13
TORSDOF 20
ENDMDL
MODEL 7
REMARK VINA RESULT:    -4.209      4.610      7.030
REMARK INTER + INTRA:         -12.760
REMARK INTER:                  -9.258
REMARK INTRA:                  -3.502
REMARK UNBOUND:                -3.630
REMARK SMILES CCCCCCCCCCCCCCCCCCCCCC(=O)[O-]
REMARK SMILES IDX 12 1 11 2 10 3 9 4 8 5 7 6 6 7 5 8 4 9 3 10 2 11 1 12 13 13
REMARK SMILES IDX 14 14 15 15 16 16 17 17 18 18 19 19 20 20 21 21 22 22 23 23
REMARK SMILES IDX 24 24
REMARK H PARENT
REMARK Flexibility Score: inf
ROOT
ATOM      1  C   UNL     1       6.755 -19.345  23.243  1.00  0.00     0.000 C 
ENDROOT
BRANCH   1   2
ATOM      2  C   UNL     1       7.617 -18.144  23.683  1.00  0.00     0.000 C 
BRANCH   2   3
ATOM      3  C   UNL     1       6.881 -17.081  24.524  1.00  0.00     0.000 C 
BRANCH   3   4
ATOM      4  C   UNL     1       7.413 -16.895  25.958  1.00  0.00    -0.000 C 
BRANCH   4   5
ATOM      5  C   UNL     1       8.213 -15.593  26.129  1.00  0.00    -0.000 C 
BRANCH   5   6
ATOM      6  C   UNL     1       8.223 -14.730  24.858  1.00  0.00    -0.000 C 
BRANCH   6   7
ATOM      7  C   UNL     1       9.639 -14.500  24.302  1.00  0.00    -0.000 C 
BRANCH   7   8
ATOM      8  C   UNL     1       9.995 -15.493  23.173  1.00  0.00    -0.000 C 
BRANCH   8   9
ATOM      9  C   UNL     1      11.390 -16.126  23.329  1.00  0.00    -0.000 C 
BRANCH   9  10
ATOM     10  C   UNL     1      11.753 -16.531  24.771  1.00  0.00    -0.000 C 
BRANCH  10  11
ATOM     11  C   UNL     1      11.081 -17.842  25.239  1.00  0.00    -0.003 C 
ATOM     12  C   UNL     1      11.235 -18.986  24.237  1.00  0.00     0.004 C 
ENDBRANCH  10  11
ENDBRANCH   9  10
ENDBRANCH   8   9
ENDBRANCH   7   8
ENDBRANCH   6   7
ENDBRANCH   5   6
ENDBRANCH   4   5
ENDBRANCH   3   4
ENDBRANCH   2   3
ENDBRANCH   1   2
BRANCH   1  13
ATOM     13  C   UNL     1       7.505 -20.689  23.166  1.00  0.00     0.000 C 
BRANCH  13  14
ATOM     14  C   UNL     1       8.195 -21.119  24.473  1.00  0.00     0.000 C 
BRANCH  14  15
ATOM     15  C   UNL     1       7.265 -21.032  25.695  1.00  0.00     0.000 C 
BRANCH  15  16
ATOM     16  C   UNL     1       8.009 -20.543  26.956  1.00  0.00     0.000 C 
BRANCH  16  17
ATOM     17  C   UNL     1       9.535 -20.724  26.884  1.00  0.00     0.000 C 
BRANCH  17  18
ATOM     18  C   UNL     1      10.198 -20.761  28.269  1.00  0.00     0.000 C 
BRANCH  18  19
ATOM     19  C   UNL     1      11.286 -19.685  28.446  1.00  0.00     0.000 C 
BRANCH  19  20
ATOM     20  C   UNL     1      12.718 -20.224  28.622  1.00  0.00     0.006 C 
BRANCH  20  21
ATOM     21  C   UNL     1      13.728 -19.563  27.675  1.00  0.00     0.053 C 
BRANCH  21  22
ATOM     22  C   UNL     1      14.270 -20.556  26.694  1.00  0.00     0.041 C 
ATOM     23  O   UNL     1      15.372 -20.345  26.122  1.00  0.00    -0.550 OA
ATOM     24  O   UNL     1      13.582 -21.737  26.446  1.00  0.00    -0.550 OA
ENDBRANCH  21  22
ENDBRANCH  20  21
ENDBRANCH  19  20
ENDBRANCH  18  19
ENDBRANCH  17  18
ENDBRANCH  16  17
ENDBRANCH  15  16
ENDBRANCH  14  15
ENDBRANCH  13  14
ENDBRANCH   1  13
TORSDOF 20
ENDMDL
MODEL 8
REMARK VINA RESULT:    -4.206      3.613      6.767
REMARK INTER + INTRA:         -12.753
REMARK INTER:                  -9.183
REMARK INTRA:                  -3.570
REMARK UNBOUND:                -3.630
REMARK SMILES CCCCCCCCCCCCCCCCCCCCCC(=O)[O-]
REMARK SMILES IDX 12 1 11 2 10 3 9 4 8 5 7 6 6 7 5 8 4 9 3 10 2 11 1 12 13 13
REMARK SMILES IDX 14 14 15 15 16 16 17 17 18 18 19 19 20 20 21 21 22 22 23 23
REMARK SMILES IDX 24 24
REMARK H PARENT
REMARK Flexibility Score: inf
ROOT
ATOM      1  C   UNL     1       7.661 -18.118  24.610  1.00  0.00     0.000 C 
ENDROOT
BRANCH   1   2
ATOM      2  C   UNL     1       7.509 -18.855  25.956  1.00  0.00     0.000 C 
BRANCH   2   3
ATOM      3  C   UNL     1       7.355 -20.386  25.853  1.00  0.00     0.000 C 
BRANCH   3   4
ATOM      4  C   UNL     1       7.902 -21.014  24.557  1.00  0.00    -0.000 C 
BRANCH   4   5
ATOM      5  C   UNL     1       9.378 -21.426  24.674  1.00  0.00    -0.000 C 
BRANCH   5   6
ATOM      6  C   UNL     1       9.863 -22.248  23.470  1.00  0.00    -0.000 C 
BRANCH   6   7
ATOM      7  C   UNL     1       8.722 -22.646  22.519  1.00  0.00    -0.000 C 
BRANCH   7   8
ATOM      8  C   UNL     1       9.165 -22.647  21.038  1.00  0.00    -0.000 C 
BRANCH   8   9
ATOM      9  C   UNL     1       8.548 -21.505  20.212  1.00  0.00    -0.000 C 
BRANCH   9  10
ATOM     10  C   UNL     1       7.412 -20.742  20.920  1.00  0.00    -0.000 C 
BRANCH  10  11
ATOM     11  C   UNL     1       7.698 -19.236  21.116  1.00  0.00    -0.003 C 
ATOM     12  C   UNL     1       9.183 -18.926  21.299  1.00  0.00     0.004 C 
ENDBRANCH  10  11
ENDBRANCH   9  10
ENDBRANCH   8   9
ENDBRANCH   7   8
ENDBRANCH   6   7
ENDBRANCH   5   6
ENDBRANCH   4   5
ENDBRANCH   3   4
ENDBRANCH   2   3
ENDBRANCH   1   2
BRANCH   1  13
ATOM     13  C   UNL     1       6.381 -17.428  24.099  1.00  0.00     0.000 C 
BRANCH  13  14
ATOM     14  C   UNL     1       6.407 -15.891  24.161  1.00  0.00     0.000 C 
BRANCH  14  15
ATOM     15  C   UNL     1       7.623 -15.285  23.440  1.00  0.00     0.000 C 
BRANCH  15  16
ATOM     16  C   UNL     1       8.515 -14.465  24.396  1.00  0.00     0.000 C 
BRANCH  16  17
ATOM     17  C   UNL     1      10.016 -14.772  24.259  1.00  0.00     0.000 C 
BRANCH  17  18
ATOM     18  C   UNL     1      10.301 -15.959  23.326  1.00  0.00     0.000 C 
BRANCH  18  19
ATOM     19  C   UNL     1      11.538 -16.773  23.746  1.00  0.00     0.000 C 
BRANCH  19  20
ATOM     20  C   UNL     1      11.242 -18.190  24.274  1.00  0.00     0.006 C 
BRANCH  20  21
ATOM     21  C   UNL     1      11.749 -18.415  25.704  1.00  0.00     0.053 C 
BRANCH  21  22
ATOM     22  C   UNL     1      13.175 -18.873  25.699  1.00  0.00     0.041 C 
ATOM     23  O   UNL     1      13.919 -18.640  26.689  1.00  0.00    -0.550 OA
ATOM     24  O   UNL     1      13.671 -19.597  24.623  1.00  0.00    -0.550 OA
ENDBRANCH  21  22
ENDBRANCH  20  21
ENDBRANCH  19  20
ENDBRANCH  18  19
ENDBRANCH  17  18
ENDBRANCH  16  17
ENDBRANCH  15  16
ENDBRANCH  14  15
ENDBRANCH  13  14
ENDBRANCH   1  13
TORSDOF 20
ENDMDL
MODEL 9
REMARK VINA RESULT:    -4.195      4.828      6.978
REMARK INTER + INTRA:         -12.729
REMARK INTER:                  -8.516
REMARK INTRA:                  -4.213
REMARK UNBOUND:                -3.630
REMARK SMILES CCCCCCCCCCCCCCCCCCCCCC(=O)[O-]
REMARK SMILES IDX 12 1 11 2 10 3 9 4 8 5 7 6 6 7 5 8 4 9 3 10 2 11 1 12 13 13
REMARK SMILES IDX 14 14 15 15 16 16 17 17 18 18 19 19 20 20 21 21 22 22 23 23
REMARK SMILES IDX 24 24
REMARK H PARENT
REMARK Flexibility Score: inf
ROOT
ATOM      1  C   UNL     1       7.235 -20.009  22.489  1.00  0.00     0.000 C 
ENDROOT
BRANCH   1   2
ATOM      2  C   UNL     1       7.650 -18.632  21.931  1.00  0.00     0.000 C 
BRANCH   2   3
ATOM      3  C   UNL     1       9.170 -18.385  21.857  1.00  0.00     0.000 C 
BRANCH   3   4
ATOM      4  C   UNL     1       9.695 -17.249  22.755  1.00  0.00    -0.000 C 
BRANCH   4   5
ATOM      5  C   UNL     1      10.153 -17.747  24.135  1.00  0.00    -0.000 C 
BRANCH   5   6
ATOM      6  C   UNL     1      10.560 -16.602  25.075  1.00  0.00    -0.000 C 
BRANCH   6   7
ATOM      7  C   UNL     1       9.670 -16.509  26.326  1.00  0.00    -0.000 C 
BRANCH   7   8
ATOM      8  C   UNL     1       8.350 -17.297  26.168  1.00  0.00    -0.000 C 
BRANCH   8   9
ATOM      9  C   UNL     1       7.113 -16.396  26.006  1.00  0.00    -0.000 C 
BRANCH   9  10
ATOM     10  C   UNL     1       6.334 -16.604  24.693  1.00  0.00    -0.000 C 
BRANCH  10  11
ATOM     11  C   UNL     1       6.415 -15.404  23.723  1.00  0.00    -0.003 C 
ATOM     12  C   UNL     1       7.525 -14.417  24.080  1.00  0.00     0.004 C 
ENDBRANCH  10  11
ENDBRANCH   9  10
ENDBRANCH   8   9
ENDBRANCH   7   8
ENDBRANCH   6   7
ENDBRANCH   5   6
ENDBRANCH   4   5
ENDBRANCH   3   4
ENDBRANCH   2   3
ENDBRANCH   1   2
BRANCH   1  13
ATOM     13  C   UNL     1       6.774 -20.001  23.960  1.00  0.00     0.000 C 
BRANCH  13  14
ATOM     14  C   UNL     1       7.528 -20.980  24.878  1.00  0.00     0.000 C 
BRANCH  14  15
ATOM     15  C   UNL     1       8.949 -21.293  24.378  1.00  0.00     0.000 C 
BRANCH  15  16
ATOM     16  C   UNL     1       9.992 -21.219  25.513  1.00  0.00     0.000 C 
BRANCH  16  17
ATOM     17  C   UNL     1       9.412 -20.747  26.857  1.00  0.00     0.000 C 
BRANCH  17  18
ATOM     18  C   UNL     1      10.424 -19.956  27.700  1.00  0.00     0.000 C 
BRANCH  18  19
ATOM     19  C   UNL     1      11.719 -19.628  26.935  1.00  0.00     0.000 C 
BRANCH  19  20
ATOM     20  C   UNL     1      13.010 -19.694  27.773  1.00  0.00     0.006 C 
BRANCH  20  21
ATOM     21  C   UNL     1      13.872 -20.922  27.451  1.00  0.00     0.053 C 
BRANCH  21  22
ATOM     22  C   UNL     1      13.163 -22.186  27.829  1.00  0.00     0.041 C 
ATOM     23  O   UNL     1      12.926 -22.443  29.040  1.00  0.00    -0.550 OA
ATOM     24  O   UNL     1      12.722 -23.059  26.843  1.00  0.00    -0.550 OA
ENDBRANCH  21  22
ENDBRANCH  20  21
ENDBRANCH  19  20
ENDBRANCH  18  19
ENDBRANCH  17  18
ENDBRANCH  16  17
ENDBRANCH  15  16
ENDBRANCH  14  15
ENDBRANCH  13  14
ENDBRANCH   1  13
TORSDOF 20
ENDMDL
