MODEL 1
REMARK VINA RESULT:    -2.650      0.000      0.000
REMARK INTER + INTRA:          -3.214
REMARK INTER:                  -3.115
REMARK INTRA:                  -0.099
REMARK UNBOUND:                -0.099
REMARK SMILES O=C([O-])CCC(=O)[O-]
REMARK SMILES IDX 4 1 2 2 1 3 3 4 5 5 6 6 7 7 8 8
REMARK H PARENT
REMARK Flexibility Score: inf
ROOT
ATOM      1  C   UNL     1       6.579 -20.772 -16.524  1.00  0.00     0.059 C 
ENDROOT
BRANCH   1   2
ATOM      2  C   UNL     1       5.752 -22.000 -16.295  1.00  0.00     0.042 C 
ATOM      3  O   UNL     1       6.306 -23.124 -16.170  1.00  0.00    -0.550 OA
ATOM      4  O   UNL     1       4.371 -21.898 -16.181  1.00  0.00    -0.550 OA
ENDBRANCH   1   2
BRANCH   1   5
ATOM      5  C   UNL     1       7.323 -20.347 -15.253  1.00  0.00     0.059 C 
BRANCH   5   6
ATOM      6  C   UNL     1       8.747 -20.811 -15.267  1.00  0.00     0.042 C 
ATOM      7  O   UNL     1       9.207 -21.416 -16.272  1.00  0.00    -0.550 OA
ATOM      8  O   UNL     1       9.579 -20.540 -14.188  1.00  0.00    -0.550 OA
ENDBRANCH   5   6
ENDBRANCH   1   5
TORSDOF 3
ENDMDL
MODEL 2
REMARK VINA RESULT:    -2.633     14.764     15.944
REMARK INTER + INTRA:          -3.194
REMARK INTER:                  -3.164
REMARK INTRA:                  -0.030
REMARK UNBOUND:                -0.099
REMARK SMILES O=C([O-])CCC(=O)[O-]
REMARK SMILES IDX 4 1 2 2 1 3 3 4 5 5 6 6 7 7 8 8
REMARK H PARENT
REMARK Flexibility Score: inf
ROOT
ATOM      1  C   UNL     1      -8.835 -20.038 -14.121  1.00  0.00     0.059 C 
ENDROOT
BRANCH   1   2
ATOM      2  C   UNL     1      -8.662 -19.660 -12.681  1.00  0.00     0.042 C 
ATOM      3  O   UNL     1      -9.125 -18.572 -12.250  1.00  0.00    -0.550 OA
ATOM      4  O   UNL     1      -8.021 -20.530 -11.806  1.00  0.00    -0.550 OA
ENDBRANCH   1   2
BRANCH   1   5
ATOM      5  C   UNL     1      -7.995 -21.267 -14.487  1.00  0.00     0.059 C 
BRANCH   5   6
ATOM      6  C   UNL     1      -7.900 -21.448 -15.971  1.00  0.00     0.042 C 
ATOM      7  O   UNL     1      -8.825 -22.028 -16.599  1.00  0.00    -0.550 OA
ATOM      8  O   UNL     1      -6.810 -20.940 -16.666  1.00  0.00    -0.550 OA
ENDBRANCH   5   6
ENDBRANCH   1   5
TORSDOF 3
ENDMDL
MODEL 3
REMARK VINA RESULT:    -2.598     14.903     15.874
REMARK INTER + INTRA:          -3.153
REMARK INTER:                  -3.120
REMARK INTRA:                  -0.033
REMARK UNBOUND:                -0.099
REMARK SMILES O=C([O-])CCC(=O)[O-]
REMARK SMILES IDX 4 1 2 2 1 3 3 4 5 5 6 6 7 7 8 8
REMARK H PARENT
REMARK Flexibility Score: inf
ROOT
ATOM      1  C   UNL     1      -7.827 -21.194 -14.668  1.00  0.00     0.059 C 
ENDROOT
BRANCH   1   2
ATOM      2  C   UNL     1      -8.059 -21.540 -16.108  1.00  0.00     0.042 C 
ATOM      3  O   UNL     1      -9.125 -22.111 -16.459  1.00  0.00    -0.550 OA
ATOM      4  O   UNL     1      -7.114 -21.197 -17.067  1.00  0.00    -0.550 OA
ENDBRANCH   1   2
BRANCH   1   5
ATOM      5  C   UNL     1      -8.844 -20.164 -14.164  1.00  0.00     0.059 C 
BRANCH   5   6
ATOM      6  C   UNL     1      -8.615 -19.821 -12.725  1.00  0.00     0.042 C 
ATOM      7  O   UNL     1      -7.975 -20.610 -11.979  1.00  0.00    -0.550 OA
ATOM      8  O   UNL     1      -9.072 -18.613 -12.214  1.00  0.00    -0.550 OA
ENDBRANCH   5   6
ENDBRANCH   1   5
TORSDOF 3
ENDMDL
MODEL 4
REMARK VINA RESULT:    -2.579      1.533      3.893
REMARK INTER + INTRA:          -3.130
REMARK INTER:                  -3.054
REMARK INTRA:                  -0.076
REMARK UNBOUND:                -0.099
REMARK SMILES O=C([O-])CCC(=O)[O-]
REMARK SMILES IDX 4 1 2 2 1 3 3 4 5 5 6 6 7 7 8 8
REMARK H PARENT
REMARK Flexibility Score: inf
ROOT
ATOM      1  C   UNL     1       8.108 -21.938 -16.291  1.00  0.00     0.059 C 
ENDROOT
BRANCH   1   2
ATOM      2  C   UNL     1       8.051 -20.804 -15.313  1.00  0.00     0.042 C 
ATOM      3  O   UNL     1       7.037 -20.059 -15.263  1.00  0.00    -0.550 OA
ATOM      4  O   UNL     1       9.103 -20.594 -14.429  1.00  0.00    -0.550 OA
ENDBRANCH   1   2
BRANCH   1   5
ATOM      5  C   UNL     1       7.004 -22.968 -16.025  1.00  0.00     0.059 C 
BRANCH   5   6
ATOM      6  C   UNL     1       5.816 -22.744 -16.908  1.00  0.00     0.042 C 
ATOM      7  O   UNL     1       5.854 -23.086 -18.121  1.00  0.00    -0.550 OA
ATOM      8  O   UNL     1       4.652 -22.196 -16.385  1.00  0.00    -0.550 OA
ENDBRANCH   5   6
ENDBRANCH   1   5
TORSDOF 3
ENDMDL
MODEL 5
REMARK VINA RESULT:    -2.578      0.220      3.819
REMARK INTER + INTRA:          -3.129
REMARK INTER:                  -3.009
REMARK INTRA:                  -0.120
REMARK UNBOUND:                -0.099
REMARK SMILES O=C([O-])CCC(=O)[O-]
REMARK SMILES IDX 4 1 2 2 1 3 3 4 5 5 6 6 7 7 8 8
REMARK H PARENT
REMARK Flexibility Score: inf
ROOT
ATOM      1  C   UNL     1       7.345 -20.476 -15.205  1.00  0.00     0.059 C 
ENDROOT
BRANCH   1   2
ATOM      2  C   UNL     1       8.799 -20.814 -15.324  1.00  0.00     0.042 C 
ATOM      3  O   UNL     1       9.606 -20.477 -14.418  1.00  0.00    -0.550 OA
ATOM      4  O   UNL     1       9.258 -21.537 -16.419  1.00  0.00    -0.550 OA
ENDBRANCH   1   2
BRANCH   1   5
ATOM      5  C   UNL     1       6.590 -20.760 -16.509  1.00  0.00     0.059 C 
BRANCH   5   6
ATOM      6  C   UNL     1       5.742 -21.990 -16.399  1.00  0.00     0.042 C 
ATOM      7  O   UNL     1       6.237 -23.124 -16.631  1.00  0.00    -0.550 OA
ATOM      8  O   UNL     1       4.415 -21.888 -16.000  1.00  0.00    -0.550 OA
ENDBRANCH   5   6
ENDBRANCH   1   5
TORSDOF 3
ENDMDL
MODEL 6
REMARK VINA RESULT:    -2.571      1.615      1.896
REMARK INTER + INTRA:          -3.120
REMARK INTER:                  -3.028
REMARK INTRA:                  -0.092
REMARK UNBOUND:                -0.099
REMARK SMILES O=C([O-])CCC(=O)[O-]
REMARK SMILES IDX 4 1 2 2 1 3 3 4 5 5 6 6 7 7 8 8
REMARK H PARENT
REMARK Flexibility Score: inf
ROOT
ATOM      1  C   UNL     1       7.053 -23.059 -16.105  1.00  0.00     0.059 C 
ENDROOT
BRANCH   1   2
ATOM      2  C   UNL     1       5.845 -22.851 -16.967  1.00  0.00     0.042 C 
ATOM      3  O   UNL     1       5.887 -23.124 -18.195  1.00  0.00    -0.550 OA
ATOM      4  O   UNL     1       4.659 -22.392 -16.404  1.00  0.00    -0.550 OA
ENDBRANCH   1   2
BRANCH   1   5
ATOM      5  C   UNL     1       8.108 -21.973 -16.341  1.00  0.00     0.059 C 
BRANCH   5   6
ATOM      6  C   UNL     1       8.012 -20.879 -15.322  1.00  0.00     0.042 C 
ATOM      7  O   UNL     1       8.969 -20.666 -14.530  1.00  0.00    -0.550 OA
ATOM      8  O   UNL     1       6.885 -20.070 -15.273  1.00  0.00    -0.550 OA
ENDBRANCH   5   6
ENDBRANCH   1   5
TORSDOF 3
ENDMDL
MODEL 7
REMARK VINA RESULT:    -2.379      2.272      3.324
REMARK INTER + INTRA:          -2.895
REMARK INTER:                  -2.777
REMARK INTRA:                  -0.118
REMARK UNBOUND:                -0.099
REMARK SMILES O=C([O-])CCC(=O)[O-]
REMARK SMILES IDX 4 1 2 2 1 3 3 4 5 5 6 6 7 7 8 8
REMARK H PARENT
REMARK Flexibility Score: inf
ROOT
ATOM      1  C   UNL     1       7.637 -22.131 -16.258  1.00  0.00     0.059 C 
ENDROOT
BRANCH   1   2
ATOM      2  C   UNL     1       7.694 -20.845 -15.491  1.00  0.00     0.042 C 
ATOM      3  O   UNL     1       6.685 -20.095 -15.434  1.00  0.00    -0.550 OA
ATOM      4  O   UNL     1       8.851 -20.494 -14.806  1.00  0.00    -0.550 OA
ENDBRANCH   1   2
BRANCH   1   5
ATOM      5  C   UNL     1       7.567 -21.884 -17.770  1.00  0.00     0.059 C 
BRANCH   5   6
ATOM      6  C   UNL     1       8.930 -21.852 -18.388  1.00  0.00     0.042 C 
ATOM      7  O   UNL     1       9.091 -21.377 -19.544  1.00  0.00    -0.550 OA
ATOM      8  O   UNL     1      10.031 -22.307 -17.673  1.00  0.00    -0.550 OA
ENDBRANCH   5   6
ENDBRANCH   1   5
TORSDOF 3
ENDMDL
MODEL 8
REMARK VINA RESULT:    -2.377      2.276      3.388
REMARK INTER + INTRA:          -2.893
REMARK INTER:                  -2.777
REMARK INTRA:                  -0.116
REMARK UNBOUND:                -0.099
REMARK SMILES O=C([O-])CCC(=O)[O-]
REMARK SMILES IDX 4 1 2 2 1 3 3 4 5 5 6 6 7 7 8 8
REMARK H PARENT
REMARK Flexibility Score: inf
ROOT
ATOM      1  C   UNL     1       7.597 -21.925 -17.803  1.00  0.00     0.059 C 
ENDROOT
BRANCH   1   2
ATOM      2  C   UNL     1       8.975 -21.837 -18.384  1.00  0.00     0.042 C 
ATOM      3  O   UNL     1       9.146 -21.385 -19.547  1.00  0.00    -0.550 OA
ATOM      4  O   UNL     1      10.076 -22.219 -17.626  1.00  0.00    -0.550 OA
ENDBRANCH   1   2
BRANCH   1   5
ATOM      5  C   UNL     1       7.637 -22.145 -16.286  1.00  0.00     0.059 C 
BRANCH   5   6
ATOM      6  C   UNL     1       7.641 -20.847 -15.540  1.00  0.00     0.042 C 
ATOM      7  O   UNL     1       6.604 -20.132 -15.507  1.00  0.00    -0.550 OA
ATOM      8  O   UNL     1       8.775 -20.444 -14.847  1.00  0.00    -0.550 OA
ENDBRANCH   5   6
ENDBRANCH   1   5
TORSDOF 3
ENDMDL
MODEL 9
REMARK VINA RESULT:    -2.363      2.382      3.512
REMARK INTER + INTRA:          -2.876
REMARK INTER:                  -2.726
REMARK INTRA:                  -0.150
REMARK UNBOUND:                -0.099
REMARK SMILES O=C([O-])CCC(=O)[O-]
REMARK SMILES IDX 4 1 2 2 1 3 3 4 5 5 6 6 7 7 8 8
REMARK H PARENT
REMARK Flexibility Score: inf
ROOT
ATOM      1  C   UNL     1       7.248 -22.509 -16.007  1.00  0.00     0.059 C 
ENDROOT
BRANCH   1   2
ATOM      2  C   UNL     1       7.578 -21.097 -15.629  1.00  0.00     0.042 C 
ATOM      3  O   UNL     1       8.750 -20.788 -15.287  1.00  0.00    -0.550 OA
ATOM      4  O   UNL     1       6.599 -20.112 -15.693  1.00  0.00    -0.550 OA
ENDBRANCH   1   2
BRANCH   1   5
ATOM      5  C   UNL     1       8.179 -23.031 -17.108  1.00  0.00     0.059 C 
BRANCH   5   6
ATOM      6  C   UNL     1       7.871 -22.403 -18.433  1.00  0.00     0.042 C 
ATOM      7  O   UNL     1       8.654 -21.547 -18.925  1.00  0.00    -0.550 OA
ATOM      8  O   UNL     1       6.743 -22.793 -19.143  1.00  0.00    -0.550 OA
ENDBRANCH   5   6
ENDBRANCH   1   5
TORSDOF 3
ENDMDL
