MODEL 1
REMARK VINA RESULT:    -7.279      0.000      0.000
REMARK INTER + INTRA:          -9.100
REMARK INTER:                  -8.769
REMARK INTRA:                  -0.331
REMARK UNBOUND:                -0.331
REMARK SMILES O=c1c(O)c(-c2ccc(O)c(O)c2)oc2cc(O)cc(O)c12
REMARK SMILES IDX 5 1 3 2 2 3 1 4 22 5 20 6 19 7 17 8 16 9 15 10 14 11 6 12
REMARK SMILES IDX 7 13 8 14 9 15 13 16 11 17 10 18 12 20 4 22 21 24 18 26
REMARK H PARENT 10 19 12 21 4 23 21 25 18 27
REMARK Flexibility Score: inf
ROOT
ATOM      1  C   UNL     1     -11.854 -43.234  -7.007  1.00  0.00     0.180 A 
ATOM      2  C   UNL     1     -11.198 -43.167  -8.251  1.00  0.00     0.208 A 
ATOM      3  C   UNL     1     -11.918 -42.731  -9.375  1.00  0.00     0.238 A 
ATOM      4  O   UNL     1     -11.337 -42.655 -10.492  1.00  0.00    -0.285 OA
ATOM      5  C   UNL     1     -13.280 -42.391  -9.241  1.00  0.00     0.111 A 
ATOM      6  C   UNL     1     -14.077 -41.948 -10.323  1.00  0.00     0.134 A 
ATOM      7  C   UNL     1     -15.428 -41.637 -10.110  1.00  0.00     0.093 A 
ATOM      8  C   UNL     1     -15.997 -41.762  -8.842  1.00  0.00     0.123 A 
ATOM      9  C   UNL     1     -15.215 -42.200  -7.768  1.00  0.00     0.094 A 
ATOM     10  C   UNL     1     -13.865 -42.512  -7.959  1.00  0.00     0.146 A 
ATOM     11  O   UNL     1     -13.143 -42.920  -6.922  1.00  0.00    -0.452 OA
ENDROOT
BRANCH   1  12
ATOM     12  C   UNL     1     -11.158 -43.666  -5.773  1.00  0.00     0.025 A 
ATOM     13  C   UNL     1     -11.274 -44.997  -5.344  1.00  0.00     0.016 A 
ATOM     14  C   UNL     1     -10.643 -45.420  -4.172  1.00  0.00     0.051 A 
ATOM     15  C   UNL     1      -9.901 -44.515  -3.402  1.00  0.00     0.157 A 
ATOM     16  C   UNL     1     -10.429 -42.755  -4.987  1.00  0.00     0.062 A 
ATOM     17  C   UNL     1      -9.797 -43.175  -3.810  1.00  0.00     0.158 A 
BRANCH  15  18
ATOM     18  O   UNL     1      -9.271 -44.941  -2.234  1.00  0.00    -0.504 OA
ATOM     19  H   UNL     1      -8.747 -44.299  -1.649  1.00  0.00     0.293 HD
ENDBRANCH  15  18
BRANCH  17  20
ATOM     20  O   UNL     1      -9.078 -42.247  -3.059  1.00  0.00    -0.504 OA
ATOM     21  H   UNL     1      -9.198 -41.248  -3.179  1.00  0.00     0.293 HD
ENDBRANCH  17  20
ENDBRANCH   1  12
BRANCH   2  22
ATOM     22  O   UNL     1      -9.860 -43.556  -8.367  1.00  0.00    -0.502 OA
ATOM     23  H   UNL     1      -9.475 -43.924  -9.228  1.00  0.00     0.293 HD
ENDBRANCH   2  22
BRANCH   6  24
ATOM     24  O   UNL     1     -13.539 -41.814 -11.604  1.00  0.00    -0.507 OA
ATOM     25  H   UNL     1     -14.113 -41.562 -12.400  1.00  0.00     0.293 HD
ENDBRANCH   6  24
BRANCH   8  26
ATOM     26  O   UNL     1     -17.342 -41.449  -8.657  1.00  0.00    -0.508 OA
ATOM     27  H   UNL     1     -17.907 -41.924  -7.963  1.00  0.00     0.293 HD
ENDBRANCH   8  26
TORSDOF 6
ENDMDL
MODEL 2
REMARK VINA RESULT:    -7.186      7.284      9.684
REMARK INTER + INTRA:          -8.986
REMARK INTER:                  -8.963
REMARK INTRA:                  -0.023
REMARK UNBOUND:                -0.331
REMARK SMILES O=c1c(O)c(-c2ccc(O)c(O)c2)oc2cc(O)cc(O)c12
REMARK SMILES IDX 5 1 3 2 2 3 1 4 22 5 20 6 19 7 17 8 16 9 15 10 14 11 6 12
REMARK SMILES IDX 7 13 8 14 9 15 13 16 11 17 10 18 12 20 4 22 21 24 18 26
REMARK H PARENT 10 19 12 21 4 23 21 25 18 27
REMARK Flexibility Score: inf
ROOT
ATOM      1  C   UNL     1     -16.230 -46.348  -1.680  1.00  0.00     0.180 A 
ATOM      2  C   UNL     1     -17.316 -45.507  -1.989  1.00  0.00     0.208 A 
ATOM      3  C   UNL     1     -18.017 -44.893  -0.939  1.00  0.00     0.238 A 
ATOM      4  O   UNL     1     -18.985 -44.128  -1.203  1.00  0.00    -0.285 OA
ATOM      5  C   UNL     1     -17.637 -45.145   0.395  1.00  0.00     0.111 A 
ATOM      6  C   UNL     1     -18.293 -44.571   1.510  1.00  0.00     0.134 A 
ATOM      7  C   UNL     1     -17.859 -44.879   2.808  1.00  0.00     0.093 A 
ATOM      8  C   UNL     1     -16.787 -45.748   3.013  1.00  0.00     0.123 A 
ATOM      9  C   UNL     1     -16.134 -46.319   1.916  1.00  0.00     0.094 A 
ATOM     10  C   UNL     1     -16.549 -46.023   0.614  1.00  0.00     0.146 A 
ATOM     11  O   UNL     1     -15.908 -46.574  -0.410  1.00  0.00    -0.452 OA
ENDROOT
BRANCH   1  12
ATOM     12  C   UNL     1     -15.428 -47.016  -2.732  1.00  0.00     0.025 A 
ATOM     13  C   UNL     1     -15.139 -48.384  -2.615  1.00  0.00     0.016 A 
ATOM     14  C   UNL     1     -14.368 -49.030  -3.584  1.00  0.00     0.051 A 
ATOM     15  C   UNL     1     -13.861 -48.314  -4.676  1.00  0.00     0.157 A 
ATOM     16  C   UNL     1     -14.900 -46.296  -3.818  1.00  0.00     0.062 A 
ATOM     17  C   UNL     1     -14.125 -46.939  -4.791  1.00  0.00     0.158 A 
BRANCH  15  18
ATOM     18  O   UNL     1     -13.093 -48.961  -5.643  1.00  0.00    -0.504 OA
ATOM     19  H   UNL     1     -12.783 -49.919  -5.522  1.00  0.00     0.293 HD
ENDBRANCH  15  18
BRANCH  17  20
ATOM     20  O   UNL     1     -13.623 -46.196  -5.858  1.00  0.00    -0.504 OA
ATOM     21  H   UNL     1     -13.194 -46.633  -6.665  1.00  0.00     0.293 HD
ENDBRANCH  17  20
ENDBRANCH   1  12
BRANCH   2  22
ATOM     22  O   UNL     1     -17.704 -45.312  -3.317  1.00  0.00    -0.502 OA
ATOM     23  H   UNL     1     -17.123 -44.820  -3.985  1.00  0.00     0.293 HD
ENDBRANCH   2  22
BRANCH   6  24
ATOM     24  O   UNL     1     -19.370 -43.699   1.338  1.00  0.00    -0.507 OA
ATOM     25  H   UNL     1     -19.374 -42.994   0.610  1.00  0.00     0.293 HD
ENDBRANCH   6  24
BRANCH   8  26
ATOM     26  O   UNL     1     -16.377 -46.039   4.312  1.00  0.00    -0.508 OA
ATOM     27  H   UNL     1     -16.965 -45.836   5.113  1.00  0.00     0.293 HD
ENDBRANCH   8  26
TORSDOF 6
ENDMDL
MODEL 3
REMARK VINA RESULT:    -7.175      3.982      6.769
REMARK INTER + INTRA:          -8.974
REMARK INTER:                  -8.649
REMARK INTRA:                  -0.325
REMARK UNBOUND:                -0.331
REMARK SMILES O=c1c(O)c(-c2ccc(O)c(O)c2)oc2cc(O)cc(O)c12
REMARK SMILES IDX 5 1 3 2 2 3 1 4 22 5 20 6 19 7 17 8 16 9 15 10 14 11 6 12
REMARK SMILES IDX 7 13 8 14 9 15 13 16 11 17 10 18 12 20 4 22 21 24 18 26
REMARK H PARENT 10 19 12 21 4 23 21 25 18 27
REMARK Flexibility Score: inf
ROOT
ATOM      1  C   UNL     1     -11.937 -42.404 -10.186  1.00  0.00     0.180 A 
ATOM      2  C   UNL     1     -10.902 -41.525  -9.814  1.00  0.00     0.208 A 
ATOM      3  C   UNL     1      -9.581 -41.845 -10.168  1.00  0.00     0.238 A 
ATOM      4  O   UNL     1      -8.646 -41.060  -9.851  1.00  0.00    -0.285 OA
ATOM      5  C   UNL     1      -9.316 -43.042 -10.865  1.00  0.00     0.111 A 
ATOM      6  C   UNL     1      -8.015 -43.440 -11.255  1.00  0.00     0.134 A 
ATOM      7  C   UNL     1      -7.834 -44.651 -11.939  1.00  0.00     0.093 A 
ATOM      8  C   UNL     1      -8.923 -45.470 -12.239  1.00  0.00     0.123 A 
ATOM      9  C   UNL     1     -10.212 -45.083 -11.857  1.00  0.00     0.094 A 
ATOM     10  C   UNL     1     -10.414 -43.878 -11.176  1.00  0.00     0.146 A 
ATOM     11  O   UNL     1     -11.648 -43.531 -10.831  1.00  0.00    -0.452 OA
ENDROOT
BRANCH   1  12
ATOM     12  C   UNL     1     -13.356 -42.127  -9.866  1.00  0.00     0.025 A 
ATOM     13  C   UNL     1     -14.138 -41.393 -10.771  1.00  0.00     0.016 A 
ATOM     14  C   UNL     1     -15.473 -41.103 -10.481  1.00  0.00     0.051 A 
ATOM     15  C   UNL     1     -16.042 -41.529  -9.274  1.00  0.00     0.157 A 
ATOM     16  C   UNL     1     -13.925 -42.535  -8.646  1.00  0.00     0.062 A 
ATOM     17  C   UNL     1     -15.263 -42.245  -8.351  1.00  0.00     0.158 A 
BRANCH  15  18
ATOM     18  O   UNL     1     -17.376 -41.241  -8.987  1.00  0.00    -0.504 OA
ATOM     19  H   UNL     1     -18.053 -41.975  -8.812  1.00  0.00     0.293 HD
ENDBRANCH  15  18
BRANCH  17  20
ATOM     20  O   UNL     1     -15.795 -42.671  -7.135  1.00  0.00    -0.504 OA
ATOM     21  H   UNL     1     -15.504 -43.535  -6.693  1.00  0.00     0.293 HD
ENDBRANCH  17  20
ENDBRANCH   1  12
BRANCH   2  22
ATOM     22  O   UNL     1     -11.184 -40.370  -9.080  1.00  0.00    -0.502 OA
ATOM     23  H   UNL     1     -10.830 -40.223  -8.143  1.00  0.00     0.293 HD
ENDBRANCH   2  22
BRANCH   6  24
ATOM     24  O   UNL     1      -6.905 -42.644 -10.968  1.00  0.00    -0.507 OA
ATOM     25  H   UNL     1      -6.021 -43.046 -10.680  1.00  0.00     0.293 HD
ENDBRANCH   6  24
BRANCH   8  26
ATOM     26  O   UNL     1      -8.716 -46.669 -12.918  1.00  0.00    -0.508 OA
ATOM     27  H   UNL     1      -8.608 -47.547 -12.424  1.00  0.00     0.293 HD
ENDBRANCH   8  26
TORSDOF 6
ENDMDL
MODEL 4
REMARK VINA RESULT:    -7.129      1.476      2.787
REMARK INTER + INTRA:          -8.918
REMARK INTER:                  -8.925
REMARK INTRA:                   0.007
REMARK UNBOUND:                -0.331
REMARK SMILES O=c1c(O)c(-c2ccc(O)c(O)c2)oc2cc(O)cc(O)c12
REMARK SMILES IDX 5 1 3 2 2 3 1 4 22 5 20 6 19 7 17 8 16 9 15 10 14 11 6 12
REMARK SMILES IDX 7 13 8 14 9 15 13 16 11 17 10 18 12 20 4 22 21 24 18 26
REMARK H PARENT 10 19 12 21 4 23 21 25 18 27
REMARK Flexibility Score: inf
ROOT
ATOM      1  C   UNL     1     -12.609 -42.905  -6.486  1.00  0.00     0.180 A 
ATOM      2  C   UNL     1     -13.977 -43.237  -6.474  1.00  0.00     0.208 A 
ATOM      3  C   UNL     1     -14.810 -42.712  -7.475  1.00  0.00     0.238 A 
ATOM      4  O   UNL     1     -16.036 -43.012  -7.482  1.00  0.00    -0.285 OA
ATOM      5  C   UNL     1     -14.269 -41.853  -8.454  1.00  0.00     0.111 A 
ATOM      6  C   UNL     1     -15.040 -41.279  -9.492  1.00  0.00     0.134 A 
ATOM      7  C   UNL     1     -14.429 -40.426 -10.423  1.00  0.00     0.093 A 
ATOM      8  C   UNL     1     -13.067 -40.134 -10.335  1.00  0.00     0.123 A 
ATOM      9  C   UNL     1     -12.299 -40.698  -9.310  1.00  0.00     0.094 A 
ATOM     10  C   UNL     1     -12.889 -41.553  -8.374  1.00  0.00     0.146 A 
ATOM     11  O   UNL     1     -12.137 -42.080  -7.415  1.00  0.00    -0.452 OA
ENDROOT
BRANCH   1  12
ATOM     12  C   UNL     1     -11.663 -43.433  -5.476  1.00  0.00     0.025 A 
ATOM     13  C   UNL     1     -11.623 -44.812  -5.220  1.00  0.00     0.016 A 
ATOM     14  C   UNL     1     -10.753 -45.329  -4.258  1.00  0.00     0.051 A 
ATOM     15  C   UNL     1      -9.921 -44.473  -3.525  1.00  0.00     0.157 A 
ATOM     16  C   UNL     1     -10.841 -42.574  -4.724  1.00  0.00     0.062 A 
ATOM     17  C   UNL     1      -9.968 -43.089  -3.757  1.00  0.00     0.158 A 
BRANCH  15  18
ATOM     18  O   UNL     1      -9.052 -44.992  -2.566  1.00  0.00    -0.504 OA
ATOM     19  H   UNL     1      -8.062 -44.770  -2.571  1.00  0.00     0.293 HD
ENDBRANCH  15  18
BRANCH  17  20
ATOM     20  O   UNL     1      -9.164 -42.209  -3.035  1.00  0.00    -0.504 OA
ATOM     21  H   UNL     1      -9.039 -42.292  -2.033  1.00  0.00     0.293 HD
ENDBRANCH  17  20
ENDBRANCH   1  12
BRANCH   2  22
ATOM     22  O   UNL     1     -14.498 -44.051  -5.466  1.00  0.00    -0.502 OA
ATOM     23  H   UNL     1     -15.238 -43.742  -4.848  1.00  0.00     0.293 HD
ENDBRANCH   2  22
BRANCH   6  24
ATOM     24  O   UNL     1     -16.405 -41.549  -9.607  1.00  0.00    -0.507 OA
ATOM     25  H   UNL     1     -16.903 -42.088  -8.908  1.00  0.00     0.293 HD
ENDBRANCH   6  24
BRANCH   8  26
ATOM     26  O   UNL     1     -12.484 -39.282 -11.270  1.00  0.00    -0.508 OA
ATOM     27  H   UNL     1     -11.510 -39.009 -11.205  1.00  0.00     0.293 HD
ENDBRANCH   8  26
TORSDOF 6
ENDMDL
MODEL 5
REMARK VINA RESULT:    -7.046      6.458     10.338
REMARK INTER + INTRA:          -8.818
REMARK INTER:                  -8.500
REMARK INTRA:                  -0.318
REMARK UNBOUND:                -0.331
REMARK SMILES O=c1c(O)c(-c2ccc(O)c(O)c2)oc2cc(O)cc(O)c12
REMARK SMILES IDX 5 1 3 2 2 3 1 4 22 5 20 6 19 7 17 8 16 9 15 10 14 11 6 12
REMARK SMILES IDX 7 13 8 14 9 15 13 16 11 17 10 18 12 20 4 22 21 24 18 26
REMARK H PARENT 10 19 12 21 4 23 21 25 18 27
REMARK Flexibility Score: inf
ROOT
ATOM      1  C   UNL     1     -15.238 -44.592  -0.471  1.00  0.00     0.180 A 
ATOM      2  C   UNL     1     -16.193 -44.954   0.498  1.00  0.00     0.208 A 
ATOM      3  C   UNL     1     -15.896 -44.745   1.854  1.00  0.00     0.238 A 
ATOM      4  O   UNL     1     -16.749 -45.055   2.730  1.00  0.00    -0.285 OA
ATOM      5  C   UNL     1     -14.648 -44.200   2.218  1.00  0.00     0.111 A 
ATOM      6  C   UNL     1     -14.269 -43.963   3.561  1.00  0.00     0.134 A 
ATOM      7  C   UNL     1     -13.004 -43.426   3.842  1.00  0.00     0.093 A 
ATOM      8  C   UNL     1     -12.113 -43.124   2.812  1.00  0.00     0.123 A 
ATOM      9  C   UNL     1     -12.481 -43.356   1.482  1.00  0.00     0.094 A 
ATOM     10  C   UNL     1     -13.739 -43.889   1.181  1.00  0.00     0.146 A 
ATOM     11  O   UNL     1     -14.066 -44.094  -0.089  1.00  0.00    -0.452 OA
ENDROOT
BRANCH   1  12
ATOM     12  C   UNL     1     -15.485 -44.763  -1.921  1.00  0.00     0.025 A 
ATOM     13  C   UNL     1     -14.916 -45.855  -2.595  1.00  0.00     0.016 A 
ATOM     14  C   UNL     1     -15.118 -46.024  -3.967  1.00  0.00     0.051 A 
ATOM     15  C   UNL     1     -15.879 -45.095  -4.689  1.00  0.00     0.157 A 
ATOM     16  C   UNL     1     -16.230 -43.820  -2.654  1.00  0.00     0.062 A 
ATOM     17  C   UNL     1     -16.433 -43.986  -4.029  1.00  0.00     0.158 A 
BRANCH  15  18
ATOM     18  O   UNL     1     -16.081 -45.267  -6.057  1.00  0.00    -0.504 OA
ATOM     19  H   UNL     1     -15.895 -46.153  -6.514  1.00  0.00     0.293 HD
ENDBRANCH  15  18
BRANCH  17  20
ATOM     20  O   UNL     1     -17.182 -43.036  -4.722  1.00  0.00    -0.504 OA
ATOM     21  H   UNL     1     -17.341 -43.099  -5.721  1.00  0.00     0.293 HD
ENDBRANCH  17  20
ENDBRANCH   1  12
BRANCH   2  22
ATOM     22  O   UNL     1     -17.404 -45.538   0.113  1.00  0.00    -0.502 OA
ATOM     23  H   UNL     1     -18.301 -45.150   0.379  1.00  0.00     0.293 HD
ENDBRANCH   2  22
BRANCH   6  24
ATOM     24  O   UNL     1     -15.136 -44.255   4.615  1.00  0.00    -0.507 OA
ATOM     25  H   UNL     1     -14.960 -43.928   5.558  1.00  0.00     0.293 HD
ENDBRANCH   6  24
BRANCH   8  26
ATOM     26  O   UNL     1     -10.862 -42.592   3.118  1.00  0.00    -0.508 OA
ATOM     27  H   UNL     1     -10.739 -41.920   3.867  1.00  0.00     0.293 HD
ENDBRANCH   8  26
TORSDOF 6
ENDMDL
MODEL 6
REMARK VINA RESULT:    -7.017      2.201      6.744
REMARK INTER + INTRA:          -8.784
REMARK INTER:                  -8.487
REMARK INTRA:                  -0.296
REMARK UNBOUND:                -0.331
REMARK SMILES O=c1c(O)c(-c2ccc(O)c(O)c2)oc2cc(O)cc(O)c12
REMARK SMILES IDX 5 1 3 2 2 3 1 4 22 5 20 6 19 7 17 8 16 9 15 10 14 11 6 12
REMARK SMILES IDX 7 13 8 14 9 15 13 16 11 17 10 18 12 20 4 22 21 24 18 26
REMARK H PARENT 10 19 12 21 4 23 21 25 18 27
REMARK Flexibility Score: inf
ROOT
ATOM      1  C   UNL     1     -11.810 -43.059  -6.880  1.00  0.00     0.180 A 
ATOM      2  C   UNL     1     -12.138 -44.417  -7.055  1.00  0.00     0.208 A 
ATOM      3  C   UNL     1     -12.035 -45.285  -5.956  1.00  0.00     0.238 A 
ATOM      4  O   UNL     1     -12.338 -46.502  -6.097  1.00  0.00    -0.285 OA
ATOM      5  C   UNL     1     -11.590 -44.789  -4.714  1.00  0.00     0.111 A 
ATOM      6  C   UNL     1     -11.455 -45.597  -3.560  1.00  0.00     0.134 A 
ATOM      7  C   UNL     1     -10.996 -45.029  -2.362  1.00  0.00     0.093 A 
ATOM      8  C   UNL     1     -10.669 -43.674  -2.296  1.00  0.00     0.123 A 
ATOM      9  C   UNL     1     -10.800 -42.869  -3.432  1.00  0.00     0.094 A 
ATOM     10  C   UNL     1     -11.258 -43.416  -4.635  1.00  0.00     0.146 A 
ATOM     11  O   UNL     1     -11.379 -42.629  -5.698  1.00  0.00    -0.452 OA
ENDROOT
BRANCH   1  12
ATOM     12  C   UNL     1     -11.910 -42.077  -7.985  1.00  0.00     0.025 A 
ATOM     13  C   UNL     1     -10.874 -41.989  -8.928  1.00  0.00     0.016 A 
ATOM     14  C   UNL     1     -10.938 -41.057  -9.965  1.00  0.00     0.051 A 
ATOM     15  C   UNL     1     -12.031 -40.186 -10.067  1.00  0.00     0.157 A 
ATOM     16  C   UNL     1     -12.996 -41.188  -8.078  1.00  0.00     0.062 A 
ATOM     17  C   UNL     1     -13.063 -40.250  -9.116  1.00  0.00     0.158 A 
BRANCH  15  18
ATOM     18  O   UNL     1     -12.094 -39.258 -11.105  1.00  0.00    -0.504 OA
ATOM     19  H   UNL     1     -11.338 -39.157 -11.773  1.00  0.00     0.293 HD
ENDBRANCH  15  18
BRANCH  17  20
ATOM     20  O   UNL     1     -14.157 -39.389  -9.181  1.00  0.00    -0.504 OA
ATOM     21  H   UNL     1     -14.816 -39.297  -8.417  1.00  0.00     0.293 HD
ENDBRANCH  17  20
ENDBRANCH   1  12
BRANCH   2  22
ATOM     22  O   UNL     1     -12.530 -44.894  -8.308  1.00  0.00    -0.502 OA
ATOM     23  H   UNL     1     -13.223 -44.422  -8.876  1.00  0.00     0.293 HD
ENDBRANCH   2  22
BRANCH   6  24
ATOM     24  O   UNL     1     -11.773 -46.956  -3.594  1.00  0.00    -0.507 OA
ATOM     25  H   UNL     1     -12.377 -47.380  -2.900  1.00  0.00     0.293 HD
ENDBRANCH   6  24
BRANCH   8  26
ATOM     26  O   UNL     1     -10.214 -43.135  -1.095  1.00  0.00    -0.508 OA
ATOM     27  H   UNL     1      -9.232 -42.934  -0.941  1.00  0.00     0.293 HD
ENDBRANCH   8  26
TORSDOF 6
ENDMDL
MODEL 7
REMARK VINA RESULT:    -6.929      2.138      2.654
REMARK INTER + INTRA:          -8.677
REMARK INTER:                  -8.390
REMARK INTRA:                  -0.287
REMARK UNBOUND:                -0.331
REMARK SMILES O=c1c(O)c(-c2ccc(O)c(O)c2)oc2cc(O)cc(O)c12
REMARK SMILES IDX 5 1 3 2 2 3 1 4 22 5 20 6 19 7 17 8 16 9 15 10 14 11 6 12
REMARK SMILES IDX 7 13 8 14 9 15 13 16 11 17 10 18 12 20 4 22 21 24 18 26
REMARK H PARENT 10 19 12 21 4 23 21 25 18 27
REMARK Flexibility Score: inf
ROOT
ATOM      1  C   UNL     1     -11.250 -42.856  -5.760  1.00  0.00     0.180 A 
ATOM      2  C   UNL     1     -10.766 -43.769  -6.715  1.00  0.00     0.208 A 
ATOM      3  C   UNL     1     -10.999 -43.514  -8.076  1.00  0.00     0.238 A 
ATOM      4  O   UNL     1     -10.560 -44.319  -8.942  1.00  0.00    -0.285 OA
ATOM      5  C   UNL     1     -11.726 -42.367  -8.456  1.00  0.00     0.111 A 
ATOM      6  C   UNL     1     -12.008 -42.040  -9.804  1.00  0.00     0.134 A 
ATOM      7  C   UNL     1     -12.747 -40.885 -10.100  1.00  0.00     0.093 A 
ATOM      8  C   UNL     1     -13.209 -40.053  -9.078  1.00  0.00     0.123 A 
ATOM      9  C   UNL     1     -12.934 -40.371  -7.744  1.00  0.00     0.094 A 
ATOM     10  C   UNL     1     -12.197 -41.517  -7.428  1.00  0.00     0.146 A 
ATOM     11  O   UNL     1     -11.945 -41.792  -6.154  1.00  0.00    -0.452 OA
ENDROOT
BRANCH   1  12
ATOM     12  C   UNL     1     -11.028 -43.045  -4.308  1.00  0.00     0.025 A 
ATOM     13  C   UNL     1      -9.776 -42.738  -3.754  1.00  0.00     0.016 A 
ATOM     14  C   UNL     1      -9.539 -42.927  -2.391  1.00  0.00     0.051 A 
ATOM     15  C   UNL     1     -10.545 -43.443  -1.563  1.00  0.00     0.157 A 
ATOM     16  C   UNL     1     -12.030 -43.581  -3.478  1.00  0.00     0.062 A 
ATOM     17  C   UNL     1     -11.795 -43.775  -2.111  1.00  0.00     0.158 A 
BRANCH  15  18
ATOM     18  O   UNL     1     -10.307 -43.629  -0.203  1.00  0.00    -0.504 OA
ATOM     19  H   UNL     1      -9.867 -44.472   0.149  1.00  0.00     0.293 HD
ENDBRANCH  15  18
BRANCH  17  20
ATOM     20  O   UNL     1     -12.812 -44.302  -1.318  1.00  0.00    -0.504 OA
ATOM     21  H   UNL     1     -12.642 -44.643  -0.379  1.00  0.00     0.293 HD
ENDBRANCH  17  20
ENDBRANCH   1  12
BRANCH   2  22
ATOM     22  O   UNL     1     -10.090 -44.924  -6.311  1.00  0.00    -0.502 OA
ATOM     23  H   UNL     1     -10.199 -45.319  -5.385  1.00  0.00     0.293 HD
ENDBRANCH   2  22
BRANCH   6  24
ATOM     24  O   UNL     1     -11.562 -42.852 -10.848  1.00  0.00    -0.507 OA
ATOM     25  H   UNL     1     -11.748 -42.623 -11.818  1.00  0.00     0.293 HD
ENDBRANCH   6  24
BRANCH   8  26
ATOM     26  O   UNL     1     -13.941 -38.913  -9.399  1.00  0.00    -0.508 OA
ATOM     27  H   UNL     1     -13.706 -38.338 -10.200  1.00  0.00     0.293 HD
ENDBRANCH   8  26
TORSDOF 6
ENDMDL
MODEL 8
REMARK VINA RESULT:    -6.877      4.288      7.082
REMARK INTER + INTRA:          -8.615
REMARK INTER:                  -8.284
REMARK INTRA:                  -0.331
REMARK UNBOUND:                -0.331
REMARK SMILES O=c1c(O)c(-c2ccc(O)c(O)c2)oc2cc(O)cc(O)c12
REMARK SMILES IDX 5 1 3 2 2 3 1 4 22 5 20 6 19 7 17 8 16 9 15 10 14 11 6 12
REMARK SMILES IDX 7 13 8 14 9 15 13 16 11 17 10 18 12 20 4 22 21 24 18 26
REMARK H PARENT 10 19 12 21 4 23 21 25 18 27
REMARK Flexibility Score: inf
ROOT
ATOM      1  C   UNL     1     -15.164 -43.237  -5.774  1.00  0.00     0.180 A 
ATOM      2  C   UNL     1     -14.502 -44.478  -5.738  1.00  0.00     0.208 A 
ATOM      3  C   UNL     1     -14.880 -45.420  -4.768  1.00  0.00     0.238 A 
ATOM      4  O   UNL     1     -14.302 -46.541  -4.733  1.00  0.00    -0.285 OA
ATOM      5  C   UNL     1     -15.894 -45.099  -3.842  1.00  0.00     0.111 A 
ATOM      6  C   UNL     1     -16.330 -45.989  -2.832  1.00  0.00     0.134 A 
ATOM      7  C   UNL     1     -17.340 -45.591  -1.942  1.00  0.00     0.093 A 
ATOM      8  C   UNL     1     -17.918 -44.324  -2.042  1.00  0.00     0.123 A 
ATOM      9  C   UNL     1     -17.491 -43.440  -3.038  1.00  0.00     0.094 A 
ATOM     10  C   UNL     1     -16.488 -43.819  -3.936  1.00  0.00     0.146 A 
ATOM     11  O   UNL     1     -16.106 -42.963  -4.876  1.00  0.00    -0.452 OA
ENDROOT
BRANCH   1  12
ATOM     12  C   UNL     1     -14.836 -42.199  -6.779  1.00  0.00     0.025 A 
ATOM     13  C   UNL     1     -13.954 -41.162  -6.439  1.00  0.00     0.016 A 
ATOM     14  C   UNL     1     -13.646 -40.162  -7.364  1.00  0.00     0.051 A 
ATOM     15  C   UNL     1     -14.229 -40.174  -8.637  1.00  0.00     0.157 A 
ATOM     16  C   UNL     1     -15.436 -42.196  -8.051  1.00  0.00     0.062 A 
ATOM     17  C   UNL     1     -15.131 -41.194  -8.981  1.00  0.00     0.158 A 
BRANCH  15  18
ATOM     18  O   UNL     1     -13.919 -39.175  -9.559  1.00  0.00    -0.504 OA
ATOM     19  H   UNL     1     -14.140 -39.274 -10.544  1.00  0.00     0.293 HD
ENDBRANCH  15  18
BRANCH  17  20
ATOM     20  O   UNL     1     -15.739 -41.226 -10.234  1.00  0.00    -0.504 OA
ATOM     21  H   UNL     1     -16.631 -40.779 -10.413  1.00  0.00     0.293 HD
ENDBRANCH  17  20
ENDBRANCH   1  12
BRANCH   2  22
ATOM     22  O   UNL     1     -13.466 -44.754  -6.635  1.00  0.00    -0.502 OA
ATOM     23  H   UNL     1     -12.966 -44.023  -7.126  1.00  0.00     0.293 HD
ENDBRANCH   2  22
BRANCH   6  24
ATOM     24  O   UNL     1     -15.771 -47.261  -2.704  1.00  0.00    -0.507 OA
ATOM     25  H   UNL     1     -14.769 -47.410  -2.748  1.00  0.00     0.293 HD
ENDBRANCH   6  24
BRANCH   8  26
ATOM     26  O   UNL     1     -18.917 -43.953  -1.145  1.00  0.00    -0.508 OA
ATOM     27  H   UNL     1     -19.754 -44.511  -1.022  1.00  0.00     0.293 HD
ENDBRANCH   8  26
TORSDOF 6
ENDMDL
MODEL 9
REMARK VINA RESULT:    -6.798      7.291      8.766
REMARK INTER + INTRA:          -8.520
REMARK INTER:                  -8.313
REMARK INTRA:                  -0.207
REMARK UNBOUND:                -0.331
REMARK SMILES O=c1c(O)c(-c2ccc(O)c(O)c2)oc2cc(O)cc(O)c12
REMARK SMILES IDX 5 1 3 2 2 3 1 4 22 5 20 6 19 7 17 8 16 9 15 10 14 11 6 12
REMARK SMILES IDX 7 13 8 14 9 15 13 16 11 17 10 18 12 20 4 22 21 24 18 26
REMARK H PARENT 10 19 12 21 4 23 21 25 18 27
REMARK Flexibility Score: inf
ROOT
ATOM      1  C   UNL     1     -16.242 -45.530  -0.049  1.00  0.00     0.180 A 
ATOM      2  C   UNL     1     -15.472 -46.666  -0.361  1.00  0.00     0.208 A 
ATOM      3  C   UNL     1     -15.132 -46.907  -1.702  1.00  0.00     0.238 A 
ATOM      4  O   UNL     1     -14.432 -47.916  -1.992  1.00  0.00    -0.285 OA
ATOM      5  C   UNL     1     -15.583 -46.025  -2.705  1.00  0.00     0.111 A 
ATOM      6  C   UNL     1     -15.289 -46.199  -4.079  1.00  0.00     0.134 A 
ATOM      7  C   UNL     1     -15.783 -45.281  -5.018  1.00  0.00     0.093 A 
ATOM      8  C   UNL     1     -16.564 -44.198  -4.613  1.00  0.00     0.123 A 
ATOM      9  C   UNL     1     -16.859 -44.020  -3.257  1.00  0.00     0.094 A 
ATOM     10  C   UNL     1     -16.373 -44.923  -2.305  1.00  0.00     0.146 A 
ATOM     11  O   UNL     1     -16.662 -44.728  -1.024  1.00  0.00    -0.452 OA
ENDROOT
BRANCH   1  12
ATOM     12  C   UNL     1     -16.625 -45.196   1.342  1.00  0.00     0.025 A 
ATOM     13  C   UNL     1     -17.981 -45.184   1.702  1.00  0.00     0.016 A 
ATOM     14  C   UNL     1     -18.366 -44.853   3.003  1.00  0.00     0.051 A 
ATOM     15  C   UNL     1     -17.401 -44.511   3.960  1.00  0.00     0.157 A 
ATOM     16  C   UNL     1     -15.660 -44.833   2.300  1.00  0.00     0.062 A 
ATOM     17  C   UNL     1     -16.042 -44.498   3.605  1.00  0.00     0.158 A 
BRANCH  15  18
ATOM     18  O   UNL     1     -17.787 -44.183   5.258  1.00  0.00    -0.504 OA
ATOM     19  H   UNL     1     -17.734 -44.856   6.015  1.00  0.00     0.293 HD
ENDBRANCH  15  18
BRANCH  17  20
ATOM     20  O   UNL     1     -15.059 -44.149   4.529  1.00  0.00    -0.504 OA
ATOM     21  H   UNL     1     -14.434 -44.836   4.935  1.00  0.00     0.293 HD
ENDBRANCH  17  20
ENDBRANCH   1  12
BRANCH   2  22
ATOM     22  O   UNL     1     -15.078 -47.551   0.646  1.00  0.00    -0.502 OA
ATOM     23  H   UNL     1     -15.740 -48.129   1.149  1.00  0.00     0.293 HD
ENDBRANCH   2  22
BRANCH   6  24
ATOM     24  O   UNL     1     -14.512 -47.273  -4.517  1.00  0.00    -0.507 OA
ATOM     25  H   UNL     1     -14.442 -47.516  -5.498  1.00  0.00     0.293 HD
ENDBRANCH   6  24
BRANCH   8  26
ATOM     26  O   UNL     1     -17.044 -43.302  -5.565  1.00  0.00    -0.508 OA
ATOM     27  H   UNL     1     -16.462 -42.560  -5.936  1.00  0.00     0.293 HD
ENDBRANCH   8  26
TORSDOF 6
ENDMDL
