MODEL 1
REMARK VINA RESULT:    -3.593      0.000      0.000
REMARK INTER + INTRA:          -8.175
REMARK INTER:                  -6.323
REMARK INTRA:                  -1.852
REMARK UNBOUND:                -1.852
REMARK SMILES CCCCCCC=CCCCCCCCC(=O)[O-]
REMARK SMILES IDX 10 1 11 2 12 3 13 4 14 5 15 6 16 7 17 8 18 9 9 10 8 11 7 12
REMARK SMILES IDX 6 13 5 14 4 15 3 16 2 17 1 18
REMARK H PARENT
REMARK Flexibility Score: inf
ROOT
ATOM      1  C   UNL     1      61.222  32.343  59.130  1.00  0.00     0.004 C 
ENDROOT
BRANCH   1   2
ATOM      2  C   UNL     1      60.701  31.079  59.838  1.00  0.00     0.000 C 
BRANCH   2   3
ATOM      3  C   UNL     1      60.935  31.113  61.357  1.00  0.00     0.000 C 
BRANCH   3   4
ATOM      4  C   UNL     1      61.765  29.922  61.856  1.00  0.00     0.000 C 
BRANCH   4   5
ATOM      5  C   UNL     1      63.260  30.144  61.588  1.00  0.00     0.006 C 
BRANCH   5   6
ATOM      6  C   UNL     1      63.901  28.960  60.851  1.00  0.00     0.053 C 
BRANCH   6   7
ATOM      7  C   UNL     1      65.345  29.212  60.543  1.00  0.00     0.041 C 
ATOM      8  O   UNL     1      65.685  30.241  59.901  1.00  0.00    -0.550 OA
ATOM      9  O   UNL     1      66.318  28.329  60.992  1.00  0.00    -0.550 OA
ENDBRANCH   6   7
ENDBRANCH   5   6
ENDBRANCH   4   5
ENDBRANCH   3   4
ENDBRANCH   2   3
ENDBRANCH   1   2
BRANCH   1  10
ATOM     10  C   UNL     1      62.670  32.178  58.648  1.00  0.00     0.027 C 
BRANCH  10  11
ATOM     11  C   UNL     1      63.609  33.154  59.303  1.00  0.00    -0.031 C 
ATOM     12  C   UNL     1      63.441  33.545  60.577  1.00  0.00    -0.031 C 
BRANCH  12  13
ATOM     13  C   UNL     1      64.387  34.512  61.232  1.00  0.00     0.027 C 
BRANCH  13  14
ATOM     14  C   UNL     1      64.165  35.941  60.715  1.00  0.00     0.004 C 
BRANCH  14  15
ATOM     15  C   UNL     1      62.929  36.618  61.335  1.00  0.00     0.000 C 
BRANCH  15  16
ATOM     16  C   UNL     1      61.777  36.892  60.350  1.00  0.00    -0.000 C 
BRANCH  16  17
ATOM     17  C   UNL     1      60.698  35.799  60.372  1.00  0.00    -0.003 C 
ATOM     18  C   UNL     1      59.713  35.977  59.222  1.00  0.00     0.004 C 
ENDBRANCH  16  17
ENDBRANCH  15  16
ENDBRANCH  14  15
ENDBRANCH  13  14
ENDBRANCH  12  13
ENDBRANCH  10  11
ENDBRANCH   1  10
TORSDOF 13
ENDMDL
MODEL 2
REMARK VINA RESULT:    -3.576     11.394     13.655
REMARK INTER + INTRA:          -8.145
REMARK INTER:                  -6.013
REMARK INTRA:                  -2.132
REMARK UNBOUND:                -1.852
REMARK SMILES CCCCCCC=CCCCCCCCC(=O)[O-]
REMARK SMILES IDX 10 1 11 2 12 3 13 4 14 5 15 6 16 7 17 8 18 9 9 10 8 11 7 12
REMARK SMILES IDX 6 13 5 14 4 15 3 16 2 17 1 18
REMARK H PARENT
REMARK Flexibility Score: inf
ROOT
ATOM      1  C   UNL     1      55.097  25.958  49.451  1.00  0.00     0.004 C 
ENDROOT
BRANCH   1   2
ATOM      2  C   UNL     1      53.590  26.261  49.358  1.00  0.00     0.000 C 
BRANCH   2   3
ATOM      3  C   UNL     1      53.139  27.331  50.366  1.00  0.00     0.000 C 
BRANCH   3   4
ATOM      4  C   UNL     1      52.966  28.715  49.723  1.00  0.00     0.000 C 
BRANCH   4   5
ATOM      5  C   UNL     1      53.712  29.790  50.527  1.00  0.00     0.006 C 
BRANCH   5   6
ATOM      6  C   UNL     1      53.438  29.685  52.033  1.00  0.00     0.053 C 
BRANCH   6   7
ATOM      7  C   UNL     1      54.707  29.629  52.827  1.00  0.00     0.041 C 
ATOM      8  O   UNL     1      55.534  30.575  52.767  1.00  0.00    -0.550 OA
ATOM      9  O   UNL     1      54.960  28.546  53.659  1.00  0.00    -0.550 OA
ENDBRANCH   6   7
ENDBRANCH   5   6
ENDBRANCH   4   5
ENDBRANCH   3   4
ENDBRANCH   2   3
ENDBRANCH   1   2
BRANCH   1  10
ATOM     10  C   UNL     1      55.615  26.047  50.894  1.00  0.00     0.027 C 
BRANCH  10  11
ATOM     11  C   UNL     1      56.737  27.038  51.041  1.00  0.00    -0.031 C 
ATOM     12  C   UNL     1      56.849  28.101  50.229  1.00  0.00    -0.031 C 
BRANCH  12  13
ATOM     13  C   UNL     1      57.965  29.096  50.384  1.00  0.00     0.027 C 
BRANCH  13  14
ATOM     14  C   UNL     1      58.954  29.008  49.213  1.00  0.00     0.004 C 
BRANCH  14  15
ATOM     15  C   UNL     1      60.190  28.150  49.535  1.00  0.00     0.000 C 
BRANCH  15  16
ATOM     16  C   UNL     1      59.994  26.633  49.355  1.00  0.00    -0.000 C 
BRANCH  16  17
ATOM     17  C   UNL     1      60.617  25.810  50.491  1.00  0.00    -0.003 C 
ATOM     18  C   UNL     1      60.310  26.430  51.851  1.00  0.00     0.004 C 
ENDBRANCH  16  17
ENDBRANCH  15  16
ENDBRANCH  14  15
ENDBRANCH  13  14
ENDBRANCH  12  13
ENDBRANCH  10  11
ENDBRANCH   1  10
TORSDOF 13
ENDMDL
MODEL 3
REMARK VINA RESULT:    -3.529      2.009      3.761
REMARK INTER + INTRA:          -8.062
REMARK INTER:                  -5.882
REMARK INTRA:                  -2.180
REMARK UNBOUND:                -1.852
REMARK SMILES CCCCCCC=CCCCCCCCC(=O)[O-]
REMARK SMILES IDX 10 1 11 2 12 3 13 4 14 5 15 6 16 7 17 8 18 9 9 10 8 11 7 12
REMARK SMILES IDX 6 13 5 14 4 15 3 16 2 17 1 18
REMARK H PARENT
REMARK Flexibility Score: inf
ROOT
ATOM      1  C   UNL     1      64.504  33.999  60.145  1.00  0.00     0.004 C 
ENDROOT
BRANCH   1   2
ATOM      2  C   UNL     1      64.068  32.547  60.412  1.00  0.00     0.000 C 
BRANCH   2   3
ATOM      3  C   UNL     1      63.313  31.928  59.225  1.00  0.00     0.000 C 
BRANCH   3   4
ATOM      4  C   UNL     1      61.795  31.867  59.454  1.00  0.00     0.000 C 
BRANCH   4   5
ATOM      5  C   UNL     1      61.453  32.116  60.930  1.00  0.00     0.006 C 
BRANCH   5   6
ATOM      6  C   UNL     1      60.754  30.913  61.577  1.00  0.00     0.053 C 
BRANCH   6   7
ATOM      7  C   UNL     1      61.548  29.654  61.412  1.00  0.00     0.041 C 
ATOM      8  O   UNL     1      62.709  29.570  61.890  1.00  0.00    -0.550 OA
ATOM      9  O   UNL     1      60.993  28.560  60.760  1.00  0.00    -0.550 OA
ENDBRANCH   6   7
ENDBRANCH   5   6
ENDBRANCH   4   5
ENDBRANCH   3   4
ENDBRANCH   2   3
ENDBRANCH   1   2
BRANCH   1  10
ATOM     10  C   UNL     1      64.483  34.852  61.422  1.00  0.00     0.027 C 
BRANCH  10  11
ATOM     11  C   UNL     1      63.430  35.925  61.378  1.00  0.00    -0.031 C 
ATOM     12  C   UNL     1      62.244  35.725  60.782  1.00  0.00    -0.031 C 
BRANCH  12  13
ATOM     13  C   UNL     1      61.189  36.795  60.749  1.00  0.00     0.027 C 
BRANCH  13  14
ATOM     14  C   UNL     1      60.155  36.521  59.647  1.00  0.00     0.004 C 
BRANCH  14  15
ATOM     15  C   UNL     1      60.361  35.161  58.958  1.00  0.00     0.000 C 
BRANCH  15  16
ATOM     16  C   UNL     1      59.905  35.103  57.488  1.00  0.00    -0.000 C 
BRANCH  16  17
ATOM     17  C   UNL     1      61.074  35.189  56.494  1.00  0.00    -0.003 C 
ATOM     18  C   UNL     1      62.406  34.934  57.192  1.00  0.00     0.004 C 
ENDBRANCH  16  17
ENDBRANCH  15  16
ENDBRANCH  14  15
ENDBRANCH  13  14
ENDBRANCH  12  13
ENDBRANCH  10  11
ENDBRANCH   1  10
TORSDOF 13
ENDMDL
MODEL 4
REMARK VINA RESULT:    -3.403     11.079     13.289
REMARK INTER + INTRA:          -7.841
REMARK INTER:                  -5.953
REMARK INTRA:                  -1.888
REMARK UNBOUND:                -1.852
REMARK SMILES CCCCCCC=CCCCCCCCC(=O)[O-]
REMARK SMILES IDX 10 1 11 2 12 3 13 4 14 5 15 6 16 7 17 8 18 9 9 10 8 11 7 12
REMARK SMILES IDX 6 13 5 14 4 15 3 16 2 17 1 18
REMARK H PARENT
REMARK Flexibility Score: inf
ROOT
ATOM      1  C   UNL     1      54.544  26.024  49.635  1.00  0.00     0.004 C 
ENDROOT
BRANCH   1   2
ATOM      2  C   UNL     1      53.702  27.313  49.639  1.00  0.00     0.000 C 
BRANCH   2   3
ATOM      3  C   UNL     1      54.468  28.518  50.208  1.00  0.00     0.000 C 
BRANCH   3   4
ATOM      4  C   UNL     1      53.583  29.764  50.364  1.00  0.00     0.000 C 
BRANCH   4   5
ATOM      5  C   UNL     1      53.575  30.253  51.819  1.00  0.00     0.006 C 
BRANCH   5   6
ATOM      6  C   UNL     1      54.376  29.329  52.747  1.00  0.00     0.053 C 
BRANCH   6   7
ATOM      7  C   UNL     1      54.736  30.008  54.032  1.00  0.00     0.041 C 
ATOM      8  O   UNL     1      54.063  29.790  55.074  1.00  0.00    -0.550 OA
ATOM      9  O   UNL     1      55.835  30.856  54.089  1.00  0.00    -0.550 OA
ENDBRANCH   6   7
ENDBRANCH   5   6
ENDBRANCH   4   5
ENDBRANCH   3   4
ENDBRANCH   2   3
ENDBRANCH   1   2
BRANCH   1  10
ATOM     10  C   UNL     1      55.705  26.091  50.638  1.00  0.00     0.027 C 
BRANCH  10  11
ATOM     11  C   UNL     1      57.038  25.831  49.992  1.00  0.00    -0.031 C 
ATOM     12  C   UNL     1      58.162  25.715  50.717  1.00  0.00    -0.031 C 
BRANCH  12  13
ATOM     13  C   UNL     1      59.491  25.445  50.070  1.00  0.00     0.027 C 
BRANCH  13  14
ATOM     14  C   UNL     1      60.403  26.679  50.140  1.00  0.00     0.004 C 
BRANCH  14  15
ATOM     15  C   UNL     1      60.027  27.760  49.112  1.00  0.00     0.000 C 
BRANCH  15  16
ATOM     16  C   UNL     1      59.665  29.131  49.714  1.00  0.00    -0.000 C 
BRANCH  16  17
ATOM     17  C   UNL     1      58.155  29.306  49.937  1.00  0.00    -0.003 C 
ATOM     18  C   UNL     1      57.831  29.424  51.423  1.00  0.00     0.004 C 
ENDBRANCH  16  17
ENDBRANCH  15  16
ENDBRANCH  14  15
ENDBRANCH  13  14
ENDBRANCH  12  13
ENDBRANCH  10  11
ENDBRANCH   1  10
TORSDOF 13
ENDMDL
MODEL 5
REMARK VINA RESULT:    -3.399     11.127     13.031
REMARK INTER + INTRA:          -7.835
REMARK INTER:                  -6.075
REMARK INTRA:                  -1.760
REMARK UNBOUND:                -1.852
REMARK SMILES CCCCCCC=CCCCCCCCC(=O)[O-]
REMARK SMILES IDX 10 1 11 2 12 3 13 4 14 5 15 6 16 7 17 8 18 9 9 10 8 11 7 12
REMARK SMILES IDX 6 13 5 14 4 15 3 16 2 17 1 18
REMARK H PARENT
REMARK Flexibility Score: inf
ROOT
ATOM      1  C   UNL     1      60.100  29.518  50.521  1.00  0.00     0.004 C 
ENDROOT
BRANCH   1   2
ATOM      2  C   UNL     1      61.468  28.811  50.515  1.00  0.00     0.000 C 
BRANCH   2   3
ATOM      3  C   UNL     1      61.589  27.767  49.393  1.00  0.00     0.000 C 
BRANCH   3   4
ATOM      4  C   UNL     1      62.459  26.566  49.792  1.00  0.00     0.000 C 
BRANCH   4   5
ATOM      5  C   UNL     1      61.589  25.385  50.247  1.00  0.00     0.006 C 
BRANCH   5   6
ATOM      6  C   UNL     1      60.129  25.530  49.794  1.00  0.00     0.053 C 
BRANCH   6   7
ATOM      7  C   UNL     1      59.192  25.620  50.958  1.00  0.00     0.041 C 
ATOM      8  O   UNL     1      58.022  25.164  50.866  1.00  0.00    -0.550 OA
ATOM      9  O   UNL     1      59.619  26.177  52.156  1.00  0.00    -0.550 OA
ENDBRANCH   6   7
ENDBRANCH   5   6
ENDBRANCH   4   5
ENDBRANCH   3   4
ENDBRANCH   2   3
ENDBRANCH   1   2
BRANCH   1  10
ATOM     10  C   UNL     1      59.221  29.083  49.339  1.00  0.00     0.027 C 
BRANCH  10  11
ATOM     11  C   UNL     1      57.841  28.669  49.771  1.00  0.00    -0.031 C 
ATOM     12  C   UNL     1      57.367  28.965  50.992  1.00  0.00    -0.031 C 
BRANCH  12  13
ATOM     13  C   UNL     1      55.984  28.559  51.417  1.00  0.00     0.027 C 
BRANCH  13  14
ATOM     14  C   UNL     1      54.944  29.607  50.997  1.00  0.00     0.004 C 
BRANCH  14  15
ATOM     15  C   UNL     1      53.766  29.002  50.212  1.00  0.00     0.000 C 
BRANCH  15  16
ATOM     16  C   UNL     1      53.452  27.532  50.544  1.00  0.00    -0.000 C 
BRANCH  16  17
ATOM     17  C   UNL     1      53.458  26.623  49.305  1.00  0.00    -0.003 C 
ATOM     18  C   UNL     1      54.754  25.824  49.217  1.00  0.00     0.004 C 
ENDBRANCH  16  17
ENDBRANCH  15  16
ENDBRANCH  14  15
ENDBRANCH  13  14
ENDBRANCH  12  13
ENDBRANCH  10  11
ENDBRANCH   1  10
TORSDOF 13
ENDMDL
MODEL 6
REMARK VINA RESULT:    -3.397      1.543      2.070
REMARK INTER + INTRA:          -7.832
REMARK INTER:                  -6.290
REMARK INTRA:                  -1.542
REMARK UNBOUND:                -1.852
REMARK SMILES CCCCCCC=CCCCCCCCC(=O)[O-]
REMARK SMILES IDX 10 1 11 2 12 3 13 4 14 5 15 6 16 7 17 8 18 9 9 10 8 11 7 12
REMARK SMILES IDX 6 13 5 14 4 15 3 16 2 17 1 18
REMARK H PARENT
REMARK Flexibility Score: inf
ROOT
ATOM      1  C   UNL     1      60.777  30.791  60.258  1.00  0.00     0.004 C 
ENDROOT
BRANCH   1   2
ATOM      2  C   UNL     1      61.278  30.546  61.693  1.00  0.00     0.000 C 
BRANCH   2   3
ATOM      3  C   UNL     1      62.321  29.420  61.771  1.00  0.00     0.000 C 
BRANCH   3   4
ATOM      4  C   UNL     1      63.741  29.902  61.440  1.00  0.00     0.000 C 
BRANCH   4   5
ATOM      5  C   UNL     1      64.330  29.109  60.264  1.00  0.00     0.006 C 
BRANCH   5   6
ATOM      6  C   UNL     1      65.129  27.885  60.731  1.00  0.00     0.053 C 
BRANCH   6   7
ATOM      7  C   UNL     1      64.441  26.603  60.374  1.00  0.00     0.041 C 
ATOM      8  O   UNL     1      63.606  26.091  61.165  1.00  0.00    -0.550 OA
ATOM      9  O   UNL     1      64.697  25.991  59.154  1.00  0.00    -0.550 OA
ENDBRANCH   6   7
ENDBRANCH   5   6
ENDBRANCH   4   5
ENDBRANCH   3   4
ENDBRANCH   2   3
ENDBRANCH   1   2
BRANCH   1  10
ATOM     10  C   UNL     1      61.080  32.218  59.777  1.00  0.00     0.027 C 
BRANCH  10  11
ATOM     11  C   UNL     1      62.162  32.879  60.587  1.00  0.00    -0.031 C 
ATOM     12  C   UNL     1      63.272  33.369  60.012  1.00  0.00    -0.031 C 
BRANCH  12  13
ATOM     13  C   UNL     1      64.347  34.038  60.822  1.00  0.00     0.027 C 
BRANCH  13  14
ATOM     14  C   UNL     1      63.860  35.380  61.389  1.00  0.00     0.004 C 
BRANCH  14  15
ATOM     15  C   UNL     1      63.396  36.360  60.296  1.00  0.00     0.000 C 
BRANCH  15  16
ATOM     16  C   UNL     1      62.079  37.097  60.600  1.00  0.00    -0.000 C 
BRANCH  16  17
ATOM     17  C   UNL     1      60.864  36.158  60.645  1.00  0.00    -0.003 C 
ATOM     18  C   UNL     1      60.010  36.305  59.390  1.00  0.00     0.004 C 
ENDBRANCH  16  17
ENDBRANCH  15  16
ENDBRANCH  14  15
ENDBRANCH  13  14
ENDBRANCH  12  13
ENDBRANCH  10  11
ENDBRANCH   1  10
TORSDOF 13
ENDMDL
MODEL 7
REMARK VINA RESULT:    -3.395     10.694     12.877
REMARK INTER + INTRA:          -7.827
REMARK INTER:                  -5.550
REMARK INTRA:                  -2.277
REMARK UNBOUND:                -1.852
REMARK SMILES CCCCCCC=CCCCCCCCC(=O)[O-]
REMARK SMILES IDX 10 1 11 2 12 3 13 4 14 5 15 6 16 7 17 8 18 9 9 10 8 11 7 12
REMARK SMILES IDX 6 13 5 14 4 15 3 16 2 17 1 18
REMARK H PARENT
REMARK Flexibility Score: inf
ROOT
ATOM      1  C   UNL     1      57.852  27.246  52.796  1.00  0.00     0.004 C 
ENDROOT
BRANCH   1   2
ATOM      2  C   UNL     1      58.646  28.477  52.325  1.00  0.00     0.000 C 
BRANCH   2   3
ATOM      3  C   UNL     1      57.808  29.423  51.449  1.00  0.00     0.000 C 
BRANCH   3   4
ATOM      4  C   UNL     1      58.147  29.304  49.956  1.00  0.00     0.000 C 
BRANCH   4   5
ATOM      5  C   UNL     1      59.653  29.080  49.752  1.00  0.00     0.006 C 
BRANCH   5   6
ATOM      6  C   UNL     1      59.951  27.754  49.039  1.00  0.00     0.053 C 
BRANCH   6   7
ATOM      7  C   UNL     1      61.028  26.979  49.734  1.00  0.00     0.041 C 
ATOM      8  O   UNL     1      62.052  27.568  50.170  1.00  0.00    -0.550 OA
ATOM      9  O   UNL     1      60.887  25.611  49.930  1.00  0.00    -0.550 OA
ENDBRANCH   6   7
ENDBRANCH   5   6
ENDBRANCH   4   5
ENDBRANCH   3   4
ENDBRANCH   2   3
ENDBRANCH   1   2
BRANCH   1  10
ATOM     10  C   UNL     1      57.900  26.102  51.772  1.00  0.00     0.027 C 
BRANCH  10  11
ATOM     11  C   UNL     1      56.544  25.783  51.204  1.00  0.00    -0.031 C 
ATOM     12  C   UNL     1      56.132  26.296  50.034  1.00  0.00    -0.031 C 
BRANCH  12  13
ATOM     13  C   UNL     1      54.780  25.967  49.463  1.00  0.00     0.027 C 
BRANCH  13  14
ATOM     14  C   UNL     1      53.797  27.130  49.660  1.00  0.00     0.004 C 
BRANCH  14  15
ATOM     15  C   UNL     1      54.493  28.441  50.069  1.00  0.00     0.000 C 
BRANCH  15  16
ATOM     16  C   UNL     1      53.882  29.146  51.293  1.00  0.00    -0.000 C 
BRANCH  16  17
ATOM     17  C   UNL     1      54.417  28.603  52.626  1.00  0.00    -0.003 C 
ATOM     18  C   UNL     1      53.371  28.726  53.729  1.00  0.00     0.004 C 
ENDBRANCH  16  17
ENDBRANCH  15  16
ENDBRANCH  14  15
ENDBRANCH  13  14
ENDBRANCH  12  13
ENDBRANCH  10  11
ENDBRANCH   1  10
TORSDOF 13
ENDMDL
MODEL 8
REMARK VINA RESULT:    -3.351      2.219      4.386
REMARK INTER + INTRA:          -7.751
REMARK INTER:                  -6.016
REMARK INTRA:                  -1.735
REMARK UNBOUND:                -1.852
REMARK SMILES CCCCCCC=CCCCCCCCC(=O)[O-]
REMARK SMILES IDX 10 1 11 2 12 3 13 4 14 5 15 6 16 7 17 8 18 9 9 10 8 11 7 12
REMARK SMILES IDX 6 13 5 14 4 15 3 16 2 17 1 18
REMARK H PARENT
REMARK Flexibility Score: inf
ROOT
ATOM      1  C   UNL     1      64.439  34.865  61.388  1.00  0.00     0.004 C 
ENDROOT
BRANCH   1   2
ATOM      2  C   UNL     1      64.200  33.877  60.231  1.00  0.00     0.000 C 
BRANCH   2   3
ATOM      3  C   UNL     1      64.017  32.430  60.717  1.00  0.00     0.000 C 
BRANCH   3   4
ATOM      4  C   UNL     1      62.828  31.725  60.048  1.00  0.00     0.000 C 
BRANCH   4   5
ATOM      5  C   UNL     1      61.501  32.166  60.682  1.00  0.00     0.006 C 
BRANCH   5   6
ATOM      6  C   UNL     1      60.964  31.135  61.684  1.00  0.00     0.053 C 
BRANCH   6   7
ATOM      7  C   UNL     1      61.138  29.733  61.186  1.00  0.00     0.041 C 
ATOM      8  O   UNL     1      60.422  29.302  60.244  1.00  0.00    -0.550 OA
ATOM      9  O   UNL     1      62.113  28.913  61.739  1.00  0.00    -0.550 OA
ENDBRANCH   6   7
ENDBRANCH   5   6
ENDBRANCH   4   5
ENDBRANCH   3   4
ENDBRANCH   2   3
ENDBRANCH   1   2
BRANCH   1  10
ATOM     10  C   UNL     1      63.387  35.984  61.417  1.00  0.00     0.027 C 
BRANCH  10  11
ATOM     11  C   UNL     1      62.326  35.802  60.366  1.00  0.00    -0.031 C 
ATOM     12  C   UNL     1      61.042  36.118  60.600  1.00  0.00    -0.031 C 
BRANCH  12  13
ATOM     13  C   UNL     1      59.986  35.945  59.545  1.00  0.00     0.027 C 
BRANCH  13  14
ATOM     14  C   UNL     1      60.471  35.018  58.421  1.00  0.00     0.004 C 
BRANCH  14  15
ATOM     15  C   UNL     1      59.436  34.852  57.293  1.00  0.00     0.000 C 
BRANCH  15  16
ATOM     16  C   UNL     1      58.532  33.612  57.418  1.00  0.00    -0.000 C 
BRANCH  16  17
ATOM     17  C   UNL     1      59.288  32.366  57.904  1.00  0.00    -0.003 C 
ATOM     18  C   UNL     1      58.387  31.136  57.886  1.00  0.00     0.004 C 
ENDBRANCH  16  17
ENDBRANCH  15  16
ENDBRANCH  14  15
ENDBRANCH  13  14
ENDBRANCH  12  13
ENDBRANCH  10  11
ENDBRANCH   1  10
TORSDOF 13
ENDMDL
MODEL 9
REMARK VINA RESULT:    -3.257      2.908      6.428
REMARK INTER + INTRA:          -7.585
REMARK INTER:                  -5.351
REMARK INTRA:                  -2.234
REMARK UNBOUND:                -1.852
REMARK SMILES CCCCCCC=CCCCCCCCC(=O)[O-]
REMARK SMILES IDX 10 1 11 2 12 3 13 4 14 5 15 6 16 7 17 8 18 9 9 10 8 11 7 12
REMARK SMILES IDX 6 13 5 14 4 15 3 16 2 17 1 18
REMARK H PARENT
REMARK Flexibility Score: inf
ROOT
ATOM      1  C   UNL     1      64.240  34.623  61.347  1.00  0.00     0.004 C 
ENDROOT
BRANCH   1   2
ATOM      2  C   UNL     1      64.550  36.105  61.071  1.00  0.00     0.000 C 
BRANCH   2   3
ATOM      3  C   UNL     1      63.354  36.856  60.464  1.00  0.00     0.000 C 
BRANCH   3   4
ATOM      4  C   UNL     1      62.005  36.355  61.000  1.00  0.00     0.000 C 
BRANCH   4   5
ATOM      5  C   UNL     1      61.022  36.092  59.851  1.00  0.00     0.006 C 
BRANCH   5   6
ATOM      6  C   UNL     1      61.733  35.948  58.498  1.00  0.00     0.053 C 
BRANCH   6   7
ATOM      7  C   UNL     1      61.011  35.003  57.588  1.00  0.00     0.041 C 
ATOM      8  O   UNL     1      61.382  34.868  56.392  1.00  0.00    -0.550 OA
ATOM      9  O   UNL     1      59.950  34.247  58.068  1.00  0.00    -0.550 OA
ENDBRANCH   6   7
ENDBRANCH   5   6
ENDBRANCH   4   5
ENDBRANCH   3   4
ENDBRANCH   2   3
ENDBRANCH   1   2
BRANCH   1  10
ATOM     10  C   UNL     1      64.502  33.740  60.118  1.00  0.00     0.027 C 
BRANCH  10  11
ATOM     11  C   UNL     1      63.332  32.853  59.789  1.00  0.00    -0.031 C 
ATOM     12  C   UNL     1      62.296  32.712  60.630  1.00  0.00    -0.031 C 
BRANCH  12  13
ATOM     13  C   UNL     1      61.124  31.832  60.294  1.00  0.00     0.027 C 
BRANCH  13  14
ATOM     14  C   UNL     1      60.750  30.930  61.479  1.00  0.00     0.004 C 
BRANCH  14  15
ATOM     15  C   UNL     1      61.271  29.490  61.323  1.00  0.00     0.000 C 
BRANCH  15  16
ATOM     16  C   UNL     1      62.018  29.209  60.006  1.00  0.00    -0.000 C 
BRANCH  16  17
ATOM     17  C   UNL     1      63.478  28.783  60.224  1.00  0.00    -0.003 C 
ATOM     18  C   UNL     1      64.109  29.560  61.375  1.00  0.00     0.004 C 
ENDBRANCH  16  17
ENDBRANCH  15  16
ENDBRANCH  14  15
ENDBRANCH  13  14
ENDBRANCH  12  13
ENDBRANCH  10  11
ENDBRANCH   1  10
TORSDOF 13
ENDMDL
