MODEL 1
REMARK VINA RESULT:    -2.758      0.000      0.000
REMARK INTER + INTRA:          -3.536
REMARK INTER:                  -3.402
REMARK INTRA:                  -0.133
REMARK UNBOUND:                -0.133
REMARK SMILES CCCCCC=O
REMARK SMILES IDX 4 1 3 2 2 3 1 4 5 5 6 6 7 7
REMARK H PARENT
REMARK Flexibility Score: inf
ROOT
ATOM      1  C   UNL     1      -6.565   7.235  -4.189  1.00  0.00     0.008 C 
ENDROOT
BRANCH   1   2
ATOM      2  C   UNL     1      -6.828   7.727  -2.755  1.00  0.00     0.000 C 
BRANCH   2   3
ATOM      3  C   UNL     1      -7.503   9.106  -2.721  1.00  0.00    -0.003 C 
ATOM      4  C   UNL     1      -8.852   9.125  -3.440  1.00  0.00     0.004 C 
ENDBRANCH   2   3
ENDBRANCH   1   2
BRANCH   1   5
ATOM      5  C   UNL     1      -7.107   5.817  -4.422  1.00  0.00     0.072 C 
BRANCH   5   6
ATOM      6  C   UNL     1      -8.384   5.824  -5.210  1.00  0.00     0.224 C 
ATOM      7  O   UNL     1      -8.398   5.441  -6.369  1.00  0.00    -0.303 OA
ENDBRANCH   5   6
ENDBRANCH   1   5
TORSDOF 4
ENDMDL
MODEL 2
REMARK VINA RESULT:    -2.720      1.542      2.602
REMARK INTER + INTRA:          -3.489
REMARK INTER:                  -3.428
REMARK INTRA:                  -0.062
REMARK UNBOUND:                -0.133
REMARK SMILES CCCCCC=O
REMARK SMILES IDX 4 1 3 2 2 3 1 4 5 5 6 6 7 7
REMARK H PARENT
REMARK Flexibility Score: inf
ROOT
ATOM      1  C   UNL     1      -7.046   7.394  -4.284  1.00  0.00     0.008 C 
ENDROOT
BRANCH   1   2
ATOM      2  C   UNL     1      -5.973   7.593  -3.199  1.00  0.00     0.000 C 
BRANCH   2   3
ATOM      3  C   UNL     1      -4.709   6.761  -3.463  1.00  0.00    -0.003 C 
ATOM      4  C   UNL     1      -3.421   7.523  -3.153  1.00  0.00     0.004 C 
ENDBRANCH   2   3
ENDBRANCH   1   2
BRANCH   1   5
ATOM      5  C   UNL     1      -7.296   5.910  -4.584  1.00  0.00     0.072 C 
BRANCH   5   6
ATOM      6  C   UNL     1      -8.571   5.695  -5.345  1.00  0.00     0.224 C 
ATOM      7  O   UNL     1      -8.544   5.402  -6.531  1.00  0.00    -0.303 OA
ENDBRANCH   5   6
ENDBRANCH   1   5
TORSDOF 4
ENDMDL
MODEL 3
REMARK VINA RESULT:    -2.701      2.000      2.424
REMARK INTER + INTRA:          -3.466
REMARK INTER:                  -3.343
REMARK INTRA:                  -0.123
REMARK UNBOUND:                -0.133
REMARK SMILES CCCCCC=O
REMARK SMILES IDX 4 1 3 2 2 3 1 4 5 5 6 6 7 7
REMARK H PARENT
REMARK Flexibility Score: inf
ROOT
ATOM      1  C   UNL     1      -5.469   7.265  -3.573  1.00  0.00     0.008 C 
ENDROOT
BRANCH   1   2
ATOM      2  C   UNL     1      -6.820   7.187  -4.304  1.00  0.00     0.000 C 
BRANCH   2   3
ATOM      3  C   UNL     1      -7.762   8.340  -3.925  1.00  0.00    -0.003 C 
ATOM      4  C   UNL     1      -7.335   9.058  -2.645  1.00  0.00     0.004 C 
ENDBRANCH   2   3
ENDBRANCH   1   2
BRANCH   1   5
ATOM      5  C   UNL     1      -4.722   5.924  -3.594  1.00  0.00     0.072 C 
BRANCH   5   6
ATOM      6  C   UNL     1      -5.579   4.810  -4.119  1.00  0.00     0.224 C 
ATOM      7  O   UNL     1      -5.104   3.956  -4.852  1.00  0.00    -0.303 OA
ENDBRANCH   5   6
ENDBRANCH   1   5
TORSDOF 4
ENDMDL
MODEL 4
REMARK VINA RESULT:    -2.685      1.709      2.184
REMARK INTER + INTRA:          -3.446
REMARK INTER:                  -3.329
REMARK INTRA:                  -0.117
REMARK UNBOUND:                -0.133
REMARK SMILES CCCCCC=O
REMARK SMILES IDX 4 1 3 2 2 3 1 4 5 5 6 6 7 7
REMARK H PARENT
REMARK Flexibility Score: inf
ROOT
ATOM      1  C   UNL     1      -7.156   7.275  -4.469  1.00  0.00     0.008 C 
ENDROOT
BRANCH   1   2
ATOM      2  C   UNL     1      -7.930   8.465  -3.876  1.00  0.00     0.000 C 
BRANCH   2   3
ATOM      3  C   UNL     1      -7.242   9.055  -2.636  1.00  0.00    -0.003 C 
ATOM      4  C   UNL     1      -8.164   9.112  -1.418  1.00  0.00     0.004 C 
ENDBRANCH   2   3
ENDBRANCH   1   2
BRANCH   1   5
ATOM      5  C   UNL     1      -5.775   7.104  -3.821  1.00  0.00     0.072 C 
BRANCH   5   6
ATOM      6  C   UNL     1      -5.348   5.666  -3.774  1.00  0.00     0.224 C 
ATOM      7  O   UNL     1      -5.972   4.814  -4.387  1.00  0.00    -0.303 OA
ENDBRANCH   5   6
ENDBRANCH   1   5
TORSDOF 4
ENDMDL
MODEL 5
REMARK VINA RESULT:    -2.676      2.191      3.440
REMARK INTER + INTRA:          -3.436
REMARK INTER:                  -3.352
REMARK INTRA:                  -0.083
REMARK UNBOUND:                -0.133
REMARK SMILES CCCCCC=O
REMARK SMILES IDX 4 1 3 2 2 3 1 4 5 5 6 6 7 7
REMARK H PARENT
REMARK Flexibility Score: inf
ROOT
ATOM      1  C   UNL     1      -7.320   7.606  -4.532  1.00  0.00     0.008 C 
ENDROOT
BRANCH   1   2
ATOM      2  C   UNL     1      -6.094   6.816  -4.042  1.00  0.00     0.000 C 
BRANCH   2   3
ATOM      3  C   UNL     1      -5.272   7.592  -3.002  1.00  0.00    -0.003 C 
ATOM      4  C   UNL     1      -3.772   7.315  -3.105  1.00  0.00     0.004 C 
ENDBRANCH   2   3
ENDBRANCH   1   2
BRANCH   1   5
ATOM      5  C   UNL     1      -7.803   8.626  -3.492  1.00  0.00     0.072 C 
BRANCH   5   6
ATOM      6  C   UNL     1      -9.197   9.104  -3.776  1.00  0.00     0.224 C 
ATOM      7  O   UNL     1     -10.158   8.386  -3.547  1.00  0.00    -0.303 OA
ENDBRANCH   5   6
ENDBRANCH   1   5
TORSDOF 4
ENDMDL
MODEL 6
REMARK VINA RESULT:    -2.617      2.749      4.218
REMARK INTER + INTRA:          -3.363
REMARK INTER:                  -3.254
REMARK INTRA:                  -0.109
REMARK UNBOUND:                -0.133
REMARK SMILES CCCCCC=O
REMARK SMILES IDX 4 1 3 2 2 3 1 4 5 5 6 6 7 7
REMARK H PARENT
REMARK Flexibility Score: inf
ROOT
ATOM      1  C   UNL     1      -5.232   7.218  -3.469  1.00  0.00     0.008 C 
ENDROOT
BRANCH   1   2
ATOM      2  C   UNL     1      -4.451   5.893  -3.512  1.00  0.00     0.000 C 
BRANCH   2   3
ATOM      3  C   UNL     1      -5.278   4.743  -4.106  1.00  0.00    -0.003 C 
ATOM      4  C   UNL     1      -4.430   3.755  -4.907  1.00  0.00     0.004 C 
ENDBRANCH   2   3
ENDBRANCH   1   2
BRANCH   1   5
ATOM      5  C   UNL     1      -6.567   7.127  -4.221  1.00  0.00     0.072 C 
BRANCH   5   6
ATOM      6  C   UNL     1      -7.540   8.178  -3.772  1.00  0.00     0.224 C 
ATOM      7  O   UNL     1      -7.253   8.940  -2.862  1.00  0.00    -0.303 OA
ENDBRANCH   5   6
ENDBRANCH   1   5
TORSDOF 4
ENDMDL
MODEL 7
REMARK VINA RESULT:    -2.599      3.151      3.773
REMARK INTER + INTRA:          -3.340
REMARK INTER:                  -3.257
REMARK INTRA:                  -0.082
REMARK UNBOUND:                -0.133
REMARK SMILES CCCCCC=O
REMARK SMILES IDX 4 1 3 2 2 3 1 4 5 5 6 6 7 7
REMARK H PARENT
REMARK Flexibility Score: inf
ROOT
ATOM      1  C   UNL     1      -5.454   4.747  -3.810  1.00  0.00     0.008 C 
ENDROOT
BRANCH   1   2
ATOM      2  C   UNL     1      -4.756   6.115  -3.716  1.00  0.00     0.000 C 
BRANCH   2   3
ATOM      3  C   UNL     1      -5.751   7.272  -3.539  1.00  0.00    -0.003 C 
ATOM      4  C   UNL     1      -6.946   7.177  -4.487  1.00  0.00     0.004 C 
ENDBRANCH   2   3
ENDBRANCH   1   2
BRANCH   1   5
ATOM      5  C   UNL     1      -4.762   3.814  -4.814  1.00  0.00     0.072 C 
BRANCH   5   6
ATOM      6  C   UNL     1      -4.430   2.481  -4.209  1.00  0.00     0.224 C 
ATOM      7  O   UNL     1      -4.867   1.452  -4.699  1.00  0.00    -0.303 OA
ENDBRANCH   5   6
ENDBRANCH   1   5
TORSDOF 4
ENDMDL
MODEL 8
REMARK VINA RESULT:    -2.566      2.584      3.983
REMARK INTER + INTRA:          -3.299
REMARK INTER:                  -3.170
REMARK INTRA:                  -0.129
REMARK UNBOUND:                -0.133
REMARK SMILES CCCCCC=O
REMARK SMILES IDX 4 1 3 2 2 3 1 4 5 5 6 6 7 7
REMARK H PARENT
REMARK Flexibility Score: inf
ROOT
ATOM      1  C   UNL     1      -6.927   7.280  -4.449  1.00  0.00     0.008 C 
ENDROOT
BRANCH   1   2
ATOM      2  C   UNL     1      -5.561   7.241  -3.743  1.00  0.00     0.000 C 
BRANCH   2   3
ATOM      3  C   UNL     1      -4.918   5.846  -3.783  1.00  0.00    -0.003 C 
ATOM      4  C   UNL     1      -5.908   4.748  -4.174  1.00  0.00     0.004 C 
ENDBRANCH   2   3
ENDBRANCH   1   2
BRANCH   1   5
ATOM      5  C   UNL     1      -7.829   8.395  -3.901  1.00  0.00     0.072 C 
BRANCH   5   6
ATOM      6  C   UNL     1      -7.261   9.022  -2.662  1.00  0.00     0.224 C 
ATOM      7  O   UNL     1      -7.917   9.067  -1.633  1.00  0.00    -0.303 OA
ENDBRANCH   5   6
ENDBRANCH   1   5
TORSDOF 4
ENDMDL
MODEL 9
REMARK VINA RESULT:    -2.429      2.775      4.067
REMARK INTER + INTRA:          -3.131
REMARK INTER:                  -2.944
REMARK INTRA:                  -0.187
REMARK UNBOUND:                -0.133
REMARK SMILES CCCCCC=O
REMARK SMILES IDX 4 1 3 2 2 3 1 4 5 5 6 6 7 7
REMARK H PARENT
REMARK Flexibility Score: inf
ROOT
ATOM      1  C   UNL     1      -7.325   9.124  -2.652  1.00  0.00     0.008 C 
ENDROOT
BRANCH   1   2
ATOM      2  C   UNL     1      -7.744   8.335  -3.904  1.00  0.00     0.000 C 
BRANCH   2   3
ATOM      3  C   UNL     1      -6.851   7.110  -4.155  1.00  0.00    -0.003 C 
ATOM      4  C   UNL     1      -5.428   7.297  -3.629  1.00  0.00     0.004 C 
ENDBRANCH   2   3
ENDBRANCH   1   2
BRANCH   1   5
ATOM      5  C   UNL     1      -8.420   9.125  -1.576  1.00  0.00     0.072 C 
BRANCH   5   6
ATOM      6  C   UNL     1      -8.533   7.798  -0.885  1.00  0.00     0.224 C 
ATOM      7  O   UNL     1      -7.594   7.350  -0.244  1.00  0.00    -0.303 OA
ENDBRANCH   5   6
ENDBRANCH   1   5
TORSDOF 4
ENDMDL
