MODEL 1
REMARK VINA RESULT:    -4.092      0.000      0.000
REMARK INTER + INTRA:          -6.215
REMARK INTER:                  -5.767
REMARK INTRA:                  -0.448
REMARK UNBOUND:                -0.448
REMARK SMILES CCCCCCCCC(=O)[O-]
REMARK SMILES IDX 6 1 7 2 8 3 9 4 10 5 11 6 5 7 4 8 3 9 2 10 1 11
REMARK H PARENT
REMARK Flexibility Score: inf
ROOT
ATOM      1  C   UNL     1      39.219  24.311 223.917  1.00  0.00     0.000 C 
ENDROOT
BRANCH   1   2
ATOM      2  C   UNL     1      38.559  25.675 224.183  1.00  0.00     0.006 C 
BRANCH   2   3
ATOM      3  C   UNL     1      38.062  25.806 225.630  1.00  0.00     0.053 C 
BRANCH   3   4
ATOM      4  C   UNL     1      36.687  25.238 225.802  1.00  0.00     0.041 C 
ATOM      5  O   UNL     1      36.534  24.083 226.280  1.00  0.00    -0.550 OA
ATOM      6  O   UNL     1      35.573  25.996 225.464  1.00  0.00    -0.550 OA
ENDBRANCH   3   4
ENDBRANCH   2   3
ENDBRANCH   1   2
BRANCH   1   7
ATOM      7  C   UNL     1      38.667  23.624 222.659  1.00  0.00     0.000 C 
BRANCH   7   8
ATOM      8  C   UNL     1      37.139  23.445 222.703  1.00  0.00    -0.000 C 
BRANCH   8   9
ATOM      9  C   UNL     1      36.450  23.937 221.420  1.00  0.00    -0.000 C 
BRANCH   9  10
ATOM     10  C   UNL     1      37.167  23.462 220.148  1.00  0.00    -0.003 C 
ATOM     11  C   UNL     1      36.296  23.682 218.913  1.00  0.00     0.004 C 
ENDBRANCH   9  10
ENDBRANCH   8   9
ENDBRANCH   7   8
ENDBRANCH   1   7
TORSDOF 7
ENDMDL
MODEL 2
REMARK VINA RESULT:    -3.821      1.616      2.130
REMARK INTER + INTRA:          -5.833
REMARK INTER:                  -5.385
REMARK INTRA:                  -0.449
REMARK UNBOUND:                -0.448
REMARK SMILES CCCCCCCCC(=O)[O-]
REMARK SMILES IDX 6 1 7 2 8 3 9 4 10 5 11 6 5 7 4 8 3 9 2 10 1 11
REMARK H PARENT
REMARK Flexibility Score: inf
ROOT
ATOM      1  C   UNL     1      36.870  22.841 223.875  1.00  0.00     0.000 C 
ENDROOT
BRANCH   1   2
ATOM      2  C   UNL     1      37.383  23.386 225.219  1.00  0.00     0.006 C 
BRANCH   2   3
ATOM      3  C   UNL     1      38.597  24.309 225.045  1.00  0.00     0.053 C 
BRANCH   3   4
ATOM      4  C   UNL     1      38.214  25.755 225.115  1.00  0.00     0.041 C 
ATOM      5  O   UNL     1      38.262  26.370 226.213  1.00  0.00    -0.550 OA
ATOM      6  O   UNL     1      37.834  26.432 223.964  1.00  0.00    -0.550 OA
ENDBRANCH   3   4
ENDBRANCH   2   3
ENDBRANCH   1   2
BRANCH   1   7
ATOM      7  C   UNL     1      35.782  23.729 223.253  1.00  0.00     0.000 C 
BRANCH   7   8
ATOM      8  C   UNL     1      35.854  23.766 221.716  1.00  0.00    -0.000 C 
BRANCH   8   9
ATOM      9  C   UNL     1      37.260  23.448 221.184  1.00  0.00    -0.000 C 
BRANCH   9  10
ATOM     10  C   UNL     1      37.290  23.288 219.657  1.00  0.00    -0.003 C 
ATOM     11  C   UNL     1      36.143  24.054 219.003  1.00  0.00     0.004 C 
ENDBRANCH   9  10
ENDBRANCH   8   9
ENDBRANCH   7   8
ENDBRANCH   1   7
TORSDOF 7
ENDMDL
MODEL 3
REMARK VINA RESULT:    -3.799      2.758      5.123
REMARK INTER + INTRA:          -5.802
REMARK INTER:                  -5.331
REMARK INTRA:                  -0.471
REMARK UNBOUND:                -0.448
REMARK SMILES CCCCCCCCC(=O)[O-]
REMARK SMILES IDX 6 1 7 2 8 3 9 4 10 5 11 6 5 7 4 8 3 9 2 10 1 11
REMARK H PARENT
REMARK Flexibility Score: inf
ROOT
ATOM      1  C   UNL     1      39.263  26.221 225.886  1.00  0.00     0.000 C 
ENDROOT
BRANCH   1   2
ATOM      2  C   UNL     1      38.405  26.390 224.621  1.00  0.00     0.006 C 
BRANCH   2   3
ATOM      3  C   UNL     1      37.753  25.072 224.181  1.00  0.00     0.053 C 
BRANCH   3   4
ATOM      4  C   UNL     1      36.298  25.023 224.535  1.00  0.00     0.041 C 
ATOM      5  O   UNL     1      35.556  24.135 224.039  1.00  0.00    -0.550 OA
ATOM      6  O   UNL     1      35.769  25.939 225.435  1.00  0.00    -0.550 OA
ENDBRANCH   3   4
ENDBRANCH   2   3
ENDBRANCH   1   2
BRANCH   1   7
ATOM      7  C   UNL     1      40.111  27.464 226.196  1.00  0.00     0.000 C 
BRANCH   7   8
ATOM      8  C   UNL     1      41.545  27.109 226.629  1.00  0.00    -0.000 C 
BRANCH   8   9
ATOM      9  C   UNL     1      41.773  25.591 226.727  1.00  0.00    -0.000 C 
BRANCH   9  10
ATOM     10  C   UNL     1      42.715  25.066 225.635  1.00  0.00    -0.003 C 
ATOM     11  C   UNL     1      42.099  23.874 224.906  1.00  0.00     0.004 C 
ENDBRANCH   9  10
ENDBRANCH   8   9
ENDBRANCH   7   8
ENDBRANCH   1   7
TORSDOF 7
ENDMDL
MODEL 4
REMARK VINA RESULT:    -3.791      2.504      3.698
REMARK INTER + INTRA:          -5.791
REMARK INTER:                  -5.547
REMARK INTRA:                  -0.244
REMARK UNBOUND:                -0.448
REMARK SMILES CCCCCCCCC(=O)[O-]
REMARK SMILES IDX 6 1 7 2 8 3 9 4 10 5 11 6 5 7 4 8 3 9 2 10 1 11
REMARK H PARENT
REMARK Flexibility Score: inf
ROOT
ATOM      1  C   UNL     1      39.626  24.413 224.475  1.00  0.00     0.000 C 
ENDROOT
BRANCH   1   2
ATOM      2  C   UNL     1      38.693  25.632 224.573  1.00  0.00     0.006 C 
BRANCH   2   3
ATOM      3  C   UNL     1      37.471  25.502 223.653  1.00  0.00     0.053 C 
BRANCH   3   4
ATOM      4  C   UNL     1      36.240  25.111 224.413  1.00  0.00     0.041 C 
ATOM      5  O   UNL     1      35.630  24.047 224.125  1.00  0.00    -0.550 OA
ATOM      6  O   UNL     1      35.785  25.905 225.457  1.00  0.00    -0.550 OA
ENDBRANCH   3   4
ENDBRANCH   2   3
ENDBRANCH   1   2
BRANCH   1   7
ATOM      7  C   UNL     1      40.126  24.164 223.044  1.00  0.00     0.000 C 
BRANCH   7   8
ATOM      8  C   UNL     1      40.262  22.666 222.716  1.00  0.00    -0.000 C 
BRANCH   8   9
ATOM      9  C   UNL     1      41.621  22.090 223.147  1.00  0.00    -0.000 C 
BRANCH   9  10
ATOM     10  C   UNL     1      42.031  20.865 222.316  1.00  0.00    -0.003 C 
ATOM     11  C   UNL     1      41.297  19.612 222.788  1.00  0.00     0.004 C 
ENDBRANCH   9  10
ENDBRANCH   8   9
ENDBRANCH   7   8
ENDBRANCH   1   7
TORSDOF 7
ENDMDL
MODEL 5
REMARK VINA RESULT:    -3.765      3.054      4.387
REMARK INTER + INTRA:          -5.754
REMARK INTER:                  -5.134
REMARK INTRA:                  -0.620
REMARK UNBOUND:                -0.448
REMARK SMILES CCCCCCCCC(=O)[O-]
REMARK SMILES IDX 6 1 7 2 8 3 9 4 10 5 11 6 5 7 4 8 3 9 2 10 1 11
REMARK H PARENT
REMARK Flexibility Score: inf
ROOT
ATOM      1  C   UNL     1      39.989  23.247 222.643  1.00  0.00     0.000 C 
ENDROOT
BRANCH   1   2
ATOM      2  C   UNL     1      38.747  23.649 223.456  1.00  0.00     0.006 C 
BRANCH   2   3
ATOM      3  C   UNL     1      38.406  22.617 224.540  1.00  0.00     0.053 C 
BRANCH   3   4
ATOM      4  C   UNL     1      36.956  22.661 224.917  1.00  0.00     0.041 C 
ATOM      5  O   UNL     1      36.559  22.105 225.974  1.00  0.00    -0.550 OA
ATOM      6  O   UNL     1      36.050  23.343 224.115  1.00  0.00    -0.550 OA
ENDBRANCH   3   4
ENDBRANCH   2   3
ENDBRANCH   1   2
BRANCH   1   7
ATOM      7  C   UNL     1      41.269  23.220 223.493  1.00  0.00     0.000 C 
BRANCH   7   8
ATOM      8  C   UNL     1      42.028  21.886 223.378  1.00  0.00    -0.000 C 
BRANCH   8   9
ATOM      9  C   UNL     1      41.419  20.949 222.323  1.00  0.00    -0.000 C 
BRANCH   9  10
ATOM     10  C   UNL     1      41.267  19.509 222.832  1.00  0.00    -0.003 C 
ATOM     11  C   UNL     1      40.524  19.474 224.166  1.00  0.00     0.004 C 
ENDBRANCH   9  10
ENDBRANCH   8   9
ENDBRANCH   7   8
ENDBRANCH   1   7
TORSDOF 7
ENDMDL
MODEL 6
REMARK VINA RESULT:    -3.734      2.485      3.886
REMARK INTER + INTRA:          -5.710
REMARK INTER:                  -4.874
REMARK INTRA:                  -0.836
REMARK UNBOUND:                -0.448
REMARK SMILES CCCCCCCCC(=O)[O-]
REMARK SMILES IDX 6 1 7 2 8 3 9 4 10 5 11 6 5 7 4 8 3 9 2 10 1 11
REMARK H PARENT
REMARK Flexibility Score: inf
ROOT
ATOM      1  C   UNL     1      37.188  22.692 225.552  1.00  0.00     0.000 C 
ENDROOT
BRANCH   1   2
ATOM      2  C   UNL     1      36.994  22.933 224.046  1.00  0.00     0.006 C 
BRANCH   2   3
ATOM      3  C   UNL     1      35.975  24.045 223.763  1.00  0.00     0.053 C 
BRANCH   3   4
ATOM      4  C   UNL     1      36.427  25.368 224.302  1.00  0.00     0.041 C 
ATOM      5  O   UNL     1      37.305  26.033 223.691  1.00  0.00    -0.550 OA
ATOM      6  O   UNL     1      35.858  25.879 225.461  1.00  0.00    -0.550 OA
ENDBRANCH   3   4
ENDBRANCH   2   3
ENDBRANCH   1   2
BRANCH   1   7
ATOM      7  C   UNL     1      38.669  22.668 225.961  1.00  0.00     0.000 C 
BRANCH   7   8
ATOM      8  C   UNL     1      39.189  24.055 226.380  1.00  0.00    -0.000 C 
BRANCH   8   9
ATOM      9  C   UNL     1      40.099  24.690 225.316  1.00  0.00    -0.000 C 
BRANCH   9  10
ATOM     10  C   UNL     1      40.724  23.648 224.378  1.00  0.00    -0.003 C 
ATOM     11  C   UNL     1      40.366  23.936 222.922  1.00  0.00     0.004 C 
ENDBRANCH   9  10
ENDBRANCH   8   9
ENDBRANCH   7   8
ENDBRANCH   1   7
TORSDOF 7
ENDMDL
MODEL 7
REMARK VINA RESULT:    -3.697      2.217      3.365
REMARK INTER + INTRA:          -5.659
REMARK INTER:                  -4.758
REMARK INTRA:                  -0.901
REMARK UNBOUND:                -0.448
REMARK SMILES CCCCCCCCC(=O)[O-]
REMARK SMILES IDX 6 1 7 2 8 3 9 4 10 5 11 6 5 7 4 8 3 9 2 10 1 11
REMARK H PARENT
REMARK Flexibility Score: inf
ROOT
ATOM      1  C   UNL     1      39.673  23.704 224.786  1.00  0.00     0.000 C 
ENDROOT
BRANCH   1   2
ATOM      2  C   UNL     1      39.197  22.534 225.664  1.00  0.00     0.006 C 
BRANCH   2   3
ATOM      3  C   UNL     1      38.303  21.555 224.890  1.00  0.00     0.053 C 
BRANCH   3   4
ATOM      4  C   UNL     1      36.961  21.395 225.535  1.00  0.00     0.041 C 
ATOM      5  O   UNL     1      36.219  20.426 225.223  1.00  0.00    -0.550 OA
ATOM      6  O   UNL     1      36.541  22.298 226.503  1.00  0.00    -0.550 OA
ENDBRANCH   3   4
ENDBRANCH   2   3
ENDBRANCH   1   2
BRANCH   1   7
ATOM      7  C   UNL     1      38.927  25.012 225.090  1.00  0.00     0.000 C 
BRANCH   7   8
ATOM      8  C   UNL     1      37.934  25.399 223.979  1.00  0.00    -0.000 C 
BRANCH   8   9
ATOM      9  C   UNL     1      36.482  25.038 224.334  1.00  0.00    -0.000 C 
BRANCH   9  10
ATOM     10  C   UNL     1      35.839  24.102 223.301  1.00  0.00    -0.003 C 
ATOM     11  C   UNL     1      36.829  23.739 222.197  1.00  0.00     0.004 C 
ENDBRANCH   9  10
ENDBRANCH   8   9
ENDBRANCH   7   8
ENDBRANCH   1   7
TORSDOF 7
ENDMDL
MODEL 8
REMARK VINA RESULT:    -3.676      2.854      5.118
REMARK INTER + INTRA:          -5.628
REMARK INTER:                  -5.029
REMARK INTRA:                  -0.599
REMARK UNBOUND:                -0.448
REMARK SMILES CCCCCCCCC(=O)[O-]
REMARK SMILES IDX 6 1 7 2 8 3 9 4 10 5 11 6 5 7 4 8 3 9 2 10 1 11
REMARK H PARENT
REMARK Flexibility Score: inf
ROOT
ATOM      1  C   UNL     1      38.835  24.787 223.819  1.00  0.00     0.000 C 
ENDROOT
BRANCH   1   2
ATOM      2  C   UNL     1      39.347  23.647 224.715  1.00  0.00     0.006 C 
BRANCH   2   3
ATOM      3  C   UNL     1      38.563  22.345 224.501  1.00  0.00     0.053 C 
BRANCH   3   4
ATOM      4  C   UNL     1      37.099  22.525 224.763  1.00  0.00     0.041 C 
ATOM      5  O   UNL     1      36.264  22.369 223.833  1.00  0.00    -0.550 OA
ATOM      6  O   UNL     1      36.653  22.836 226.042  1.00  0.00    -0.550 OA
ENDBRANCH   3   4
ENDBRANCH   2   3
ENDBRANCH   1   2
BRANCH   1   7
ATOM      7  C   UNL     1      38.380  26.013 224.626  1.00  0.00     0.000 C 
BRANCH   7   8
ATOM      8  C   UNL     1      39.130  26.154 225.963  1.00  0.00    -0.000 C 
BRANCH   8   9
ATOM      9  C   UNL     1      39.833  27.513 226.105  1.00  0.00    -0.000 C 
BRANCH   9  10
ATOM     10  C   UNL     1      41.309  27.374 226.502  1.00  0.00    -0.003 C 
ATOM     11  C   UNL     1      41.811  25.953 226.258  1.00  0.00     0.004 C 
ENDBRANCH   9  10
ENDBRANCH   8   9
ENDBRANCH   7   8
ENDBRANCH   1   7
TORSDOF 7
ENDMDL
MODEL 9
REMARK VINA RESULT:    -3.651      2.609      4.655
REMARK INTER + INTRA:          -5.594
REMARK INTER:                  -4.887
REMARK INTRA:                  -0.707
REMARK UNBOUND:                -0.448
REMARK SMILES CCCCCCCCC(=O)[O-]
REMARK SMILES IDX 6 1 7 2 8 3 9 4 10 5 11 6 5 7 4 8 3 9 2 10 1 11
REMARK H PARENT
REMARK Flexibility Score: inf
ROOT
ATOM      1  C   UNL     1      39.173  24.512 223.529  1.00  0.00     0.000 C 
ENDROOT
BRANCH   1   2
ATOM      2  C   UNL     1      38.489  24.213 224.874  1.00  0.00     0.006 C 
BRANCH   2   3
ATOM      3  C   UNL     1      37.628  25.387 225.360  1.00  0.00     0.053 C 
BRANCH   3   4
ATOM      4  C   UNL     1      36.172  25.160 225.094  1.00  0.00     0.041 C 
ATOM      5  O   UNL     1      35.311  25.950 225.562  1.00  0.00    -0.550 OA
ATOM      6  O   UNL     1      35.767  24.092 224.304  1.00  0.00    -0.550 OA
ENDBRANCH   3   4
ENDBRANCH   2   3
ENDBRANCH   1   2
BRANCH   1   7
ATOM      7  C   UNL     1      40.544  23.831 223.398  1.00  0.00     0.000 C 
BRANCH   7   8
ATOM      8  C   UNL     1      41.189  23.534 224.764  1.00  0.00    -0.000 C 
BRANCH   8   9
ATOM      9  C   UNL     1      42.176  24.630 225.201  1.00  0.00    -0.000 C 
BRANCH   9  10
ATOM     10  C   UNL     1      41.769  25.294 226.524  1.00  0.00    -0.003 C 
ATOM     11  C   UNL     1      41.118  26.653 226.278  1.00  0.00     0.004 C 
ENDBRANCH   9  10
ENDBRANCH   8   9
ENDBRANCH   7   8
ENDBRANCH   1   7
TORSDOF 7
ENDMDL
