MODEL 1
REMARK VINA RESULT:    -4.058      0.000      0.000
REMARK INTER + INTRA:          -4.863
REMARK INTER:                  -4.770
REMARK INTRA:                  -0.094
REMARK UNBOUND:                -0.094
REMARK SMILES O=C([O-])CCC(=O)[O-]
REMARK SMILES IDX 4 1 2 2 1 3 3 4 5 5 6 6 7 7 8 8
REMARK H PARENT
REMARK Flexibility Score: inf
ROOT
ATOM      1  C   UNL     1     -41.237  41.837  10.495  1.00  0.00     0.059 C 
ENDROOT
BRANCH   1   2
ATOM      2  C   UNL     1     -40.770  42.209  11.870  1.00  0.00     0.042 C 
ATOM      3  O   UNL     1     -40.183  41.361  12.592  1.00  0.00    -0.550 OA
ATOM      4  O   UNL     1     -40.949  43.505  12.337  1.00  0.00    -0.550 OA
ENDBRANCH   1   2
BRANCH   1   5
ATOM      5  C   UNL     1     -42.063  40.547  10.512  1.00  0.00     0.059 C 
BRANCH   5   6
ATOM      6  C   UNL     1     -43.533  40.833  10.564  1.00  0.00     0.042 C 
ATOM      7  O   UNL     1     -44.239  40.712   9.528  1.00  0.00    -0.550 OA
ATOM      8  O   UNL     1     -44.130  41.192  11.765  1.00  0.00    -0.550 OA
ENDBRANCH   5   6
ENDBRANCH   1   5
TORSDOF 3
ENDMDL
MODEL 2
REMARK VINA RESULT:    -4.047      0.156      3.741
REMARK INTER + INTRA:          -4.851
REMARK INTER:                  -4.758
REMARK INTRA:                  -0.094
REMARK UNBOUND:                -0.094
REMARK SMILES O=C([O-])CCC(=O)[O-]
REMARK SMILES IDX 4 1 2 2 1 3 3 4 5 5 6 6 7 7 8 8
REMARK H PARENT
REMARK Flexibility Score: inf
ROOT
ATOM      1  C   UNL     1     -41.968  40.459  10.506  1.00  0.00     0.059 C 
ENDROOT
BRANCH   1   2
ATOM      2  C   UNL     1     -43.451  40.672  10.477  1.00  0.00     0.042 C 
ATOM      3  O   UNL     1     -44.093  40.523   9.404  1.00  0.00    -0.550 OA
ATOM      4  O   UNL     1     -44.129  40.997  11.645  1.00  0.00    -0.550 OA
ENDBRANCH   1   2
BRANCH   1   5
ATOM      5  C   UNL     1     -41.208  41.789  10.493  1.00  0.00     0.059 C 
BRANCH   5   6
ATOM      6  C   UNL     1     -40.791  42.200  11.872  1.00  0.00     0.042 C 
ATOM      7  O   UNL     1     -40.183  41.387  12.618  1.00  0.00    -0.550 OA
ATOM      8  O   UNL     1     -41.036  43.492  12.319  1.00  0.00    -0.550 OA
ENDBRANCH   5   6
ENDBRANCH   1   5
TORSDOF 3
ENDMDL
MODEL 3
REMARK VINA RESULT:    -4.000      0.142      1.153
REMARK INTER + INTRA:          -4.795
REMARK INTER:                  -4.697
REMARK INTRA:                  -0.098
REMARK UNBOUND:                -0.094
REMARK SMILES O=C([O-])CCC(=O)[O-]
REMARK SMILES IDX 4 1 2 2 1 3 3 4 5 5 6 6 7 7 8 8
REMARK H PARENT
REMARK Flexibility Score: inf
ROOT
ATOM      1  C   UNL     1     -41.163  41.920  10.530  1.00  0.00     0.059 C 
ENDROOT
BRANCH   1   2
ATOM      2  C   UNL     1     -40.734  42.310  11.911  1.00  0.00     0.042 C 
ATOM      3  O   UNL     1     -40.959  43.472  12.342  1.00  0.00    -0.550 OA
ATOM      4  O   UNL     1     -40.120  41.378  12.737  1.00  0.00    -0.550 OA
ENDBRANCH   1   2
BRANCH   1   5
ATOM      5  C   UNL     1     -41.913  40.584  10.530  1.00  0.00     0.059 C 
BRANCH   5   6
ATOM      6  C   UNL     1     -43.398  40.785  10.524  1.00  0.00     0.042 C 
ATOM      7  O   UNL     1     -44.055  40.623   9.462  1.00  0.00    -0.550 OA
ATOM      8  O   UNL     1     -44.061  41.111  11.699  1.00  0.00    -0.550 OA
ENDBRANCH   5   6
ENDBRANCH   1   5
TORSDOF 3
ENDMDL
MODEL 4
REMARK VINA RESULT:    -3.957      1.461      2.190
REMARK INTER + INTRA:          -4.745
REMARK INTER:                  -4.646
REMARK INTRA:                  -0.098
REMARK UNBOUND:                -0.094
REMARK SMILES O=C([O-])CCC(=O)[O-]
REMARK SMILES IDX 4 1 2 2 1 3 3 4 5 5 6 6 7 7 8 8
REMARK H PARENT
REMARK Flexibility Score: inf
ROOT
ATOM      1  C   UNL     1     -40.874  42.190  11.917  1.00  0.00     0.059 C 
ENDROOT
BRANCH   1   2
ATOM      2  C   UNL     1     -41.678  43.394  12.302  1.00  0.00     0.042 C 
ATOM      3  O   UNL     1     -41.156  44.539  12.281  1.00  0.00    -0.550 OA
ATOM      4  O   UNL     1     -43.016  43.255  12.648  1.00  0.00    -0.550 OA
ENDBRANCH   1   2
BRANCH   1   5
ATOM      5  C   UNL     1     -41.190  41.735  10.489  1.00  0.00     0.059 C 
BRANCH   5   6
ATOM      6  C   UNL     1     -42.285  40.712  10.465  1.00  0.00     0.042 C 
ATOM      7  O   UNL     1     -42.433  39.920  11.432  1.00  0.00    -0.550 OA
ATOM      8  O   UNL     1     -43.167  40.660   9.393  1.00  0.00    -0.550 OA
ENDBRANCH   5   6
ENDBRANCH   1   5
TORSDOF 3
ENDMDL
MODEL 5
REMARK VINA RESULT:    -3.955      1.450      3.438
REMARK INTER + INTRA:          -4.742
REMARK INTER:                  -4.642
REMARK INTRA:                  -0.100
REMARK UNBOUND:                -0.094
REMARK SMILES O=C([O-])CCC(=O)[O-]
REMARK SMILES IDX 4 1 2 2 1 3 3 4 5 5 6 6 7 7 8 8
REMARK H PARENT
REMARK Flexibility Score: inf
ROOT
ATOM      1  C   UNL     1     -41.148  41.745  10.495  1.00  0.00     0.059 C 
ENDROOT
BRANCH   1   2
ATOM      2  C   UNL     1     -42.265  40.746  10.474  1.00  0.00     0.042 C 
ATOM      3  O   UNL     1     -42.438  39.967  11.448  1.00  0.00    -0.550 OA
ATOM      4  O   UNL     1     -43.138  40.703   9.394  1.00  0.00    -0.550 OA
ENDBRANCH   1   2
BRANCH   1   5
ATOM      5  C   UNL     1     -40.805  42.176  11.925  1.00  0.00     0.059 C 
BRANCH   5   6
ATOM      6  C   UNL     1     -41.593  43.380  12.343  1.00  0.00     0.042 C 
ATOM      7  O   UNL     1     -41.068  44.524  12.308  1.00  0.00    -0.550 OA
ATOM      8  O   UNL     1     -42.919  43.244  12.732  1.00  0.00    -0.550 OA
ENDBRANCH   5   6
ENDBRANCH   1   5
TORSDOF 3
ENDMDL
MODEL 6
REMARK VINA RESULT:    -3.878      1.684      4.362
REMARK INTER + INTRA:          -4.652
REMARK INTER:                  -4.624
REMARK INTRA:                  -0.028
REMARK UNBOUND:                -0.094
REMARK SMILES O=C([O-])CCC(=O)[O-]
REMARK SMILES IDX 4 1 2 2 1 3 3 4 5 5 6 6 7 7 8 8
REMARK H PARENT
REMARK Flexibility Score: inf
ROOT
ATOM      1  C   UNL     1     -43.501  39.936  10.152  1.00  0.00     0.059 C 
ENDROOT
BRANCH   1   2
ATOM      2  C   UNL     1     -44.921  39.935   9.673  1.00  0.00     0.042 C 
ATOM      3  O   UNL     1     -45.175  39.953   8.440  1.00  0.00    -0.550 OA
ATOM      4  O   UNL     1     -45.963  39.875  10.589  1.00  0.00    -0.550 OA
ENDBRANCH   1   2
BRANCH   1   5
ATOM      5  C   UNL     1     -42.929  41.356  10.213  1.00  0.00     0.059 C 
BRANCH   5   6
ATOM      6  C   UNL     1     -41.511  41.359  10.697  1.00  0.00     0.042 C 
ATOM      7  O   UNL     1     -40.673  42.158  10.201  1.00  0.00    -0.550 OA
ATOM      8  O   UNL     1     -41.124  40.508  11.724  1.00  0.00    -0.550 OA
ENDBRANCH   5   6
ENDBRANCH   1   5
TORSDOF 3
ENDMDL
MODEL 7
REMARK VINA RESULT:    -3.842      1.861      2.981
REMARK INTER + INTRA:          -4.610
REMARK INTER:                  -4.552
REMARK INTRA:                  -0.058
REMARK UNBOUND:                -0.094
REMARK SMILES O=C([O-])CCC(=O)[O-]
REMARK SMILES IDX 4 1 2 2 1 3 3 4 5 5 6 6 7 7 8 8
REMARK H PARENT
REMARK Flexibility Score: inf
ROOT
ATOM      1  C   UNL     1     -41.045  43.229  12.359  1.00  0.00     0.059 C 
ENDROOT
BRANCH   1   2
ATOM      2  C   UNL     1     -42.413  43.827  12.480  1.00  0.00     0.042 C 
ATOM      3  O   UNL     1     -43.435  43.093  12.412  1.00  0.00    -0.550 OA
ATOM      4  O   UNL     1     -42.559  45.189  12.708  1.00  0.00    -0.550 OA
ENDBRANCH   1   2
BRANCH   1   5
ATOM      5  C   UNL     1     -40.917  42.368  11.098  1.00  0.00     0.059 C 
BRANCH   5   6
ATOM      6  C   UNL     1     -41.093  40.912  11.404  1.00  0.00     0.042 C 
ATOM      7  O   UNL     1     -40.425  40.373  12.326  1.00  0.00    -0.550 OA
ATOM      8  O   UNL     1     -42.023  40.160  10.698  1.00  0.00    -0.550 OA
ENDBRANCH   5   6
ENDBRANCH   1   5
TORSDOF 3
ENDMDL
MODEL 8
REMARK VINA RESULT:    -3.692      1.583      3.395
REMARK INTER + INTRA:          -4.433
REMARK INTER:                  -4.339
REMARK INTRA:                  -0.094
REMARK UNBOUND:                -0.094
REMARK SMILES O=C([O-])CCC(=O)[O-]
REMARK SMILES IDX 4 1 2 2 1 3 3 4 5 5 6 6 7 7 8 8
REMARK H PARENT
REMARK Flexibility Score: inf
ROOT
ATOM      1  C   UNL     1     -43.560  41.045  10.401  1.00  0.00     0.059 C 
ENDROOT
BRANCH   1   2
ATOM      2  C   UNL     1     -44.106  41.356  11.761  1.00  0.00     0.042 C 
ATOM      3  O   UNL     1     -43.837  42.454  12.317  1.00  0.00    -0.550 OA
ATOM      4  O   UNL     1     -44.944  40.450  12.398  1.00  0.00    -0.550 OA
ENDBRANCH   1   2
BRANCH   1   5
ATOM      5  C   UNL     1     -42.255  40.246  10.488  1.00  0.00     0.059 C 
BRANCH   5   6
ATOM      6  C   UNL     1     -41.128  41.086  11.006  1.00  0.00     0.042 C 
ATOM      7  O   UNL     1     -40.758  42.110  10.374  1.00  0.00    -0.550 OA
ATOM      8  O   UNL     1     -40.513  40.760  12.208  1.00  0.00    -0.550 OA
ENDBRANCH   5   6
ENDBRANCH   1   5
TORSDOF 3
ENDMDL
MODEL 9
REMARK VINA RESULT:    -3.522      1.747      2.381
REMARK INTER + INTRA:          -4.234
REMARK INTER:                  -4.145
REMARK INTRA:                  -0.088
REMARK UNBOUND:                -0.094
REMARK SMILES O=C([O-])CCC(=O)[O-]
REMARK SMILES IDX 4 1 2 2 1 3 3 4 5 5 6 6 7 7 8 8
REMARK H PARENT
REMARK Flexibility Score: inf
ROOT
ATOM      1  C   UNL     1     -43.331  42.662  12.143  1.00  0.00     0.059 C 
ENDROOT
BRANCH   1   2
ATOM      2  C   UNL     1     -42.146  43.489  12.539  1.00  0.00     0.042 C 
ATOM      3  O   UNL     1     -42.262  44.735  12.685  1.00  0.00    -0.550 OA
ATOM      4  O   UNL     1     -40.923  42.879  12.785  1.00  0.00    -0.550 OA
ENDBRANCH   1   2
BRANCH   1   5
ATOM      5  C   UNL     1     -42.909  41.268  11.664  1.00  0.00     0.059 C 
BRANCH   5   6
ATOM      6  C   UNL     1     -42.727  41.228  10.177  1.00  0.00     0.042 C 
ATOM      7  O   UNL     1     -41.705  41.742   9.650  1.00  0.00    -0.550 OA
ATOM      8  O   UNL     1     -43.664  40.587   9.378  1.00  0.00    -0.550 OA
ENDBRANCH   5   6
ENDBRANCH   1   5
TORSDOF 3
ENDMDL
