MODEL 1
REMARK VINA RESULT:    -2.100      0.000      0.000
REMARK INTER + INTRA:          -2.969
REMARK INTER:                  -2.837
REMARK INTRA:                  -0.132
REMARK UNBOUND:                -0.132
REMARK SMILES CCCCCCCC(=O)[O-]
REMARK SMILES IDX 5 1 6 2 7 3 8 4 9 5 10 6 4 7 3 8 2 9 1 10
REMARK H PARENT
REMARK Flexibility Score: inf
ROOT
ATOM      1  C   UNL     1      33.038  23.204  28.809  1.00  0.00     0.000 C 
ENDROOT
BRANCH   1   2
ATOM      2  C   UNL     1      34.280  24.106  28.831  1.00  0.00     0.006 C 
BRANCH   2   3
ATOM      3  C   UNL     1      35.424  23.541  27.979  1.00  0.00     0.053 C 
BRANCH   3   4
ATOM      4  C   UNL     1      36.600  23.146  28.821  1.00  0.00     0.041 C 
ATOM      5  O   UNL     1      37.125  22.011  28.684  1.00  0.00    -0.550 OA
ATOM      6  O   UNL     1      37.093  24.022  29.779  1.00  0.00    -0.550 OA
ENDBRANCH   3   4
ENDBRANCH   2   3
ENDBRANCH   1   2
BRANCH   1   7
ATOM      7  C   UNL     1      32.400  23.179  27.415  1.00  0.00     0.000 C 
BRANCH   7   8
ATOM      8  C   UNL     1      32.075  21.741  26.985  1.00  0.00    -0.000 C 
BRANCH   8   9
ATOM      9  C   UNL     1      30.579  21.413  27.100  1.00  0.00    -0.003 C 
ATOM     10  C   UNL     1      29.799  22.471  27.880  1.00  0.00     0.004 C 
ENDBRANCH   8   9
ENDBRANCH   7   8
ENDBRANCH   1   7
TORSDOF 6
ENDMDL
MODEL 2
REMARK VINA RESULT:    -1.767      1.351      1.898
REMARK INTER + INTRA:          -2.519
REMARK INTER:                  -2.256
REMARK INTRA:                  -0.264
REMARK UNBOUND:                -0.132
REMARK SMILES CCCCCCCC(=O)[O-]
REMARK SMILES IDX 5 1 6 2 7 3 8 4 9 5 10 6 4 7 3 8 2 9 1 10
REMARK H PARENT
REMARK Flexibility Score: inf
ROOT
ATOM      1  C   UNL     1      32.744  22.440  26.937  1.00  0.00     0.000 C 
ENDROOT
BRANCH   1   2
ATOM      2  C   UNL     1      33.298  23.820  27.321  1.00  0.00     0.006 C 
BRANCH   2   3
ATOM      3  C   UNL     1      34.755  24.005  26.876  1.00  0.00     0.053 C 
BRANCH   3   4
ATOM      4  C   UNL     1      35.718  23.598  27.950  1.00  0.00     0.041 C 
ATOM      5  O   UNL     1      36.630  22.766  27.701  1.00  0.00    -0.550 OA
ATOM      6  O   UNL     1      35.587  24.114  29.232  1.00  0.00    -0.550 OA
ENDBRANCH   3   4
ENDBRANCH   2   3
ENDBRANCH   1   2
BRANCH   1   7
ATOM      7  C   UNL     1      31.691  21.970  27.948  1.00  0.00     0.000 C 
BRANCH   7   8
ATOM      8  C   UNL     1      30.310  22.554  27.617  1.00  0.00    -0.000 C 
BRANCH   8   9
ATOM      9  C   UNL     1      29.937  23.738  28.523  1.00  0.00    -0.003 C 
ATOM     10  C   UNL     1      30.717  23.746  29.837  1.00  0.00     0.004 C 
ENDBRANCH   8   9
ENDBRANCH   7   8
ENDBRANCH   1   7
TORSDOF 6
ENDMDL
MODEL 3
REMARK VINA RESULT:    -1.222     21.285     22.772
REMARK INTER + INTRA:          -1.784
REMARK INTER:                  -1.561
REMARK INTRA:                  -0.223
REMARK UNBOUND:                -0.132
REMARK SMILES CCCCCCCC(=O)[O-]
REMARK SMILES IDX 5 1 6 2 7 3 8 4 9 5 10 6 4 7 3 8 2 9 1 10
REMARK H PARENT
REMARK Flexibility Score: inf
ROOT
ATOM      1  C   UNL     1      20.452  21.815  46.929  1.00  0.00     0.000 C 
ENDROOT
BRANCH   1   2
ATOM      2  C   UNL     1      19.310  22.821  47.124  1.00  0.00     0.006 C 
BRANCH   2   3
ATOM      3  C   UNL     1      19.318  23.924  46.058  1.00  0.00     0.053 C 
BRANCH   3   4
ATOM      4  C   UNL     1      18.000  24.022  45.351  1.00  0.00     0.041 C 
ATOM      5  O   UNL     1      16.925  23.985  46.005  1.00  0.00    -0.550 OA
ATOM      6  O   UNL     1      17.961  24.122  43.966  1.00  0.00    -0.550 OA
ENDBRANCH   3   4
ENDBRANCH   2   3
ENDBRANCH   1   2
BRANCH   1   7
ATOM      7  C   UNL     1      21.407  22.272  45.819  1.00  0.00     0.000 C 
BRANCH   7   8
ATOM      8  C   UNL     1      22.871  22.126  46.258  1.00  0.00    -0.000 C 
BRANCH   8   9
ATOM      9  C   UNL     1      23.828  22.986  45.418  1.00  0.00    -0.003 C 
ATOM     10  C   UNL     1      25.224  23.090  46.032  1.00  0.00     0.004 C 
ENDBRANCH   8   9
ENDBRANCH   7   8
ENDBRANCH   1   7
TORSDOF 6
ENDMDL
MODEL 4
REMARK VINA RESULT:     0.442     16.873     17.217
REMARK INTER + INTRA:           0.465
REMARK INTER:                   0.629
REMARK INTRA:                  -0.163
REMARK UNBOUND:                -0.132
REMARK SMILES CCCCCCCC(=O)[O-]
REMARK SMILES IDX 5 1 6 2 7 3 8 4 9 5 10 6 4 7 3 8 2 9 1 10
REMARK H PARENT
REMARK Flexibility Score: inf
ROOT
ATOM      1  C   UNL     1      34.187  12.532  40.404  1.00  0.00     0.000 C 
ENDROOT
BRANCH   1   2
ATOM      2  C   UNL     1      35.005  13.629  41.100  1.00  0.00     0.006 C 
BRANCH   2   3
ATOM      3  C   UNL     1      35.323  13.280  42.559  1.00  0.00     0.053 C 
BRANCH   3   4
ATOM      4  C   UNL     1      35.921  14.444  43.291  1.00  0.00     0.041 C 
ATOM      5  O   UNL     1      37.121  14.408  43.667  1.00  0.00    -0.550 OA
ATOM      6  O   UNL     1      35.140  15.555  43.583  1.00  0.00    -0.550 OA
ENDBRANCH   3   4
ENDBRANCH   2   3
ENDBRANCH   1   2
BRANCH   1   7
ATOM      7  C   UNL     1      33.970  11.333  41.334  1.00  0.00     0.000 C 
BRANCH   7   8
ATOM      8  C   UNL     1      32.622  10.654  41.051  1.00  0.00    -0.000 C 
BRANCH   8   9
ATOM      9  C   UNL     1      32.711   9.612  39.925  1.00  0.00    -0.003 C 
ATOM     10  C   UNL     1      34.139   9.130  39.676  1.00  0.00     0.004 C 
ENDBRANCH   8   9
ENDBRANCH   7   8
ENDBRANCH   1   7
TORSDOF 6
ENDMDL
MODEL 5
REMARK VINA RESULT:     0.603     16.867     17.226
REMARK INTER + INTRA:           0.682
REMARK INTER:                   0.875
REMARK INTRA:                  -0.193
REMARK UNBOUND:                -0.132
REMARK SMILES CCCCCCCC(=O)[O-]
REMARK SMILES IDX 5 1 6 2 7 3 8 4 9 5 10 6 4 7 3 8 2 9 1 10
REMARK H PARENT
REMARK Flexibility Score: inf
ROOT
ATOM      1  C   UNL     1      34.113  12.572  40.406  1.00  0.00     0.000 C 
ENDROOT
BRANCH   1   2
ATOM      2  C   UNL     1      35.174  13.439  41.099  1.00  0.00     0.006 C 
BRANCH   2   3
ATOM      3  C   UNL     1      35.167  13.258  42.623  1.00  0.00     0.053 C 
BRANCH   3   4
ATOM      4  C   UNL     1      35.796  14.425  43.322  1.00  0.00     0.041 C 
ATOM      5  O   UNL     1      35.132  15.475  43.526  1.00  0.00    -0.550 OA
ATOM      6  O   UNL     1      37.125  14.362  43.720  1.00  0.00    -0.550 OA
ENDBRANCH   3   4
ENDBRANCH   2   3
ENDBRANCH   1   2
BRANCH   1   7
ATOM      7  C   UNL     1      33.766  11.343  41.253  1.00  0.00     0.000 C 
BRANCH   7   8
ATOM      8  C   UNL     1      32.571  10.584  40.658  1.00  0.00    -0.000 C 
BRANCH   8   9
ATOM      9  C   UNL     1      32.997   9.509  39.647  1.00  0.00    -0.003 C 
ATOM     10  C   UNL     1      34.470   9.123  39.779  1.00  0.00     0.004 C 
ENDBRANCH   8   9
ENDBRANCH   7   8
ENDBRANCH   1   7
TORSDOF 6
ENDMDL
