MODEL 1
REMARK VINA RESULT:    -4.258      0.000      0.000
REMARK INTER + INTRA:          -6.330
REMARK INTER:                  -5.752
REMARK INTRA:                  -0.578
REMARK UNBOUND:                -0.578
REMARK SMILES COc1ccc(-c2cc(=O)c3c(OC)c(OC)c(OC)cc3o2)cc1OC
REMARK SMILES IDX 7 1 8 2 9 3 10 4 11 5 12 6 15 7 18 8 21 9 22 10 23 11 6 12
REMARK SMILES IDX 3 13 25 14 4 15 24 16 5 17 2 18 1 19 26 20 27 21 13 22 14 23
REMARK SMILES IDX 19 24 20 25 16 26 17 27
REMARK H PARENT
REMARK Flexibility Score: inf
ROOT
ATOM      1  C   UNL     1     119.723 106.106 122.393  1.00  0.00     0.138 A 
ATOM      2  C   UNL     1     120.105 104.821 121.983  1.00  0.00     0.100 A 
ATOM      3  C   UNL     1     119.192 103.771 122.079  1.00  0.00     0.197 A 
ATOM      4  O   UNL     1     119.553 102.622 121.705  1.00  0.00    -0.289 OA
ATOM      5  C   UNL     1     117.892 104.012 122.583  1.00  0.00     0.111 A 
ATOM      6  C   UNL     1     116.909 102.998 122.713  1.00  0.00     0.179 A 
ATOM      7  C   UNL     1     115.621 103.326 123.229  1.00  0.00     0.204 A 
ATOM      8  C   UNL     1     115.336 104.668 123.601  1.00  0.00     0.168 A 
ATOM      9  C   UNL     1     116.328 105.650 123.459  1.00  0.00     0.098 A 
ATOM     10  C   UNL     1     117.586 105.335 122.963  1.00  0.00     0.146 A 
ATOM     11  O   UNL     1     118.490 106.303 122.852  1.00  0.00    -0.456 OA
ENDROOT
BRANCH   1  12
ATOM     12  C   UNL     1     120.650 107.264 122.314  1.00  0.00     0.021 A 
ATOM     13  C   UNL     1     122.362 109.505 122.155  1.00  0.00     0.160 A 
ATOM     14  C   UNL     1     121.127 109.520 121.492  1.00  0.00     0.161 A 
ATOM     15  C   UNL     1     122.732 108.374 122.905  1.00  0.00     0.051 A 
ATOM     16  C   UNL     1     120.276 108.401 121.577  1.00  0.00     0.062 A 
ATOM     17  C   UNL     1     121.885 107.268 122.986  1.00  0.00     0.016 A 
BRANCH  13  18
ATOM     18  O   UNL     1     123.190 110.633 122.050  1.00  0.00    -0.493 OA
ATOM     19  C   UNL     1     124.604 110.584 121.892  1.00  0.00     0.278 C 
ENDBRANCH  13  18
BRANCH  14  20
ATOM     20  O   UNL     1     120.780 110.665 120.756  1.00  0.00    -0.493 OA
ATOM     21  C   UNL     1     119.450 111.025 120.399  1.00  0.00     0.278 C 
ENDBRANCH  14  20
ENDBRANCH   1  12
BRANCH   6  22
ATOM     22  O   UNL     1     117.263 101.690 122.318  1.00  0.00    -0.492 OA
ATOM     23  C   UNL     1     117.434 100.546 123.147  1.00  0.00     0.278 C 
ENDBRANCH   6  22
BRANCH   8  24
ATOM     24  O   UNL     1     114.070 105.004 124.107  1.00  0.00    -0.493 OA
ATOM     25  C   UNL     1     113.011 105.588 123.352  1.00  0.00     0.278 C 
ENDBRANCH   8  24
BRANCH   7  26
ATOM     26  O   UNL     1     114.670 102.295 123.354  1.00  0.00    -0.490 OA
ATOM     27  C   UNL     1     113.613 101.977 122.455  1.00  0.00     0.278 C 
ENDBRANCH   7  26
TORSDOF 6
ENDMDL
MODEL 2
REMARK VINA RESULT:    -4.160      1.927      3.312
REMARK INTER + INTRA:          -6.197
REMARK INTER:                  -5.606
REMARK INTRA:                  -0.591
REMARK UNBOUND:                -0.578
REMARK SMILES COc1ccc(-c2cc(=O)c3c(OC)c(OC)c(OC)cc3o2)cc1OC
REMARK SMILES IDX 7 1 8 2 9 3 10 4 11 5 12 6 15 7 18 8 21 9 22 10 23 11 6 12
REMARK SMILES IDX 3 13 25 14 4 15 24 16 5 17 2 18 1 19 26 20 27 21 13 22 14 23
REMARK SMILES IDX 19 24 20 25 16 26 17 27
REMARK H PARENT
REMARK Flexibility Score: inf
ROOT
ATOM      1  C   UNL     1     119.999 107.965 121.914  1.00  0.00     0.138 A 
ATOM      2  C   UNL     1     118.957 108.545 121.176  1.00  0.00     0.100 A 
ATOM      3  C   UNL     1     117.707 107.927 121.152  1.00  0.00     0.197 A 
ATOM      4  O   UNL     1     116.782 108.464 120.485  1.00  0.00    -0.289 OA
ATOM      5  C   UNL     1     117.502 106.726 121.873  1.00  0.00     0.111 A 
ATOM      6  C   UNL     1     116.262 106.037 121.898  1.00  0.00     0.179 A 
ATOM      7  C   UNL     1     116.139 104.833 122.651  1.00  0.00     0.204 A 
ATOM      8  C   UNL     1     117.259 104.342 123.375  1.00  0.00     0.168 A 
ATOM      9  C   UNL     1     118.472 105.046 123.334  1.00  0.00     0.098 A 
ATOM     10  C   UNL     1     118.600 106.216 122.597  1.00  0.00     0.146 A 
ATOM     11  O   UNL     1     119.772 106.842 122.588  1.00  0.00    -0.456 OA
ENDROOT
BRANCH   1  12
ATOM     12  C   UNL     1     121.352 108.576 121.977  1.00  0.00     0.021 A 
ATOM     13  C   UNL     1     123.896 109.798 122.098  1.00  0.00     0.160 A 
ATOM     14  C   UNL     1     122.818 110.482 121.518  1.00  0.00     0.161 A 
ATOM     15  C   UNL     1     123.695 108.509 122.625  1.00  0.00     0.051 A 
ATOM     16  C   UNL     1     121.551 109.870 121.464  1.00  0.00     0.062 A 
ATOM     17  C   UNL     1     122.438 107.907 122.568  1.00  0.00     0.016 A 
BRANCH  13  18
ATOM     18  O   UNL     1     125.147 110.432 122.136  1.00  0.00    -0.493 OA
ATOM     19  C   UNL     1     126.192 110.213 121.195  1.00  0.00     0.278 C 
ENDBRANCH  13  18
BRANCH  14  20
ATOM     20  O   UNL     1     123.045 111.770 121.006  1.00  0.00    -0.493 OA
ATOM     21  C   UNL     1     122.428 112.955 121.496  1.00  0.00     0.278 C 
ENDBRANCH  14  20
ENDBRANCH   1  12
BRANCH   6  22
ATOM     22  O   UNL     1     115.193 106.589 121.159  1.00  0.00    -0.492 OA
ATOM     23  C   UNL     1     114.535 106.028 120.029  1.00  0.00     0.278 C 
ENDBRANCH   6  22
BRANCH   8  24
ATOM     24  O   UNL     1     117.149 103.160 124.125  1.00  0.00    -0.493 OA
ATOM     25  C   UNL     1     117.717 101.903 123.767  1.00  0.00     0.278 C 
ENDBRANCH   8  24
BRANCH   7  26
ATOM     26  O   UNL     1     114.898 104.169 122.648  1.00  0.00    -0.490 OA
ATOM     27  C   UNL     1     113.829 104.324 123.575  1.00  0.00     0.278 C 
ENDBRANCH   7  26
TORSDOF 6
ENDMDL
MODEL 3
REMARK VINA RESULT:    -4.131      2.491      4.084
REMARK INTER + INTRA:          -6.158
REMARK INTER:                  -5.519
REMARK INTRA:                  -0.638
REMARK UNBOUND:                -0.578
REMARK SMILES COc1ccc(-c2cc(=O)c3c(OC)c(OC)c(OC)cc3o2)cc1OC
REMARK SMILES IDX 7 1 8 2 9 3 10 4 11 5 12 6 15 7 18 8 21 9 22 10 23 11 6 12
REMARK SMILES IDX 3 13 25 14 4 15 24 16 5 17 2 18 1 19 26 20 27 21 13 22 14 23
REMARK SMILES IDX 19 24 20 25 16 26 17 27
REMARK H PARENT
REMARK Flexibility Score: inf
ROOT
ATOM      1  C   UNL     1     121.230 108.875 121.901  1.00  0.00     0.138 A 
ATOM      2  C   UNL     1     121.195 107.552 122.366  1.00  0.00     0.100 A 
ATOM      3  C   UNL     1     119.994 106.843 122.327  1.00  0.00     0.197 A 
ATOM      4  O   UNL     1     119.982 105.655 122.748  1.00  0.00    -0.289 OA
ATOM      5  C   UNL     1     118.828 107.462 121.818  1.00  0.00     0.111 A 
ATOM      6  C   UNL     1     117.570 106.810 121.746  1.00  0.00     0.179 A 
ATOM      7  C   UNL     1     116.444 107.504 121.217  1.00  0.00     0.204 A 
ATOM      8  C   UNL     1     116.597 108.842 120.760  1.00  0.00     0.168 A 
ATOM      9  C   UNL     1     117.853 109.461 120.841  1.00  0.00     0.098 A 
ATOM     10  C   UNL     1     118.953 108.791 121.361  1.00  0.00     0.146 A 
ATOM     11  O   UNL     1     120.119 109.424 121.419  1.00  0.00    -0.456 OA
ENDROOT
BRANCH   1  12
ATOM     12  C   UNL     1     122.478 109.680 121.917  1.00  0.00     0.021 A 
ATOM     13  C   UNL     1     124.816 111.265 121.957  1.00  0.00     0.160 A 
ATOM     14  C   UNL     1     123.588 111.838 121.596  1.00  0.00     0.161 A 
ATOM     15  C   UNL     1     124.868 109.903 122.307  1.00  0.00     0.051 A 
ATOM     16  C   UNL     1     122.425 111.044 121.581  1.00  0.00     0.062 A 
ATOM     17  C   UNL     1     123.713 109.122 122.290  1.00  0.00     0.016 A 
BRANCH  13  18
ATOM     18  O   UNL     1     125.958 112.080 121.961  1.00  0.00    -0.493 OA
ATOM     19  C   UNL     1     126.516 112.682 123.124  1.00  0.00     0.278 C 
ENDBRANCH  13  18
BRANCH  14  20
ATOM     20  O   UNL     1     123.564 113.201 121.258  1.00  0.00    -0.493 OA
ATOM     21  C   UNL     1     123.042 114.231 122.090  1.00  0.00     0.278 C 
ENDBRANCH  14  20
ENDBRANCH   1  12
BRANCH   6  22
ATOM     22  O   UNL     1     117.497 105.479 122.213  1.00  0.00    -0.492 OA
ATOM     23  C   UNL     1     116.801 104.995 123.356  1.00  0.00     0.278 C 
ENDBRANCH   6  22
BRANCH   8  24
ATOM     24  O   UNL     1     115.495 109.535 120.232  1.00  0.00    -0.493 OA
ATOM     25  C   UNL     1     115.143 110.880 120.545  1.00  0.00     0.278 C 
ENDBRANCH   8  24
BRANCH   7  26
ATOM     26  O   UNL     1     115.208 106.832 121.168  1.00  0.00    -0.490 OA
ATOM     27  C   UNL     1     114.673 106.079 120.085  1.00  0.00     0.278 C 
ENDBRANCH   7  26
TORSDOF 6
ENDMDL
MODEL 4
REMARK VINA RESULT:    -4.108      5.725      7.837
REMARK INTER + INTRA:          -6.128
REMARK INTER:                  -5.478
REMARK INTRA:                  -0.649
REMARK UNBOUND:                -0.578
REMARK SMILES COc1ccc(-c2cc(=O)c3c(OC)c(OC)c(OC)cc3o2)cc1OC
REMARK SMILES IDX 7 1 8 2 9 3 10 4 11 5 12 6 15 7 18 8 21 9 22 10 23 11 6 12
REMARK SMILES IDX 3 13 25 14 4 15 24 16 5 17 2 18 1 19 26 20 27 21 13 22 14 23
REMARK SMILES IDX 19 24 20 25 16 26 17 27
REMARK H PARENT
REMARK Flexibility Score: inf
ROOT
ATOM      1  C   UNL     1     124.701 103.646 120.328  1.00  0.00     0.138 A 
ATOM      2  C   UNL     1     123.566 102.858 120.086  1.00  0.00     0.100 A 
ATOM      3  C   UNL     1     122.306 103.349 120.425  1.00  0.00     0.197 A 
ATOM      4  O   UNL     1     121.297 102.628 120.198  1.00  0.00    -0.289 OA
ATOM      5  C   UNL     1     122.184 104.635 121.004  1.00  0.00     0.111 A 
ATOM      6  C   UNL     1     120.939 105.204 121.377  1.00  0.00     0.179 A 
ATOM      7  C   UNL     1     120.903 106.507 121.954  1.00  0.00     0.204 A 
ATOM      8  C   UNL     1     122.116 107.224 122.141  1.00  0.00     0.168 A 
ATOM      9  C   UNL     1     123.332 106.636 121.761  1.00  0.00     0.098 A 
ATOM     10  C   UNL     1     123.374 105.365 121.204  1.00  0.00     0.146 A 
ATOM     11  O   UNL     1     124.552 104.854 120.865  1.00  0.00    -0.456 OA
ENDROOT
BRANCH   1  12
ATOM     12  C   UNL     1     126.069 103.178 119.989  1.00  0.00     0.021 A 
ATOM     13  C   UNL     1     128.693 102.313 119.400  1.00  0.00     0.160 A 
ATOM     14  C   UNL     1     128.493 103.439 120.212  1.00  0.00     0.161 A 
ATOM     15  C   UNL     1     127.580 101.618 118.893  1.00  0.00     0.051 A 
ATOM     16  C   UNL     1     127.183 103.863 120.505  1.00  0.00     0.062 A 
ATOM     17  C   UNL     1     126.284 102.043 119.188  1.00  0.00     0.016 A 
BRANCH  13  18
ATOM     18  O   UNL     1     130.010 101.915 119.122  1.00  0.00    -0.493 OA
ATOM     19  C   UNL     1     130.695 100.865 119.797  1.00  0.00     0.278 C 
ENDBRANCH  13  18
BRANCH  14  20
ATOM     20  O   UNL     1     129.623 104.110 120.709  1.00  0.00    -0.493 OA
ATOM     21  C   UNL     1     130.166 105.301 120.149  1.00  0.00     0.278 C 
ENDBRANCH  14  20
ENDBRANCH   1  12
BRANCH   6  22
ATOM     22  O   UNL     1     119.776 104.435 121.155  1.00  0.00    -0.492 OA
ATOM     23  C   UNL     1     118.933 103.830 122.129  1.00  0.00     0.278 C 
ENDBRANCH   6  22
BRANCH   8  24
ATOM     24  O   UNL     1     122.093 108.510 122.704  1.00  0.00    -0.493 OA
ATOM     25  C   UNL     1     122.123 109.730 121.970  1.00  0.00     0.278 C 
ENDBRANCH   8  24
BRANCH   7  26
ATOM     26  O   UNL     1     119.653 107.040 122.321  1.00  0.00    -0.490 OA
ATOM     27  C   UNL     1     118.770 107.815 121.518  1.00  0.00     0.278 C 
ENDBRANCH   7  26
TORSDOF 6
ENDMDL
MODEL 5
REMARK VINA RESULT:    -4.067      1.500      2.272
REMARK INTER + INTRA:          -6.072
REMARK INTER:                  -5.511
REMARK INTRA:                  -0.561
REMARK UNBOUND:                -0.578
REMARK SMILES COc1ccc(-c2cc(=O)c3c(OC)c(OC)c(OC)cc3o2)cc1OC
REMARK SMILES IDX 7 1 8 2 9 3 10 4 11 5 12 6 15 7 18 8 21 9 22 10 23 11 6 12
REMARK SMILES IDX 3 13 25 14 4 15 24 16 5 17 2 18 1 19 26 20 27 21 13 22 14 23
REMARK SMILES IDX 19 24 20 25 16 26 17 27
REMARK H PARENT
REMARK Flexibility Score: inf
ROOT
ATOM      1  C   UNL     1     121.449 107.215 121.953  1.00  0.00     0.138 A 
ATOM      2  C   UNL     1     121.979 106.027 121.429  1.00  0.00     0.100 A 
ATOM      3  C   UNL     1     121.195 104.874 121.417  1.00  0.00     0.197 A 
ATOM      4  O   UNL     1     121.688 103.815 120.940  1.00  0.00    -0.289 OA
ATOM      5  C   UNL     1     119.876 104.914 121.928  1.00  0.00     0.111 A 
ATOM      6  C   UNL     1     119.018 103.784 121.952  1.00  0.00     0.179 A 
ATOM      7  C   UNL     1     117.701 103.909 122.483  1.00  0.00     0.204 A 
ATOM      8  C   UNL     1     117.261 105.168 122.975  1.00  0.00     0.168 A 
ATOM      9  C   UNL     1     118.132 106.268 122.937  1.00  0.00     0.098 A 
ATOM     10  C   UNL     1     119.418 106.150 122.426  1.00  0.00     0.146 A 
ATOM     11  O   UNL     1     120.202 107.222 122.416  1.00  0.00    -0.456 OA
ENDROOT
BRANCH   1  12
ATOM     12  C   UNL     1     122.234 108.475 121.993  1.00  0.00     0.021 A 
ATOM     13  C   UNL     1     123.672 110.906 122.072  1.00  0.00     0.160 A 
ATOM     14  C   UNL     1     122.366 110.881 121.561  1.00  0.00     0.161 A 
ATOM     15  C   UNL     1     124.250 109.716 122.552  1.00  0.00     0.051 A 
ATOM     16  C   UNL     1     121.653 109.667 121.527  1.00  0.00     0.062 A 
ATOM     17  C   UNL     1     123.538 108.517 122.516  1.00  0.00     0.016 A 
BRANCH  13  18
ATOM     18  O   UNL     1     124.359 112.129 122.091  1.00  0.00    -0.493 OA
ATOM     19  C   UNL     1     124.671 112.861 123.272  1.00  0.00     0.278 C 
ENDBRANCH  13  18
BRANCH  14  20
ATOM     20  O   UNL     1     121.812 112.085 121.095  1.00  0.00    -0.493 OA
ATOM     21  C   UNL     1     120.528 112.203 120.492  1.00  0.00     0.278 C 
ENDBRANCH  14  20
ENDBRANCH   1  12
BRANCH   6  22
ATOM     22  O   UNL     1     119.523 102.569 121.439  1.00  0.00    -0.492 OA
ATOM     23  C   UNL     1     119.088 101.865 120.281  1.00  0.00     0.278 C 
ENDBRANCH   6  22
BRANCH   8  24
ATOM     24  O   UNL     1     115.965 105.305 123.497  1.00  0.00    -0.493 OA
ATOM     25  C   UNL     1     115.085 106.395 123.238  1.00  0.00     0.278 C 
ENDBRANCH   8  24
BRANCH   7  26
ATOM     26  O   UNL     1     116.878 102.768 122.500  1.00  0.00    -0.490 OA
ATOM     27  C   UNL     1     116.712 101.834 123.562  1.00  0.00     0.278 C 
ENDBRANCH   7  26
TORSDOF 6
ENDMDL
MODEL 6
REMARK VINA RESULT:    -4.054      1.576      8.394
REMARK INTER + INTRA:          -6.054
REMARK INTER:                  -5.415
REMARK INTRA:                  -0.639
REMARK UNBOUND:                -0.578
REMARK SMILES COc1ccc(-c2cc(=O)c3c(OC)c(OC)c(OC)cc3o2)cc1OC
REMARK SMILES IDX 7 1 8 2 9 3 10 4 11 5 12 6 15 7 18 8 21 9 22 10 23 11 6 12
REMARK SMILES IDX 3 13 25 14 4 15 24 16 5 17 2 18 1 19 26 20 27 21 13 22 14 23
REMARK SMILES IDX 19 24 20 25 16 26 17 27
REMARK H PARENT
REMARK Flexibility Score: inf
ROOT
ATOM      1  C   UNL     1     119.948 106.835 122.259  1.00  0.00     0.138 A 
ATOM      2  C   UNL     1     121.297 106.706 122.618  1.00  0.00     0.100 A 
ATOM      3  C   UNL     1     122.168 107.775 122.408  1.00  0.00     0.197 A 
ATOM      4  O   UNL     1     123.378 107.641 122.738  1.00  0.00    -0.289 OA
ATOM      5  C   UNL     1     121.683 108.976 121.839  1.00  0.00     0.111 A 
ATOM      6  C   UNL     1     122.505 110.106 121.592  1.00  0.00     0.179 A 
ATOM      7  C   UNL     1     121.936 111.280 121.016  1.00  0.00     0.204 A 
ATOM      8  C   UNL     1     120.549 111.306 120.704  1.00  0.00     0.168 A 
ATOM      9  C   UNL     1     119.761 110.174 120.962  1.00  0.00     0.098 A 
ATOM     10  C   UNL     1     120.311 109.026 121.516  1.00  0.00     0.146 A 
ATOM     11  O   UNL     1     119.521 107.981 121.736  1.00  0.00    -0.456 OA
ENDROOT
BRANCH   1  12
ATOM     12  C   UNL     1     118.973 105.733 122.459  1.00  0.00     0.021 A 
ATOM     13  C   UNL     1     117.070 103.679 122.837  1.00  0.00     0.160 A 
ATOM     14  C   UNL     1     116.766 104.994 123.219  1.00  0.00     0.161 A 
ATOM     15  C   UNL     1     118.321 103.398 122.258  1.00  0.00     0.051 A 
ATOM     16  C   UNL     1     117.717 106.014 123.025  1.00  0.00     0.062 A 
ATOM     17  C   UNL     1     119.259 104.413 122.069  1.00  0.00     0.016 A 
BRANCH  13  18
ATOM     18  O   UNL     1     116.103 102.683 123.044  1.00  0.00    -0.493 OA
ATOM     19  C   UNL     1     116.135 101.736 124.106  1.00  0.00     0.278 C 
ENDBRANCH  13  18
BRANCH  14  20
ATOM     20  O   UNL     1     115.507 105.247 123.788  1.00  0.00    -0.493 OA
ATOM     21  C   UNL     1     114.489 106.036 123.181  1.00  0.00     0.278 C 
ENDBRANCH  14  20
ENDBRANCH   1  12
BRANCH   6  22
ATOM     22  O   UNL     1     123.871 110.008 121.934  1.00  0.00    -0.492 OA
ATOM     23  C   UNL     1     124.991 110.014 121.056  1.00  0.00     0.278 C 
ENDBRANCH   6  22
BRANCH   8  24
ATOM     24  O   UNL     1     119.977 112.458 120.141  1.00  0.00    -0.493 OA
ATOM     25  C   UNL     1     119.348 113.506 120.873  1.00  0.00     0.278 C 
ENDBRANCH   8  24
BRANCH   7  26
ATOM     26  O   UNL     1     122.780 112.381 120.776  1.00  0.00    -0.490 OA
ATOM     27  C   UNL     1     123.075 113.457 121.660  1.00  0.00     0.278 C 
ENDBRANCH   7  26
TORSDOF 6
ENDMDL
MODEL 7
REMARK VINA RESULT:    -4.015      2.103      8.436
REMARK INTER + INTRA:          -6.001
REMARK INTER:                  -5.454
REMARK INTRA:                  -0.547
REMARK UNBOUND:                -0.578
REMARK SMILES COc1ccc(-c2cc(=O)c3c(OC)c(OC)c(OC)cc3o2)cc1OC
REMARK SMILES IDX 7 1 8 2 9 3 10 4 11 5 12 6 15 7 18 8 21 9 22 10 23 11 6 12
REMARK SMILES IDX 3 13 25 14 4 15 24 16 5 17 2 18 1 19 26 20 27 21 13 22 14 23
REMARK SMILES IDX 19 24 20 25 16 26 17 27
REMARK H PARENT
REMARK Flexibility Score: inf
ROOT
ATOM      1  C   UNL     1     119.896 106.063 122.124  1.00  0.00     0.138 A 
ATOM      2  C   UNL     1     120.757 105.185 121.449  1.00  0.00     0.100 A 
ATOM      3  C   UNL     1     122.008 105.638 121.031  1.00  0.00     0.197 A 
ATOM      4  O   UNL     1     122.769 104.835 120.427  1.00  0.00    -0.289 OA
ATOM      5  C   UNL     1     122.397 106.973 121.295  1.00  0.00     0.111 A 
ATOM      6  C   UNL     1     123.651 107.509 120.902  1.00  0.00     0.179 A 
ATOM      7  C   UNL     1     123.966 108.865 121.209  1.00  0.00     0.204 A 
ATOM      8  C   UNL     1     123.022 109.662 121.912  1.00  0.00     0.168 A 
ATOM      9  C   UNL     1     121.792 109.104 122.290  1.00  0.00     0.098 A 
ATOM     10  C   UNL     1     121.477 107.786 121.988  1.00  0.00     0.146 A 
ATOM     11  O   UNL     1     120.296 107.308 122.366  1.00  0.00    -0.456 OA
ENDROOT
BRANCH   1  12
ATOM     12  C   UNL     1     118.552 105.639 122.593  1.00  0.00     0.021 A 
ATOM     13  C   UNL     1     116.025 104.790 123.527  1.00  0.00     0.160 A 
ATOM     14  C   UNL     1     117.123 103.920 123.590  1.00  0.00     0.161 A 
ATOM     15  C   UNL     1     116.197 106.086 123.006  1.00  0.00     0.051 A 
ATOM     16  C   UNL     1     118.381 104.349 123.126  1.00  0.00     0.062 A 
ATOM     17  C   UNL     1     117.446 106.505 122.548  1.00  0.00     0.016 A 
BRANCH  13  18
ATOM     18  O   UNL     1     114.783 104.334 123.994  1.00  0.00    -0.493 OA
ATOM     19  C   UNL     1     113.535 104.957 123.709  1.00  0.00     0.278 C 
ENDBRANCH  13  18
BRANCH  14  20
ATOM     20  O   UNL     1     116.923 102.635 124.121  1.00  0.00    -0.493 OA
ATOM     21  C   UNL     1     116.744 101.457 123.341  1.00  0.00     0.278 C 
ENDBRANCH  14  20
ENDBRANCH   1  12
BRANCH   6  22
ATOM     22  O   UNL     1     124.539 106.655 120.213  1.00  0.00    -0.492 OA
ATOM     23  C   UNL     1     124.902 106.704 118.838  1.00  0.00     0.278 C 
ENDBRANCH   6  22
BRANCH   8  24
ATOM     24  O   UNL     1     123.323 110.998 122.224  1.00  0.00    -0.493 OA
ATOM     25  C   UNL     1     122.845 112.136 121.513  1.00  0.00     0.278 C 
ENDBRANCH   8  24
BRANCH   7  26
ATOM     26  O   UNL     1     125.215 109.369 120.797  1.00  0.00    -0.490 OA
ATOM     27  C   UNL     1     125.485 110.212 119.683  1.00  0.00     0.278 C 
ENDBRANCH   7  26
TORSDOF 6
ENDMDL
MODEL 8
REMARK VINA RESULT:    -3.997      1.749      3.584
REMARK INTER + INTRA:          -5.977
REMARK INTER:                  -5.369
REMARK INTRA:                  -0.608
REMARK UNBOUND:                -0.578
REMARK SMILES COc1ccc(-c2cc(=O)c3c(OC)c(OC)c(OC)cc3o2)cc1OC
REMARK SMILES IDX 7 1 8 2 9 3 10 4 11 5 12 6 15 7 18 8 21 9 22 10 23 11 6 12
REMARK SMILES IDX 3 13 25 14 4 15 24 16 5 17 2 18 1 19 26 20 27 21 13 22 14 23
REMARK SMILES IDX 19 24 20 25 16 26 17 27
REMARK H PARENT
REMARK Flexibility Score: inf
ROOT
ATOM      1  C   UNL     1     118.845 106.461 122.369  1.00  0.00     0.138 A 
ATOM      2  C   UNL     1     117.690 107.179 122.028  1.00  0.00     0.100 A 
ATOM      3  C   UNL     1     116.441 106.574 122.163  1.00  0.00     0.197 A 
ATOM      4  O   UNL     1     115.414 107.236 121.853  1.00  0.00    -0.289 OA
ATOM      5  C   UNL     1     116.351 105.246 122.644  1.00  0.00     0.111 A 
ATOM      6  C   UNL     1     115.120 104.561 122.808  1.00  0.00     0.179 A 
ATOM      7  C   UNL     1     115.116 103.223 123.300  1.00  0.00     0.204 A 
ATOM      8  C   UNL     1     116.348 102.595 123.630  1.00  0.00     0.168 A 
ATOM      9  C   UNL     1     117.550 103.298 123.459  1.00  0.00     0.098 A 
ATOM     10  C   UNL     1     117.560 104.599 122.974  1.00  0.00     0.146 A 
ATOM     11  O   UNL     1     118.726 105.218 122.828  1.00  0.00    -0.456 OA
ENDROOT
BRANCH   1  12
ATOM     12  C   UNL     1     120.203 107.051 122.248  1.00  0.00     0.021 A 
ATOM     13  C   UNL     1     122.804 108.121 121.985  1.00  0.00     0.160 A 
ATOM     14  C   UNL     1     122.617 106.732 121.998  1.00  0.00     0.161 A 
ATOM     15  C   UNL     1     121.688 108.971 122.094  1.00  0.00     0.051 A 
ATOM     16  C   UNL     1     121.318 106.204 122.126  1.00  0.00     0.062 A 
ATOM     17  C   UNL     1     120.403 108.442 122.220  1.00  0.00     0.016 A 
BRANCH  13  18
ATOM     18  O   UNL     1     124.110 108.619 121.859  1.00  0.00    -0.493 OA
ATOM     19  C   UNL     1     124.478 109.722 121.038  1.00  0.00     0.278 C 
ENDBRANCH  13  18
BRANCH  14  20
ATOM     20  O   UNL     1     123.748 105.907 121.881  1.00  0.00    -0.493 OA
ATOM     21  C   UNL     1     124.110 105.193 120.705  1.00  0.00     0.278 C 
ENDBRANCH  14  20
ENDBRANCH   1  12
BRANCH   6  22
ATOM     22  O   UNL     1     113.937 105.252 122.466  1.00  0.00    -0.492 OA
ATOM     23  C   UNL     1     112.883 105.655 123.333  1.00  0.00     0.278 C 
ENDBRANCH   6  22
BRANCH   8  24
ATOM     24  O   UNL     1     116.357 101.279 124.120  1.00  0.00    -0.493 OA
ATOM     25  C   UNL     1     117.128 100.207 123.584  1.00  0.00     0.278 C 
ENDBRANCH   8  24
BRANCH   7  26
ATOM     26  O   UNL     1     113.878 102.568 123.443  1.00  0.00    -0.490 OA
ATOM     27  C   UNL     1     113.206 101.765 122.479  1.00  0.00     0.278 C 
ENDBRANCH   7  26
TORSDOF 6
ENDMDL
MODEL 9
REMARK VINA RESULT:    -3.996     14.987     17.461
REMARK INTER + INTRA:          -5.975
REMARK INTER:                  -5.337
REMARK INTRA:                  -0.639
REMARK UNBOUND:                -0.578
REMARK SMILES COc1ccc(-c2cc(=O)c3c(OC)c(OC)c(OC)cc3o2)cc1OC
REMARK SMILES IDX 7 1 8 2 9 3 10 4 11 5 12 6 15 7 18 8 21 9 22 10 23 11 6 12
REMARK SMILES IDX 3 13 25 14 4 15 24 16 5 17 2 18 1 19 26 20 27 21 13 22 14 23
REMARK SMILES IDX 19 24 20 25 16 26 17 27
REMARK H PARENT
REMARK Flexibility Score: inf
ROOT
ATOM      1  C   UNL     1     120.047 114.267 108.781  1.00  0.00     0.138 A 
ATOM      2  C   UNL     1     119.739 112.941 109.119  1.00  0.00     0.100 A 
ATOM      3  C   UNL     1     120.767 112.006 109.234  1.00  0.00     0.197 A 
ATOM      4  O   UNL     1     120.471 110.819 109.541  1.00  0.00    -0.289 OA
ATOM      5  C   UNL     1     122.107 112.403 109.012  1.00  0.00     0.111 A 
ATOM      6  C   UNL     1     123.207 111.512 109.108  1.00  0.00     0.179 A 
ATOM      7  C   UNL     1     124.528 111.993 108.871  1.00  0.00     0.204 A 
ATOM      8  C   UNL     1     124.727 113.363 108.548  1.00  0.00     0.168 A 
ATOM      9  C   UNL     1     123.620 114.221 108.462  1.00  0.00     0.098 A 
ATOM     10  C   UNL     1     122.330 113.757 108.686  1.00  0.00     0.146 A 
ATOM     11  O   UNL     1     121.317 114.610 108.589  1.00  0.00    -0.456 OA
ENDROOT
BRANCH   1  12
ATOM     12  C   UNL     1     118.996 115.307 108.644  1.00  0.00     0.021 A 
ATOM     13  C   UNL     1     116.951 117.240 108.389  1.00  0.00     0.160 A 
ATOM     14  C   UNL     1     116.720 115.918 107.981  1.00  0.00     0.161 A 
ATOM     15  C   UNL     1     118.201 117.588 108.932  1.00  0.00     0.051 A 
ATOM     16  C   UNL     1     117.742 114.958 108.114  1.00  0.00     0.062 A 
ATOM     17  C   UNL     1     119.209 116.633 109.061  1.00  0.00     0.016 A 
BRANCH  13  18
ATOM     18  O   UNL     1     115.916 118.175 108.242  1.00  0.00    -0.493 OA
ATOM     19  C   UNL     1     115.829 119.125 107.185  1.00  0.00     0.278 C 
ENDBRANCH  13  18
BRANCH  14  20
ATOM     20  O   UNL     1     115.460 115.597 107.448  1.00  0.00    -0.493 OA
ATOM     21  C   UNL     1     115.247 115.062 106.147  1.00  0.00     0.278 C 
ENDBRANCH  14  20
ENDBRANCH   1  12
BRANCH   6  22
ATOM     22  O   UNL     1     122.932 110.167 109.439  1.00  0.00    -0.492 OA
ATOM     23  C   UNL     1     123.065 109.021 108.606  1.00  0.00     0.278 C 
ENDBRANCH   6  22
BRANCH   8  24
ATOM     24  O   UNL     1     126.023 113.850 108.316  1.00  0.00    -0.493 OA
ATOM     25  C   UNL     1     126.872 114.431 109.302  1.00  0.00     0.278 C 
ENDBRANCH   8  24
BRANCH   7  26
ATOM     26  O   UNL     1     125.597 111.082 108.965  1.00  0.00    -0.490 OA
ATOM     27  C   UNL     1     126.357 110.755 110.123  1.00  0.00     0.278 C 
ENDBRANCH   7  26
TORSDOF 6
ENDMDL
