MODEL 1
REMARK VINA RESULT:    -4.441      0.000      0.000
REMARK INTER + INTRA:          -7.015
REMARK INTER:                  -6.518
REMARK INTRA:                  -0.497
REMARK UNBOUND:                -0.497
REMARK SMILES O=C([O-])CCCCCCCC(=O)[O-]
REMARK SMILES IDX 7 1 6 2 5 3 4 4 2 5 1 6 3 7 8 8 9 9 10 10 11 11 12 12 13 13
REMARK H PARENT
REMARK Flexibility Score: inf
ROOT
ATOM      1  C   UNL     1       1.095 -22.094  -6.328  1.00  0.00     0.000 C 
ENDROOT
BRANCH   1   2
ATOM      2  C   UNL     1       0.892 -21.637  -7.781  1.00  0.00     0.000 C 
BRANCH   2   3
ATOM      3  C   UNL     1       2.060 -20.789  -8.305  1.00  0.00     0.006 C 
BRANCH   3   4
ATOM      4  C   UNL     1       3.309 -20.982  -7.439  1.00  0.00     0.053 C 
BRANCH   4   5
ATOM      5  C   UNL     1       4.025 -19.682  -7.254  1.00  0.00     0.041 C 
ATOM      6  O   UNL     1       4.937 -19.342  -8.052  1.00  0.00    -0.550 OA
ATOM      7  O   UNL     1       3.721 -18.869  -6.169  1.00  0.00    -0.550 OA
ENDBRANCH   4   5
ENDBRANCH   3   4
ENDBRANCH   2   3
ENDBRANCH   1   2
BRANCH   1   8
ATOM      8  C   UNL     1       0.120 -21.419  -5.353  1.00  0.00     0.000 C 
BRANCH   8   9
ATOM      9  C   UNL     1       0.802 -20.263  -4.606  1.00  0.00     0.006 C 
BRANCH   9  10
ATOM     10  C   UNL     1       0.496 -20.281  -3.103  1.00  0.00     0.053 C 
BRANCH  10  11
ATOM     11  C   UNL     1       1.740 -20.435  -2.283  1.00  0.00     0.041 C 
ATOM     12  O   UNL     1       1.723 -21.123  -1.228  1.00  0.00    -0.550 OA
ATOM     13  O   UNL     1       2.911 -19.791  -2.666  1.00  0.00    -0.550 OA
ENDBRANCH  10  11
ENDBRANCH   9  10
ENDBRANCH   8   9
ENDBRANCH   1   8
TORSDOF 8
ENDMDL
MODEL 2
REMARK VINA RESULT:    -4.412      1.391      1.683
REMARK INTER + INTRA:          -6.973
REMARK INTER:                  -6.445
REMARK INTRA:                  -0.528
REMARK UNBOUND:                -0.497
REMARK SMILES O=C([O-])CCCCCCCC(=O)[O-]
REMARK SMILES IDX 7 1 6 2 5 3 4 4 2 5 1 6 3 7 8 8 9 9 10 10 11 11 12 12 13 13
REMARK H PARENT
REMARK Flexibility Score: inf
ROOT
ATOM      1  C   UNL     1       0.798 -21.631  -7.520  1.00  0.00     0.000 C 
ENDROOT
BRANCH   1   2
ATOM      2  C   UNL     1       1.983 -20.980  -8.251  1.00  0.00     0.000 C 
BRANCH   2   3
ATOM      3  C   UNL     1       2.752 -19.988  -7.367  1.00  0.00     0.006 C 
BRANCH   3   4
ATOM      4  C   UNL     1       4.264 -20.141  -7.557  1.00  0.00     0.053 C 
BRANCH   4   5
ATOM      5  C   UNL     1       4.805 -21.188  -6.636  1.00  0.00     0.041 C 
ATOM      6  O   UNL     1       5.613 -22.053  -7.065  1.00  0.00    -0.550 OA
ATOM      7  O   UNL     1       4.378 -21.240  -5.315  1.00  0.00    -0.550 OA
ENDBRANCH   4   5
ENDBRANCH   3   4
ENDBRANCH   2   3
ENDBRANCH   1   2
BRANCH   1   8
ATOM      8  C   UNL     1       1.124 -21.990  -6.063  1.00  0.00     0.000 C 
BRANCH   8   9
ATOM      9  C   UNL     1       0.157 -21.293  -5.095  1.00  0.00     0.006 C 
BRANCH   9  10
ATOM     10  C   UNL     1       0.789 -20.068  -4.423  1.00  0.00     0.053 C 
BRANCH  10  11
ATOM     11  C   UNL     1       1.000 -20.285  -2.955  1.00  0.00     0.041 C 
ATOM     12  O   UNL     1       0.218 -21.029  -2.307  1.00  0.00    -0.550 OA
ATOM     13  O   UNL     1       2.039 -19.639  -2.297  1.00  0.00    -0.550 OA
ENDBRANCH  10  11
ENDBRANCH   9  10
ENDBRANCH   8   9
ENDBRANCH   1   8
TORSDOF 8
ENDMDL
MODEL 3
REMARK VINA RESULT:    -4.388      0.338      4.775
REMARK INTER + INTRA:          -6.938
REMARK INTER:                  -6.394
REMARK INTRA:                  -0.544
REMARK UNBOUND:                -0.497
REMARK SMILES O=C([O-])CCCCCCCC(=O)[O-]
REMARK SMILES IDX 7 1 6 2 5 3 4 4 2 5 1 6 3 7 8 8 9 9 10 10 11 11 12 12 13 13
REMARK H PARENT
REMARK Flexibility Score: inf
ROOT
ATOM      1  C   UNL     1       1.130 -22.067  -6.060  1.00  0.00     0.000 C 
ENDROOT
BRANCH   1   2
ATOM      2  C   UNL     1       0.239 -21.243  -5.117  1.00  0.00     0.000 C 
BRANCH   2   3
ATOM      3  C   UNL     1       0.872 -19.899  -4.727  1.00  0.00     0.006 C 
BRANCH   3   4
ATOM      4  C   UNL     1       0.747 -19.649  -3.221  1.00  0.00     0.053 C 
BRANCH   4   5
ATOM      5  C   UNL     1       1.856 -20.329  -2.483  1.00  0.00     0.041 C 
ATOM      6  O   UNL     1       3.042 -20.232  -2.892  1.00  0.00    -0.550 OA
ATOM      7  O   UNL     1       1.572 -21.112  -1.371  1.00  0.00    -0.550 OA
ENDBRANCH   4   5
ENDBRANCH   3   4
ENDBRANCH   2   3
ENDBRANCH   1   2
BRANCH   1   8
ATOM      8  C   UNL     1       0.841 -21.790  -7.542  1.00  0.00     0.000 C 
BRANCH   8   9
ATOM      9  C   UNL     1       1.907 -20.863  -8.146  1.00  0.00     0.006 C 
BRANCH   9  10
ATOM     10  C   UNL     1       3.262 -21.000  -7.441  1.00  0.00     0.053 C 
BRANCH  10  11
ATOM     11  C   UNL     1       4.000 -19.696  -7.396  1.00  0.00     0.041 C 
ATOM     12  O   UNL     1       4.960 -19.484  -8.183  1.00  0.00    -0.550 OA
ATOM     13  O   UNL     1       3.648 -18.729  -6.462  1.00  0.00    -0.550 OA
ENDBRANCH  10  11
ENDBRANCH   9  10
ENDBRANCH   8   9
ENDBRANCH   1   8
TORSDOF 8
ENDMDL
MODEL 4
REMARK VINA RESULT:    -4.367      1.227      4.222
REMARK INTER + INTRA:          -6.906
REMARK INTER:                  -6.059
REMARK INTRA:                  -0.848
REMARK UNBOUND:                -0.497
REMARK SMILES O=C([O-])CCCCCCCC(=O)[O-]
REMARK SMILES IDX 7 1 6 2 5 3 4 4 2 5 1 6 3 7 8 8 9 9 10 10 11 11 12 12 13 13
REMARK H PARENT
REMARK Flexibility Score: inf
ROOT
ATOM      1  C   UNL     1       1.271 -22.043  -7.503  1.00  0.00     0.000 C 
ENDROOT
BRANCH   1   2
ATOM      2  C   UNL     1       0.106 -22.031  -6.501  1.00  0.00     0.000 C 
BRANCH   2   3
ATOM      3  C   UNL     1       0.577 -21.902  -5.045  1.00  0.00     0.006 C 
BRANCH   3   4
ATOM      4  C   UNL     1       0.417 -20.464  -4.542  1.00  0.00     0.053 C 
BRANCH   4   5
ATOM      5  C   UNL     1       0.812 -20.364  -3.104  1.00  0.00     0.041 C 
ATOM      6  O   UNL     1       0.228 -21.064  -2.236  1.00  0.00    -0.550 OA
ATOM      7  O   UNL     1       1.792 -19.460  -2.714  1.00  0.00    -0.550 OA
ENDBRANCH   4   5
ENDBRANCH   3   4
ENDBRANCH   2   3
ENDBRANCH   1   2
BRANCH   1   8
ATOM      8  C   UNL     1       1.595 -20.647  -8.052  1.00  0.00     0.000 C 
BRANCH   8   9
ATOM      9  C   UNL     1       3.088 -20.325  -7.890  1.00  0.00     0.006 C 
BRANCH   9  10
ATOM     10  C   UNL     1       3.759 -21.201  -6.824  1.00  0.00     0.053 C 
BRANCH  10  11
ATOM     11  C   UNL     1       3.977 -20.451  -5.545  1.00  0.00     0.041 C 
ATOM     12  O   UNL     1       4.341 -21.063  -4.506  1.00  0.00    -0.550 OA
ATOM     13  O   UNL     1       3.747 -19.082  -5.492  1.00  0.00    -0.550 OA
ENDBRANCH  10  11
ENDBRANCH   9  10
ENDBRANCH   8   9
ENDBRANCH   1   8
TORSDOF 8
ENDMDL
MODEL 5
REMARK VINA RESULT:    -4.297     10.637     12.800
REMARK INTER + INTRA:          -6.804
REMARK INTER:                  -6.180
REMARK INTRA:                  -0.623
REMARK UNBOUND:                -0.497
REMARK SMILES O=C([O-])CCCCCCCC(=O)[O-]
REMARK SMILES IDX 7 1 6 2 5 3 4 4 2 5 1 6 3 7 8 8 9 9 10 10 11 11 12 12 13 13
REMARK H PARENT
REMARK Flexibility Score: inf
ROOT
ATOM      1  C   UNL     1      -5.156 -28.294  -3.352  1.00  0.00     0.000 C 
ENDROOT
BRANCH   1   2
ATOM      2  C   UNL     1      -6.285 -29.003  -4.115  1.00  0.00     0.000 C 
BRANCH   2   3
ATOM      3  C   UNL     1      -6.632 -30.375  -3.520  1.00  0.00     0.006 C 
BRANCH   3   4
ATOM      4  C   UNL     1      -7.863 -30.284  -2.613  1.00  0.00     0.053 C 
BRANCH   4   5
ATOM      5  C   UNL     1      -7.458 -30.308  -1.174  1.00  0.00     0.041 C 
ATOM      6  O   UNL     1      -7.447 -31.394  -0.537  1.00  0.00    -0.550 OA
ATOM      7  O   UNL     1      -7.143 -29.123  -0.521  1.00  0.00    -0.550 OA
ENDBRANCH   4   5
ENDBRANCH   3   4
ENDBRANCH   2   3
ENDBRANCH   1   2
BRANCH   1   8
ATOM      8  C   UNL     1      -5.453 -26.809  -3.099  1.00  0.00     0.000 C 
BRANCH   8   9
ATOM      9  C   UNL     1      -6.965 -26.564  -2.978  1.00  0.00     0.006 C 
BRANCH   9  10
ATOM     10  C   UNL     1      -7.307 -25.595  -1.839  1.00  0.00     0.053 C 
BRANCH  10  11
ATOM     11  C   UNL     1      -7.878 -24.309  -2.356  1.00  0.00     0.041 C 
ATOM     12  O   UNL     1      -8.891 -24.322  -3.106  1.00  0.00    -0.550 OA
ATOM     13  O   UNL     1      -7.273 -23.100  -2.037  1.00  0.00    -0.550 OA
ENDBRANCH  10  11
ENDBRANCH   9  10
ENDBRANCH   8   9
ENDBRANCH   1   8
TORSDOF 8
ENDMDL
MODEL 6
REMARK VINA RESULT:    -4.222     11.494     13.036
REMARK INTER + INTRA:          -6.694
REMARK INTER:                  -5.907
REMARK INTRA:                  -0.787
REMARK UNBOUND:                -0.497
REMARK SMILES O=C([O-])CCCCCCCC(=O)[O-]
REMARK SMILES IDX 7 1 6 2 5 3 4 4 2 5 1 6 3 7 8 8 9 9 10 10 11 11 12 12 13 13
REMARK H PARENT
REMARK Flexibility Score: inf
ROOT
ATOM      1  C   UNL     1      -5.370 -27.158  -2.852  1.00  0.00     0.000 C 
ENDROOT
BRANCH   1   2
ATOM      2  C   UNL     1      -5.879 -27.345  -1.414  1.00  0.00     0.000 C 
BRANCH   2   3
ATOM      3  C   UNL     1      -7.266 -26.725  -1.192  1.00  0.00     0.006 C 
BRANCH   3   4
ATOM      4  C   UNL     1      -7.452 -25.472  -2.053  1.00  0.00     0.053 C 
BRANCH   4   5
ATOM      5  C   UNL     1      -8.674 -25.599  -2.906  1.00  0.00     0.041 C 
ATOM      6  O   UNL     1      -8.988 -26.712  -3.402  1.00  0.00    -0.550 OA
ATOM      7  O   UNL     1      -9.439 -24.476  -3.196  1.00  0.00    -0.550 OA
ENDBRANCH   4   5
ENDBRANCH   3   4
ENDBRANCH   2   3
ENDBRANCH   1   2
BRANCH   1   8
ATOM      8  C   UNL     1      -5.167 -28.491  -3.587  1.00  0.00     0.000 C 
BRANCH   8   9
ATOM      9  C   UNL     1      -6.496 -29.018  -4.148  1.00  0.00     0.006 C 
BRANCH   9  10
ATOM     10  C   UNL     1      -6.851 -30.405  -3.599  1.00  0.00     0.053 C 
BRANCH  10  11
ATOM     11  C   UNL     1      -7.780 -30.319  -2.426  1.00  0.00     0.041 C 
ATOM     12  O   UNL     1      -8.983 -29.985  -2.595  1.00  0.00    -0.550 OA
ATOM     13  O   UNL     1      -7.310 -30.576  -1.144  1.00  0.00    -0.550 OA
ENDBRANCH  10  11
ENDBRANCH   9  10
ENDBRANCH   8   9
ENDBRANCH   1   8
TORSDOF 8
ENDMDL
MODEL 7
REMARK VINA RESULT:    -4.205      1.948      2.924
REMARK INTER + INTRA:          -6.668
REMARK INTER:                  -6.156
REMARK INTRA:                  -0.512
REMARK UNBOUND:                -0.497
REMARK SMILES O=C([O-])CCCCCCCC(=O)[O-]
REMARK SMILES IDX 7 1 6 2 5 3 4 4 2 5 1 6 3 7 8 8 9 9 10 10 11 11 12 12 13 13
REMARK H PARENT
REMARK Flexibility Score: inf
ROOT
ATOM      1  C   UNL     1       2.149 -20.852  -8.283  1.00  0.00     0.000 C 
ENDROOT
BRANCH   1   2
ATOM      2  C   UNL     1       2.906 -19.933  -7.312  1.00  0.00     0.000 C 
BRANCH   2   3
ATOM      3  C   UNL     1       4.431 -20.059  -7.445  1.00  0.00     0.006 C 
BRANCH   3   4
ATOM      4  C   UNL     1       4.922 -21.398  -6.887  1.00  0.00     0.053 C 
BRANCH   4   5
ATOM      5  C   UNL     1       6.395 -21.547  -7.097  1.00  0.00     0.041 C 
ATOM      6  O   UNL     1       7.182 -20.638  -6.726  1.00  0.00    -0.550 OA
ATOM      7  O   UNL     1       6.894 -22.667  -7.749  1.00  0.00    -0.550 OA
ENDBRANCH   4   5
ENDBRANCH   3   4
ENDBRANCH   2   3
ENDBRANCH   1   2
BRANCH   1   8
ATOM      8  C   UNL     1       1.081 -21.704  -7.581  1.00  0.00     0.000 C 
BRANCH   8   9
ATOM      9  C   UNL     1       1.356 -21.795  -6.072  1.00  0.00     0.006 C 
BRANCH   9  10
ATOM     10  C   UNL     1       0.146 -21.361  -5.234  1.00  0.00     0.053 C 
BRANCH  10  11
ATOM     11  C   UNL     1       0.537 -20.406  -4.148  1.00  0.00     0.041 C 
ATOM     12  O   UNL     1       0.969 -19.258  -4.437  1.00  0.00    -0.550 OA
ATOM     13  O   UNL     1       0.455 -20.794  -2.816  1.00  0.00    -0.550 OA
ENDBRANCH  10  11
ENDBRANCH   9  10
ENDBRANCH   8   9
ENDBRANCH   1   8
TORSDOF 8
ENDMDL
MODEL 8
REMARK VINA RESULT:    -4.190      2.651      4.382
REMARK INTER + INTRA:          -6.647
REMARK INTER:                  -5.906
REMARK INTRA:                  -0.740
REMARK UNBOUND:                -0.497
REMARK SMILES O=C([O-])CCCCCCCC(=O)[O-]
REMARK SMILES IDX 7 1 6 2 5 3 4 4 2 5 1 6 3 7 8 8 9 9 10 10 11 11 12 12 13 13
REMARK H PARENT
REMARK Flexibility Score: inf
ROOT
ATOM      1  C   UNL     1       3.854 -21.148  -6.817  1.00  0.00     0.000 C 
ENDROOT
BRANCH   1   2
ATOM      2  C   UNL     1       4.271 -20.260  -5.635  1.00  0.00     0.000 C 
BRANCH   2   3
ATOM      3  C   UNL     1       3.397 -20.480  -4.391  1.00  0.00     0.006 C 
BRANCH   3   4
ATOM      4  C   UNL     1       2.997 -19.144  -3.758  1.00  0.00     0.053 C 
BRANCH   4   5
ATOM      5  C   UNL     1       1.665 -18.698  -4.272  1.00  0.00     0.041 C 
ATOM      6  O   UNL     1       1.593 -17.975  -5.299  1.00  0.00    -0.550 OA
ATOM      7  O   UNL     1       0.506 -19.040  -3.586  1.00  0.00    -0.550 OA
ENDBRANCH   4   5
ENDBRANCH   3   4
ENDBRANCH   2   3
ENDBRANCH   1   2
BRANCH   1   8
ATOM      8  C   UNL     1       3.040 -20.387  -7.873  1.00  0.00     0.000 C 
BRANCH   8   9
ATOM      9  C   UNL     1       1.533 -20.596  -7.661  1.00  0.00     0.006 C 
BRANCH   9  10
ATOM     10  C   UNL     1       1.130 -22.072  -7.772  1.00  0.00     0.053 C 
BRANCH  10  11
ATOM     11  C   UNL     1       0.460 -22.561  -6.525  1.00  0.00     0.041 C 
ATOM     12  O   UNL     1       0.248 -21.771  -5.567  1.00  0.00    -0.550 OA
ATOM     13  O   UNL     1       0.099 -23.898  -6.406  1.00  0.00    -0.550 OA
ENDBRANCH  10  11
ENDBRANCH   9  10
ENDBRANCH   8   9
ENDBRANCH   1   8
TORSDOF 8
ENDMDL
MODEL 9
REMARK VINA RESULT:    -4.178      3.162      4.468
REMARK INTER + INTRA:          -6.629
REMARK INTER:                  -6.134
REMARK INTRA:                  -0.496
REMARK UNBOUND:                -0.497
REMARK SMILES O=C([O-])CCCCCCCC(=O)[O-]
REMARK SMILES IDX 7 1 6 2 5 3 4 4 2 5 1 6 3 7 8 8 9 9 10 10 11 11 12 12 13 13
REMARK H PARENT
REMARK Flexibility Score: inf
ROOT
ATOM      1  C   UNL     1       3.861 -20.317  -5.944  1.00  0.00     0.000 C 
ENDROOT
BRANCH   1   2
ATOM      2  C   UNL     1       4.726 -21.536  -5.586  1.00  0.00     0.000 C 
BRANCH   2   3
ATOM      3  C   UNL     1       5.594 -22.011  -6.760  1.00  0.00     0.006 C 
BRANCH   3   4
ATOM      4  C   UNL     1       6.968 -21.334  -6.736  1.00  0.00     0.053 C 
BRANCH   4   5
ATOM      5  C   UNL     1       7.666 -21.515  -8.046  1.00  0.00     0.041 C 
ATOM      6  O   UNL     1       8.324 -22.564  -8.273  1.00  0.00    -0.550 OA
ATOM      7  O   UNL     1       7.633 -20.503  -8.997  1.00  0.00    -0.550 OA
ENDBRANCH   4   5
ENDBRANCH   3   4
ENDBRANCH   2   3
ENDBRANCH   1   2
BRANCH   1   8
ATOM      8  C   UNL     1       3.438 -20.302  -7.420  1.00  0.00     0.000 C 
BRANCH   8   9
ATOM      9  C   UNL     1       1.909 -20.370  -7.555  1.00  0.00     0.006 C 
BRANCH   9  10
ATOM     10  C   UNL     1       1.409 -21.802  -7.787  1.00  0.00     0.053 C 
BRANCH  10  11
ATOM     11  C   UNL     1       0.656 -22.327  -6.603  1.00  0.00     0.041 C 
ATOM     12  O   UNL     1       0.471 -21.595  -5.595  1.00  0.00    -0.550 OA
ATOM     13  O   UNL     1       0.189 -23.636  -6.600  1.00  0.00    -0.550 OA
ENDBRANCH  10  11
ENDBRANCH   9  10
ENDBRANCH   8   9
ENDBRANCH   1   8
TORSDOF 8
ENDMDL
