MODEL 1
REMARK VINA RESULT:    -3.580      0.000      0.000
REMARK INTER + INTRA:          -5.447
REMARK INTER:                  -5.463
REMARK INTRA:                   0.016
REMARK UNBOUND:                 0.016
REMARK SMILES CC1=CCC[C@H](C)C(=O)C[C@@H](C(C)C)C(=O)C1
REMARK SMILES IDX 8 1 9 2 6 3 7 4 5 5 4 6 3 7 2 8 1 9 10 11 11 12 15 13 16 14
REMARK SMILES IDX 17 15 12 17 13 18 14 19
REMARK H PARENT
REMARK Flexibility Score: 70.00
ROOT
ATOM      1  C   UNL     1      26.993  32.118 137.963  1.00  0.00     0.136 C 
ATOM      2  O   UNL     1      27.582  33.171 138.167  1.00  0.00    -0.299 OA
ENDROOT
BRANCH   1   3
ATOM      3  C   UNL     1      27.817  30.868 137.706  1.00  0.00     0.053 C 
ATOM      4  C   UNL     1      28.604  30.986 136.396  1.00  0.00     0.016 C 
BRANCH   3   5
ATOM      5  C   UNL     1      28.752  30.522 138.883  1.00  0.00     0.015 C 
BRANCH   5   6
ATOM      6  C   UNL     1      28.143  29.478 139.849  1.00  0.00     0.028 C 
BRANCH   6   7
ATOM      7  C   UNL     1      27.794  30.111 141.176  1.00  0.00    -0.028 C 
ATOM      8  C   UNL     1      26.537  30.268 141.661  1.00  0.00    -0.070 CG0
ATOM      9  C   UNL     1      26.368  31.038 142.946  1.00  0.00     0.039 C 
ATOM     10  G   UNL     1      25.301  29.702 140.978  1.00  0.00     0.000 G0
ENDBRANCH   6   7
ENDBRANCH   5   6
ENDBRANCH   3   5
ENDBRANCH   1   3
BRANCH   1  11
ATOM     11  C   UNL     1      25.476  32.128 137.980  1.00  0.00     0.087 C 
BRANCH  11  12
ATOM     12  C   UNL     1      24.875  31.781 139.369  1.00  0.00     0.066 C 
BRANCH  12  13
ATOM     13  C   UNL     1      24.911  30.281 139.650  1.00  0.00     0.140 C 
ATOM     14  O   UNL     1      24.601  29.508 138.757  1.00  0.00    -0.299 OA
BRANCH  13  15
ATOM     15  C   UNL     1      25.314  29.680 140.984  1.00  0.00     0.106 CG0
ATOM     16  G   UNL     1      26.538  30.296 141.644  1.00  0.00     0.000 G0
ENDBRANCH  13  15
ENDBRANCH  12  13
BRANCH  12  17
ATOM     17  C   UNL     1      23.444  32.361 139.605  1.00  0.00    -0.006 C 
ATOM     18  C   UNL     1      22.941  33.295 138.490  1.00  0.00     0.008 C 
ATOM     19  C   UNL     1      23.336  33.069 140.965  1.00  0.00     0.008 C 
ENDBRANCH  12  17
ENDBRANCH  11  12
ENDBRANCH   1  11
TORSDOF 1
ENDMDL
MODEL 2
REMARK VINA RESULT:    -3.544     10.699     12.450
REMARK INTER + INTRA:          -5.392
REMARK INTER:                  -5.182
REMARK INTRA:                  -0.210
REMARK UNBOUND:                 0.016
REMARK SMILES CC1=CCC[C@H](C)C(=O)C[C@@H](C(C)C)C(=O)C1
REMARK SMILES IDX 8 1 9 2 6 3 7 4 5 5 4 6 3 7 2 8 1 9 10 11 11 12 15 13 16 14
REMARK SMILES IDX 17 15 12 17 13 18 14 19
REMARK H PARENT
REMARK Flexibility Score: 70.00
ROOT
ATOM      1  C   UNL     1      38.138  33.639 133.066  1.00  0.00     0.136 C 
ATOM      2  O   UNL     1      38.337  34.528 132.250  1.00  0.00    -0.299 OA
ENDROOT
BRANCH   1   3
ATOM      3  C   UNL     1      39.242  33.307 134.056  1.00  0.00     0.053 C 
ATOM      4  C   UNL     1      40.505  32.827 133.333  1.00  0.00     0.016 C 
BRANCH   3   5
ATOM      5  C   UNL     1      39.561  34.482 135.004  1.00  0.00     0.015 C 
BRANCH   5   6
ATOM      6  C   UNL     1      38.750  34.431 136.320  1.00  0.00     0.028 C 
BRANCH   6   7
ATOM      7  C   UNL     1      37.670  35.487 136.329  1.00  0.00    -0.028 C 
ATOM      8  C   UNL     1      36.342  35.249 136.190  1.00  0.00    -0.070 CG0
ATOM      9  C   UNL     1      35.419  36.438 136.094  1.00  0.00     0.039 C 
ATOM     10  G   UNL     1      35.746  33.851 136.133  1.00  0.00     0.000 G0
ENDBRANCH   6   7
ENDBRANCH   5   6
ENDBRANCH   3   5
ENDBRANCH   1   3
BRANCH   1  11
ATOM     11  C   UNL     1      36.800  32.924 133.039  1.00  0.00     0.087 C 
BRANCH  11  12
ATOM     12  C   UNL     1      35.604  33.844 133.407  1.00  0.00     0.066 C 
BRANCH  12  13
ATOM     13  C   UNL     1      35.030  33.515 134.783  1.00  0.00     0.140 C 
ATOM     14  O   UNL     1      33.950  32.949 134.848  1.00  0.00    -0.299 OA
BRANCH  13  15
ATOM     15  C   UNL     1      35.724  33.847 136.090  1.00  0.00     0.106 CG0
ATOM     16  G   UNL     1      36.337  35.236 136.180  1.00  0.00     0.000 G0
ENDBRANCH  13  15
ENDBRANCH  12  13
BRANCH  12  17
ATOM     17  C   UNL     1      34.478  33.885 132.325  1.00  0.00    -0.006 C 
ATOM     18  C   UNL     1      34.843  33.201 130.996  1.00  0.00     0.008 C 
ATOM     19  C   UNL     1      34.001  35.321 132.057  1.00  0.00     0.008 C 
ENDBRANCH  12  17
ENDBRANCH  11  12
ENDBRANCH   1  11
TORSDOF 1
ENDMDL
MODEL 3
REMARK VINA RESULT:    -3.458     10.499     11.822
REMARK INTER + INTRA:          -5.261
REMARK INTER:                  -4.960
REMARK INTRA:                  -0.302
REMARK UNBOUND:                 0.016
REMARK SMILES CC1=CCC[C@H](C)C(=O)C[C@@H](C(C)C)C(=O)C1
REMARK SMILES IDX 8 1 9 2 6 3 7 4 5 5 4 6 3 7 2 8 1 9 10 11 11 12 15 13 16 14
REMARK SMILES IDX 17 15 12 17 13 18 14 19
REMARK H PARENT
REMARK Flexibility Score: 70.00
ROOT
ATOM      1  C   UNL     1      28.458  43.730 143.669  1.00  0.00     0.136 C 
ATOM      2  O   UNL     1      28.153  44.364 144.669  1.00  0.00    -0.299 OA
ENDROOT
BRANCH   1   3
ATOM      3  C   UNL     1      29.785  42.988 143.662  1.00  0.00     0.053 C 
ATOM      4  C   UNL     1      29.681  41.665 144.429  1.00  0.00     0.016 C 
BRANCH   3   5
ATOM      5  C   UNL     1      30.328  42.759 142.236  1.00  0.00     0.015 C 
BRANCH   5   6
ATOM      6  C   UNL     1      30.414  41.262 141.858  1.00  0.00     0.028 C 
BRANCH   6   7
ATOM      7  C   UNL     1      30.104  41.057 140.394  1.00  0.00    -0.028 C 
ATOM      8  C   UNL     1      28.907  40.660 139.896  1.00  0.00    -0.070 CG0
ATOM      9  C   UNL     1      28.815  40.382 138.417  1.00  0.00     0.039 C 
ATOM     10  G   UNL     1      27.662  40.489 140.753  1.00  0.00     0.000 G0
ENDBRANCH   6   7
ENDBRANCH   5   6
ENDBRANCH   3   5
ENDBRANCH   1   3
BRANCH   1  11
ATOM     11  C   UNL     1      27.493  43.723 142.499  1.00  0.00     0.087 C 
BRANCH  11  12
ATOM     12  C   UNL     1      26.680  42.405 142.381  1.00  0.00     0.066 C 
BRANCH  12  13
ATOM     13  C   UNL     1      26.837  41.755 141.009  1.00  0.00     0.140 C 
ATOM     14  O   UNL     1      26.296  42.278 140.046  1.00  0.00    -0.299 OA
BRANCH  13  15
ATOM     15  C   UNL     1      27.634  40.489 140.759  1.00  0.00     0.106 CG0
ATOM     16  G   UNL     1      28.887  40.651 139.912  1.00  0.00     0.000 G0
ENDBRANCH  13  15
ENDBRANCH  12  13
BRANCH  12  17
ATOM     17  C   UNL     1      25.173  42.552 142.762  1.00  0.00    -0.006 C 
ATOM     18  C   UNL     1      24.805  43.901 143.406  1.00  0.00     0.008 C 
ATOM     19  C   UNL     1      24.700  41.400 143.662  1.00  0.00     0.008 C 
ENDBRANCH  12  17
ENDBRANCH  11  12
ENDBRANCH   1  11
TORSDOF 1
ENDMDL
MODEL 4
REMARK VINA RESULT:    -3.316      2.152      3.970
REMARK INTER + INTRA:          -5.044
REMARK INTER:                  -4.717
REMARK INTRA:                  -0.327
REMARK UNBOUND:                 0.016
REMARK SMILES CC1=CCC[C@H](C)C(=O)C[C@@H](C(C)C)C(=O)C1
REMARK SMILES IDX 8 1 9 2 6 3 7 4 5 5 4 6 3 7 2 8 1 9 10 11 11 12 15 13 16 14
REMARK SMILES IDX 17 15 12 17 13 18 14 19
REMARK H PARENT
REMARK Flexibility Score: 70.00
ROOT
ATOM      1  C   UNL     1      28.045  30.796 141.695  1.00  0.00     0.136 C 
ATOM      2  O   UNL     1      28.681  29.882 142.201  1.00  0.00    -0.299 OA
ENDROOT
BRANCH   1   3
ATOM      3  C   UNL     1      28.547  31.387 140.388  1.00  0.00     0.053 C 
ATOM      4  C   UNL     1      29.802  32.239 140.613  1.00  0.00     0.016 C 
BRANCH   3   5
ATOM      5  C   UNL     1      28.795  30.313 139.308  1.00  0.00     0.015 C 
BRANCH   5   6
ATOM      6  C   UNL     1      27.485  29.705 138.752  1.00  0.00     0.028 C 
BRANCH   6   7
ATOM      7  C   UNL     1      26.505  30.791 138.373  1.00  0.00    -0.028 C 
ATOM      8  C   UNL     1      25.233  30.890 138.830  1.00  0.00    -0.070 CG0
ATOM      9  C   UNL     1      24.355  31.967 138.245  1.00  0.00     0.039 C 
ATOM     10  G   UNL     1      24.656  29.977 139.901  1.00  0.00     0.000 G0
ENDBRANCH   6   7
ENDBRANCH   5   6
ENDBRANCH   3   5
ENDBRANCH   1   3
BRANCH   1  11
ATOM     11  C   UNL     1      26.796  31.282 142.405  1.00  0.00     0.087 C 
BRANCH  11  12
ATOM     12  C   UNL     1      25.639  30.246 142.392  1.00  0.00     0.066 C 
BRANCH  12  13
ATOM     13  C   UNL     1      24.602  30.558 141.316  1.00  0.00     0.140 C 
ATOM     14  O   UNL     1      23.683  31.315 141.589  1.00  0.00    -0.299 OA
BRANCH  13  15
ATOM     15  C   UNL     1      24.639  29.984 139.912  1.00  0.00     0.106 CG0
ATOM     16  G   UNL     1      25.252  30.881 138.847  1.00  0.00     0.000 G0
ENDBRANCH  13  15
ENDBRANCH  12  13
BRANCH  12  17
ATOM     17  C   UNL     1      24.960  30.035 143.782  1.00  0.00    -0.006 C 
ATOM     18  C   UNL     1      25.902  30.209 144.987  1.00  0.00     0.008 C 
ATOM     19  C   UNL     1      24.252  28.673 143.867  1.00  0.00     0.008 C 
ENDBRANCH  12  17
ENDBRANCH  11  12
ENDBRANCH   1  11
TORSDOF 1
ENDMDL
MODEL 5
REMARK VINA RESULT:    -3.291      1.866      2.412
REMARK INTER + INTRA:          -5.005
REMARK INTER:                  -5.036
REMARK INTRA:                   0.031
REMARK UNBOUND:                 0.016
REMARK SMILES CC1=CCC[C@H](C)C(=O)C[C@@H](C(C)C)C(=O)C1
REMARK SMILES IDX 8 1 9 2 6 3 7 4 5 5 4 6 3 7 2 8 1 9 10 11 11 12 15 13 16 14
REMARK SMILES IDX 17 15 12 17 13 18 14 19
REMARK H PARENT
REMARK Flexibility Score: 70.00
ROOT
ATOM      1  C   UNL     1      27.524  32.174 137.637  1.00  0.00     0.136 C 
ATOM      2  O   UNL     1      26.948  33.253 137.647  1.00  0.00    -0.299 OA
ENDROOT
BRANCH   1   3
ATOM      3  C   UNL     1      29.021  32.157 137.375  1.00  0.00     0.053 C 
ATOM      4  C   UNL     1      29.353  32.821 136.034  1.00  0.00     0.016 C 
BRANCH   3   5
ATOM      5  C   UNL     1      29.830  32.795 138.523  1.00  0.00     0.015 C 
BRANCH   5   6
ATOM      6  C   UNL     1      30.055  31.830 139.711  1.00  0.00     0.028 C 
BRANCH   6   7
ATOM      7  C   UNL     1      29.324  32.312 140.942  1.00  0.00    -0.028 C 
ATOM      8  C   UNL     1      28.421  31.588 141.649  1.00  0.00    -0.070 CG0
ATOM      9  C   UNL     1      27.694  32.276 142.776  1.00  0.00     0.039 C 
ATOM     10  G   UNL     1      28.115  30.126 141.363  1.00  0.00     0.000 G0
ENDBRANCH   6   7
ENDBRANCH   5   6
ENDBRANCH   3   5
ENDBRANCH   1   3
BRANCH   1  11
ATOM     11  C   UNL     1      26.707  30.920 137.888  1.00  0.00     0.087 C 
BRANCH  11  12
ATOM     12  C   UNL     1      26.397  30.680 139.391  1.00  0.00     0.066 C 
BRANCH  12  13
ATOM     13  C   UNL     1      27.448  29.798 140.060  1.00  0.00     0.140 C 
ATOM     14  O   UNL     1      27.792  28.768 139.501  1.00  0.00    -0.299 OA
BRANCH  13  15
ATOM     15  C   UNL     1      28.105  30.123 141.388  1.00  0.00     0.106 CG0
ATOM     16  G   UNL     1      28.418  31.593 141.630  1.00  0.00     0.000 G0
ENDBRANCH  13  15
ENDBRANCH  12  13
BRANCH  12  17
ATOM     17  C   UNL     1      24.957  30.141 139.664  1.00  0.00    -0.006 C 
ATOM     18  C   UNL     1      24.064  30.043 138.415  1.00  0.00     0.008 C 
ATOM     19  C   UNL     1      24.242  30.957 140.753  1.00  0.00     0.008 C 
ENDBRANCH  12  17
ENDBRANCH  11  12
ENDBRANCH   1  11
TORSDOF 1
ENDMDL
MODEL 6
REMARK VINA RESULT:    -3.289      2.102      2.787
REMARK INTER + INTRA:          -5.004
REMARK INTER:                  -4.697
REMARK INTRA:                  -0.306
REMARK UNBOUND:                 0.016
REMARK SMILES CC1=CCC[C@H](C)C(=O)C[C@@H](C(C)C)C(=O)C1
REMARK SMILES IDX 8 1 9 2 6 3 7 4 5 5 4 6 3 7 2 8 1 9 10 11 11 12 15 13 16 14
REMARK SMILES IDX 17 15 12 17 13 18 14 19
REMARK H PARENT
REMARK Flexibility Score: 70.00
ROOT
ATOM      1  C   UNL     1      26.673  30.469 138.942  1.00  0.00     0.136 C 
ATOM      2  O   UNL     1      26.065  30.834 137.946  1.00  0.00    -0.299 OA
ENDROOT
BRANCH   1   3
ATOM      3  C   UNL     1      28.160  30.179 138.814  1.00  0.00     0.053 C 
ATOM      4  C   UNL     1      28.974  31.478 138.784  1.00  0.00     0.016 C 
BRANCH   3   5
ATOM      5  C   UNL     1      28.675  29.228 139.914  1.00  0.00     0.015 C 
BRANCH   5   6
ATOM      6  C   UNL     1      29.591  29.936 140.940  1.00  0.00     0.028 C 
BRANCH   6   7
ATOM      7  C   UNL     1      29.399  29.358 142.323  1.00  0.00    -0.028 C 
ATOM      8  C   UNL     1      28.707  29.948 143.328  1.00  0.00    -0.070 CG0
ATOM      9  C   UNL     1      28.728  29.286 144.683  1.00  0.00     0.039 C 
ATOM     10  G   UNL     1      27.913  31.234 143.153  1.00  0.00     0.000 G0
ENDBRANCH   6   7
ENDBRANCH   5   6
ENDBRANCH   3   5
ENDBRANCH   1   3
BRANCH   1  11
ATOM     11  C   UNL     1      25.906  30.328 140.243  1.00  0.00     0.087 C 
BRANCH  11  12
ATOM     12  C   UNL     1      26.092  31.536 141.200  1.00  0.00     0.066 C 
BRANCH  12  13
ATOM     13  C   UNL     1      26.499  31.098 142.604  1.00  0.00     0.140 C 
ATOM     14  O   UNL     1      25.655  30.593 143.329  1.00  0.00    -0.299 OA
BRANCH  13  15
ATOM     15  C   UNL     1      27.900  31.249 143.166  1.00  0.00     0.106 CG0
ATOM     16  G   UNL     1      28.693  29.960 143.320  1.00  0.00     0.000 G0
ENDBRANCH  13  15
ENDBRANCH  12  13
BRANCH  12  17
ATOM     17  C   UNL     1      24.868  32.504 141.247  1.00  0.00    -0.006 C 
ATOM     18  C   UNL     1      23.801  32.238 140.169  1.00  0.00     0.008 C 
ATOM     19  C   UNL     1      25.305  33.977 141.194  1.00  0.00     0.008 C 
ENDBRANCH  12  17
ENDBRANCH  11  12
ENDBRANCH   1  11
TORSDOF 1
ENDMDL
MODEL 7
REMARK VINA RESULT:    -3.258      2.045      4.962
REMARK INTER + INTRA:          -4.955
REMARK INTER:                  -4.836
REMARK INTRA:                  -0.119
REMARK UNBOUND:                 0.016
REMARK SMILES CC1=CCC[C@H](C)C(=O)C[C@@H](C(C)C)C(=O)C1
REMARK SMILES IDX 8 1 9 2 6 3 7 4 5 5 4 6 3 7 2 8 1 9 10 11 11 12 15 13 16 14
REMARK SMILES IDX 17 15 12 17 13 18 14 19
REMARK H PARENT
REMARK Flexibility Score: 70.00
ROOT
ATOM      1  C   UNL     1      25.201  29.691 140.135  1.00  0.00     0.136 C 
ATOM      2  O   UNL     1      24.351  29.432 139.295  1.00  0.00    -0.299 OA
ENDROOT
BRANCH   1   3
ATOM      3  C   UNL     1      24.758  30.350 141.431  1.00  0.00     0.053 C 
ATOM      4  C   UNL     1      25.135  29.490 142.643  1.00  0.00     0.016 C 
BRANCH   3   5
ATOM      5  C   UNL     1      25.302  31.786 141.581  1.00  0.00     0.015 C 
BRANCH   5   6
ATOM      6  C   UNL     1      24.724  32.762 140.529  1.00  0.00     0.028 C 
BRANCH   6   7
ATOM      7  C   UNL     1      25.795  33.695 140.015  1.00  0.00    -0.028 C 
ATOM      8  C   UNL     1      26.522  33.506 138.886  1.00  0.00    -0.070 CG0
ATOM      9  C   UNL     1      27.639  34.475 138.595  1.00  0.00     0.039 C 
ATOM     10  G   UNL     1      26.261  32.372 137.905  1.00  0.00     0.000 G0
ENDBRANCH   6   7
ENDBRANCH   5   6
ENDBRANCH   3   5
ENDBRANCH   1   3
BRANCH   1  11
ATOM     11  C   UNL     1      26.645  29.338 139.831  1.00  0.00     0.087 C 
BRANCH  11  12
ATOM     12  C   UNL     1      27.506  30.567 139.428  1.00  0.00     0.066 C 
BRANCH  12  13
ATOM     13  C   UNL     1      27.103  31.128 138.067  1.00  0.00     0.140 C 
ATOM     14  O   UNL     1      27.463  30.540 137.059  1.00  0.00    -0.299 OA
BRANCH  13  15
ATOM     15  C   UNL     1      26.271  32.383 137.882  1.00  0.00     0.106 CG0
ATOM     16  G   UNL     1      26.514  33.493 138.894  1.00  0.00     0.000 G0
ENDBRANCH  13  15
ENDBRANCH  12  13
BRANCH  12  17
ATOM     17  C   UNL     1      29.045  30.313 139.496  1.00  0.00    -0.006 C 
ATOM     18  C   UNL     1      29.506  29.501 140.719  1.00  0.00     0.008 C 
ATOM     19  C   UNL     1      29.842  31.624 139.411  1.00  0.00     0.008 C 
ENDBRANCH  12  17
ENDBRANCH  11  12
ENDBRANCH   1  11
TORSDOF 1
ENDMDL
MODEL 8
REMARK VINA RESULT:    -3.235     10.571     12.347
REMARK INTER + INTRA:          -4.920
REMARK INTER:                  -4.754
REMARK INTRA:                  -0.165
REMARK UNBOUND:                 0.016
REMARK SMILES CC1=CCC[C@H](C)C(=O)C[C@@H](C(C)C)C(=O)C1
REMARK SMILES IDX 8 1 9 2 6 3 7 4 5 5 4 6 3 7 2 8 1 9 10 11 11 12 15 13 16 14
REMARK SMILES IDX 17 15 12 17 13 18 14 19
REMARK H PARENT
REMARK Flexibility Score: 70.00
ROOT
ATOM      1  C   UNL     1      28.092  43.650 144.089  1.00  0.00     0.136 C 
ATOM      2  O   UNL     1      28.755  44.382 144.811  1.00  0.00    -0.299 OA
ENDROOT
BRANCH   1   3
ATOM      3  C   UNL     1      26.846  44.220 143.432  1.00  0.00     0.053 C 
ATOM      4  C   UNL     1      27.196  44.974 142.144  1.00  0.00     0.016 C 
BRANCH   3   5
ATOM      5  C   UNL     1      25.771  43.146 143.169  1.00  0.00     0.015 C 
BRANCH   5   6
ATOM      6  C   UNL     1      25.307  43.107 141.693  1.00  0.00     0.028 C 
BRANCH   6   7
ATOM      7  C   UNL     1      25.040  41.688 141.249  1.00  0.00    -0.028 C 
ATOM      8  C   UNL     1      25.951  40.862 140.678  1.00  0.00    -0.070 CG0
ATOM      9  C   UNL     1      25.474  39.522 140.180  1.00  0.00     0.039 C 
ATOM     10  G   UNL     1      27.422  41.221 140.524  1.00  0.00     0.000 G0
ENDBRANCH   6   7
ENDBRANCH   5   6
ENDBRANCH   3   5
ENDBRANCH   1   3
BRANCH   1  11
ATOM     11  C   UNL     1      28.557  42.219 143.894  1.00  0.00     0.087 C 
BRANCH  11  12
ATOM     12  C   UNL     1      29.124  41.946 142.474  1.00  0.00     0.066 C 
BRANCH  12  13
ATOM     13  C   UNL     1      28.307  40.899 141.721  1.00  0.00     0.140 C 
ATOM     14  O   UNL     1      28.353  39.738 142.096  1.00  0.00    -0.299 OA
BRANCH  13  15
ATOM     15  C   UNL     1      27.429  41.212 140.525  1.00  0.00     0.106 CG0
ATOM     16  G   UNL     1      25.955  40.868 140.679  1.00  0.00     0.000 G0
ENDBRANCH  13  15
ENDBRANCH  12  13
BRANCH  12  17
ATOM     17  C   UNL     1      30.645  41.590 142.456  1.00  0.00    -0.006 C 
ATOM     18  C   UNL     1      31.329  41.639 143.833  1.00  0.00     0.008 C 
ATOM     19  C   UNL     1      31.421  42.463 141.457  1.00  0.00     0.008 C 
ENDBRANCH  12  17
ENDBRANCH  11  12
ENDBRANCH   1  11
TORSDOF 1
ENDMDL
MODEL 9
REMARK VINA RESULT:    -3.234      2.935      5.013
REMARK INTER + INTRA:          -4.919
REMARK INTER:                  -4.579
REMARK INTRA:                  -0.339
REMARK UNBOUND:                 0.016
REMARK SMILES CC1=CCC[C@H](C)C(=O)C[C@@H](C(C)C)C(=O)C1
REMARK SMILES IDX 8 1 9 2 6 3 7 4 5 5 4 6 3 7 2 8 1 9 10 11 11 12 15 13 16 14
REMARK SMILES IDX 17 15 12 17 13 18 14 19
REMARK H PARENT
REMARK Flexibility Score: 70.00
ROOT
ATOM      1  C   UNL     1      27.930  31.453 137.484  1.00  0.00     0.136 C 
ATOM      2  O   UNL     1      28.062  30.740 136.498  1.00  0.00    -0.299 OA
ENDROOT
BRANCH   1   3
ATOM      3  C   UNL     1      27.412  30.821 138.765  1.00  0.00     0.053 C 
ATOM      4  C   UNL     1      25.995  30.268 138.574  1.00  0.00     0.016 C 
BRANCH   3   5
ATOM      5  C   UNL     1      28.359  29.736 139.316  1.00  0.00     0.015 C 
BRANCH   5   6
ATOM      6  C   UNL     1      29.523  30.320 140.152  1.00  0.00     0.028 C 
BRANCH   6   7
ATOM      7  C   UNL     1      29.000  31.197 141.265  1.00  0.00    -0.028 C 
ATOM      8  C   UNL     1      29.359  32.486 141.479  1.00  0.00    -0.070 CG0
ATOM      9  C   UNL     1      28.833  33.170 142.716  1.00  0.00     0.039 C 
ATOM     10  G   UNL     1      30.255  33.272 140.533  1.00  0.00     0.000 G0
ENDBRANCH   6   7
ENDBRANCH   5   6
ENDBRANCH   3   5
ENDBRANCH   1   3
BRANCH   1  11
ATOM     11  C   UNL     1      28.291  32.921 137.365  1.00  0.00     0.087 C 
BRANCH  11  12
ATOM     12  C   UNL     1      29.698  33.255 137.931  1.00  0.00     0.066 C 
BRANCH  12  13
ATOM     13  C   UNL     1      29.622  33.885 139.320  1.00  0.00     0.140 C 
ATOM     14  O   UNL     1      29.003  34.928 139.459  1.00  0.00    -0.299 OA
BRANCH  13  15
ATOM     15  C   UNL     1      30.272  33.290 140.555  1.00  0.00     0.106 CG0
ATOM     16  G   UNL     1      29.354  32.485 141.462  1.00  0.00     0.000 G0
ENDBRANCH  13  15
ENDBRANCH  12  13
BRANCH  12  17
ATOM     17  C   UNL     1      30.580  34.116 136.973  1.00  0.00    -0.006 C 
ATOM     18  C   UNL     1      30.215  33.992 135.483  1.00  0.00     0.008 C 
ATOM     19  C   UNL     1      32.078  33.828 137.167  1.00  0.00     0.008 C 
ENDBRANCH  12  17
ENDBRANCH  11  12
ENDBRANCH   1  11
TORSDOF 1
ENDMDL
