MODEL 1
REMARK VINA RESULT:    -5.741      0.000      0.000
REMARK INTER + INTRA:         -16.457
REMARK INTER:                 -12.454
REMARK INTRA:                  -4.003
REMARK UNBOUND:                -4.003
REMARK SMILES CCCCCCCCCCCCCCCCCCCCCC(=O)[O-]
REMARK SMILES IDX 12 1 11 2 10 3 9 4 8 5 7 6 6 7 5 8 4 9 3 10 2 11 1 12 13 13
REMARK SMILES IDX 14 14 15 15 16 16 17 17 18 18 19 19 20 20 21 21 22 22 23 23
REMARK SMILES IDX 24 24
REMARK H PARENT
REMARK Flexibility Score: inf
ROOT
ATOM      1  C   UNL     1     217.934  -8.664  27.982  1.00  0.00     0.000 C 
ENDROOT
BRANCH   1   2
ATOM      2  C   UNL     1     218.576  -7.461  28.697  1.00  0.00     0.000 C 
BRANCH   2   3
ATOM      3  C   UNL     1     219.287  -7.852  30.001  1.00  0.00     0.000 C 
BRANCH   3   4
ATOM      4  C   UNL     1     218.635  -9.089  30.635  1.00  0.00    -0.000 C 
BRANCH   4   5
ATOM      5  C   UNL     1     219.648 -10.202  30.965  1.00  0.00    -0.000 C 
BRANCH   5   6
ATOM      6  C   UNL     1     221.110  -9.884  30.605  1.00  0.00    -0.000 C 
BRANCH   6   7
ATOM      7  C   UNL     1     221.812 -11.038  29.871  1.00  0.00    -0.000 C 
BRANCH   7   8
ATOM      8  C   UNL     1     222.497 -10.581  28.572  1.00  0.00    -0.000 C 
BRANCH   8   9
ATOM      9  C   UNL     1     221.584  -9.708  27.693  1.00  0.00    -0.000 C 
BRANCH   9  10
ATOM     10  C   UNL     1     222.110  -8.271  27.542  1.00  0.00    -0.000 C 
BRANCH  10  11
ATOM     11  C   UNL     1     223.444  -8.052  28.271  1.00  0.00    -0.003 C 
ATOM     12  C   UNL     1     223.294  -7.026  29.391  1.00  0.00     0.004 C 
ENDBRANCH  10  11
ENDBRANCH   9  10
ENDBRANCH   8   9
ENDBRANCH   7   8
ENDBRANCH   6   7
ENDBRANCH   5   6
ENDBRANCH   4   5
ENDBRANCH   3   4
ENDBRANCH   2   3
ENDBRANCH   1   2
BRANCH   1  13
ATOM     13  C   UNL     1     218.235  -8.763  26.472  1.00  0.00     0.000 C 
BRANCH  13  14
ATOM     14  C   UNL     1     217.489  -7.744  25.591  1.00  0.00     0.000 C 
BRANCH  14  15
ATOM     15  C   UNL     1     218.399  -6.806  24.776  1.00  0.00     0.000 C 
BRANCH  15  16
ATOM     16  C   UNL     1     219.876  -6.828  25.229  1.00  0.00     0.000 C 
BRANCH  16  17
ATOM     17  C   UNL     1     220.850  -6.517  24.080  1.00  0.00     0.000 C 
BRANCH  17  18
ATOM     18  C   UNL     1     221.157  -7.765  23.223  1.00  0.00     0.000 C 
BRANCH  18  19
ATOM     19  C   UNL     1     221.329  -9.053  24.047  1.00  0.00     0.000 C 
BRANCH  19  20
ATOM     20  C   UNL     1     220.343 -10.159  23.636  1.00  0.00     0.006 C 
BRANCH  20  21
ATOM     21  C   UNL     1     219.338  -9.677  22.581  1.00  0.00     0.053 C 
BRANCH  21  22
ATOM     22  C   UNL     1     217.938 -10.087  22.919  1.00  0.00     0.041 C 
ATOM     23  O   UNL     1     216.959  -9.486  22.405  1.00  0.00    -0.550 OA
ATOM     24  O   UNL     1     217.715 -11.155  23.779  1.00  0.00    -0.550 OA
ENDBRANCH  21  22
ENDBRANCH  20  21
ENDBRANCH  19  20
ENDBRANCH  18  19
ENDBRANCH  17  18
ENDBRANCH  16  17
ENDBRANCH  15  16
ENDBRANCH  14  15
ENDBRANCH  13  14
ENDBRANCH   1  13
TORSDOF 20
ENDMDL
MODEL 2
REMARK VINA RESULT:    -5.641      2.615      6.553
REMARK INTER + INTRA:         -16.239
REMARK INTER:                 -12.681
REMARK INTRA:                  -3.558
REMARK UNBOUND:                -4.003
REMARK SMILES CCCCCCCCCCCCCCCCCCCCCC(=O)[O-]
REMARK SMILES IDX 12 1 11 2 10 3 9 4 8 5 7 6 6 7 5 8 4 9 3 10 2 11 1 12 13 13
REMARK SMILES IDX 14 14 15 15 16 16 17 17 18 18 19 19 20 20 21 21 22 22 23 23
REMARK SMILES IDX 24 24
REMARK H PARENT
REMARK Flexibility Score: inf
ROOT
ATOM      1  C   UNL     1     217.891  -8.978  25.741  1.00  0.00     0.000 C 
ENDROOT
BRANCH   1   2
ATOM      2  C   UNL     1     217.913  -8.911  24.204  1.00  0.00     0.000 C 
BRANCH   2   3
ATOM      3  C   UNL     1     218.169 -10.276  23.550  1.00  0.00     0.000 C 
BRANCH   3   4
ATOM      4  C   UNL     1     218.571 -10.115  22.077  1.00  0.00    -0.000 C 
BRANCH   4   5
ATOM      5  C   UNL     1     219.236  -8.759  21.778  1.00  0.00    -0.000 C 
BRANCH   5   6
ATOM      6  C   UNL     1     220.680  -8.840  21.250  1.00  0.00    -0.000 C 
BRANCH   6   7
ATOM      7  C   UNL     1     221.722  -8.357  22.274  1.00  0.00    -0.000 C 
BRANCH   7   8
ATOM      8  C   UNL     1     221.093  -7.540  23.413  1.00  0.00    -0.000 C 
BRANCH   8   9
ATOM      9  C   UNL     1     221.568  -7.994  24.805  1.00  0.00    -0.000 C 
BRANCH   9  10
ATOM     10  C   UNL     1     221.550  -9.523  24.965  1.00  0.00    -0.000 C 
BRANCH  10  11
ATOM     11  C   UNL     1     221.441  -9.960  26.433  1.00  0.00    -0.003 C 
ATOM     12  C   UNL     1     222.371 -11.133  26.726  1.00  0.00     0.004 C 
ENDBRANCH  10  11
ENDBRANCH   9  10
ENDBRANCH   8   9
ENDBRANCH   7   8
ENDBRANCH   6   7
ENDBRANCH   5   6
ENDBRANCH   4   5
ENDBRANCH   3   4
ENDBRANCH   2   3
ENDBRANCH   1   2
BRANCH   1  13
ATOM     13  C   UNL     1     217.834  -7.611  26.455  1.00  0.00     0.000 C 
BRANCH  13  14
ATOM     14  C   UNL     1     218.977  -7.349  27.453  1.00  0.00     0.000 C 
BRANCH  14  15
ATOM     15  C   UNL     1     218.524  -7.099  28.904  1.00  0.00     0.000 C 
BRANCH  15  16
ATOM     16  C   UNL     1     218.096  -8.383  29.649  1.00  0.00     0.000 C 
BRANCH  16  17
ATOM     17  C   UNL     1     218.977  -9.593  29.292  1.00  0.00     0.000 C 
BRANCH  17  18
ATOM     18  C   UNL     1     219.763 -10.121  30.512  1.00  0.00     0.000 C 
BRANCH  18  19
ATOM     19  C   UNL     1     221.254  -9.743  30.497  1.00  0.00     0.000 C 
BRANCH  19  20
ATOM     20  C   UNL     1     221.503  -8.279  30.897  1.00  0.00     0.006 C 
BRANCH  20  21
ATOM     21  C   UNL     1     222.918  -7.811  30.531  1.00  0.00     0.053 C 
BRANCH  21  22
ATOM     22  C   UNL     1     223.141  -7.828  29.050  1.00  0.00     0.041 C 
ATOM     23  O   UNL     1     224.034  -8.563  28.551  1.00  0.00    -0.550 OA
ATOM     24  O   UNL     1     222.343  -7.053  28.217  1.00  0.00    -0.550 OA
ENDBRANCH  21  22
ENDBRANCH  20  21
ENDBRANCH  19  20
ENDBRANCH  18  19
ENDBRANCH  17  18
ENDBRANCH  16  17
ENDBRANCH  15  16
ENDBRANCH  14  15
ENDBRANCH  13  14
ENDBRANCH   1  13
TORSDOF 20
ENDMDL
MODEL 3
REMARK VINA RESULT:    -5.637      3.222      6.718
REMARK INTER + INTRA:         -16.231
REMARK INTER:                 -12.971
REMARK INTRA:                  -3.261
REMARK UNBOUND:                -4.003
REMARK SMILES CCCCCCCCCCCCCCCCCCCCCC(=O)[O-]
REMARK SMILES IDX 12 1 11 2 10 3 9 4 8 5 7 6 6 7 5 8 4 9 3 10 2 11 1 12 13 13
REMARK SMILES IDX 14 14 15 15 16 16 17 17 18 18 19 19 20 20 21 21 22 22 23 23
REMARK SMILES IDX 24 24
REMARK H PARENT
REMARK Flexibility Score: inf
ROOT
ATOM      1  C   UNL     1     217.857  -7.634  26.901  1.00  0.00     0.000 C 
ENDROOT
BRANCH   1   2
ATOM      2  C   UNL     1     217.548  -7.861  25.410  1.00  0.00     0.000 C 
BRANCH   2   3
ATOM      3  C   UNL     1     218.254  -6.851  24.493  1.00  0.00     0.000 C 
BRANCH   3   4
ATOM      4  C   UNL     1     219.661  -6.524  25.014  1.00  0.00    -0.000 C 
BRANCH   4   5
ATOM      5  C   UNL     1     220.761  -6.743  23.959  1.00  0.00    -0.000 C 
BRANCH   5   6
ATOM      6  C   UNL     1     221.632  -7.994  24.173  1.00  0.00    -0.000 C 
BRANCH   6   7
ATOM      7  C   UNL     1     221.949  -8.736  22.864  1.00  0.00    -0.000 C 
BRANCH   7   8
ATOM      8  C   UNL     1     221.059  -8.278  21.697  1.00  0.00    -0.000 C 
BRANCH   8   9
ATOM      9  C   UNL     1     220.040  -9.349  21.269  1.00  0.00    -0.000 C 
BRANCH   9  10
ATOM     10  C   UNL     1     218.595  -8.965  21.627  1.00  0.00    -0.000 C 
BRANCH  10  11
ATOM     11  C   UNL     1     217.889 -10.042  22.463  1.00  0.00    -0.003 C 
ATOM     12  C   UNL     1     218.854 -10.689  23.452  1.00  0.00     0.004 C 
ENDBRANCH  10  11
ENDBRANCH   9  10
ENDBRANCH   8   9
ENDBRANCH   7   8
ENDBRANCH   6   7
ENDBRANCH   5   6
ENDBRANCH   4   5
ENDBRANCH   3   4
ENDBRANCH   2   3
ENDBRANCH   1   2
BRANCH   1  13
ATOM     13  C   UNL     1     217.593  -8.847  27.816  1.00  0.00     0.000 C 
BRANCH  13  14
ATOM     14  C   UNL     1     218.034  -8.667  29.280  1.00  0.00     0.000 C 
BRANCH  14  15
ATOM     15  C   UNL     1     218.947  -7.452  29.536  1.00  0.00     0.000 C 
BRANCH  15  16
ATOM     16  C   UNL     1     220.444  -7.817  29.655  1.00  0.00     0.000 C 
BRANCH  16  17
ATOM     17  C   UNL     1     221.176  -7.746  28.304  1.00  0.00     0.000 C 
BRANCH  17  18
ATOM     18  C   UNL     1     221.327  -9.137  27.649  1.00  0.00     0.000 C 
BRANCH  18  19
ATOM     19  C   UNL     1     221.965 -10.189  28.572  1.00  0.00     0.000 C 
BRANCH  19  20
ATOM     20  C   UNL     1     223.405  -9.832  28.976  1.00  0.00     0.006 C 
BRANCH  20  21
ATOM     21  C   UNL     1     223.840 -10.546  30.264  1.00  0.00     0.053 C 
BRANCH  21  22
ATOM     22  C   UNL     1     222.957 -10.190  31.420  1.00  0.00     0.041 C 
ATOM     23  O   UNL     1     222.913  -9.005  31.844  1.00  0.00    -0.550 OA
ATOM     24  O   UNL     1     222.160 -11.162  32.011  1.00  0.00    -0.550 OA
ENDBRANCH  21  22
ENDBRANCH  20  21
ENDBRANCH  19  20
ENDBRANCH  18  19
ENDBRANCH  17  18
ENDBRANCH  16  17
ENDBRANCH  15  16
ENDBRANCH  14  15
ENDBRANCH  13  14
ENDBRANCH   1  13
TORSDOF 20
ENDMDL
MODEL 4
REMARK VINA RESULT:    -5.624      1.063      2.151
REMARK INTER + INTRA:         -16.202
REMARK INTER:                 -12.588
REMARK INTRA:                  -3.615
REMARK UNBOUND:                -4.003
REMARK SMILES CCCCCCCCCCCCCCCCCCCCCC(=O)[O-]
REMARK SMILES IDX 12 1 11 2 10 3 9 4 8 5 7 6 6 7 5 8 4 9 3 10 2 11 1 12 13 13
REMARK SMILES IDX 14 14 15 15 16 16 17 17 18 18 19 19 20 20 21 21 22 22 23 23
REMARK SMILES IDX 24 24
REMARK H PARENT
REMARK Flexibility Score: inf
ROOT
ATOM      1  C   UNL     1     217.689  -8.982  27.777  1.00  0.00     0.000 C 
ENDROOT
BRANCH   1   2
ATOM      2  C   UNL     1     218.227  -8.039  28.867  1.00  0.00     0.000 C 
BRANCH   2   3
ATOM      3  C   UNL     1     219.318  -8.687  29.733  1.00  0.00     0.000 C 
BRANCH   3   4
ATOM      4  C   UNL     1     220.268  -7.626  30.308  1.00  0.00    -0.000 C 
BRANCH   4   5
ATOM      5  C   UNL     1     221.652  -7.625  29.631  1.00  0.00    -0.000 C 
BRANCH   5   6
ATOM      6  C   UNL     1     221.641  -7.324  28.122  1.00  0.00    -0.000 C 
BRANCH   6   7
ATOM      7  C   UNL     1     222.447  -8.344  27.300  1.00  0.00    -0.000 C 
BRANCH   7   8
ATOM      8  C   UNL     1     221.717  -9.689  27.153  1.00  0.00    -0.000 C 
BRANCH   8   9
ATOM      9  C   UNL     1     222.515 -10.867  27.739  1.00  0.00    -0.000 C 
BRANCH   9  10
ATOM     10  C   UNL     1     222.002 -11.297  29.123  1.00  0.00    -0.000 C 
BRANCH  10  11
ATOM     11  C   UNL     1     222.935 -10.856  30.260  1.00  0.00    -0.003 C 
ATOM     12  C   UNL     1     222.177 -10.748  31.580  1.00  0.00     0.004 C 
ENDBRANCH  10  11
ENDBRANCH   9  10
ENDBRANCH   8   9
ENDBRANCH   7   8
ENDBRANCH   6   7
ENDBRANCH   5   6
ENDBRANCH   4   5
ENDBRANCH   3   4
ENDBRANCH   2   3
ENDBRANCH   1   2
BRANCH   1  13
ATOM     13  C   UNL     1     218.287  -8.768  26.371  1.00  0.00     0.000 C 
BRANCH  13  14
ATOM     14  C   UNL     1     217.512  -7.785  25.475  1.00  0.00     0.000 C 
BRANCH  14  15
ATOM     15  C   UNL     1     218.393  -6.876  24.599  1.00  0.00     0.000 C 
BRANCH  15  16
ATOM     16  C   UNL     1     219.857  -6.778  25.083  1.00  0.00     0.000 C 
BRANCH  16  17
ATOM     17  C   UNL     1     220.864  -6.775  23.920  1.00  0.00     0.000 C 
BRANCH  17  18
ATOM     18  C   UNL     1     221.449  -8.179  23.652  1.00  0.00     0.000 C 
BRANCH  18  19
ATOM     19  C   UNL     1     221.258  -8.661  22.203  1.00  0.00     0.000 C 
BRANCH  19  20
ATOM     20  C   UNL     1     219.848  -8.375  21.660  1.00  0.00     0.006 C 
BRANCH  20  21
ATOM     21  C   UNL     1     219.061  -9.664  21.385  1.00  0.00     0.053 C 
BRANCH  21  22
ATOM     22  C   UNL     1     218.367 -10.162  22.615  1.00  0.00     0.041 C 
ATOM     23  O   UNL     1     217.123 -10.014  22.745  1.00  0.00    -0.550 OA
ATOM     24  O   UNL     1     219.088 -10.818  23.605  1.00  0.00    -0.550 OA
ENDBRANCH  21  22
ENDBRANCH  20  21
ENDBRANCH  19  20
ENDBRANCH  18  19
ENDBRANCH  17  18
ENDBRANCH  16  17
ENDBRANCH  15  16
ENDBRANCH  14  15
ENDBRANCH  13  14
ENDBRANCH   1  13
TORSDOF 20
ENDMDL
MODEL 5
REMARK VINA RESULT:    -5.620      2.872      6.382
REMARK INTER + INTRA:         -16.193
REMARK INTER:                 -12.459
REMARK INTRA:                  -3.734
REMARK UNBOUND:                -4.003
REMARK SMILES CCCCCCCCCCCCCCCCCCCCCC(=O)[O-]
REMARK SMILES IDX 12 1 11 2 10 3 9 4 8 5 7 6 6 7 5 8 4 9 3 10 2 11 1 12 13 13
REMARK SMILES IDX 14 14 15 15 16 16 17 17 18 18 19 19 20 20 21 21 22 22 23 23
REMARK SMILES IDX 24 24
REMARK H PARENT
REMARK Flexibility Score: inf
ROOT
ATOM      1  C   UNL     1     217.284  -9.118  27.494  1.00  0.00     0.000 C 
ENDROOT
BRANCH   1   2
ATOM      2  C   UNL     1     217.195  -8.085  26.356  1.00  0.00     0.000 C 
BRANCH   2   3
ATOM      3  C   UNL     1     218.456  -7.218  26.236  1.00  0.00     0.000 C 
BRANCH   3   4
ATOM      4  C   UNL     1     218.654  -6.731  24.793  1.00  0.00    -0.000 C 
BRANCH   4   5
ATOM      5  C   UNL     1     217.566  -7.241  23.829  1.00  0.00    -0.000 C 
BRANCH   5   6
ATOM      6  C   UNL     1     218.072  -8.143  22.690  1.00  0.00    -0.000 C 
BRANCH   6   7
ATOM      7  C   UNL     1     217.494  -9.567  22.749  1.00  0.00    -0.000 C 
BRANCH   7   8
ATOM      8  C   UNL     1     218.098 -10.401  23.889  1.00  0.00    -0.000 C 
BRANCH   8   9
ATOM      9  C   UNL     1     219.611 -10.630  23.723  1.00  0.00    -0.000 C 
BRANCH   9  10
ATOM     10  C   UNL     1     220.434  -9.969  24.841  1.00  0.00    -0.000 C 
BRANCH  10  11
ATOM     11  C   UNL     1     221.794  -9.455  24.347  1.00  0.00    -0.003 C 
ATOM     12  C   UNL     1     221.619  -8.421  23.239  1.00  0.00     0.004 C 
ENDBRANCH  10  11
ENDBRANCH   9  10
ENDBRANCH   8   9
ENDBRANCH   7   8
ENDBRANCH   6   7
ENDBRANCH   5   6
ENDBRANCH   4   5
ENDBRANCH   3   4
ENDBRANCH   2   3
ENDBRANCH   1   2
BRANCH   1  13
ATOM     13  C   UNL     1     218.596  -9.087  28.304  1.00  0.00     0.000 C 
BRANCH  13  14
ATOM     14  C   UNL     1     218.434  -8.735  29.795  1.00  0.00     0.000 C 
BRANCH  14  15
ATOM     15  C   UNL     1     219.684  -8.990  30.659  1.00  0.00     0.000 C 
BRANCH  15  16
ATOM     16  C   UNL     1     220.177 -10.454  30.618  1.00  0.00     0.000 C 
BRANCH  16  17
ATOM     17  C   UNL     1     221.590 -10.616  31.204  1.00  0.00     0.000 C 
BRANCH  17  18
ATOM     18  C   UNL     1     222.645 -10.897  30.111  1.00  0.00     0.000 C 
BRANCH  18  19
ATOM     19  C   UNL     1     222.093 -10.796  28.679  1.00  0.00     0.000 C 
BRANCH  19  20
ATOM     20  C   UNL     1     222.855  -9.775  27.817  1.00  0.00     0.006 C 
BRANCH  20  21
ATOM     21  C   UNL     1     222.249  -8.369  27.913  1.00  0.00     0.053 C 
BRANCH  21  22
ATOM     22  C   UNL     1     223.038  -7.486  28.831  1.00  0.00     0.041 C 
ATOM     23  O   UNL     1     222.614  -7.235  29.990  1.00  0.00    -0.550 OA
ATOM     24  O   UNL     1     224.257  -6.964  28.417  1.00  0.00    -0.550 OA
ENDBRANCH  21  22
ENDBRANCH  20  21
ENDBRANCH  19  20
ENDBRANCH  18  19
ENDBRANCH  17  18
ENDBRANCH  16  17
ENDBRANCH  15  16
ENDBRANCH  14  15
ENDBRANCH  13  14
ENDBRANCH   1  13
TORSDOF 20
ENDMDL
MODEL 6
REMARK VINA RESULT:    -5.601      0.970      2.071
REMARK INTER + INTRA:         -16.153
REMARK INTER:                 -12.300
REMARK INTRA:                  -3.853
REMARK UNBOUND:                -4.003
REMARK SMILES CCCCCCCCCCCCCCCCCCCCCC(=O)[O-]
REMARK SMILES IDX 12 1 11 2 10 3 9 4 8 5 7 6 6 7 5 8 4 9 3 10 2 11 1 12 13 13
REMARK SMILES IDX 14 14 15 15 16 16 17 17 18 18 19 19 20 20 21 21 22 22 23 23
REMARK SMILES IDX 24 24
REMARK H PARENT
REMARK Flexibility Score: inf
ROOT
ATOM      1  C   UNL     1     218.249  -8.178  29.133  1.00  0.00     0.000 C 
ENDROOT
BRANCH   1   2
ATOM      2  C   UNL     1     218.759  -8.783  30.453  1.00  0.00     0.000 C 
BRANCH   2   3
ATOM      3  C   UNL     1     219.362 -10.184  30.275  1.00  0.00     0.000 C 
BRANCH   3   4
ATOM      4  C   UNL     1     220.561 -10.392  31.212  1.00  0.00    -0.000 C 
BRANCH   4   5
ATOM      5  C   UNL     1     221.662 -11.276  30.597  1.00  0.00    -0.000 C 
BRANCH   5   6
ATOM      6  C   UNL     1     223.047 -10.613  30.487  1.00  0.00    -0.000 C 
BRANCH   6   7
ATOM      7  C   UNL     1     223.001  -9.089  30.692  1.00  0.00    -0.000 C 
BRANCH   7   8
ATOM      8  C   UNL     1     223.757  -8.324  29.594  1.00  0.00    -0.000 C 
BRANCH   8   9
ATOM      9  C   UNL     1     223.379  -8.789  28.176  1.00  0.00    -0.000 C 
BRANCH   9  10
ATOM     10  C   UNL     1     221.882  -8.610  27.875  1.00  0.00    -0.000 C 
BRANCH  10  11
ATOM     11  C   UNL     1     221.274  -9.827  27.163  1.00  0.00    -0.003 C 
ATOM     12  C   UNL     1     222.357 -10.823  26.758  1.00  0.00     0.004 C 
ENDBRANCH  10  11
ENDBRANCH   9  10
ENDBRANCH   8   9
ENDBRANCH   7   8
ENDBRANCH   6   7
ENDBRANCH   5   6
ENDBRANCH   4   5
ENDBRANCH   3   4
ENDBRANCH   2   3
ENDBRANCH   1   2
BRANCH   1  13
ATOM     13  C   UNL     1     217.664  -9.194  28.130  1.00  0.00     0.000 C 
BRANCH  13  14
ATOM     14  C   UNL     1     217.795  -8.798  26.648  1.00  0.00     0.000 C 
BRANCH  14  15
ATOM     15  C   UNL     1     217.942  -7.286  26.394  1.00  0.00     0.000 C 
BRANCH  15  16
ATOM     16  C   UNL     1     219.351  -6.873  25.911  1.00  0.00     0.000 C 
BRANCH  16  17
ATOM     17  C   UNL     1     219.426  -6.712  24.383  1.00  0.00     0.000 C 
BRANCH  17  18
ATOM     18  C   UNL     1     220.851  -6.959  23.841  1.00  0.00     0.000 C 
BRANCH  18  19
ATOM     19  C   UNL     1     221.300  -8.427  23.929  1.00  0.00     0.000 C 
BRANCH  19  20
ATOM     20  C   UNL     1     220.469  -9.360  23.033  1.00  0.00     0.006 C 
BRANCH  20  21
ATOM     21  C   UNL     1     219.620 -10.344  23.849  1.00  0.00     0.053 C 
BRANCH  21  22
ATOM     22  C   UNL     1     218.218 -10.431  23.330  1.00  0.00     0.041 C 
ATOM     23  O   UNL     1     217.683 -11.554  23.133  1.00  0.00    -0.550 OA
ATOM     24  O   UNL     1     217.491  -9.272  23.090  1.00  0.00    -0.550 OA
ENDBRANCH  21  22
ENDBRANCH  20  21
ENDBRANCH  19  20
ENDBRANCH  18  19
ENDBRANCH  17  18
ENDBRANCH  16  17
ENDBRANCH  15  16
ENDBRANCH  14  15
ENDBRANCH  13  14
ENDBRANCH   1  13
TORSDOF 20
ENDMDL
MODEL 7
REMARK VINA RESULT:    -5.569      3.132      6.627
REMARK INTER + INTRA:         -16.083
REMARK INTER:                 -12.645
REMARK INTRA:                  -3.438
REMARK UNBOUND:                -4.003
REMARK SMILES CCCCCCCCCCCCCCCCCCCCCC(=O)[O-]
REMARK SMILES IDX 12 1 11 2 10 3 9 4 8 5 7 6 6 7 5 8 4 9 3 10 2 11 1 12 13 13
REMARK SMILES IDX 14 14 15 15 16 16 17 17 18 18 19 19 20 20 21 21 22 22 23 23
REMARK SMILES IDX 24 24
REMARK H PARENT
REMARK Flexibility Score: inf
ROOT
ATOM      1  C   UNL     1     221.035  -8.745  21.235  1.00  0.00     0.000 C 
ENDROOT
BRANCH   1   2
ATOM      2  C   UNL     1     219.528  -8.481  21.409  1.00  0.00     0.000 C 
BRANCH   2   3
ATOM      3  C   UNL     1     218.683  -9.760  21.315  1.00  0.00     0.000 C 
BRANCH   3   4
ATOM      4  C   UNL     1     217.666  -9.833  22.464  1.00  0.00    -0.000 C 
BRANCH   4   5
ATOM      5  C   UNL     1     218.264 -10.405  23.763  1.00  0.00    -0.000 C 
BRANCH   5   6
ATOM      6  C   UNL     1     217.954  -9.597  25.036  1.00  0.00    -0.000 C 
BRANCH   6   7
ATOM      7  C   UNL     1     217.850  -8.084  24.777  1.00  0.00    -0.000 C 
BRANCH   7   8
ATOM      8  C   UNL     1     217.979  -7.256  26.066  1.00  0.00    -0.000 C 
BRANCH   8   9
ATOM      9  C   UNL     1     218.181  -8.129  27.317  1.00  0.00    -0.000 C 
BRANCH   9  10
ATOM     10  C   UNL     1     218.859  -7.365  28.466  1.00  0.00    -0.000 C 
BRANCH  10  11
ATOM     11  C   UNL     1     219.414  -8.301  29.550  1.00  0.00    -0.003 C 
ATOM     12  C   UNL     1     218.707  -9.653  29.521  1.00  0.00     0.004 C 
ENDBRANCH  10  11
ENDBRANCH   9  10
ENDBRANCH   8   9
ENDBRANCH   7   8
ENDBRANCH   6   7
ENDBRANCH   5   6
ENDBRANCH   4   5
ENDBRANCH   3   4
ENDBRANCH   2   3
ENDBRANCH   1   2
BRANCH   1  13
ATOM     13  C   UNL     1     221.862  -8.697  22.536  1.00  0.00     0.000 C 
BRANCH  13  14
ATOM     14  C   UNL     1     221.455  -7.589  23.526  1.00  0.00     0.000 C 
BRANCH  14  15
ATOM     15  C   UNL     1     221.414  -8.026  25.003  1.00  0.00     0.000 C 
BRANCH  15  16
ATOM     16  C   UNL     1     221.564  -9.551  25.202  1.00  0.00     0.000 C 
BRANCH  16  17
ATOM     17  C   UNL     1     221.438  -9.967  26.678  1.00  0.00     0.000 C 
BRANCH  17  18
ATOM     18  C   UNL     1     222.703 -10.691  27.189  1.00  0.00     0.000 C 
BRANCH  18  19
ATOM     19  C   UNL     1     223.444  -9.929  28.301  1.00  0.00     0.000 C 
BRANCH  19  20
ATOM     20  C   UNL     1     222.664  -9.900  29.626  1.00  0.00     0.006 C 
BRANCH  20  21
ATOM     21  C   UNL     1     222.087 -11.275  29.989  1.00  0.00     0.053 C 
BRANCH  21  22
ATOM     22  C   UNL     1     221.841 -11.402  31.461  1.00  0.00     0.041 C 
ATOM     23  O   UNL     1     220.977 -10.680  32.024  1.00  0.00    -0.550 OA
ATOM     24  O   UNL     1     222.546 -12.339  32.206  1.00  0.00    -0.550 OA
ENDBRANCH  21  22
ENDBRANCH  20  21
ENDBRANCH  19  20
ENDBRANCH  18  19
ENDBRANCH  17  18
ENDBRANCH  16  17
ENDBRANCH  15  16
ENDBRANCH  14  15
ENDBRANCH  13  14
ENDBRANCH   1  13
TORSDOF 20
ENDMDL
MODEL 8
REMARK VINA RESULT:    -5.531      3.270      7.270
REMARK INTER + INTRA:         -16.000
REMARK INTER:                 -12.341
REMARK INTRA:                  -3.659
REMARK UNBOUND:                -4.003
REMARK SMILES CCCCCCCCCCCCCCCCCCCCCC(=O)[O-]
REMARK SMILES IDX 12 1 11 2 10 3 9 4 8 5 7 6 6 7 5 8 4 9 3 10 2 11 1 12 13 13
REMARK SMILES IDX 14 14 15 15 16 16 17 17 18 18 19 19 20 20 21 21 22 22 23 23
REMARK SMILES IDX 24 24
REMARK H PARENT
REMARK Flexibility Score: inf
ROOT
ATOM      1  C   UNL     1     221.715  -9.568  24.123  1.00  0.00     0.000 C 
ENDROOT
BRANCH   1   2
ATOM      2  C   UNL     1     221.552  -8.052  24.332  1.00  0.00     0.000 C 
BRANCH   2   3
ATOM      3  C   UNL     1     220.896  -7.350  23.134  1.00  0.00     0.000 C 
BRANCH   3   4
ATOM      4  C   UNL     1     220.779  -8.302  21.935  1.00  0.00    -0.000 C 
BRANCH   4   5
ATOM      5  C   UNL     1     219.339  -8.425  21.401  1.00  0.00    -0.000 C 
BRANCH   5   6
ATOM      6  C   UNL     1     218.794  -9.862  21.318  1.00  0.00    -0.000 C 
BRANCH   6   7
ATOM      7  C   UNL     1     218.339 -10.412  22.680  1.00  0.00    -0.000 C 
BRANCH   7   8
ATOM      8  C   UNL     1     217.568  -9.372  23.508  1.00  0.00    -0.000 C 
BRANCH   8   9
ATOM      9  C   UNL     1     218.078  -9.266  24.956  1.00  0.00    -0.000 C 
BRANCH   9  10
ATOM     10  C   UNL     1     217.991  -7.834  25.509  1.00  0.00    -0.000 C 
BRANCH  10  11
ATOM     11  C   UNL     1     217.928  -7.798  27.043  1.00  0.00    -0.003 C 
ATOM     12  C   UNL     1     217.332  -9.088  27.598  1.00  0.00     0.004 C 
ENDBRANCH  10  11
ENDBRANCH   9  10
ENDBRANCH   8   9
ENDBRANCH   7   8
ENDBRANCH   6   7
ENDBRANCH   5   6
ENDBRANCH   4   5
ENDBRANCH   3   4
ENDBRANCH   2   3
ENDBRANCH   1   2
BRANCH   1  13
ATOM     13  C   UNL     1     221.484 -10.431  25.380  1.00  0.00     0.000 C 
BRANCH  13  14
ATOM     14  C   UNL     1     221.287  -9.641  26.686  1.00  0.00     0.000 C 
BRANCH  14  15
ATOM     15  C   UNL     1     222.547  -9.519  27.564  1.00  0.00     0.000 C 
BRANCH  15  16
ATOM     16  C   UNL     1     222.726  -8.122  28.201  1.00  0.00     0.000 C 
BRANCH  16  17
ATOM     17  C   UNL     1     221.421  -7.580  28.809  1.00  0.00     0.000 C 
BRANCH  17  18
ATOM     18  C   UNL     1     221.177  -8.115  30.237  1.00  0.00     0.000 C 
BRANCH  18  19
ATOM     19  C   UNL     1     219.862  -8.898  30.388  1.00  0.00     0.000 C 
BRANCH  19  20
ATOM     20  C   UNL     1     220.086 -10.401  30.620  1.00  0.00     0.006 C 
BRANCH  20  21
ATOM     21  C   UNL     1     221.576 -10.759  30.702  1.00  0.00     0.053 C 
BRANCH  21  22
ATOM     22  C   UNL     1     221.939 -11.317  32.043  1.00  0.00     0.041 C 
ATOM     23  O   UNL     1     222.255 -12.531  32.161  1.00  0.00    -0.550 OA
ATOM     24  O   UNL     1     221.958 -10.490  33.159  1.00  0.00    -0.550 OA
ENDBRANCH  21  22
ENDBRANCH  20  21
ENDBRANCH  19  20
ENDBRANCH  18  19
ENDBRANCH  17  18
ENDBRANCH  16  17
ENDBRANCH  15  16
ENDBRANCH  14  15
ENDBRANCH  13  14
ENDBRANCH   1  13
TORSDOF 20
ENDMDL
MODEL 9
REMARK VINA RESULT:    -5.428      1.116      3.470
REMARK INTER + INTRA:         -15.778
REMARK INTER:                 -11.877
REMARK INTRA:                  -3.901
REMARK UNBOUND:                -4.003
REMARK SMILES CCCCCCCCCCCCCCCCCCCCCC(=O)[O-]
REMARK SMILES IDX 12 1 11 2 10 3 9 4 8 5 7 6 6 7 5 8 4 9 3 10 2 11 1 12 13 13
REMARK SMILES IDX 14 14 15 15 16 16 17 17 18 18 19 19 20 20 21 21 22 22 23 23
REMARK SMILES IDX 24 24
REMARK H PARENT
REMARK Flexibility Score: inf
ROOT
ATOM      1  C   UNL     1     221.505  -9.783  26.886  1.00  0.00     0.000 C 
ENDROOT
BRANCH   1   2
ATOM      2  C   UNL     1     222.556  -8.713  27.232  1.00  0.00     0.000 C 
BRANCH   2   3
ATOM      3  C   UNL     1     221.948  -7.472  27.901  1.00  0.00     0.000 C 
BRANCH   3   4
ATOM      4  C   UNL     1     222.526  -7.265  29.309  1.00  0.00    -0.000 C 
BRANCH   4   5
ATOM      5  C   UNL     1     223.194  -8.531  29.878  1.00  0.00    -0.000 C 
BRANCH   5   6
ATOM      6  C   UNL     1     222.690  -8.968  31.265  1.00  0.00    -0.000 C 
BRANCH   6   7
ATOM      7  C   UNL     1     221.157  -9.052  31.348  1.00  0.00    -0.000 C 
BRANCH   7   8
ATOM      8  C   UNL     1     220.585 -10.218  30.525  1.00  0.00    -0.000 C 
BRANCH   8   9
ATOM      9  C   UNL     1     219.262  -9.861  29.825  1.00  0.00    -0.000 C 
BRANCH   9  10
ATOM     10  C   UNL     1     218.874  -8.386  30.012  1.00  0.00    -0.000 C 
BRANCH  10  11
ATOM     11  C   UNL     1     218.403  -7.730  28.706  1.00  0.00    -0.003 C 
ATOM     12  C   UNL     1     217.883  -8.775  27.724  1.00  0.00     0.004 C 
ENDBRANCH  10  11
ENDBRANCH   9  10
ENDBRANCH   8   9
ENDBRANCH   7   8
ENDBRANCH   6   7
ENDBRANCH   5   6
ENDBRANCH   4   5
ENDBRANCH   3   4
ENDBRANCH   2   3
ENDBRANCH   1   2
BRANCH   1  13
ATOM     13  C   UNL     1     221.740 -10.525  25.555  1.00  0.00     0.000 C 
BRANCH  13  14
ATOM     14  C   UNL     1     220.882 -10.035  24.375  1.00  0.00     0.000 C 
BRANCH  14  15
ATOM     15  C   UNL     1     221.616  -9.119  23.378  1.00  0.00     0.000 C 
BRANCH  15  16
ATOM     16  C   UNL     1     220.912  -7.762  23.149  1.00  0.00     0.000 C 
BRANCH  16  17
ATOM     17  C   UNL     1     220.875  -6.896  24.420  1.00  0.00     0.000 C 
BRANCH  17  18
ATOM     18  C   UNL     1     219.440  -6.715  24.960  1.00  0.00     0.000 C 
BRANCH  18  19
ATOM     19  C   UNL     1     218.347  -6.975  23.909  1.00  0.00     0.000 C 
BRANCH  19  20
ATOM     20  C   UNL     1     217.633  -8.322  24.112  1.00  0.00     0.006 C 
BRANCH  20  21
ATOM     21  C   UNL     1     217.142  -8.922  22.788  1.00  0.00     0.053 C 
BRANCH  21  22
ATOM     22  C   UNL     1     217.942 -10.125  22.392  1.00  0.00     0.041 C 
ATOM     23  O   UNL     1     218.748 -10.061  21.427  1.00  0.00    -0.550 OA
ATOM     24  O   UNL     1     217.819 -11.309  23.109  1.00  0.00    -0.550 OA
ENDBRANCH  21  22
ENDBRANCH  20  21
ENDBRANCH  19  20
ENDBRANCH  18  19
ENDBRANCH  17  18
ENDBRANCH  16  17
ENDBRANCH  15  16
ENDBRANCH  14  15
ENDBRANCH  13  14
ENDBRANCH   1  13
TORSDOF 20
ENDMDL
