MODEL 1
REMARK VINA RESULT:    -4.285      0.000      0.000
REMARK INTER + INTRA:          -5.196
REMARK INTER:                  -4.911
REMARK INTRA:                  -0.285
REMARK UNBOUND:                -0.285
REMARK SMILES COC(=O)c1ccccc1O
REMARK SMILES IDX 5 1 6 2 7 3 8 4 9 5 10 6 3 7 4 8 2 9 1 10 11 11
REMARK H PARENT 11 12
REMARK Flexibility Score: inf
ROOT
ATOM      1  C   UNL     1      79.230  16.830   3.616  1.00  0.00     0.101 A 
ATOM      2  C   UNL     1      80.117  17.799   3.112  1.00  0.00     0.019 A 
ATOM      3  C   UNL     1      79.973  18.287   1.811  1.00  0.00     0.001 A 
ATOM      4  C   UNL     1      78.944  17.816   0.997  1.00  0.00     0.004 A 
ATOM      5  C   UNL     1      78.068  16.840   1.474  1.00  0.00     0.047 A 
ATOM      6  C   UNL     1      78.211  16.324   2.769  1.00  0.00     0.130 A 
ENDROOT
BRANCH   1   7
ATOM      7  C   UNL     1      79.372  16.403   5.025  1.00  0.00     0.341 C 
ATOM      8  O   UNL     1      79.500  17.272   5.931  1.00  0.00    -0.246 OA
BRANCH   7   9
ATOM      9  O   UNL     1      79.303  15.047   5.359  1.00  0.00    -0.465 OA
ATOM     10  C   UNL     1      79.630  14.558   6.654  1.00  0.00     0.282 C 
ENDBRANCH   7   9
ENDBRANCH   1   7
BRANCH   6  11
ATOM     11  O   UNL     1      77.354  15.294   3.158  1.00  0.00    -0.507 OA
ATOM     12  H   UNL     1      77.014  14.584   2.524  1.00  0.00     0.293 HD
ENDBRANCH   6  11
TORSDOF 3
ENDMDL
MODEL 2
REMARK VINA RESULT:    -4.284      2.528      4.110
REMARK INTER + INTRA:          -5.195
REMARK INTER:                  -4.864
REMARK INTRA:                  -0.331
REMARK UNBOUND:                -0.285
REMARK SMILES COC(=O)c1ccccc1O
REMARK SMILES IDX 5 1 6 2 7 3 8 4 9 5 10 6 3 7 4 8 2 9 1 10 11 11
REMARK H PARENT 11 12
REMARK Flexibility Score: inf
ROOT
ATOM      1  C   UNL     1      79.557  16.635   2.408  1.00  0.00     0.101 A 
ATOM      2  C   UNL     1      79.719  16.608   3.806  1.00  0.00     0.019 A 
ATOM      3  C   UNL     1      79.739  15.394   4.497  1.00  0.00     0.001 A 
ATOM      4  C   UNL     1      79.598  14.193   3.804  1.00  0.00     0.004 A 
ATOM      5  C   UNL     1      79.416  14.202   2.421  1.00  0.00     0.047 A 
ATOM      6  C   UNL     1      79.371  15.412   1.715  1.00  0.00     0.130 A 
ENDROOT
BRANCH   1   7
ATOM      7  C   UNL     1      79.624  17.938   1.712  1.00  0.00     0.341 C 
ATOM      8  O   UNL     1      80.512  18.774   2.036  1.00  0.00    -0.246 OA
BRANCH   7   9
ATOM      9  O   UNL     1      78.747  18.218   0.658  1.00  0.00    -0.465 OA
ATOM     10  C   UNL     1      77.500  18.872   0.852  1.00  0.00     0.282 C 
ENDBRANCH   7   9
ENDBRANCH   1   7
BRANCH   6  11
ATOM     11  O   UNL     1      79.107  15.358   0.345  1.00  0.00    -0.507 OA
ATOM     12  H   UNL     1      78.397  14.765  -0.061  1.00  0.00     0.293 HD
ENDBRANCH   6  11
TORSDOF 3
ENDMDL
MODEL 3
REMARK VINA RESULT:    -4.162      2.356      4.262
REMARK INTER + INTRA:          -5.055
REMARK INTER:                  -4.760
REMARK INTRA:                  -0.295
REMARK UNBOUND:                -0.285
REMARK SMILES COC(=O)c1ccccc1O
REMARK SMILES IDX 5 1 6 2 7 3 8 4 9 5 10 6 3 7 4 8 2 9 1 10 11 11
REMARK H PARENT 11 12
REMARK Flexibility Score: inf
ROOT
ATOM      1  C   UNL     1      79.729  16.590   2.477  1.00  0.00     0.101 A 
ATOM      2  C   UNL     1      79.740  15.394   1.736  1.00  0.00     0.019 A 
ATOM      3  C   UNL     1      79.738  14.156   2.383  1.00  0.00     0.001 A 
ATOM      4  C   UNL     1      79.725  14.095   3.775  1.00  0.00     0.004 A 
ATOM      5  C   UNL     1      79.736  15.271   4.526  1.00  0.00     0.047 A 
ATOM      6  C   UNL     1      79.760  16.521   3.893  1.00  0.00     0.130 A 
ENDROOT
BRANCH   1   7
ATOM      7  C   UNL     1      79.649  17.875   1.749  1.00  0.00     0.341 C 
ATOM      8  O   UNL     1      80.448  18.808   2.037  1.00  0.00    -0.246 OA
BRANCH   7   9
ATOM      9  O   UNL     1      78.732  18.034   0.704  1.00  0.00    -0.465 OA
ATOM     10  C   UNL     1      77.531  18.781   0.846  1.00  0.00     0.282 C 
ENDBRANCH   7   9
ENDBRANCH   1   7
BRANCH   6  11
ATOM     11  O   UNL     1      79.849  17.657   4.698  1.00  0.00    -0.507 OA
ATOM     12  H   UNL     1      79.511  18.567   4.417  1.00  0.00     0.293 HD
ENDBRANCH   6  11
TORSDOF 3
ENDMDL
MODEL 4
REMARK VINA RESULT:    -3.960      1.696      2.540
REMARK INTER + INTRA:          -4.824
REMARK INTER:                  -4.528
REMARK INTRA:                  -0.295
REMARK UNBOUND:                -0.285
REMARK SMILES COC(=O)c1ccccc1O
REMARK SMILES IDX 5 1 6 2 7 3 8 4 9 5 10 6 3 7 4 8 2 9 1 10 11 11
REMARK H PARENT 11 12
REMARK Flexibility Score: inf
ROOT
ATOM      1  C   UNL     1      79.753  15.554   2.769  1.00  0.00     0.101 A 
ATOM      2  C   UNL     1      79.208  14.885   1.657  1.00  0.00     0.019 A 
ATOM      3  C   UNL     1      78.669  15.604   0.587  1.00  0.00     0.001 A 
ATOM      4  C   UNL     1      78.667  16.998   0.613  1.00  0.00     0.004 A 
ATOM      5  C   UNL     1      79.184  17.677   1.716  1.00  0.00     0.047 A 
ATOM      6  C   UNL     1      79.709  16.970   2.807  1.00  0.00     0.130 A 
ENDROOT
BRANCH   1   7
ATOM      7  C   UNL     1      80.385  14.752   3.838  1.00  0.00     0.341 C 
ATOM      8  O   UNL     1      81.242  13.875   3.538  1.00  0.00    -0.246 OA
BRANCH   7   9
ATOM      9  O   UNL     1      80.081  15.005   5.180  1.00  0.00    -0.465 OA
ATOM     10  C   UNL     1      79.368  14.081   5.992  1.00  0.00     0.282 C 
ENDBRANCH   7   9
ENDBRANCH   1   7
BRANCH   6  11
ATOM     11  O   UNL     1      80.137  17.705   3.914  1.00  0.00    -0.507 OA
ATOM     12  H   UNL     1      80.046  18.709   3.984  1.00  0.00     0.293 HD
ENDBRANCH   6  11
TORSDOF 3
ENDMDL
MODEL 5
REMARK VINA RESULT:    -3.929      2.105      4.292
REMARK INTER + INTRA:          -4.788
REMARK INTER:                  -4.444
REMARK INTRA:                  -0.344
REMARK UNBOUND:                -0.285
REMARK SMILES COC(=O)c1ccccc1O
REMARK SMILES IDX 5 1 6 2 7 3 8 4 9 5 10 6 3 7 4 8 2 9 1 10 11 11
REMARK H PARENT 11 12
REMARK Flexibility Score: inf
ROOT
ATOM      1  C   UNL     1      79.634  15.417   2.990  1.00  0.00     0.101 A 
ATOM      2  C   UNL     1      80.661  14.473   3.172  1.00  0.00     0.019 A 
ATOM      3  C   UNL     1      80.867  13.877   4.418  1.00  0.00     0.001 A 
ATOM      4  C   UNL     1      80.053  14.214   5.498  1.00  0.00     0.004 A 
ATOM      5  C   UNL     1      79.043  15.164   5.340  1.00  0.00     0.047 A 
ATOM      6  C   UNL     1      78.836  15.787   4.102  1.00  0.00     0.130 A 
ENDROOT
BRANCH   1   7
ATOM      7  C   UNL     1      79.401  15.960   1.634  1.00  0.00     0.341 C 
ATOM      8  O   UNL     1      79.360  15.176   0.646  1.00  0.00    -0.246 OA
BRANCH   7   9
ATOM      9  O   UNL     1      79.168  17.328   1.454  1.00  0.00    -0.465 OA
ATOM     10  C   UNL     1      80.141  18.318   1.761  1.00  0.00     0.282 C 
ENDBRANCH   7   9
ENDBRANCH   1   7
BRANCH   6  11
ATOM     11  O   UNL     1      77.863  16.785   4.030  1.00  0.00    -0.507 OA
ATOM     12  H   UNL     1      76.887  16.598   3.842  1.00  0.00     0.293 HD
ENDBRANCH   6  11
TORSDOF 3
ENDMDL
MODEL 6
REMARK VINA RESULT:    -3.876     18.144     19.620
REMARK INTER + INTRA:          -4.727
REMARK INTER:                  -4.424
REMARK INTRA:                  -0.303
REMARK UNBOUND:                -0.285
REMARK SMILES COC(=O)c1ccccc1O
REMARK SMILES IDX 5 1 6 2 7 3 8 4 9 5 10 6 3 7 4 8 2 9 1 10 11 11
REMARK H PARENT 11 12
REMARK Flexibility Score: inf
ROOT
ATOM      1  C   UNL     1      90.355  26.797  15.330  1.00  0.00     0.101 A 
ATOM      2  C   UNL     1      89.232  26.283  14.656  1.00  0.00     0.019 A 
ATOM      3  C   UNL     1      88.063  25.971  15.355  1.00  0.00     0.001 A 
ATOM      4  C   UNL     1      88.000  26.168  16.733  1.00  0.00     0.004 A 
ATOM      5  C   UNL     1      89.111  26.657  17.420  1.00  0.00     0.047 A 
ATOM      6  C   UNL     1      90.298  26.955  16.738  1.00  0.00     0.130 A 
ENDROOT
BRANCH   1   7
ATOM      7  C   UNL     1      91.540  27.190  14.536  1.00  0.00     0.341 C 
ATOM      8  O   UNL     1      92.101  28.298  14.757  1.00  0.00    -0.246 OA
BRANCH   7   9
ATOM      9  O   UNL     1      92.073  26.311  13.588  1.00  0.00    -0.465 OA
ATOM     10  C   UNL     1      92.125  26.619  12.201  1.00  0.00     0.282 C 
ENDBRANCH   7   9
ENDBRANCH   1   7
BRANCH   6  11
ATOM     11  O   UNL     1      91.398  27.365  17.492  1.00  0.00    -0.507 OA
ATOM     12  H   UNL     1      91.334  27.650  18.460  1.00  0.00     0.293 HD
ENDBRANCH   6  11
TORSDOF 3
ENDMDL
MODEL 7
REMARK VINA RESULT:    -3.861      1.674      2.153
REMARK INTER + INTRA:          -4.710
REMARK INTER:                  -4.427
REMARK INTRA:                  -0.283
REMARK UNBOUND:                -0.285
REMARK SMILES COC(=O)c1ccccc1O
REMARK SMILES IDX 5 1 6 2 7 3 8 4 9 5 10 6 3 7 4 8 2 9 1 10 11 11
REMARK H PARENT 11 12
REMARK Flexibility Score: inf
ROOT
ATOM      1  C   UNL     1      79.210  15.645   3.159  1.00  0.00     0.101 A 
ATOM      2  C   UNL     1      78.287  16.499   2.527  1.00  0.00     0.019 A 
ATOM      3  C   UNL     1      78.033  16.384   1.158  1.00  0.00     0.001 A 
ATOM      4  C   UNL     1      78.695  15.417   0.403  1.00  0.00     0.004 A 
ATOM      5  C   UNL     1      79.628  14.576   1.010  1.00  0.00     0.047 A 
ATOM      6  C   UNL     1      79.911  14.692   2.378  1.00  0.00     0.130 A 
ENDROOT
BRANCH   1   7
ATOM      7  C   UNL     1      79.384  15.750   4.624  1.00  0.00     0.341 C 
ATOM      8  O   UNL     1      79.171  16.851   5.202  1.00  0.00    -0.246 OA
BRANCH   7   9
ATOM      9  O   UNL     1      79.726  14.619   5.374  1.00  0.00    -0.465 OA
ATOM     10  C   UNL     1      79.671  14.596   6.794  1.00  0.00     0.282 C 
ENDBRANCH   7   9
ENDBRANCH   1   7
BRANCH   6  11
ATOM     11  O   UNL     1      80.910  13.875   2.908  1.00  0.00    -0.507 OA
ATOM     12  H   UNL     1      81.798  13.715   2.452  1.00  0.00     0.293 HD
ENDBRANCH   6  11
TORSDOF 3
ENDMDL
MODEL 8
REMARK VINA RESULT:    -3.716      2.455      4.437
REMARK INTER + INTRA:          -4.543
REMARK INTER:                  -4.262
REMARK INTRA:                  -0.281
REMARK UNBOUND:                -0.285
REMARK SMILES COC(=O)c1ccccc1O
REMARK SMILES IDX 5 1 6 2 7 3 8 4 9 5 10 6 3 7 4 8 2 9 1 10 11 11
REMARK H PARENT 11 12
REMARK Flexibility Score: inf
ROOT
ATOM      1  C   UNL     1      79.226  15.828   2.583  1.00  0.00     0.101 A 
ATOM      2  C   UNL     1      78.702  16.498   3.704  1.00  0.00     0.019 A 
ATOM      3  C   UNL     1      78.964  16.035   4.996  1.00  0.00     0.001 A 
ATOM      4  C   UNL     1      79.751  14.900   5.186  1.00  0.00     0.004 A 
ATOM      5  C   UNL     1      80.261  14.212   4.084  1.00  0.00     0.047 A 
ATOM      6  C   UNL     1      79.990  14.651   2.781  1.00  0.00     0.130 A 
ENDROOT
BRANCH   1   7
ATOM      7  C   UNL     1      78.991  16.403   1.240  1.00  0.00     0.341 C 
ATOM      8  O   UNL     1      78.694  15.642   0.278  1.00  0.00    -0.246 OA
BRANCH   7   9
ATOM      9  O   UNL     1      79.037  17.788   1.050  1.00  0.00    -0.465 OA
ATOM     10  C   UNL     1      77.875  18.568   0.802  1.00  0.00     0.282 C 
ENDBRANCH   7   9
ENDBRANCH   1   7
BRANCH   6  11
ATOM     11  O   UNL     1      80.463  13.875   1.721  1.00  0.00    -0.507 OA
ATOM     12  H   UNL     1      81.112  13.109   1.839  1.00  0.00     0.293 HD
ENDBRANCH   6  11
TORSDOF 3
ENDMDL
MODEL 9
REMARK VINA RESULT:    -3.714      1.563      3.593
REMARK INTER + INTRA:          -4.542
REMARK INTER:                  -4.280
REMARK INTRA:                  -0.261
REMARK UNBOUND:                -0.285
REMARK SMILES COC(=O)c1ccccc1O
REMARK SMILES IDX 5 1 6 2 7 3 8 4 9 5 10 6 3 7 4 8 2 9 1 10 11 11
REMARK H PARENT 11 12
REMARK Flexibility Score: inf
ROOT
ATOM      1  C   UNL     1      78.762  16.359   2.428  1.00  0.00     0.101 A 
ATOM      2  C   UNL     1      79.340  17.331   1.590  1.00  0.00     0.019 A 
ATOM      3  C   UNL     1      80.192  18.307   2.114  1.00  0.00     0.001 A 
ATOM      4  C   UNL     1      80.477  18.325   3.478  1.00  0.00     0.004 A 
ATOM      5  C   UNL     1      79.896  17.382   4.326  1.00  0.00     0.047 A 
ATOM      6  C   UNL     1      79.023  16.410   3.820  1.00  0.00     0.130 A 
ENDROOT
BRANCH   1   7
ATOM      7  C   UNL     1      77.934  15.298   1.815  1.00  0.00     0.341 C 
ATOM      8  O   UNL     1      77.133  14.638   2.533  1.00  0.00    -0.246 OA
BRANCH   7   9
ATOM      9  O   UNL     1      77.994  15.067   0.437  1.00  0.00    -0.465 OA
ATOM     10  C   UNL     1      78.657  13.942  -0.125  1.00  0.00     0.282 C 
ENDBRANCH   7   9
ENDBRANCH   1   7
BRANCH   6  11
ATOM     11  O   UNL     1      78.413  15.545   4.730  1.00  0.00    -0.507 OA
ATOM     12  H   UNL     1      77.964  14.680   4.461  1.00  0.00     0.293 HD
ENDBRANCH   6  11
TORSDOF 3
ENDMDL
