MODEL 1
REMARK VINA RESULT:    -4.711      0.000      0.000
REMARK INTER + INTRA:          -5.081
REMARK INTER:                  -4.986
REMARK INTRA:                  -0.095
REMARK UNBOUND:                -0.095
REMARK SMILES C=C(C)[C@H]1CC=C(C)C(=O)C1
REMARK SMILES IDX 8 1 7 2 6 3 5 4 4 5 11 6 9 7 10 8 2 9 1 10 3 11
REMARK H PARENT
REMARK Flexibility Score: inf
ROOT
ATOM      1  C   UNL     1       0.001   9.045  30.772  1.00  0.00     0.048 C 
ATOM      2  C   UNL     1       0.563   7.676  30.510  1.00  0.00    -0.012 C 
ATOM      3  C   UNL     1       1.013   7.360  29.283  1.00  0.00    -0.019 C 
ATOM      4  C   UNL     1       1.569   5.998  28.962  1.00  0.00     0.036 C 
ATOM      5  C   UNL     1       2.280   5.387  30.184  1.00  0.00     0.025 C 
ATOM      6  C   UNL     1       1.330   5.358  31.396  1.00  0.00     0.089 C 
ATOM      7  C   UNL     1       0.733   6.719  31.632  1.00  0.00     0.158 C 
ATOM      8  O   UNL     1       0.344   7.025  32.791  1.00  0.00    -0.295 OA
ENDROOT
BRANCH   5   9
ATOM      9  C   UNL     1       2.828   4.001  29.875  1.00  0.00    -0.077 C 
ATOM     10  C   UNL     1       3.527   3.330  30.805  1.00  0.00     0.008 C 
ATOM     11  C   UNL     1       2.606   3.349  28.533  1.00  0.00     0.039 C 
ENDBRANCH   5   9
TORSDOF 1
ENDMDL
MODEL 2
REMARK VINA RESULT:    -4.707      1.695      4.239
REMARK INTER + INTRA:          -5.077
REMARK INTER:                  -4.979
REMARK INTRA:                  -0.098
REMARK UNBOUND:                -0.095
REMARK SMILES C=C(C)[C@H]1CC=C(C)C(=O)C1
REMARK SMILES IDX 8 1 7 2 6 3 5 4 4 5 11 6 9 7 10 8 2 9 1 10 3 11
REMARK H PARENT
REMARK Flexibility Score: inf
ROOT
ATOM      1  C   UNL     1       2.619   3.358  28.401  1.00  0.00     0.048 C 
ATOM      2  C   UNL     1       2.261   4.496  29.316  1.00  0.00    -0.012 C 
ATOM      3  C   UNL     1       1.791   5.646  28.802  1.00  0.00    -0.019 C 
ATOM      4  C   UNL     1       1.434   6.822  29.672  1.00  0.00     0.036 C 
ATOM      5  C   UNL     1       0.903   6.359  31.041  1.00  0.00     0.025 C 
ATOM      6  C   UNL     1       1.917   5.420  31.719  1.00  0.00     0.089 C 
ATOM      7  C   UNL     1       2.310   4.305  30.788  1.00  0.00     0.158 C 
ATOM      8  O   UNL     1       2.717   3.215  31.273  1.00  0.00    -0.295 OA
ENDROOT
BRANCH   5   9
ATOM      9  C   UNL     1       0.558   7.542  31.935  1.00  0.00    -0.077 C 
ATOM     10  C   UNL     1       0.473   7.379  33.264  1.00  0.00     0.008 C 
ATOM     11  C   UNL     1       0.306   8.914  31.360  1.00  0.00     0.039 C 
ENDBRANCH   5   9
TORSDOF 1
ENDMDL
MODEL 3
REMARK VINA RESULT:    -4.580      9.998     10.810
REMARK INTER + INTRA:          -4.943
REMARK INTER:                  -4.845
REMARK INTRA:                  -0.098
REMARK UNBOUND:                -0.095
REMARK SMILES C=C(C)[C@H]1CC=C(C)C(=O)C1
REMARK SMILES IDX 8 1 7 2 6 3 5 4 4 5 11 6 9 7 10 8 2 9 1 10 3 11
REMARK H PARENT
REMARK Flexibility Score: inf
ROOT
ATOM      1  C   UNL     1       5.267  -4.005  25.503  1.00  0.00     0.048 C 
ATOM      2  C   UNL     1       5.372  -3.557  26.934  1.00  0.00    -0.012 C 
ATOM      3  C   UNL     1       4.639  -4.165  27.882  1.00  0.00    -0.019 C 
ATOM      4  C   UNL     1       4.693  -3.744  29.327  1.00  0.00     0.036 C 
ATOM      5  C   UNL     1       6.094  -3.228  29.702  1.00  0.00     0.025 C 
ATOM      6  C   UNL     1       6.521  -2.096  28.749  1.00  0.00     0.089 C 
ATOM      7  C   UNL     1       6.374  -2.529  27.316  1.00  0.00     0.158 C 
ATOM      8  O   UNL     1       7.089  -1.982  26.434  1.00  0.00    -0.295 OA
ENDROOT
BRANCH   5   9
ATOM      9  C   UNL     1       6.153  -2.781  31.157  1.00  0.00    -0.077 C 
ATOM     10  C   UNL     1       7.125  -1.951  31.567  1.00  0.00     0.008 C 
ATOM     11  C   UNL     1       5.135  -3.252  32.166  1.00  0.00     0.039 C 
ENDBRANCH   5   9
TORSDOF 1
ENDMDL
MODEL 4
REMARK VINA RESULT:    -4.567      1.673      2.675
REMARK INTER + INTRA:          -4.929
REMARK INTER:                  -4.833
REMARK INTRA:                  -0.096
REMARK UNBOUND:                -0.095
REMARK SMILES C=C(C)[C@H]1CC=C(C)C(=O)C1
REMARK SMILES IDX 8 1 7 2 6 3 5 4 4 5 11 6 9 7 10 8 2 9 1 10 3 11
REMARK H PARENT
REMARK Flexibility Score: inf
ROOT
ATOM      1  C   UNL     1       0.396   6.755  32.136  1.00  0.00     0.048 C 
ATOM      2  C   UNL     1       1.320   6.008  31.215  1.00  0.00    -0.012 C 
ATOM      3  C   UNL     1       2.245   5.176  31.723  1.00  0.00    -0.019 C 
ATOM      4  C   UNL     1       3.207   4.418  30.847  1.00  0.00     0.036 C 
ATOM      5  C   UNL     1       2.561   4.060  29.496  1.00  0.00     0.025 C 
ATOM      6  C   UNL     1       2.020   5.327  28.808  1.00  0.00     0.089 C 
ATOM      7  C   UNL     1       1.129   6.097  29.745  1.00  0.00     0.158 C 
ATOM      8  O   UNL     1       0.240   6.850  29.265  1.00  0.00    -0.295 OA
ENDROOT
BRANCH   5   9
ATOM      9  C   UNL     1       3.533   3.310  28.594  1.00  0.00    -0.077 C 
ATOM     10  C   UNL     1       3.152   2.927  27.366  1.00  0.00     0.008 C 
ATOM     11  C   UNL     1       4.933   2.982  29.049  1.00  0.00     0.039 C 
ENDBRANCH   5   9
TORSDOF 1
ENDMDL
MODEL 5
REMARK VINA RESULT:    -4.488      2.834      5.008
REMARK INTER + INTRA:          -4.845
REMARK INTER:                  -4.758
REMARK INTRA:                  -0.087
REMARK UNBOUND:                -0.095
REMARK SMILES C=C(C)[C@H]1CC=C(C)C(=O)C1
REMARK SMILES IDX 8 1 7 2 6 3 5 4 4 5 11 6 9 7 10 8 2 9 1 10 3 11
REMARK H PARENT
REMARK Flexibility Score: inf
ROOT
ATOM      1  C   UNL     1       5.668   3.439  26.886  1.00  0.00     0.048 C 
ATOM      2  C   UNL     1       4.485   4.072  27.566  1.00  0.00    -0.012 C 
ATOM      3  C   UNL     1       3.489   3.300  28.033  1.00  0.00    -0.019 C 
ATOM      4  C   UNL     1       2.274   3.884  28.706  1.00  0.00     0.036 C 
ATOM      5  C   UNL     1       2.631   5.168  29.477  1.00  0.00     0.025 C 
ATOM      6  C   UNL     1       3.322   6.179  28.544  1.00  0.00     0.089 C 
ATOM      7  C   UNL     1       4.479   5.533  27.830  1.00  0.00     0.158 C 
ATOM      8  O   UNL     1       5.429   6.255  27.424  1.00  0.00    -0.295 OA
ENDROOT
BRANCH   5   9
ATOM      9  C   UNL     1       1.405   5.776  30.145  1.00  0.00    -0.077 C 
ATOM     10  C   UNL     1       1.162   5.545  31.445  1.00  0.00     0.008 C 
ATOM     11  C   UNL     1       0.441   6.645  29.376  1.00  0.00     0.039 C 
ENDBRANCH   5   9
TORSDOF 1
ENDMDL
MODEL 6
REMARK VINA RESULT:    -4.473     17.869     19.554
REMARK INTER + INTRA:          -4.829
REMARK INTER:                  -4.739
REMARK INTRA:                  -0.090
REMARK UNBOUND:                -0.095
REMARK SMILES C=C(C)[C@H]1CC=C(C)C(=O)C1
REMARK SMILES IDX 8 1 7 2 6 3 5 4 4 5 11 6 9 7 10 8 2 9 1 10 3 11
REMARK H PARENT
REMARK Flexibility Score: inf
ROOT
ATOM      1  C   UNL     1      -8.781  -6.539  16.229  1.00  0.00     0.048 C 
ATOM      2  C   UNL     1      -8.959  -6.129  17.665  1.00  0.00    -0.012 C 
ATOM      3  C   UNL     1      -7.888  -6.031  18.471  1.00  0.00    -0.019 C 
ATOM      4  C   UNL     1      -8.012  -5.643  19.921  1.00  0.00     0.036 C 
ATOM      5  C   UNL     1      -9.184  -4.667  20.135  1.00  0.00     0.025 C 
ATOM      6  C   UNL     1     -10.489  -5.267  19.578  1.00  0.00     0.089 C 
ATOM      7  C   UNL     1     -10.299  -5.717  18.155  1.00  0.00     0.158 C 
ATOM      8  O   UNL     1     -11.299  -5.775  17.391  1.00  0.00    -0.295 OA
ENDROOT
BRANCH   5   9
ATOM      9  C   UNL     1      -9.330  -4.284  21.601  1.00  0.00    -0.077 C 
ATOM     10  C   UNL     1      -8.512  -3.367  22.142  1.00  0.00     0.008 C 
ATOM     11  C   UNL     1     -10.385  -4.914  22.477  1.00  0.00     0.039 C 
ENDBRANCH   5   9
TORSDOF 1
ENDMDL
MODEL 7
REMARK VINA RESULT:    -4.420      1.421      2.511
REMARK INTER + INTRA:          -4.774
REMARK INTER:                  -4.677
REMARK INTRA:                  -0.097
REMARK UNBOUND:                -0.095
REMARK SMILES C=C(C)[C@H]1CC=C(C)C(=O)C1
REMARK SMILES IDX 8 1 7 2 6 3 5 4 4 5 11 6 9 7 10 8 2 9 1 10 3 11
REMARK H PARENT
REMARK Flexibility Score: inf
ROOT
ATOM      1  C   UNL     1       0.402   6.730  29.347  1.00  0.00     0.048 C 
ATOM      2  C   UNL     1       1.435   5.682  29.652  1.00  0.00    -0.012 C 
ATOM      3  C   UNL     1       2.178   5.164  28.659  1.00  0.00    -0.019 C 
ATOM      4  C   UNL     1       3.213   4.099  28.906  1.00  0.00     0.036 C 
ATOM      5  C   UNL     1       3.858   4.265  30.294  1.00  0.00     0.025 C 
ATOM      6  C   UNL     1       2.775   4.289  31.389  1.00  0.00     0.089 C 
ATOM      7  C   UNL     1       1.718   5.309  31.062  1.00  0.00     0.158 C 
ATOM      8  O   UNL     1       1.047   5.818  31.999  1.00  0.00    -0.295 OA
ENDROOT
BRANCH   5   9
ATOM      9  C   UNL     1       4.893   3.180  30.562  1.00  0.00    -0.077 C 
ATOM     10  C   UNL     1       5.534   2.594  29.538  1.00  0.00     0.008 C 
ATOM     11  C   UNL     1       5.225   2.738  31.966  1.00  0.00     0.039 C 
ENDBRANCH   5   9
TORSDOF 1
ENDMDL
MODEL 8
REMARK VINA RESULT:    -4.414      2.569      5.101
REMARK INTER + INTRA:          -4.767
REMARK INTER:                  -4.669
REMARK INTRA:                  -0.098
REMARK UNBOUND:                -0.095
REMARK SMILES C=C(C)[C@H]1CC=C(C)C(=O)C1
REMARK SMILES IDX 8 1 7 2 6 3 5 4 4 5 11 6 9 7 10 8 2 9 1 10 3 11
REMARK H PARENT
REMARK Flexibility Score: inf
ROOT
ATOM      1  C   UNL     1       5.613   2.545  29.631  1.00  0.00     0.048 C 
ATOM      2  C   UNL     1       4.347   3.335  29.812  1.00  0.00    -0.012 C 
ATOM      3  C   UNL     1       3.979   3.738  31.041  1.00  0.00    -0.019 C 
ATOM      4  C   UNL     1       2.712   4.516  31.281  1.00  0.00     0.036 C 
ATOM      5  C   UNL     1       2.384   5.425  30.082  1.00  0.00     0.025 C 
ATOM      6  C   UNL     1       2.323   4.598  28.784  1.00  0.00     0.089 C 
ATOM      7  C   UNL     1       3.572   3.773  28.624  1.00  0.00     0.158 C 
ATOM      8  O   UNL     1       3.933   3.427  27.468  1.00  0.00    -0.295 OA
ENDROOT
BRANCH   5   9
ATOM      9  C   UNL     1       1.094   6.201  30.307  1.00  0.00    -0.077 C 
ATOM     10  C   UNL     1       0.392   6.658  29.259  1.00  0.00     0.008 C 
ATOM     11  C   UNL     1       0.573   6.474  31.697  1.00  0.00     0.039 C 
ENDBRANCH   5   9
TORSDOF 1
ENDMDL
MODEL 9
REMARK VINA RESULT:    -4.252     17.462     19.108
REMARK INTER + INTRA:          -4.596
REMARK INTER:                  -4.499
REMARK INTRA:                  -0.096
REMARK UNBOUND:                -0.095
REMARK SMILES C=C(C)[C@H]1CC=C(C)C(=O)C1
REMARK SMILES IDX 8 1 7 2 6 3 5 4 4 5 11 6 9 7 10 8 2 9 1 10 3 11
REMARK H PARENT
REMARK Flexibility Score: inf
ROOT
ATOM      1  C   UNL     1      -8.759  -5.795  16.099  1.00  0.00     0.048 C 
ATOM      2  C   UNL     1      -8.802  -5.314  17.523  1.00  0.00    -0.012 C 
ATOM      3  C   UNL     1      -9.632  -4.315  17.868  1.00  0.00    -0.019 C 
ATOM      4  C   UNL     1      -9.702  -3.783  19.275  1.00  0.00     0.036 C 
ATOM      5  C   UNL     1      -9.428  -4.897  20.302  1.00  0.00     0.025 C 
ATOM      6  C   UNL     1      -8.081  -5.581  20.004  1.00  0.00     0.089 C 
ATOM      7  C   UNL     1      -8.021  -6.024  18.567  1.00  0.00     0.158 C 
ATOM      8  O   UNL     1      -7.267  -6.984  18.253  1.00  0.00    -0.295 OA
ENDROOT
BRANCH   5   9
ATOM      9  C   UNL     1      -9.477  -4.365  21.728  1.00  0.00    -0.077 C 
ATOM     10  C   UNL     1      -8.625  -3.402  22.117  1.00  0.00     0.008 C 
ATOM     11  C   UNL     1     -10.471  -4.895  22.732  1.00  0.00     0.039 C 
ENDBRANCH   5   9
TORSDOF 1
ENDMDL
