MODEL 1
REMARK VINA RESULT:    -4.681      0.000      0.000
REMARK INTER + INTRA:          -5.341
REMARK INTER:                  -5.091
REMARK INTRA:                  -0.250
REMARK UNBOUND:                -0.250
REMARK SMILES O=C([O-])c1ccccc1O
REMARK SMILES IDX 4 1 9 2 5 3 8 4 6 5 7 6 2 7 1 8 3 9 10 10
REMARK H PARENT 10 11
REMARK Flexibility Score: inf
ROOT
ATOM      1  C   UNL     1      27.762   4.571  -7.643  1.00  0.00     0.039 A 
ATOM      2  C   UNL     1      26.718   4.089  -6.813  1.00  0.00     0.124 A 
ATOM      3  C   UNL     1      27.547   4.643  -9.033  1.00  0.00     0.014 A 
ATOM      4  C   UNL     1      25.524   3.637  -7.391  1.00  0.00     0.047 A 
ATOM      5  C   UNL     1      26.344   4.208  -9.591  1.00  0.00     0.001 A 
ATOM      6  C   UNL     1      25.338   3.696  -8.773  1.00  0.00     0.004 A 
ENDROOT
BRANCH   1   7
ATOM      7  C   UNL     1      29.084   4.966  -7.108  1.00  0.00     0.075 C 
ATOM      8  O   UNL     1      30.134   4.652  -7.727  1.00  0.00    -0.545 OA
ATOM      9  O   UNL     1      29.190   5.624  -5.890  1.00  0.00    -0.545 OA
ENDBRANCH   1   7
BRANCH   2  10
ATOM     10  O   UNL     1      26.811   4.076  -5.420  1.00  0.00    -0.507 OA
ATOM     11  H   UNL     1      26.979   3.238  -4.881  1.00  0.00     0.293 HD
ENDBRANCH   2  10
TORSDOF 2
ENDMDL
MODEL 2
REMARK VINA RESULT:    -4.671     18.281     18.672
REMARK INTER + INTRA:          -5.330
REMARK INTER:                  -5.101
REMARK INTRA:                  -0.229
REMARK UNBOUND:                -0.250
REMARK SMILES O=C([O-])c1ccccc1O
REMARK SMILES IDX 4 1 9 2 5 3 8 4 6 5 7 6 2 7 1 8 3 9 10 10
REMARK H PARENT 10 11
REMARK Flexibility Score: inf
ROOT
ATOM      1  C   UNL     1      36.852   3.715   8.382  1.00  0.00     0.039 A 
ATOM      2  C   UNL     1      36.654   2.312   8.309  1.00  0.00     0.124 A 
ATOM      3  C   UNL     1      36.092   4.461   9.304  1.00  0.00     0.014 A 
ATOM      4  C   UNL     1      35.671   1.707   9.103  1.00  0.00     0.047 A 
ATOM      5  C   UNL     1      35.131   3.839  10.103  1.00  0.00     0.001 A 
ATOM      6  C   UNL     1      34.913   2.467   9.995  1.00  0.00     0.004 A 
ENDROOT
BRANCH   1   7
ATOM      7  C   UNL     1      37.799   4.430   7.499  1.00  0.00     0.075 C 
ATOM      8  O   UNL     1      37.599   5.639   7.207  1.00  0.00    -0.545 OA
ATOM      9  O   UNL     1      38.878   3.768   6.928  1.00  0.00    -0.545 OA
ENDBRANCH   1   7
BRANCH   2  10
ATOM     10  O   UNL     1      37.431   1.486   7.494  1.00  0.00    -0.507 OA
ATOM     11  H   UNL     1      38.433   1.394   7.588  1.00  0.00     0.293 HD
ENDBRANCH   2  10
TORSDOF 2
ENDMDL
MODEL 3
REMARK VINA RESULT:    -4.420     18.424     19.138
REMARK INTER + INTRA:          -5.058
REMARK INTER:                  -4.805
REMARK INTRA:                  -0.252
REMARK UNBOUND:                -0.250
REMARK SMILES O=C([O-])c1ccccc1O
REMARK SMILES IDX 4 1 9 2 5 3 8 4 6 5 7 6 2 7 1 8 3 9 10 10
REMARK H PARENT 10 11
REMARK Flexibility Score: inf
ROOT
ATOM      1  C   UNL     1      35.979   2.864   9.236  1.00  0.00     0.039 A 
ATOM      2  C   UNL     1      36.936   2.915   8.190  1.00  0.00     0.124 A 
ATOM      3  C   UNL     1      35.536   4.071   9.812  1.00  0.00     0.014 A 
ATOM      4  C   UNL     1      37.467   4.151   7.796  1.00  0.00     0.047 A 
ATOM      5  C   UNL     1      36.060   5.295   9.392  1.00  0.00     0.001 A 
ATOM      6  C   UNL     1      37.031   5.334   8.394  1.00  0.00     0.004 A 
ENDROOT
BRANCH   1   7
ATOM      7  C   UNL     1      35.455   1.589   9.771  1.00  0.00     0.075 C 
ATOM      8  O   UNL     1      34.250   1.500  10.125  1.00  0.00    -0.545 OA
ATOM      9  O   UNL     1      36.293   0.496   9.954  1.00  0.00    -0.545 OA
ENDBRANCH   1   7
BRANCH   2  10
ATOM     10  O   UNL     1      37.356   1.777   7.500  1.00  0.00    -0.507 OA
ATOM     11  H   UNL     1      37.118   1.591   6.536  1.00  0.00     0.293 HD
ENDBRANCH   2  10
TORSDOF 2
ENDMDL
MODEL 4
REMARK VINA RESULT:    -4.266     17.621     18.041
REMARK INTER + INTRA:          -4.890
REMARK INTER:                  -4.641
REMARK INTRA:                  -0.249
REMARK UNBOUND:                -0.250
REMARK SMILES O=C([O-])c1ccccc1O
REMARK SMILES IDX 4 1 9 2 5 3 8 4 6 5 7 6 2 7 1 8 3 9 10 10
REMARK H PARENT 10 11
REMARK Flexibility Score: inf
ROOT
ATOM      1  C   UNL     1      25.647  -1.379   9.387  1.00  0.00     0.039 A 
ATOM      2  C   UNL     1      25.352  -2.520   8.597  1.00  0.00     0.124 A 
ATOM      3  C   UNL     1      24.608  -0.769  10.116  1.00  0.00     0.014 A 
ATOM      4  C   UNL     1      24.031  -2.978   8.507  1.00  0.00     0.047 A 
ATOM      5  C   UNL     1      23.301  -1.251  10.031  1.00  0.00     0.001 A 
ATOM      6  C   UNL     1      23.010  -2.347   9.221  1.00  0.00     0.004 A 
ENDROOT
BRANCH   1   7
ATOM      7  C   UNL     1      26.999  -0.781   9.443  1.00  0.00     0.075 C 
ATOM      8  O   UNL     1      28.008  -1.517   9.602  1.00  0.00    -0.545 OA
ATOM      9  O   UNL     1      27.171   0.596   9.392  1.00  0.00    -0.545 OA
ENDBRANCH   1   7
BRANCH   2  10
ATOM     10  O   UNL     1      26.338  -3.242   7.922  1.00  0.00    -0.507 OA
ATOM     11  H   UNL     1      26.140  -4.041   7.336  1.00  0.00     0.293 HD
ENDBRANCH   2  10
TORSDOF 2
ENDMDL
MODEL 5
REMARK VINA RESULT:    -4.186     12.696     13.779
REMARK INTER + INTRA:          -4.804
REMARK INTER:                  -4.575
REMARK INTRA:                  -0.229
REMARK UNBOUND:                -0.250
REMARK SMILES O=C([O-])c1ccccc1O
REMARK SMILES IDX 4 1 9 2 5 3 8 4 6 5 7 6 2 7 1 8 3 9 10 10
REMARK H PARENT 10 11
REMARK Flexibility Score: inf
ROOT
ATOM      1  C   UNL     1      36.809  -4.907  -7.899  1.00  0.00     0.039 A 
ATOM      2  C   UNL     1      36.118  -6.059  -7.443  1.00  0.00     0.124 A 
ATOM      3  C   UNL     1      38.176  -4.768  -7.591  1.00  0.00     0.014 A 
ATOM      4  C   UNL     1      36.787  -6.998  -6.646  1.00  0.00     0.047 A 
ATOM      5  C   UNL     1      38.832  -5.724  -6.814  1.00  0.00     0.001 A 
ATOM      6  C   UNL     1      38.137  -6.832  -6.334  1.00  0.00     0.004 A 
ENDROOT
BRANCH   1   7
ATOM      7  C   UNL     1      36.139  -3.827  -8.655  1.00  0.00     0.075 C 
ATOM      8  O   UNL     1      35.120  -3.260  -8.177  1.00  0.00    -0.545 OA
ATOM      9  O   UNL     1      36.576  -3.469  -9.924  1.00  0.00    -0.545 OA
ENDBRANCH   1   7
BRANCH   2  10
ATOM     10  O   UNL     1      34.791  -6.323  -7.784  1.00  0.00    -0.507 OA
ATOM     11  H   UNL     1      34.088  -5.604  -7.884  1.00  0.00     0.293 HD
ENDBRANCH   2  10
TORSDOF 2
ENDMDL
MODEL 6
REMARK VINA RESULT:    -4.065      1.869      2.398
REMARK INTER + INTRA:          -4.672
REMARK INTER:                  -4.456
REMARK INTRA:                  -0.216
REMARK UNBOUND:                -0.250
REMARK SMILES O=C([O-])c1ccccc1O
REMARK SMILES IDX 4 1 9 2 5 3 8 4 6 5 7 6 2 7 1 8 3 9 10 10
REMARK H PARENT 10 11
REMARK Flexibility Score: inf
ROOT
ATOM      1  C   UNL     1      27.128   5.393  -7.476  1.00  0.00     0.039 A 
ATOM      2  C   UNL     1      26.490   6.644  -7.677  1.00  0.00     0.124 A 
ATOM      3  C   UNL     1      26.488   4.223  -7.929  1.00  0.00     0.014 A 
ATOM      4  C   UNL     1      25.217   6.688  -8.261  1.00  0.00     0.047 A 
ATOM      5  C   UNL     1      25.228   4.287  -8.528  1.00  0.00     0.001 A 
ATOM      6  C   UNL     1      24.589   5.515  -8.684  1.00  0.00     0.004 A 
ENDROOT
BRANCH   1   7
ATOM      7  C   UNL     1      28.423   5.266  -6.773  1.00  0.00     0.075 C 
ATOM      8  O   UNL     1      28.542   5.679  -5.590  1.00  0.00    -0.545 OA
ATOM      9  O   UNL     1      29.539   4.756  -7.425  1.00  0.00    -0.545 OA
ENDBRANCH   1   7
BRANCH   2  10
ATOM     10  O   UNL     1      27.096   7.857  -7.347  1.00  0.00    -0.507 OA
ATOM     11  H   UNL     1      26.609   8.743  -7.351  1.00  0.00     0.293 HD
ENDBRANCH   2  10
TORSDOF 2
ENDMDL
MODEL 7
REMARK VINA RESULT:    -4.055     17.698     18.123
REMARK INTER + INTRA:          -4.661
REMARK INTER:                  -4.445
REMARK INTRA:                  -0.217
REMARK UNBOUND:                -0.250
REMARK SMILES O=C([O-])c1ccccc1O
REMARK SMILES IDX 4 1 9 2 5 3 8 4 6 5 7 6 2 7 1 8 3 9 10 10
REMARK H PARENT 10 11
REMARK Flexibility Score: inf
ROOT
ATOM      1  C   UNL     1      25.371  -0.220   9.723  1.00  0.00     0.039 A 
ATOM      2  C   UNL     1      25.517   1.191   9.746  1.00  0.00     0.124 A 
ATOM      3  C   UNL     1      24.074  -0.769   9.706  1.00  0.00     0.014 A 
ATOM      4  C   UNL     1      24.379   2.005   9.816  1.00  0.00     0.047 A 
ATOM      5  C   UNL     1      22.950   0.058   9.754  1.00  0.00     0.001 A 
ATOM      6  C   UNL     1      23.102   1.442   9.819  1.00  0.00     0.004 A 
ENDROOT
BRANCH   1   7
ATOM      7  C   UNL     1      26.530  -1.139   9.755  1.00  0.00     0.075 C 
ATOM      8  O   UNL     1      27.664  -0.737   9.386  1.00  0.00    -0.545 OA
ATOM      9  O   UNL     1      26.373  -2.469  10.124  1.00  0.00    -0.545 OA
ENDBRANCH   1   7
BRANCH   2  10
ATOM     10  O   UNL     1      26.762   1.818   9.667  1.00  0.00    -0.507 OA
ATOM     11  H   UNL     1      26.882   2.785   9.397  1.00  0.00     0.293 HD
ENDBRANCH   2  10
TORSDOF 2
ENDMDL
MODEL 8
REMARK VINA RESULT:    -4.034     18.396     18.804
REMARK INTER + INTRA:          -4.638
REMARK INTER:                  -4.422
REMARK INTRA:                  -0.216
REMARK UNBOUND:                -0.250
REMARK SMILES O=C([O-])c1ccccc1O
REMARK SMILES IDX 4 1 9 2 5 3 8 4 6 5 7 6 2 7 1 8 3 9 10 10
REMARK H PARENT 10 11
REMARK Flexibility Score: inf
ROOT
ATOM      1  C   UNL     1      36.801   3.282   8.507  1.00  0.00     0.039 A 
ATOM      2  C   UNL     1      35.933   3.846   9.478  1.00  0.00     0.124 A 
ATOM      3  C   UNL     1      36.600   1.946   8.110  1.00  0.00     0.014 A 
ATOM      4  C   UNL     1      34.941   3.051  10.067  1.00  0.00     0.047 A 
ATOM      5  C   UNL     1      35.592   1.174   8.692  1.00  0.00     0.001 A 
ATOM      6  C   UNL     1      34.771   1.722   9.676  1.00  0.00     0.004 A 
ENDROOT
BRANCH   1   7
ATOM      7  C   UNL     1      37.933   4.034   7.923  1.00  0.00     0.075 C 
ATOM      8  O   UNL     1      38.605   3.532   6.984  1.00  0.00    -0.545 OA
ATOM      9  O   UNL     1      38.313   5.265   8.441  1.00  0.00    -0.545 OA
ENDBRANCH   1   7
BRANCH   2  10
ATOM     10  O   UNL     1      36.001   5.188   9.857  1.00  0.00    -0.507 OA
ATOM     11  H   UNL     1      35.671   5.947   9.277  1.00  0.00     0.293 HD
ENDBRANCH   2  10
TORSDOF 2
ENDMDL
MODEL 9
REMARK VINA RESULT:    -4.010     18.167     18.878
REMARK INTER + INTRA:          -4.611
REMARK INTER:                  -4.363
REMARK INTRA:                  -0.249
REMARK UNBOUND:                -0.250
REMARK SMILES O=C([O-])c1ccccc1O
REMARK SMILES IDX 4 1 9 2 5 3 8 4 6 5 7 6 2 7 1 8 3 9 10 10
REMARK H PARENT 10 11
REMARK Flexibility Score: inf
ROOT
ATOM      1  C   UNL     1      36.581   3.896   8.765  1.00  0.00     0.039 A 
ATOM      2  C   UNL     1      37.040   4.912   7.887  1.00  0.00     0.124 A 
ATOM      3  C   UNL     1      35.620   4.224   9.740  1.00  0.00     0.014 A 
ATOM      4  C   UNL     1      36.580   6.226   8.046  1.00  0.00     0.047 A 
ATOM      5  C   UNL     1      35.156   5.534   9.871  1.00  0.00     0.001 A 
ATOM      6  C   UNL     1      35.642   6.536   9.032  1.00  0.00     0.004 A 
ENDROOT
BRANCH   1   7
ATOM      7  C   UNL     1      37.103   2.513   8.720  1.00  0.00     0.075 C 
ATOM      8  O   UNL     1      37.182   1.904   7.621  1.00  0.00    -0.545 OA
ATOM      9  O   UNL     1      37.448   1.844   9.888  1.00  0.00    -0.545 OA
ENDBRANCH   1   7
BRANCH   2  10
ATOM     10  O   UNL     1      37.917   4.653   6.832  1.00  0.00    -0.507 OA
ATOM     11  H   UNL     1      38.752   4.093   6.928  1.00  0.00     0.293 HD
ENDBRANCH   2  10
TORSDOF 2
ENDMDL
