MODEL 1
REMARK VINA RESULT:    -6.952      0.000      0.000
REMARK INTER + INTRA:         -12.310
REMARK INTER:                 -10.813
REMARK INTRA:                  -1.498
REMARK UNBOUND:                -1.498
REMARK SMILES COc1cc(CNC(=O)CCCCC=CC(C)C)ccc1O
REMARK SMILES IDX 11 1 12 2 13 3 14 4 15 5 16 6 17 7 18 8 10 9 8 10 9 11 7 12
REMARK SMILES IDX 6 14 5 15 4 16 19 17 3 18 20 19 21 20 2 21 1 22 22 23
REMARK H PARENT 7 13 22 24
REMARK Flexibility Score: inf
ROOT
ATOM      1  C   UNL     1      -9.446  29.286  19.083  1.00  0.00     0.010 C 
ENDROOT
BRANCH   1   2
ATOM      2  C   UNL     1      -9.042  28.961  20.534  1.00  0.00     0.005 C 
BRANCH   2   3
ATOM      3  C   UNL     1      -7.560  28.578  20.681  1.00  0.00     0.027 C 
BRANCH   3   4
ATOM      4  C   UNL     1      -7.161  27.483  19.720  1.00  0.00    -0.031 C 
ATOM      5  C   UNL     1      -5.895  27.159  19.388  1.00  0.00    -0.028 C 
BRANCH   5   6
ATOM      6  C   UNL     1      -4.654  27.787  19.986  1.00  0.00     0.005 C 
ATOM      7  C   UNL     1      -3.696  26.695  20.477  1.00  0.00     0.012 C 
ATOM      8  C   UNL     1      -3.954  28.678  18.951  1.00  0.00     0.012 C 
ENDBRANCH   5   6
ENDBRANCH   3   4
ENDBRANCH   2   3
ENDBRANCH   1   2
BRANCH   1   9
ATOM      9  C   UNL     1     -10.747  28.591  18.659  1.00  0.00     0.100 C 
BRANCH   9  10
ATOM     10  C   UNL     1     -10.667  28.120  17.233  1.00  0.00     0.220 C 
ATOM     11  O   UNL     1     -11.316  27.099  16.876  1.00  0.00    -0.275 OA
ATOM     12  N   UNL     1      -9.869  28.836  16.280  1.00  0.00    -0.352 N 
ATOM     13  H   UNL     1      -9.490  29.776  16.540  1.00  0.00     0.163 HD
BRANCH  12  14
ATOM     14  C   UNL     1      -9.310  28.187  15.099  1.00  0.00     0.151 C 
BRANCH  14  15
ATOM     15  C   UNL     1      -7.854  28.537  14.982  1.00  0.00    -0.025 A 
ATOM     16  C   UNL     1      -7.225  28.529  13.727  1.00  0.00     0.056 A 
ATOM     17  C   UNL     1      -7.142  28.985  16.106  1.00  0.00     0.009 A 
ATOM     18  C   UNL     1      -5.887  28.954  13.591  1.00  0.00     0.160 A 
ATOM     19  C   UNL     1      -5.818  29.410  15.979  1.00  0.00     0.050 A 
ATOM     20  C   UNL     1      -5.190  29.398  14.732  1.00  0.00     0.157 A 
BRANCH  18  21
ATOM     21  O   UNL     1      -5.239  28.982  12.346  1.00  0.00    -0.493 OA
ATOM     22  C   UNL     1      -5.823  29.485  11.146  1.00  0.00     0.278 C 
ENDBRANCH  18  21
BRANCH  20  23
ATOM     23  O   UNL     1      -3.871  29.841  14.636  1.00  0.00    -0.504 OA
ATOM     24  H   UNL     1      -3.637  30.766  14.294  1.00  0.00     0.293 HD
ENDBRANCH  20  23
ENDBRANCH  14  15
ENDBRANCH  12  14
ENDBRANCH   9  10
ENDBRANCH   1   9
TORSDOF 10
ENDMDL
MODEL 2
REMARK VINA RESULT:    -6.931      2.292      7.436
REMARK INTER + INTRA:         -12.279
REMARK INTER:                 -11.164
REMARK INTRA:                  -1.115
REMARK UNBOUND:                -1.498
REMARK SMILES COc1cc(CNC(=O)CCCCC=CC(C)C)ccc1O
REMARK SMILES IDX 11 1 12 2 13 3 14 4 15 5 16 6 17 7 18 8 10 9 8 10 9 11 7 12
REMARK SMILES IDX 6 14 5 15 4 16 19 17 3 18 20 19 21 20 2 21 1 22 22 23
REMARK H PARENT 7 13 22 24
REMARK Flexibility Score: inf
ROOT
ATOM      1  C   UNL     1      -7.295  27.814  13.745  1.00  0.00     0.010 C 
ENDROOT
BRANCH   1   2
ATOM      2  C   UNL     1      -7.449  27.632  12.223  1.00  0.00     0.005 C 
BRANCH   2   3
ATOM      3  C   UNL     1      -8.871  27.226  11.801  1.00  0.00     0.027 C 
BRANCH   3   4
ATOM      4  C   UNL     1      -9.824  28.396  11.828  1.00  0.00    -0.031 C 
ATOM      5  C   UNL     1     -10.916  28.497  12.613  1.00  0.00    -0.028 C 
BRANCH   5   6
ATOM      6  C   UNL     1     -11.326  27.484  13.661  1.00  0.00     0.005 C 
ATOM      7  C   UNL     1     -10.648  27.807  14.998  1.00  0.00     0.012 C 
ATOM      8  C   UNL     1     -12.851  27.475  13.829  1.00  0.00     0.012 C 
ENDBRANCH   5   6
ENDBRANCH   3   4
ENDBRANCH   2   3
ENDBRANCH   1   2
BRANCH   1   9
ATOM      9  C   UNL     1      -6.436  29.032  14.113  1.00  0.00     0.100 C 
BRANCH   9  10
ATOM     10  C   UNL     1      -6.190  29.090  15.595  1.00  0.00     0.220 C 
ATOM     11  O   UNL     1      -5.260  29.815  16.046  1.00  0.00    -0.275 OA
ATOM     12  N   UNL     1      -7.018  28.339  16.495  1.00  0.00    -0.352 N 
ATOM     13  H   UNL     1      -7.891  27.897  16.130  1.00  0.00     0.163 HD
BRANCH  12  14
ATOM     14  C   UNL     1      -6.541  27.910  17.805  1.00  0.00     0.151 C 
BRANCH  14  15
ATOM     15  C   UNL     1      -7.575  28.243  18.843  1.00  0.00    -0.025 A 
ATOM     16  C   UNL     1      -8.849  28.685  18.453  1.00  0.00     0.056 A 
ATOM     17  C   UNL     1      -7.315  28.005  20.202  1.00  0.00     0.009 A 
ATOM     18  C   UNL     1      -9.860  28.902  19.412  1.00  0.00     0.160 A 
ATOM     19  C   UNL     1      -8.311  28.215  21.158  1.00  0.00     0.050 A 
ATOM     20  C   UNL     1      -9.578  28.659  20.772  1.00  0.00     0.157 A 
BRANCH  18  21
ATOM     21  O   UNL     1     -11.150  29.320  19.052  1.00  0.00    -0.493 OA
ATOM     22  C   UNL     1     -12.296  28.472  19.042  1.00  0.00     0.278 C 
ENDBRANCH  18  21
BRANCH  20  23
ATOM     23  O   UNL     1     -10.554  28.847  21.749  1.00  0.00    -0.504 OA
ATOM     24  H   UNL     1     -10.534  28.351  22.632  1.00  0.00     0.293 HD
ENDBRANCH  20  23
ENDBRANCH  14  15
ENDBRANCH  12  14
ENDBRANCH   9  10
ENDBRANCH   1   9
TORSDOF 10
ENDMDL
MODEL 3
REMARK VINA RESULT:    -6.930      2.249      5.884
REMARK INTER + INTRA:         -12.277
REMARK INTER:                 -11.017
REMARK INTRA:                  -1.260
REMARK UNBOUND:                -1.498
REMARK SMILES COc1cc(CNC(=O)CCCCC=CC(C)C)ccc1O
REMARK SMILES IDX 11 1 12 2 13 3 14 4 15 5 16 6 17 7 18 8 10 9 8 10 9 11 7 12
REMARK SMILES IDX 6 14 5 15 4 16 19 17 3 18 20 19 21 20 2 21 1 22 22 23
REMARK H PARENT 7 13 22 24
REMARK Flexibility Score: inf
ROOT
ATOM      1  C   UNL     1      -9.080  29.326  13.649  1.00  0.00     0.010 C 
ENDROOT
BRANCH   1   2
ATOM      2  C   UNL     1      -8.866  29.563  12.142  1.00  0.00     0.005 C 
BRANCH   2   3
ATOM      3  C   UNL     1      -7.387  29.732  11.756  1.00  0.00     0.027 C 
BRANCH   3   4
ATOM      4  C   UNL     1      -6.588  28.477  12.014  1.00  0.00    -0.031 C 
ATOM      5  C   UNL     1      -5.543  28.375  12.860  1.00  0.00    -0.028 C 
BRANCH   5   6
ATOM      6  C   UNL     1      -5.044  29.488  13.757  1.00  0.00     0.005 C 
ATOM      7  C   UNL     1      -5.702  29.386  15.138  1.00  0.00     0.012 C 
ATOM      8  C   UNL     1      -3.517  29.421  13.892  1.00  0.00     0.012 C 
ENDBRANCH   5   6
ENDBRANCH   3   4
ENDBRANCH   2   3
ENDBRANCH   1   2
BRANCH   1   9
ATOM      9  C   UNL     1      -9.848  28.030  13.943  1.00  0.00     0.100 C 
BRANCH   9  10
ATOM     10  C   UNL     1     -10.160  27.910  15.409  1.00  0.00     0.220 C 
ATOM     11  O   UNL     1     -11.101  27.159  15.787  1.00  0.00    -0.275 OA
ATOM     12  N   UNL     1      -9.383  28.632  16.375  1.00  0.00    -0.352 N 
ATOM     13  H   UNL     1      -8.499  29.097  16.068  1.00  0.00     0.163 HD
BRANCH  12  14
ATOM     14  C   UNL     1      -9.924  29.003  17.678  1.00  0.00     0.151 C 
BRANCH  14  15
ATOM     15  C   UNL     1      -8.905  28.705  18.741  1.00  0.00    -0.025 A 
ATOM     16  C   UNL     1      -7.620  28.266  18.384  1.00  0.00     0.056 A 
ATOM     17  C   UNL     1      -9.191  28.972  20.089  1.00  0.00     0.009 A 
ATOM     18  C   UNL     1      -6.625  28.081  19.366  1.00  0.00     0.160 A 
ATOM     19  C   UNL     1      -8.210  28.793  21.067  1.00  0.00     0.050 A 
ATOM     20  C   UNL     1      -6.933  28.352  20.714  1.00  0.00     0.157 A 
BRANCH  18  21
ATOM     21  O   UNL     1      -5.324  27.668  19.037  1.00  0.00    -0.493 OA
ATOM     22  C   UNL     1      -4.212  28.548  18.898  1.00  0.00     0.278 C 
ENDBRANCH  18  21
BRANCH  20  23
ATOM     23  O   UNL     1      -5.973  28.197  21.712  1.00  0.00    -0.504 OA
ATOM     24  H   UNL     1      -5.738  28.944  22.355  1.00  0.00     0.293 HD
ENDBRANCH  20  23
ENDBRANCH  14  15
ENDBRANCH  12  14
ENDBRANCH   9  10
ENDBRANCH   1   9
TORSDOF 10
ENDMDL
MODEL 4
REMARK VINA RESULT:    -6.913      2.454      5.309
REMARK INTER + INTRA:         -12.251
REMARK INTER:                 -10.932
REMARK INTRA:                  -1.319
REMARK UNBOUND:                -1.498
REMARK SMILES COc1cc(CNC(=O)CCCCC=CC(C)C)ccc1O
REMARK SMILES IDX 11 1 12 2 13 3 14 4 15 5 16 6 17 7 18 8 10 9 8 10 9 11 7 12
REMARK SMILES IDX 6 14 5 15 4 16 19 17 3 18 20 19 21 20 2 21 1 22 22 23
REMARK H PARENT 7 13 22 24
REMARK Flexibility Score: inf
ROOT
ATOM      1  C   UNL     1      -6.128  28.251  20.522  1.00  0.00     0.010 C 
ENDROOT
BRANCH   1   2
ATOM      2  C   UNL     1      -7.453  28.618  21.217  1.00  0.00     0.005 C 
BRANCH   2   3
ATOM      3  C   UNL     1      -8.694  28.289  20.371  1.00  0.00     0.027 C 
BRANCH   3   4
ATOM      4  C   UNL     1      -9.158  29.477  19.562  1.00  0.00    -0.031 C 
ATOM      5  C   UNL     1     -10.443  29.841  19.373  1.00  0.00    -0.028 C 
BRANCH   5   6
ATOM      6  C   UNL     1     -11.637  29.163  20.009  1.00  0.00     0.005 C 
ATOM      7  C   UNL     1     -12.554  30.208  20.655  1.00  0.00     0.012 C 
ATOM      8  C   UNL     1     -12.413  28.352  18.963  1.00  0.00     0.012 C 
ENDBRANCH   5   6
ENDBRANCH   3   4
ENDBRANCH   2   3
ENDBRANCH   1   2
BRANCH   1   9
ATOM      9  C   UNL     1      -6.326  27.313  19.323  1.00  0.00     0.100 C 
BRANCH   9  10
ATOM     10  C   UNL     1      -6.237  28.068  18.027  1.00  0.00     0.220 C 
ATOM     11  O   UNL     1      -5.466  29.063  17.936  1.00  0.00    -0.275 OA
ATOM     12  N   UNL     1      -7.012  27.653  16.893  1.00  0.00    -0.352 N 
ATOM     13  H   UNL     1      -7.498  26.728  16.924  1.00  0.00     0.163 HD
BRANCH  12  14
ATOM     14  C   UNL     1      -7.401  28.585  15.841  1.00  0.00     0.151 C 
BRANCH  14  15
ATOM     15  C   UNL     1      -8.811  28.289  15.412  1.00  0.00    -0.025 A 
ATOM     16  C   UNL     1      -9.200  28.495  14.079  1.00  0.00     0.056 A 
ATOM     17  C   UNL     1      -9.713  27.697  16.309  1.00  0.00     0.009 A 
ATOM     18  C   UNL     1     -10.488  28.125  13.641  1.00  0.00     0.160 A 
ATOM     19  C   UNL     1     -10.990  27.326  15.883  1.00  0.00     0.050 A 
ATOM     20  C   UNL     1     -11.380  27.534  14.558  1.00  0.00     0.157 A 
BRANCH  18  21
ATOM     21  O   UNL     1     -10.898  28.295  12.309  1.00  0.00    -0.493 OA
ATOM     22  C   UNL     1     -11.398  29.517  11.772  1.00  0.00     0.278 C 
ENDBRANCH  18  21
BRANCH  20  23
ATOM     23  O   UNL     1     -12.657  27.140  14.161  1.00  0.00    -0.504 OA
ATOM     24  H   UNL     1     -13.476  27.312  14.732  1.00  0.00     0.293 HD
ENDBRANCH  20  23
ENDBRANCH  14  15
ENDBRANCH  12  14
ENDBRANCH   9  10
ENDBRANCH   1   9
TORSDOF 10
ENDMDL
MODEL 5
REMARK VINA RESULT:    -6.680      2.349      7.613
REMARK INTER + INTRA:         -11.888
REMARK INTER:                 -10.332
REMARK INTRA:                  -1.557
REMARK UNBOUND:                -1.498
REMARK SMILES COc1cc(CNC(=O)CCCCC=CC(C)C)ccc1O
REMARK SMILES IDX 11 1 12 2 13 3 14 4 15 5 16 6 17 7 18 8 10 9 8 10 9 11 7 12
REMARK SMILES IDX 6 14 5 15 4 16 19 17 3 18 20 19 21 20 2 21 1 22 22 23
REMARK H PARENT 7 13 22 24
REMARK Flexibility Score: inf
ROOT
ATOM      1  C   UNL     1      -6.876  28.939  11.852  1.00  0.00     0.010 C 
ENDROOT
BRANCH   1   2
ATOM      2  C   UNL     1      -7.198  27.444  11.658  1.00  0.00     0.005 C 
BRANCH   2   3
ATOM      3  C   UNL     1      -8.643  27.079  12.039  1.00  0.00     0.027 C 
BRANCH   3   4
ATOM      4  C   UNL     1      -9.543  28.292  12.068  1.00  0.00    -0.031 C 
ATOM      5  C   UNL     1     -10.839  28.293  12.439  1.00  0.00    -0.028 C 
BRANCH   5   6
ATOM      6  C   UNL     1     -11.591  27.090  12.968  1.00  0.00     0.005 C 
ATOM      7  C   UNL     1     -12.789  27.545  13.808  1.00  0.00     0.012 C 
ATOM      8  C   UNL     1     -12.063  26.202  11.809  1.00  0.00     0.012 C 
ENDBRANCH   5   6
ENDBRANCH   3   4
ENDBRANCH   2   3
ENDBRANCH   1   2
BRANCH   1   9
ATOM      9  C   UNL     1      -5.411  29.185  12.240  1.00  0.00     0.100 C 
BRANCH   9  10
ATOM     10  C   UNL     1      -5.280  29.436  13.717  1.00  0.00     0.220 C 
ATOM     11  O   UNL     1      -4.155  29.741  14.200  1.00  0.00    -0.275 OA
ATOM     12  N   UNL     1      -6.430  29.346  14.570  1.00  0.00    -0.352 N 
ATOM     13  H   UNL     1      -7.378  29.278  14.136  1.00  0.00     0.163 HD
BRANCH  12  14
ATOM     14  C   UNL     1      -6.313  29.034  15.991  1.00  0.00     0.151 C 
BRANCH  14  15
ATOM     15  C   UNL     1      -7.665  28.660  16.529  1.00  0.00    -0.025 A 
ATOM     16  C   UNL     1      -7.951  28.826  17.894  1.00  0.00     0.056 A 
ATOM     17  C   UNL     1      -8.685  28.252  15.656  1.00  0.00     0.009 A 
ATOM     18  C   UNL     1      -9.246  28.576  18.392  1.00  0.00     0.160 A 
ATOM     19  C   UNL     1      -9.971  28.004  16.142  1.00  0.00     0.050 A 
ATOM     20  C   UNL     1     -10.256  28.164  17.499  1.00  0.00     0.157 A 
BRANCH  18  21
ATOM     21  O   UNL     1      -9.570  28.757  19.746  1.00  0.00    -0.493 OA
ATOM     22  C   UNL     1      -8.656  28.569  20.823  1.00  0.00     0.278 C 
ENDBRANCH  18  21
BRANCH  20  23
ATOM     23  O   UNL     1     -11.553  27.922  17.949  1.00  0.00    -0.504 OA
ATOM     24  H   UNL     1     -12.113  27.156  17.592  1.00  0.00     0.293 HD
ENDBRANCH  20  23
ENDBRANCH  14  15
ENDBRANCH  12  14
ENDBRANCH   9  10
ENDBRANCH   1   9
TORSDOF 10
ENDMDL
MODEL 6
REMARK VINA RESULT:    -6.640      2.609      5.269
REMARK INTER + INTRA:         -11.826
REMARK INTER:                 -10.788
REMARK INTRA:                  -1.038
REMARK UNBOUND:                -1.498
REMARK SMILES COc1cc(CNC(=O)CCCCC=CC(C)C)ccc1O
REMARK SMILES IDX 11 1 12 2 13 3 14 4 15 5 16 6 17 7 18 8 10 9 8 10 9 11 7 12
REMARK SMILES IDX 6 14 5 15 4 16 19 17 3 18 20 19 21 20 2 21 1 22 22 23
REMARK H PARENT 7 13 22 24
REMARK Flexibility Score: inf
ROOT
ATOM      1  C   UNL     1      -6.862  28.272  17.021  1.00  0.00     0.010 C 
ENDROOT
BRANCH   1   2
ATOM      2  C   UNL     1      -6.221  28.246  18.421  1.00  0.00     0.005 C 
BRANCH   2   3
ATOM      3  C   UNL     1      -7.119  27.601  19.490  1.00  0.00     0.027 C 
BRANCH   3   4
ATOM      4  C   UNL     1      -7.645  28.617  20.475  1.00  0.00    -0.031 C 
ATOM      5  C   UNL     1      -8.895  29.122  20.485  1.00  0.00    -0.028 C 
BRANCH   5   6
ATOM      6  C   UNL     1     -10.010  28.692  19.555  1.00  0.00     0.005 C 
ATOM      7  C   UNL     1     -11.372  29.004  20.187  1.00  0.00     0.012 C 
ATOM      8  C   UNL     1      -9.880  29.401  18.200  1.00  0.00     0.012 C 
ENDBRANCH   5   6
ENDBRANCH   3   4
ENDBRANCH   2   3
ENDBRANCH   1   2
BRANCH   1   9
ATOM      9  C   UNL     1      -6.328  29.414  16.145  1.00  0.00     0.100 C 
BRANCH   9  10
ATOM     10  C   UNL     1      -6.143  28.961  14.723  1.00  0.00     0.220 C 
ATOM     11  O   UNL     1      -5.293  29.537  13.990  1.00  0.00    -0.275 OA
ATOM     12  N   UNL     1      -6.918  27.870  14.206  1.00  0.00    -0.352 N 
ATOM     13  H   UNL     1      -7.477  27.286  14.869  1.00  0.00     0.163 HD
BRANCH  12  14
ATOM     14  C   UNL     1      -7.202  27.732  12.782  1.00  0.00     0.151 C 
BRANCH  14  15
ATOM     15  C   UNL     1      -8.437  28.519  12.444  1.00  0.00    -0.025 A 
ATOM     16  C   UNL     1      -9.696  28.075  12.877  1.00  0.00     0.056 A 
ATOM     17  C   UNL     1      -8.329  29.759  11.795  1.00  0.00     0.009 A 
ATOM     18  C   UNL     1     -10.849  28.857  12.655  1.00  0.00     0.160 A 
ATOM     19  C   UNL     1      -9.466  30.540  11.573  1.00  0.00     0.050 A 
ATOM     20  C   UNL     1     -10.720  30.098  12.000  1.00  0.00     0.157 A 
BRANCH  18  21
ATOM     21  O   UNL     1     -12.118  28.453  13.099  1.00  0.00    -0.493 OA
ATOM     22  C   UNL     1     -12.371  27.256  13.830  1.00  0.00     0.278 C 
ENDBRANCH  18  21
BRANCH  20  23
ATOM     23  O   UNL     1     -11.833  30.906  11.775  1.00  0.00    -0.504 OA
ATOM     24  H   UNL     1     -12.751  30.673  12.136  1.00  0.00     0.293 HD
ENDBRANCH  20  23
ENDBRANCH  14  15
ENDBRANCH  12  14
ENDBRANCH   9  10
ENDBRANCH   1   9
TORSDOF 10
ENDMDL
MODEL 7
REMARK VINA RESULT:    -6.518      1.648      2.783
REMARK INTER + INTRA:         -11.636
REMARK INTER:                 -10.474
REMARK INTRA:                  -1.162
REMARK UNBOUND:                -1.498
REMARK SMILES COc1cc(CNC(=O)CCCCC=CC(C)C)ccc1O
REMARK SMILES IDX 11 1 12 2 13 3 14 4 15 5 16 6 17 7 18 8 10 9 8 10 9 11 7 12
REMARK SMILES IDX 6 14 5 15 4 16 19 17 3 18 20 19 21 20 2 21 1 22 22 23
REMARK H PARENT 7 13 22 24
REMARK Flexibility Score: inf
ROOT
ATOM      1  C   UNL     1     -10.310  28.574  17.817  1.00  0.00     0.010 C 
ENDROOT
BRANCH   1   2
ATOM      2  C   UNL     1      -9.667  29.293  19.019  1.00  0.00     0.005 C 
BRANCH   2   3
ATOM      3  C   UNL     1      -9.285  28.339  20.164  1.00  0.00     0.027 C 
BRANCH   3   4
ATOM      4  C   UNL     1      -8.009  28.763  20.851  1.00  0.00    -0.031 C 
ATOM      5  C   UNL     1      -6.763  28.430  20.458  1.00  0.00    -0.028 C 
BRANCH   5   6
ATOM      6  C   UNL     1      -6.430  27.638  19.211  1.00  0.00     0.005 C 
ATOM      7  C   UNL     1      -6.130  28.589  18.048  1.00  0.00     0.012 C 
ATOM      8  C   UNL     1      -5.229  26.718  19.467  1.00  0.00     0.012 C 
ENDBRANCH   5   6
ENDBRANCH   3   4
ENDBRANCH   2   3
ENDBRANCH   1   2
BRANCH   1   9
ATOM      9  C   UNL     1      -9.274  28.086  16.794  1.00  0.00     0.100 C 
BRANCH   9  10
ATOM     10  C   UNL     1      -9.744  28.342  15.389  1.00  0.00     0.220 C 
ATOM     11  O   UNL     1     -10.679  27.645  14.908  1.00  0.00    -0.275 OA
ATOM     12  N   UNL     1      -9.144  29.382  14.605  1.00  0.00    -0.352 N 
ATOM     13  H   UNL     1      -8.507  30.067  15.073  1.00  0.00     0.163 HD
BRANCH  12  14
ATOM     14  C   UNL     1      -9.134  29.340  13.146  1.00  0.00     0.151 C 
BRANCH  14  15
ATOM     15  C   UNL     1      -7.933  28.568  12.679  1.00  0.00    -0.025 A 
ATOM     16  C   UNL     1      -6.644  28.964  13.071  1.00  0.00     0.056 A 
ATOM     17  C   UNL     1      -8.096  27.382  11.946  1.00  0.00     0.009 A 
ATOM     18  C   UNL     1      -5.518  28.189  12.724  1.00  0.00     0.160 A 
ATOM     19  C   UNL     1      -6.986  26.608  11.601  1.00  0.00     0.050 A 
ATOM     20  C   UNL     1      -5.703  27.004  11.986  1.00  0.00     0.157 A 
BRANCH  18  21
ATOM     21  O   UNL     1      -4.219  28.545  13.122  1.00  0.00    -0.493 OA
ATOM     22  C   UNL     1      -3.884  29.772  13.765  1.00  0.00     0.278 C 
ENDBRANCH  18  21
BRANCH  20  23
ATOM     23  O   UNL     1      -4.617  26.202  11.636  1.00  0.00    -0.504 OA
ATOM     24  H   UNL     1      -4.492  25.845  10.696  1.00  0.00     0.293 HD
ENDBRANCH  20  23
ENDBRANCH  14  15
ENDBRANCH  12  14
ENDBRANCH   9  10
ENDBRANCH   1   9
TORSDOF 10
ENDMDL
MODEL 8
REMARK VINA RESULT:    -6.187      2.266      4.806
REMARK INTER + INTRA:         -11.120
REMARK INTER:                 -10.024
REMARK INTRA:                  -1.096
REMARK UNBOUND:                -1.498
REMARK SMILES COc1cc(CNC(=O)CCCCC=CC(C)C)ccc1O
REMARK SMILES IDX 11 1 12 2 13 3 14 4 15 5 16 6 17 7 18 8 10 9 8 10 9 11 7 12
REMARK SMILES IDX 6 14 5 15 4 16 19 17 3 18 20 19 21 20 2 21 1 22 22 23
REMARK H PARENT 7 13 22 24
REMARK Flexibility Score: inf
ROOT
ATOM      1  C   UNL     1      -6.855  27.309  19.429  1.00  0.00     0.010 C 
ENDROOT
BRANCH   1   2
ATOM      2  C   UNL     1      -7.229  28.240  20.599  1.00  0.00     0.005 C 
BRANCH   2   3
ATOM      3  C   UNL     1      -8.740  28.500  20.708  1.00  0.00     0.027 C 
BRANCH   3   4
ATOM      4  C   UNL     1      -9.182  29.642  19.824  1.00  0.00    -0.031 C 
ATOM      5  C   UNL     1     -10.456  29.910  19.472  1.00  0.00    -0.028 C 
BRANCH   5   6
ATOM      6  C   UNL     1     -11.670  29.155  19.972  1.00  0.00     0.005 C 
ATOM      7  C   UNL     1     -12.769  30.141  20.386  1.00  0.00     0.012 C 
ATOM      8  C   UNL     1     -12.193  28.204  18.888  1.00  0.00     0.012 C 
ENDBRANCH   5   6
ENDBRANCH   3   4
ENDBRANCH   2   3
ENDBRANCH   1   2
BRANCH   1   9
ATOM      9  C   UNL     1      -5.862  27.954  18.452  1.00  0.00     0.100 C 
BRANCH   9  10
ATOM     10  C   UNL     1      -6.581  28.591  17.295  1.00  0.00     0.220 C 
ATOM     11  O   UNL     1      -6.019  29.513  16.643  1.00  0.00    -0.275 OA
ATOM     12  N   UNL     1      -7.893  28.143  16.925  1.00  0.00    -0.352 N 
ATOM     13  H   UNL     1      -8.266  27.264  17.349  1.00  0.00     0.163 HD
BRANCH  12  14
ATOM     14  C   UNL     1      -8.838  29.013  16.233  1.00  0.00     0.151 C 
BRANCH  14  15
ATOM     15  C   UNL     1      -9.080  28.480  14.849  1.00  0.00    -0.025 A 
ATOM     16  C   UNL     1      -8.004  28.286  13.969  1.00  0.00     0.056 A 
ATOM     17  C   UNL     1     -10.366  28.065  14.467  1.00  0.00     0.009 A 
ATOM     18  C   UNL     1      -8.206  27.692  12.706  1.00  0.00     0.160 A 
ATOM     19  C   UNL     1     -10.574  27.473  13.219  1.00  0.00     0.050 A 
ATOM     20  C   UNL     1      -9.504  27.284  12.341  1.00  0.00     0.157 A 
BRANCH  18  21
ATOM     21  O   UNL     1      -7.147  27.462  11.814  1.00  0.00    -0.493 OA
ATOM     22  C   UNL     1      -6.096  26.525  12.039  1.00  0.00     0.278 C 
ENDBRANCH  18  21
BRANCH  20  23
ATOM     23  O   UNL     1      -9.743  26.679  11.108  1.00  0.00    -0.504 OA
ATOM     24  H   UNL     1     -10.662  26.674  10.679  1.00  0.00     0.293 HD
ENDBRANCH  20  23
ENDBRANCH  14  15
ENDBRANCH  12  14
ENDBRANCH   9  10
ENDBRANCH   1   9
TORSDOF 10
ENDMDL
MODEL 9
REMARK VINA RESULT:    -6.164      1.865      4.000
REMARK INTER + INTRA:         -11.085
REMARK INTER:                  -9.873
REMARK INTRA:                  -1.213
REMARK UNBOUND:                -1.498
REMARK SMILES COc1cc(CNC(=O)CCCCC=CC(C)C)ccc1O
REMARK SMILES IDX 11 1 12 2 13 3 14 4 15 5 16 6 17 7 18 8 10 9 8 10 9 11 7 12
REMARK SMILES IDX 6 14 5 15 4 16 19 17 3 18 20 19 21 20 2 21 1 22 22 23
REMARK H PARENT 7 13 22 24
REMARK Flexibility Score: inf
ROOT
ATOM      1  C   UNL     1      -7.223  27.916  17.545  1.00  0.00     0.010 C 
ENDROOT
BRANCH   1   2
ATOM      2  C   UNL     1      -7.137  27.816  19.080  1.00  0.00     0.005 C 
BRANCH   2   3
ATOM      3  C   UNL     1      -7.868  28.959  19.805  1.00  0.00     0.027 C 
BRANCH   3   4
ATOM      4  C   UNL     1      -8.809  28.443  20.867  1.00  0.00    -0.031 C 
ATOM      5  C   UNL     1     -10.151  28.578  20.854  1.00  0.00    -0.028 C 
BRANCH   5   6
ATOM      6  C   UNL     1     -10.949  29.201  19.728  1.00  0.00     0.005 C 
ATOM      7  C   UNL     1     -11.389  28.120  18.734  1.00  0.00     0.012 C 
ATOM      8  C   UNL     1     -12.173  29.939  20.284  1.00  0.00     0.012 C 
ENDBRANCH   5   6
ENDBRANCH   3   4
ENDBRANCH   2   3
ENDBRANCH   1   2
BRANCH   1   9
ATOM      9  C   UNL     1      -8.116  29.072  17.074  1.00  0.00     0.100 C 
BRANCH   9  10
ATOM     10  C   UNL     1      -8.936  28.667  15.880  1.00  0.00     0.220 C 
ATOM     11  O   UNL     1      -9.623  27.609  15.925  1.00  0.00    -0.275 OA
ATOM     12  N   UNL     1      -8.951  29.485  14.702  1.00  0.00    -0.352 N 
ATOM     13  H   UNL     1      -8.532  30.442  14.745  1.00  0.00     0.163 HD
BRANCH  12  14
ATOM     14  C   UNL     1      -9.238  28.933  13.383  1.00  0.00     0.151 C 
BRANCH  14  15
ATOM     15  C   UNL     1      -8.005  28.266  12.844  1.00  0.00    -0.025 A 
ATOM     16  C   UNL     1      -6.735  28.786  13.141  1.00  0.00     0.056 A 
ATOM     17  C   UNL     1      -8.106  27.056  12.139  1.00  0.00     0.009 A 
ATOM     18  C   UNL     1      -5.567  28.111  12.727  1.00  0.00     0.160 A 
ATOM     19  C   UNL     1      -6.955  26.381  11.728  1.00  0.00     0.050 A 
ATOM     20  C   UNL     1      -5.691  26.899  12.019  1.00  0.00     0.157 A 
BRANCH  18  21
ATOM     21  O   UNL     1      -4.284  28.592  13.030  1.00  0.00    -0.493 OA
ATOM     22  C   UNL     1      -4.025  29.758  13.808  1.00  0.00     0.278 C 
ENDBRANCH  18  21
BRANCH  20  23
ATOM     23  O   UNL     1      -4.562  26.194  11.606  1.00  0.00    -0.504 OA
ATOM     24  H   UNL     1      -4.233  25.369  12.095  1.00  0.00     0.293 HD
ENDBRANCH  20  23
ENDBRANCH  14  15
ENDBRANCH  12  14
ENDBRANCH   9  10
ENDBRANCH   1   9
TORSDOF 10
ENDMDL
