MODEL 1
REMARK VINA RESULT:    -2.785      0.000      0.000
REMARK INTER + INTRA:          -5.493
REMARK INTER:                  -4.413
REMARK INTRA:                  -1.080
REMARK UNBOUND:                -1.080
REMARK SMILES CCCCCCCCCCCC=O
REMARK SMILES IDX 7 1 6 2 5 3 4 4 3 5 2 6 1 7 8 8 9 9 10 10 11 11 12 12 13 13
REMARK H PARENT
REMARK Flexibility Score: inf
ROOT
ATOM      1  C   UNL     1       9.639  -3.531  -3.519  1.00  0.00     0.000 C 
ENDROOT
BRANCH   1   2
ATOM      2  C   UNL     1       8.161  -3.135  -3.364  1.00  0.00     0.000 C 
BRANCH   2   3
ATOM      3  C   UNL     1       7.204  -4.313  -3.603  1.00  0.00    -0.000 C 
BRANCH   3   4
ATOM      4  C   UNL     1       6.015  -4.258  -2.632  1.00  0.00    -0.000 C 
BRANCH   4   5
ATOM      5  C   UNL     1       6.443  -4.331  -1.155  1.00  0.00    -0.000 C 
BRANCH   5   6
ATOM      6  C   UNL     1       6.820  -5.739  -0.660  1.00  0.00    -0.003 C 
ATOM      7  C   UNL     1       7.676  -5.719   0.606  1.00  0.00     0.004 C 
ENDBRANCH   5   6
ENDBRANCH   4   5
ENDBRANCH   3   4
ENDBRANCH   2   3
ENDBRANCH   1   2
BRANCH   1   8
ATOM      8  C   UNL     1      10.002  -4.791  -2.721  1.00  0.00     0.000 C 
BRANCH   8   9
ATOM      9  C   UNL     1      10.424  -4.429  -1.289  1.00  0.00     0.000 C 
BRANCH   9  10
ATOM     10  C   UNL     1      11.937  -4.576  -1.062  1.00  0.00     0.008 C 
BRANCH  10  11
ATOM     11  C   UNL     1      12.627  -5.377  -2.175  1.00  0.00     0.072 C 
BRANCH  11  12
ATOM     12  C   UNL     1      13.542  -4.500  -2.974  1.00  0.00     0.224 C 
ATOM     13  O   UNL     1      13.227  -3.349  -3.232  1.00  0.00    -0.303 OA
ENDBRANCH  11  12
ENDBRANCH  10  11
ENDBRANCH   9  10
ENDBRANCH   8   9
ENDBRANCH   1   8
TORSDOF 10
ENDMDL
MODEL 2
REMARK VINA RESULT:    -2.756     11.535     14.057
REMARK INTER + INTRA:          -5.447
REMARK INTER:                  -4.330
REMARK INTRA:                  -1.117
REMARK UNBOUND:                -1.080
REMARK SMILES CCCCCCCCCCCC=O
REMARK SMILES IDX 7 1 6 2 5 3 4 4 3 5 2 6 1 7 8 8 9 9 10 10 11 11 12 12 13 13
REMARK H PARENT
REMARK Flexibility Score: inf
ROOT
ATOM      1  C   UNL     1      16.634   1.444   8.790  1.00  0.00     0.000 C 
ENDROOT
BRANCH   1   2
ATOM      2  C   UNL     1      16.318   2.527   7.746  1.00  0.00     0.000 C 
BRANCH   2   3
ATOM      3  C   UNL     1      17.485   3.504   7.533  1.00  0.00    -0.000 C 
BRANCH   3   4
ATOM      4  C   UNL     1      18.792   2.925   8.094  1.00  0.00    -0.000 C 
BRANCH   4   5
ATOM      5  C   UNL     1      19.999   3.163   7.168  1.00  0.00    -0.000 C 
BRANCH   5   6
ATOM      6  C   UNL     1      20.392   1.957   6.297  1.00  0.00    -0.003 C 
ATOM      7  C   UNL     1      19.722   0.656   6.737  1.00  0.00     0.004 C 
ENDBRANCH   5   6
ENDBRANCH   4   5
ENDBRANCH   3   4
ENDBRANCH   2   3
ENDBRANCH   1   2
BRANCH   1   8
ATOM      8  C   UNL     1      16.298   0.029   8.298  1.00  0.00     0.000 C 
BRANCH   8   9
ATOM      9  C   UNL     1      15.856   0.052   6.827  1.00  0.00     0.000 C 
BRANCH   9  10
ATOM     10  C   UNL     1      16.357  -1.169   6.039  1.00  0.00     0.008 C 
BRANCH  10  11
ATOM     11  C   UNL     1      16.495  -2.422   6.915  1.00  0.00     0.072 C 
BRANCH  11  12
ATOM     12  C   UNL     1      15.234  -3.231   6.891  1.00  0.00     0.224 C 
ATOM     13  O   UNL     1      14.403  -3.055   6.013  1.00  0.00    -0.303 OA
ENDBRANCH  11  12
ENDBRANCH  10  11
ENDBRANCH   9  10
ENDBRANCH   8   9
ENDBRANCH   1   8
TORSDOF 10
ENDMDL
MODEL 3
REMARK VINA RESULT:    -2.741     11.947     14.526
REMARK INTER + INTRA:          -5.423
REMARK INTER:                  -4.334
REMARK INTRA:                  -1.089
REMARK UNBOUND:                -1.080
REMARK SMILES CCCCCCCCCCCC=O
REMARK SMILES IDX 7 1 6 2 5 3 4 4 3 5 2 6 1 7 8 8 9 9 10 10 11 11 12 12 13 13
REMARK H PARENT
REMARK Flexibility Score: inf
ROOT
ATOM      1  C   UNL     1      17.534   3.479   7.623  1.00  0.00     0.000 C 
ENDROOT
BRANCH   1   2
ATOM      2  C   UNL     1      18.327   3.044   8.867  1.00  0.00     0.000 C 
BRANCH   2   3
ATOM      3  C   UNL     1      19.800   2.741   8.553  1.00  0.00    -0.000 C 
BRANCH   3   4
ATOM      4  C   UNL     1      20.144   3.132   7.109  1.00  0.00    -0.000 C 
BRANCH   4   5
ATOM      5  C   UNL     1      20.287   1.916   6.176  1.00  0.00    -0.000 C 
BRANCH   5   6
ATOM      6  C   UNL     1      20.153   0.549   6.870  1.00  0.00    -0.003 C 
ATOM      7  C   UNL     1      19.401  -0.480   6.026  1.00  0.00     0.004 C 
ENDBRANCH   5   6
ENDBRANCH   4   5
ENDBRANCH   3   4
ENDBRANCH   2   3
ENDBRANCH   1   2
BRANCH   1   8
ATOM      8  C   UNL     1      16.234   2.683   7.440  1.00  0.00     0.000 C 
BRANCH   8   9
ATOM      9  C   UNL     1      16.422   1.221   7.874  1.00  0.00     0.000 C 
BRANCH   9  10
ATOM     10  C   UNL     1      15.821   0.224   6.870  1.00  0.00     0.008 C 
BRANCH  10  11
ATOM     11  C   UNL     1      15.581  -1.163   7.484  1.00  0.00     0.072 C 
BRANCH  11  12
ATOM     12  C   UNL     1      15.715  -2.236   6.447  1.00  0.00     0.224 C 
ATOM     13  O   UNL     1      14.736  -2.866   6.080  1.00  0.00    -0.303 OA
ENDBRANCH  11  12
ENDBRANCH  10  11
ENDBRANCH   9  10
ENDBRANCH   8   9
ENDBRANCH   1   8
TORSDOF 10
ENDMDL
MODEL 4
REMARK VINA RESULT:    -2.694      1.456      2.813
REMARK INTER + INTRA:          -5.349
REMARK INTER:                  -4.240
REMARK INTRA:                  -1.108
REMARK UNBOUND:                -1.080
REMARK SMILES CCCCCCCCCCCC=O
REMARK SMILES IDX 7 1 6 2 5 3 4 4 3 5 2 6 1 7 8 8 9 9 10 10 11 11 12 12 13 13
REMARK H PARENT
REMARK Flexibility Score: inf
ROOT
ATOM      1  C   UNL     1       9.258  -3.553  -3.101  1.00  0.00     0.000 C 
ENDROOT
BRANCH   1   2
ATOM      2  C   UNL     1       7.884  -3.028  -2.653  1.00  0.00     0.000 C 
BRANCH   2   3
ATOM      3  C   UNL     1       6.758  -4.050  -2.879  1.00  0.00    -0.000 C 
BRANCH   3   4
ATOM      4  C   UNL     1       6.053  -3.800  -4.220  1.00  0.00    -0.000 C 
BRANCH   4   5
ATOM      5  C   UNL     1       6.292  -4.926  -5.242  1.00  0.00    -0.000 C 
BRANCH   5   6
ATOM      6  C   UNL     1       7.442  -4.667  -6.232  1.00  0.00    -0.003 C 
ATOM      7  C   UNL     1       8.578  -5.681  -6.108  1.00  0.00     0.004 C 
ENDBRANCH   5   6
ENDBRANCH   4   5
ENDBRANCH   3   4
ENDBRANCH   2   3
ENDBRANCH   1   2
BRANCH   1   8
ATOM      8  C   UNL     1       9.543  -4.974  -2.594  1.00  0.00     0.000 C 
BRANCH   8   9
ATOM      9  C   UNL     1      10.352  -4.938  -1.288  1.00  0.00     0.000 C 
BRANCH   9  10
ATOM     10  C   UNL     1      11.469  -3.884  -1.313  1.00  0.00     0.008 C 
BRANCH  10  11
ATOM     11  C   UNL     1      12.849  -4.490  -1.607  1.00  0.00     0.072 C 
BRANCH  11  12
ATOM     12  C   UNL     1      13.228  -4.281  -3.042  1.00  0.00     0.224 C 
ATOM     13  O   UNL     1      12.858  -3.283  -3.640  1.00  0.00    -0.303 OA
ENDBRANCH  11  12
ENDBRANCH  10  11
ENDBRANCH   9  10
ENDBRANCH   8   9
ENDBRANCH   1   8
TORSDOF 10
ENDMDL
MODEL 5
REMARK VINA RESULT:    -2.619     10.713     12.563
REMARK INTER + INTRA:          -5.230
REMARK INTER:                  -3.650
REMARK INTRA:                  -1.581
REMARK UNBOUND:                -1.080
REMARK SMILES CCCCCCCCCCCC=O
REMARK SMILES IDX 7 1 6 2 5 3 4 4 3 5 2 6 1 7 8 8 9 9 10 10 11 11 12 12 13 13
REMARK H PARENT
REMARK Flexibility Score: inf
ROOT
ATOM      1  C   UNL     1       9.131   3.953  -9.494  1.00  0.00     0.000 C 
ENDROOT
BRANCH   1   2
ATOM      2  C   UNL     1       8.943   3.165  -8.188  1.00  0.00     0.000 C 
BRANCH   2   3
ATOM      3  C   UNL     1       8.782   4.078  -6.962  1.00  0.00    -0.000 C 
BRANCH   3   4
ATOM      4  C   UNL     1       7.300   4.375  -6.692  1.00  0.00    -0.000 C 
BRANCH   4   5
ATOM      5  C   UNL     1       6.965   5.876  -6.772  1.00  0.00    -0.000 C 
BRANCH   5   6
ATOM      6  C   UNL     1       6.181   6.298  -8.027  1.00  0.00    -0.003 C 
ATOM      7  C   UNL     1       5.667   5.109  -8.839  1.00  0.00     0.004 C 
ENDBRANCH   5   6
ENDBRANCH   4   5
ENDBRANCH   3   4
ENDBRANCH   2   3
ENDBRANCH   1   2
BRANCH   1   8
ATOM      8  C   UNL     1       9.897   5.268  -9.289  1.00  0.00     0.000 C 
BRANCH   8   9
ATOM      9  C   UNL     1       9.243   6.412 -10.078  1.00  0.00     0.000 C 
BRANCH   9  10
ATOM     10  C   UNL     1       9.472   7.786  -9.428  1.00  0.00     0.008 C 
BRANCH  10  11
ATOM     11  C   UNL     1       9.993   7.680  -7.988  1.00  0.00     0.072 C 
BRANCH  11  12
ATOM     12  C   UNL     1      10.217   9.041  -7.400  1.00  0.00     0.224 C 
ATOM     13  O   UNL     1       9.942   9.262  -6.231  1.00  0.00    -0.303 OA
ENDBRANCH  11  12
ENDBRANCH  10  11
ENDBRANCH   9  10
ENDBRANCH   8   9
ENDBRANCH   1   8
TORSDOF 10
ENDMDL
MODEL 6
REMARK VINA RESULT:    -2.608     10.564     12.455
REMARK INTER + INTRA:          -5.213
REMARK INTER:                  -3.703
REMARK INTRA:                  -1.510
REMARK UNBOUND:                -1.080
REMARK SMILES CCCCCCCCCCCC=O
REMARK SMILES IDX 7 1 6 2 5 3 4 4 3 5 2 6 1 7 8 8 9 9 10 10 11 11 12 12 13 13
REMARK H PARENT
REMARK Flexibility Score: inf
ROOT
ATOM      1  C   UNL     1       9.940   7.545  -9.109  1.00  0.00     0.000 C 
ENDROOT
BRANCH   1   2
ATOM      2  C   UNL     1       9.649   7.489  -7.601  1.00  0.00     0.000 C 
BRANCH   2   3
ATOM      3  C   UNL     1       8.149   7.596  -7.283  1.00  0.00    -0.000 C 
BRANCH   3   4
ATOM      4  C   UNL     1       7.341   7.907  -8.552  1.00  0.00    -0.000 C 
BRANCH   4   5
ATOM      5  C   UNL     1       6.337   6.797  -8.911  1.00  0.00    -0.000 C 
BRANCH   5   6
ATOM      6  C   UNL     1       6.084   5.768  -7.794  1.00  0.00    -0.003 C 
ATOM      7  C   UNL     1       5.465   4.469  -8.306  1.00  0.00     0.004 C 
ENDBRANCH   5   6
ENDBRANCH   4   5
ENDBRANCH   3   4
ENDBRANCH   2   3
ENDBRANCH   1   2
BRANCH   1   8
ATOM      8  C   UNL     1      10.402   6.194  -9.674  1.00  0.00     0.000 C 
BRANCH   8   9
ATOM      9  C   UNL     1       9.340   5.602 -10.614  1.00  0.00     0.000 C 
BRANCH   9  10
ATOM     10  C   UNL     1       8.881   4.201 -10.181  1.00  0.00     0.008 C 
BRANCH  10  11
ATOM     11  C   UNL     1       9.207   3.899  -8.711  1.00  0.00     0.072 C 
BRANCH  11  12
ATOM     12  C   UNL     1       8.695   2.547  -8.318  1.00  0.00     0.224 C 
ATOM     13  O   UNL     1       9.470   1.623  -8.130  1.00  0.00    -0.303 OA
ENDBRANCH  11  12
ENDBRANCH  10  11
ENDBRANCH   9  10
ENDBRANCH   8   9
ENDBRANCH   1   8
TORSDOF 10
ENDMDL
MODEL 7
REMARK VINA RESULT:    -2.603     11.072     12.792
REMARK INTER + INTRA:          -5.205
REMARK INTER:                  -3.961
REMARK INTRA:                  -1.244
REMARK UNBOUND:                -1.080
REMARK SMILES CCCCCCCCCCCC=O
REMARK SMILES IDX 7 1 6 2 5 3 4 4 3 5 2 6 1 7 8 8 9 9 10 10 11 11 12 12 13 13
REMARK H PARENT
REMARK Flexibility Score: inf
ROOT
ATOM      1  C   UNL     1       9.944   5.816 -10.108  1.00  0.00     0.000 C 
ENDROOT
BRANCH   1   2
ATOM      2  C   UNL     1       9.083   4.643 -10.602  1.00  0.00     0.000 C 
BRANCH   2   3
ATOM      3  C   UNL     1       8.491   3.815  -9.450  1.00  0.00    -0.000 C 
BRANCH   3   4
ATOM      4  C   UNL     1       9.495   3.690  -8.295  1.00  0.00    -0.000 C 
BRANCH   4   5
ATOM      5  C   UNL     1       8.904   4.114  -6.938  1.00  0.00    -0.000 C 
BRANCH   5   6
ATOM      6  C   UNL     1       7.375   3.980  -6.828  1.00  0.00    -0.003 C 
ATOM      7  C   UNL     1       6.694   5.263  -6.353  1.00  0.00     0.004 C 
ENDBRANCH   5   6
ENDBRANCH   4   5
ENDBRANCH   3   4
ENDBRANCH   2   3
ENDBRANCH   1   2
BRANCH   1   8
ATOM      8  C   UNL     1       9.176   7.144 -10.077  1.00  0.00     0.000 C 
BRANCH   8   9
ATOM      9  C   UNL     1       8.673   7.453  -8.658  1.00  0.00     0.000 C 
BRANCH   9  10
ATOM     10  C   UNL     1       9.820   7.695  -7.663  1.00  0.00     0.008 C 
BRANCH  10  11
ATOM     11  C   UNL     1      10.618   8.968  -7.977  1.00  0.00     0.072 C 
BRANCH  11  12
ATOM     12  C   UNL     1      10.519   9.951  -6.851  1.00  0.00     0.224 C 
ATOM     13  O   UNL     1       9.827   9.706  -5.875  1.00  0.00    -0.303 OA
ENDBRANCH  11  12
ENDBRANCH  10  11
ENDBRANCH   9  10
ENDBRANCH   8   9
ENDBRANCH   1   8
TORSDOF 10
ENDMDL
MODEL 8
REMARK VINA RESULT:    -2.557     10.477     12.640
REMARK INTER + INTRA:          -5.133
REMARK INTER:                  -3.875
REMARK INTRA:                  -1.258
REMARK UNBOUND:                -1.080
REMARK SMILES CCCCCCCCCCCC=O
REMARK SMILES IDX 7 1 6 2 5 3 4 4 3 5 2 6 1 7 8 8 9 9 10 10 11 11 12 12 13 13
REMARK H PARENT
REMARK Flexibility Score: inf
ROOT
ATOM      1  C   UNL     1       8.539   7.500  -8.689  1.00  0.00     0.000 C 
ENDROOT
BRANCH   1   2
ATOM      2  C   UNL     1       9.404   7.448  -9.960  1.00  0.00     0.000 C 
BRANCH   2   3
ATOM      3  C   UNL     1       9.699   6.011 -10.417  1.00  0.00    -0.000 C 
BRANCH   3   4
ATOM      4  C   UNL     1       9.903   5.083  -9.211  1.00  0.00    -0.000 C 
BRANCH   4   5
ATOM      5  C   UNL     1       9.098   3.775  -9.317  1.00  0.00    -0.000 C 
BRANCH   5   6
ATOM      6  C   UNL     1       9.140   2.887  -8.060  1.00  0.00    -0.003 C 
ATOM      7  C   UNL     1       9.898   3.529  -6.899  1.00  0.00     0.004 C 
ENDBRANCH   5   6
ENDBRANCH   4   5
ENDBRANCH   3   4
ENDBRANCH   2   3
ENDBRANCH   1   2
BRANCH   1   8
ATOM      8  C   UNL     1       7.037   7.403  -8.989  1.00  0.00     0.000 C 
BRANCH   8   9
ATOM      9  C   UNL     1       6.387   6.276  -8.172  1.00  0.00     0.000 C 
BRANCH   9  10
ATOM     10  C   UNL     1       7.188   5.922  -6.909  1.00  0.00     0.008 C 
BRANCH  10  11
ATOM     11  C   UNL     1       6.348   5.174  -5.865  1.00  0.00     0.072 C 
BRANCH  11  12
ATOM     12  C   UNL     1       5.441   6.118  -5.134  1.00  0.00     0.224 C 
ATOM     13  O   UNL     1       5.800   6.632  -4.086  1.00  0.00    -0.303 OA
ENDBRANCH  11  12
ENDBRANCH  10  11
ENDBRANCH   9  10
ENDBRANCH   8   9
ENDBRANCH   1   8
TORSDOF 10
ENDMDL
MODEL 9
REMARK VINA RESULT:    -2.545      9.884     12.073
REMARK INTER + INTRA:          -5.113
REMARK INTER:                  -3.675
REMARK INTRA:                  -1.438
REMARK UNBOUND:                -1.080
REMARK SMILES CCCCCCCCCCCC=O
REMARK SMILES IDX 7 1 6 2 5 3 4 4 3 5 2 6 1 7 8 8 9 9 10 10 11 11 12 12 13 13
REMARK H PARENT
REMARK Flexibility Score: inf
ROOT
ATOM      1  C   UNL     1       5.468   4.804  -8.350  1.00  0.00     0.000 C 
ENDROOT
BRANCH   1   2
ATOM      2  C   UNL     1       6.277   4.179  -9.499  1.00  0.00     0.000 C 
BRANCH   2   3
ATOM      3  C   UNL     1       7.389   5.106 -10.013  1.00  0.00    -0.000 C 
BRANCH   3   4
ATOM      4  C   UNL     1       8.770   4.463  -9.821  1.00  0.00    -0.000 C 
BRANCH   4   5
ATOM      5  C   UNL     1       9.439   4.864  -8.493  1.00  0.00    -0.000 C 
BRANCH   5   6
ATOM      6  C   UNL     1       9.593   3.720  -7.476  1.00  0.00    -0.003 C 
ATOM      7  C   UNL     1       9.105   2.374  -8.011  1.00  0.00     0.004 C 
ENDBRANCH   5   6
ENDBRANCH   4   5
ENDBRANCH   3   4
ENDBRANCH   2   3
ENDBRANCH   1   2
BRANCH   1   8
ATOM      8  C   UNL     1       5.638   4.046  -7.026  1.00  0.00     0.000 C 
BRANCH   8   9
ATOM      9  C   UNL     1       6.452   4.876  -6.021  1.00  0.00     0.000 C 
BRANCH   9  10
ATOM     10  C   UNL     1       6.660   6.327  -6.482  1.00  0.00     0.008 C 
BRANCH  10  11
ATOM     11  C   UNL     1       6.051   7.350  -5.513  1.00  0.00     0.072 C 
BRANCH  11  12
ATOM     12  C   UNL     1       5.569   6.678  -4.263  1.00  0.00     0.224 C 
ATOM     13  O   UNL     1       5.678   7.234  -3.181  1.00  0.00    -0.303 OA
ENDBRANCH  11  12
ENDBRANCH  10  11
ENDBRANCH   9  10
ENDBRANCH   8   9
ENDBRANCH   1   8
TORSDOF 10
ENDMDL
