MODEL 1
REMARK VINA RESULT:    -6.048      0.000      0.000
REMARK INTER + INTRA:          -6.224
REMARK INTER:                  -6.224
REMARK INTRA:                   0.000
REMARK UNBOUND:                 0.000
REMARK SMILES Oc1ccc2[nH]ccc2c1
REMARK SMILES IDX 3 1 4 2 5 3 9 4 8 5 7 6 6 7 10 8 2 9 1 11
REMARK H PARENT 6 10 1 12
REMARK Flexibility Score: inf
ROOT
ATOM      1  C   UNL     1      -4.903  19.480  13.739  1.00  0.00     0.048 A 
ATOM      2  C   UNL     1      -4.485  18.491  12.831  1.00  0.00     0.030 A 
ATOM      3  C   UNL     1      -3.245  17.890  13.048  1.00  0.00     0.046 A 
ATOM      4  C   UNL     1      -2.450  18.243  14.106  1.00  0.00     0.003 A 
ATOM      5  C   UNL     1      -1.308  17.476  14.036  1.00  0.00     0.028 A 
ATOM      6  C   UNL     1      -1.475  16.677  12.910  1.00  0.00     0.083 A 
ATOM      7  N   UNL     1      -2.659  16.934  12.309  1.00  0.00    -0.361 N 
ATOM      8  C   UNL     1      -2.835  19.218  15.023  1.00  0.00     0.056 A 
ATOM      9  C   UNL     1      -4.085  19.845  14.833  1.00  0.00     0.116 A 
ATOM     10  H   UNL     1      -3.037  16.479  11.448  1.00  0.00     0.166 HD
ENDROOT
BRANCH   9  11
ATOM     11  O   UNL     1      -4.524  20.827  15.718  1.00  0.00    -0.508 OA
ATOM     12  H   UNL     1      -5.290  21.446  15.483  1.00  0.00     0.293 HD
ENDBRANCH   9  11
TORSDOF 1
ENDMDL
MODEL 2
REMARK VINA RESULT:    -5.957      1.274      2.085
REMARK INTER + INTRA:          -6.131
REMARK INTER:                  -6.131
REMARK INTRA:                   0.000
REMARK UNBOUND:                 0.000
REMARK SMILES Oc1ccc2[nH]ccc2c1
REMARK SMILES IDX 3 1 4 2 5 3 9 4 8 5 7 6 6 7 10 8 2 9 1 11
REMARK H PARENT 6 10 1 12
REMARK Flexibility Score: inf
ROOT
ATOM      1  C   UNL     1      -3.763  19.335  15.010  1.00  0.00     0.048 A 
ATOM      2  C   UNL     1      -2.505  18.726  15.168  1.00  0.00     0.030 A 
ATOM      3  C   UNL     1      -2.058  17.883  14.151  1.00  0.00     0.046 A 
ATOM      4  C   UNL     1      -2.809  17.646  13.031  1.00  0.00     0.003 A 
ATOM      5  C   UNL     1      -2.094  16.780  12.232  1.00  0.00     0.028 A 
ATOM      6  C   UNL     1      -0.916  16.531  12.929  1.00  0.00     0.083 A 
ATOM      7  N   UNL     1      -0.899  17.206  14.100  1.00  0.00    -0.361 N 
ATOM      8  C   UNL     1      -4.058  18.233  12.844  1.00  0.00     0.056 A 
ATOM      9  C   UNL     1      -4.540  19.093  13.853  1.00  0.00     0.116 A 
ATOM     10  H   UNL     1      -0.138  17.201  14.816  1.00  0.00     0.166 HD
ENDROOT
BRANCH   9  11
ATOM     11  O   UNL     1      -5.782  19.709  13.722  1.00  0.00    -0.508 OA
ATOM     12  H   UNL     1      -6.127  20.018  12.821  1.00  0.00     0.293 HD
ENDBRANCH   9  11
TORSDOF 1
ENDMDL
MODEL 3
REMARK VINA RESULT:    -5.621      2.355      3.562
REMARK INTER + INTRA:          -5.785
REMARK INTER:                  -5.785
REMARK INTRA:                   0.000
REMARK UNBOUND:                 0.000
REMARK SMILES Oc1ccc2[nH]ccc2c1
REMARK SMILES IDX 3 1 4 2 5 3 9 4 8 5 7 6 6 7 10 8 2 9 1 11
REMARK H PARENT 6 10 1 12
REMARK Flexibility Score: inf
ROOT
ATOM      1  C   UNL     1      -1.869  16.930  12.375  1.00  0.00     0.048 A 
ATOM      2  C   UNL     1      -3.107  17.528  12.080  1.00  0.00     0.030 A 
ATOM      3  C   UNL     1      -3.682  18.347  13.051  1.00  0.00     0.046 A 
ATOM      4  C   UNL     1      -3.072  18.570  14.257  1.00  0.00     0.003 A 
ATOM      5  C   UNL     1      -3.889  19.412  14.981  1.00  0.00     0.028 A 
ATOM      6  C   UNL     1      -4.978  19.662  14.154  1.00  0.00     0.083 A 
ATOM      7  N   UNL     1      -4.848  19.009  12.976  1.00  0.00    -0.361 N 
ATOM      8  C   UNL     1      -1.846  17.993  14.580  1.00  0.00     0.056 A 
ATOM      9  C   UNL     1      -1.236  17.160  13.620  1.00  0.00     0.116 A 
ATOM     10  H   UNL     1      -5.519  19.020  12.175  1.00  0.00     0.166 HD
ENDROOT
BRANCH   9  11
ATOM     11  O   UNL     1      -0.010  16.555  13.886  1.00  0.00    -0.508 OA
ATOM     12  H   UNL     1       0.552  16.151  13.147  1.00  0.00     0.293 HD
ENDBRANCH   9  11
TORSDOF 1
ENDMDL
MODEL 4
REMARK VINA RESULT:    -5.584      7.652      9.569
REMARK INTER + INTRA:          -5.747
REMARK INTER:                  -5.747
REMARK INTRA:                   0.000
REMARK UNBOUND:                 0.000
REMARK SMILES Oc1ccc2[nH]ccc2c1
REMARK SMILES IDX 3 1 4 2 5 3 9 4 8 5 7 6 6 7 10 8 2 9 1 11
REMARK H PARENT 6 10 1 12
REMARK Flexibility Score: inf
ROOT
ATOM      1  C   UNL     1       4.953  12.172  12.000  1.00  0.00     0.048 A 
ATOM      2  C   UNL     1       4.727  13.525  12.313  1.00  0.00     0.030 A 
ATOM      3  C   UNL     1       3.575  13.842  13.031  1.00  0.00     0.046 A 
ATOM      4  C   UNL     1       2.684  12.879  13.425  1.00  0.00     0.003 A 
ATOM      5  C   UNL     1       1.667  13.513  14.105  1.00  0.00     0.028 A 
ATOM      6  C   UNL     1       2.004  14.862  14.088  1.00  0.00     0.083 A 
ATOM      7  N   UNL     1       3.169  15.059  13.431  1.00  0.00    -0.361 N 
ATOM      8  C   UNL     1       2.879  11.531  13.132  1.00  0.00     0.056 A 
ATOM      9  C   UNL     1       4.036  11.175  12.407  1.00  0.00     0.116 A 
ATOM     10  H   UNL     1       3.652  15.971  13.269  1.00  0.00     0.166 HD
ENDROOT
BRANCH   9  11
ATOM     11  O   UNL     1       4.284   9.844  12.084  1.00  0.00    -0.508 OA
ATOM     12  H   UNL     1       5.145   9.385  12.357  1.00  0.00     0.293 HD
ENDBRANCH   9  11
TORSDOF 1
ENDMDL
MODEL 5
REMARK VINA RESULT:    -5.567      8.437      9.465
REMARK INTER + INTRA:          -5.729
REMARK INTER:                  -5.729
REMARK INTRA:                   0.000
REMARK UNBOUND:                 0.000
REMARK SMILES Oc1ccc2[nH]ccc2c1
REMARK SMILES IDX 3 1 4 2 5 3 9 4 8 5 7 6 6 7 10 8 2 9 1 11
REMARK H PARENT 6 10 1 12
REMARK Flexibility Score: inf
ROOT
ATOM      1  C   UNL     1       4.152  11.932  12.009  1.00  0.00     0.048 A 
ATOM      2  C   UNL     1       3.257  11.694  13.068  1.00  0.00     0.030 A 
ATOM      3  C   UNL     1       3.115  12.688  14.036  1.00  0.00     0.046 A 
ATOM      4  C   UNL     1       3.819  13.862  13.970  1.00  0.00     0.003 A 
ATOM      5  C   UNL     1       3.457  14.620  15.062  1.00  0.00     0.028 A 
ATOM      6  C   UNL     1       2.529  13.846  15.751  1.00  0.00     0.083 A 
ATOM      7  N   UNL     1       2.324  12.667  15.120  1.00  0.00    -0.361 N 
ATOM      8  C   UNL     1       4.712  14.128  12.935  1.00  0.00     0.056 A 
ATOM      9  C   UNL     1       4.878  13.143  11.938  1.00  0.00     0.116 A 
ATOM     10  H   UNL     1       1.681  11.900  15.419  1.00  0.00     0.166 HD
ENDROOT
BRANCH   9  11
ATOM     11  O   UNL     1       5.757  13.353  10.878  1.00  0.00    -0.508 OA
ATOM     12  H   UNL     1       5.512  13.950  10.098  1.00  0.00     0.293 HD
ENDBRANCH   9  11
TORSDOF 1
ENDMDL
MODEL 6
REMARK VINA RESULT:    -5.529      2.624      4.069
REMARK INTER + INTRA:          -5.690
REMARK INTER:                  -5.690
REMARK INTRA:                   0.000
REMARK UNBOUND:                 0.000
REMARK SMILES Oc1ccc2[nH]ccc2c1
REMARK SMILES IDX 3 1 4 2 5 3 9 4 8 5 7 6 6 7 10 8 2 9 1 11
REMARK H PARENT 6 10 1 12
REMARK Flexibility Score: inf
ROOT
ATOM      1  C   UNL     1      -1.526  17.467  13.930  1.00  0.00     0.048 A 
ATOM      2  C   UNL     1      -2.333  18.295  14.731  1.00  0.00     0.030 A 
ATOM      3  C   UNL     1      -3.495  18.815  14.164  1.00  0.00     0.046 A 
ATOM      4  C   UNL     1      -3.852  18.538  12.871  1.00  0.00     0.003 A 
ATOM      5  C   UNL     1      -5.036  19.197  12.621  1.00  0.00     0.028 A 
ATOM      6  C   UNL     1      -5.343  19.856  13.806  1.00  0.00     0.083 A 
ATOM      7  N   UNL     1      -4.399  19.621  14.746  1.00  0.00    -0.361 N 
ATOM      8  C   UNL     1      -3.076  17.721  12.052  1.00  0.00     0.056 A 
ATOM      9  C   UNL     1      -1.893  17.177  12.595  1.00  0.00     0.116 A 
ATOM     10  H   UNL     1      -4.380  19.991  15.723  1.00  0.00     0.166 HD
ENDROOT
BRANCH   9  11
ATOM     11  O   UNL     1      -1.076  16.354  11.824  1.00  0.00    -0.508 OA
ATOM     12  H   UNL     1      -1.263  16.195  10.841  1.00  0.00     0.293 HD
ENDBRANCH   9  11
TORSDOF 1
ENDMDL
MODEL 7
REMARK VINA RESULT:    -5.399      8.612      9.478
REMARK INTER + INTRA:          -5.557
REMARK INTER:                  -5.557
REMARK INTRA:                   0.000
REMARK UNBOUND:                 0.000
REMARK SMILES Oc1ccc2[nH]ccc2c1
REMARK SMILES IDX 3 1 4 2 5 3 9 4 8 5 7 6 6 7 10 8 2 9 1 11
REMARK H PARENT 6 10 1 12
REMARK Flexibility Score: inf
ROOT
ATOM      1  C   UNL     1       5.269  15.404  15.738  1.00  0.00     0.048 A 
ATOM      2  C   UNL     1       6.241  16.399  15.530  1.00  0.00     0.030 A 
ATOM      3  C   UNL     1       6.264  17.036  14.290  1.00  0.00     0.046 A 
ATOM      4  C   UNL     1       5.376  16.713  13.298  1.00  0.00     0.003 A 
ATOM      5  C   UNL     1       5.662  17.513  12.213  1.00  0.00     0.028 A 
ATOM      6  C   UNL     1       6.736  18.300  12.615  1.00  0.00     0.083 A 
ATOM      7  N   UNL     1       7.101  18.005  13.883  1.00  0.00    -0.361 N 
ATOM      8  C   UNL     1       4.401  15.734  13.473  1.00  0.00     0.056 A 
ATOM      9  C   UNL     1       4.350  15.070  14.717  1.00  0.00     0.116 A 
ATOM     10  H   UNL     1       7.875  18.443  14.431  1.00  0.00     0.166 HD
ENDROOT
BRANCH   9  11
ATOM     11  O   UNL     1       3.397  14.081  14.950  1.00  0.00    -0.508 OA
ATOM     12  H   UNL     1       2.935  13.601  14.187  1.00  0.00     0.293 HD
ENDBRANCH   9  11
TORSDOF 1
ENDMDL
MODEL 8
REMARK VINA RESULT:    -5.347      8.433      9.379
REMARK INTER + INTRA:          -5.503
REMARK INTER:                  -5.503
REMARK INTRA:                   0.000
REMARK UNBOUND:                 0.000
REMARK SMILES Oc1ccc2[nH]ccc2c1
REMARK SMILES IDX 3 1 4 2 5 3 9 4 8 5 7 6 6 7 10 8 2 9 1 11
REMARK H PARENT 6 10 1 12
REMARK Flexibility Score: inf
ROOT
ATOM      1  C   UNL     1       2.519  11.864  13.146  1.00  0.00     0.048 A 
ATOM      2  C   UNL     1       2.257  13.178  13.572  1.00  0.00     0.030 A 
ATOM      3  C   UNL     1       3.250  14.136  13.376  1.00  0.00     0.046 A 
ATOM      4  C   UNL     1       4.447  13.821  12.789  1.00  0.00     0.003 A 
ATOM      5  C   UNL     1       5.199  14.975  12.744  1.00  0.00     0.028 A 
ATOM      6  C   UNL     1       4.397  15.954  13.321  1.00  0.00     0.083 A 
ATOM      7  N   UNL     1       3.208  15.437  13.706  1.00  0.00    -0.361 N 
ATOM      8  C   UNL     1       4.738  12.530  12.355  1.00  0.00     0.056 A 
ATOM      9  C   UNL     1       3.753  11.536  12.538  1.00  0.00     0.116 A 
ATOM     10  H   UNL     1       2.421  15.948  14.165  1.00  0.00     0.166 HD
ENDROOT
BRANCH   9  11
ATOM     11  O   UNL     1       3.987  10.227  12.124  1.00  0.00    -0.508 OA
ATOM     12  H   UNL     1       3.437   9.454  12.479  1.00  0.00     0.293 HD
ENDBRANCH   9  11
TORSDOF 1
ENDMDL
MODEL 9
REMARK VINA RESULT:    -5.293      6.792      8.249
REMARK INTER + INTRA:          -5.448
REMARK INTER:                  -5.448
REMARK INTRA:                   0.000
REMARK UNBOUND:                 0.000
REMARK SMILES Oc1ccc2[nH]ccc2c1
REMARK SMILES IDX 3 1 4 2 5 3 9 4 8 5 7 6 6 7 10 8 2 9 1 11
REMARK H PARENT 6 10 1 12
REMARK Flexibility Score: inf
ROOT
ATOM      1  C   UNL     1       3.282  15.620  13.486  1.00  0.00     0.048 A 
ATOM      2  C   UNL     1       4.393  14.811  13.186  1.00  0.00     0.030 A 
ATOM      3  C   UNL     1       4.180  13.441  13.045  1.00  0.00     0.046 A 
ATOM      4  C   UNL     1       2.937  12.886  13.194  1.00  0.00     0.003 A 
ATOM      5  C   UNL     1       3.066  11.528  12.996  1.00  0.00     0.028 A 
ATOM      6  C   UNL     1       4.416  11.326  12.731  1.00  0.00     0.083 A 
ATOM      7  N   UNL     1       5.093  12.496  12.763  1.00  0.00    -0.361 N 
ATOM      8  C   UNL     1       1.816  13.659  13.491  1.00  0.00     0.056 A 
ATOM      9  C   UNL     1       1.996  15.050  13.638  1.00  0.00     0.116 A 
ATOM     10  H   UNL     1       6.116  12.634  12.601  1.00  0.00     0.166 HD
ENDROOT
BRANCH   9  11
ATOM     11  O   UNL     1       0.913  15.874  13.935  1.00  0.00    -0.508 OA
ATOM     12  H   UNL     1      -0.023  15.652  13.617  1.00  0.00     0.293 HD
ENDBRANCH   9  11
TORSDOF 1
ENDMDL
