MODEL 1
REMARK VINA RESULT:    -4.092      0.000      0.000
REMARK INTER + INTRA:          -5.775
REMARK INTER:                  -5.528
REMARK INTRA:                  -0.247
REMARK UNBOUND:                -0.247
REMARK SMILES CCCCCCC=CC(=O)[O-]
REMARK SMILES IDX 5 1 6 2 7 3 8 4 9 5 10 6 11 7 4 8 3 9 2 10 1 11
REMARK H PARENT
REMARK Flexibility Score: inf
ROOT
ATOM      1  C   UNL     1      21.093  17.299  26.757  1.00  0.00     0.004 C 
ENDROOT
BRANCH   1   2
ATOM      2  C   UNL     1      21.907  16.079  26.308  1.00  0.00     0.027 C 
BRANCH   2   3
ATOM      3  C   UNL     1      22.407  16.245  24.902  1.00  0.00    -0.025 C 
ATOM      4  C   UNL     1      23.469  17.008  24.625  1.00  0.00     0.020 C 
BRANCH   4   5
ATOM      5  C   UNL     1      23.962  17.191  23.251  1.00  0.00     0.064 C 
ATOM      6  O   UNL     1      23.184  17.001  22.281  1.00  0.00    -0.545 OA
ATOM      7  O   UNL     1      25.277  17.571  23.007  1.00  0.00    -0.545 OA
ENDBRANCH   4   5
ENDBRANCH   2   3
ENDBRANCH   1   2
BRANCH   1   8
ATOM      8  C   UNL     1      21.886  18.149  27.760  1.00  0.00     0.000 C 
BRANCH   8   9
ATOM      9  C   UNL     1      21.031  18.631  28.946  1.00  0.00    -0.000 C 
BRANCH   9  10
ATOM     10  C   UNL     1      19.548  18.878  28.616  1.00  0.00    -0.003 C 
ATOM     11  C   UNL     1      18.898  19.917  29.528  1.00  0.00     0.004 C 
ENDBRANCH   9  10
ENDBRANCH   8   9
ENDBRANCH   1   8
TORSDOF 6
ENDMDL
MODEL 2
REMARK VINA RESULT:    -4.055     13.267     14.539
REMARK INTER + INTRA:          -5.725
REMARK INTER:                  -5.438
REMARK INTRA:                  -0.287
REMARK UNBOUND:                -0.247
REMARK SMILES CCCCCCC=CC(=O)[O-]
REMARK SMILES IDX 5 1 6 2 7 3 8 4 9 5 10 6 11 7 4 8 3 9 2 10 1 11
REMARK H PARENT
REMARK Flexibility Score: inf
ROOT
ATOM      1  C   UNL     1      21.862  33.417  27.814  1.00  0.00     0.004 C 
ENDROOT
BRANCH   1   2
ATOM      2  C   UNL     1      21.724  33.449  26.287  1.00  0.00     0.027 C 
BRANCH   2   3
ATOM      3  C   UNL     1      21.534  32.068  25.730  1.00  0.00    -0.025 C 
ATOM      4  C   UNL     1      21.591  31.831  24.415  1.00  0.00     0.020 C 
BRANCH   4   5
ATOM      5  C   UNL     1      21.393  30.486  23.854  1.00  0.00     0.064 C 
ATOM      6  O   UNL     1      21.572  29.476  24.583  1.00  0.00    -0.545 OA
ATOM      7  O   UNL     1      21.011  30.312  22.529  1.00  0.00    -0.545 OA
ENDBRANCH   4   5
ENDBRANCH   2   3
ENDBRANCH   1   2
BRANCH   1   8
ATOM      8  C   UNL     1      21.002  32.299  28.420  1.00  0.00     0.000 C 
BRANCH   8   9
ATOM      9  C   UNL     1      21.539  31.793  29.771  1.00  0.00    -0.000 C 
BRANCH   9  10
ATOM     10  C   UNL     1      21.918  32.900  30.772  1.00  0.00    -0.003 C 
ATOM     11  C   UNL     1      22.761  32.387  31.939  1.00  0.00     0.004 C 
ENDBRANCH   9  10
ENDBRANCH   8   9
ENDBRANCH   1   8
TORSDOF 6
ENDMDL
MODEL 3
REMARK VINA RESULT:    -3.955      3.977      6.430
REMARK INTER + INTRA:          -5.590
REMARK INTER:                  -5.310
REMARK INTRA:                  -0.280
REMARK UNBOUND:                -0.247
REMARK SMILES CCCCCCC=CC(=O)[O-]
REMARK SMILES IDX 5 1 6 2 7 3 8 4 9 5 10 6 11 7 4 8 3 9 2 10 1 11
REMARK H PARENT
REMARK Flexibility Score: inf
ROOT
ATOM      1  C   UNL     1      21.407  16.533  26.112  1.00  0.00     0.004 C 
ENDROOT
BRANCH   1   2
ATOM      2  C   UNL     1      22.122  17.614  26.933  1.00  0.00     0.027 C 
BRANCH   2   3
ATOM      3  C   UNL     1      21.152  18.384  27.781  1.00  0.00    -0.025 C 
ATOM      4  C   UNL     1      21.313  18.493  29.103  1.00  0.00     0.020 C 
BRANCH   4   5
ATOM      5  C   UNL     1      20.362  19.233  29.948  1.00  0.00     0.064 C 
ATOM      6  O   UNL     1      20.730  20.295  30.514  1.00  0.00    -0.545 OA
ATOM      7  O   UNL     1      19.062  18.777  30.131  1.00  0.00    -0.545 OA
ENDBRANCH   4   5
ENDBRANCH   2   3
ENDBRANCH   1   2
BRANCH   1   8
ATOM      8  C   UNL     1      22.272  16.082  24.926  1.00  0.00     0.000 C 
BRANCH   8   9
ATOM      9  C   UNL     1      23.536  16.942  24.743  1.00  0.00    -0.000 C 
BRANCH   9  10
ATOM     10  C   UNL     1      24.069  17.009  23.301  1.00  0.00    -0.003 C 
ATOM     11  C   UNL     1      23.017  16.636  22.257  1.00  0.00     0.004 C 
ENDBRANCH   9  10
ENDBRANCH   8   9
ENDBRANCH   1   8
TORSDOF 6
ENDMDL
MODEL 4
REMARK VINA RESULT:    -3.898     14.361     16.115
REMARK INTER + INTRA:          -5.513
REMARK INTER:                  -5.087
REMARK INTRA:                  -0.426
REMARK UNBOUND:                -0.247
REMARK SMILES CCCCCCC=CC(=O)[O-]
REMARK SMILES IDX 5 1 6 2 7 3 8 4 9 5 10 6 11 7 4 8 3 9 2 10 1 11
REMARK H PARENT
REMARK Flexibility Score: inf
ROOT
ATOM      1  C   UNL     1      22.164  33.589  32.437  1.00  0.00     0.004 C 
ENDROOT
BRANCH   1   2
ATOM      2  C   UNL     1      23.679  33.361  32.372  1.00  0.00     0.027 C 
BRANCH   2   3
ATOM      3  C   UNL     1      24.027  31.934  32.685  1.00  0.00    -0.025 C 
ATOM      4  C   UNL     1      23.719  31.382  33.863  1.00  0.00     0.020 C 
BRANCH   4   5
ATOM      5  C   UNL     1      24.066  29.990  34.188  1.00  0.00     0.064 C 
ATOM      6  O   UNL     1      23.288  29.306  34.902  1.00  0.00    -0.545 OA
ATOM      7  O   UNL     1      25.243  29.417  33.719  1.00  0.00    -0.545 OA
ENDBRANCH   4   5
ENDBRANCH   2   3
ENDBRANCH   1   2
BRANCH   1   8
ATOM      8  C   UNL     1      21.446  32.834  31.310  1.00  0.00     0.000 C 
BRANCH   8   9
ATOM      9  C   UNL     1      21.677  33.461  29.923  1.00  0.00    -0.000 C 
BRANCH   9  10
ATOM     10  C   UNL     1      21.591  32.475  28.745  1.00  0.00    -0.003 C 
ATOM     11  C   UNL     1      21.339  31.034  29.188  1.00  0.00     0.004 C 
ENDBRANCH   9  10
ENDBRANCH   8   9
ENDBRANCH   1   8
TORSDOF 6
ENDMDL
MODEL 5
REMARK VINA RESULT:    -3.866     14.678     16.024
REMARK INTER + INTRA:          -5.469
REMARK INTER:                  -5.217
REMARK INTRA:                  -0.252
REMARK UNBOUND:                -0.247
REMARK SMILES CCCCCCC=CC(=O)[O-]
REMARK SMILES IDX 5 1 6 2 7 3 8 4 9 5 10 6 11 7 4 8 3 9 2 10 1 11
REMARK H PARENT
REMARK Flexibility Score: inf
ROOT
ATOM      1  C   UNL     1      22.478  33.638  31.432  1.00  0.00     0.004 C 
ENDROOT
BRANCH   1   2
ATOM      2  C   UNL     1      23.655  33.280  32.348  1.00  0.00     0.027 C 
BRANCH   2   3
ATOM      3  C   UNL     1      23.551  31.864  32.838  1.00  0.00    -0.025 C 
ATOM      4  C   UNL     1      24.422  31.366  33.722  1.00  0.00     0.020 C 
BRANCH   4   5
ATOM      5  C   UNL     1      24.341  29.977  34.201  1.00  0.00     0.064 C 
ATOM      6  O   UNL     1      25.214  29.145  33.844  1.00  0.00    -0.545 OA
ATOM      7  O   UNL     1      23.312  29.570  35.043  1.00  0.00    -0.545 OA
ENDBRANCH   4   5
ENDBRANCH   2   3
ENDBRANCH   1   2
BRANCH   1   8
ATOM      8  C   UNL     1      21.853  32.374  30.823  1.00  0.00     0.000 C 
BRANCH   8   9
ATOM      9  C   UNL     1      21.114  32.648  29.500  1.00  0.00    -0.000 C 
BRANCH   9  10
ATOM     10  C   UNL     1      21.359  31.604  28.395  1.00  0.00    -0.003 C 
ATOM     11  C   UNL     1      21.548  32.229  27.014  1.00  0.00     0.004 C 
ENDBRANCH   9  10
ENDBRANCH   8   9
ENDBRANCH   1   8
TORSDOF 6
ENDMDL
MODEL 6
REMARK VINA RESULT:    -3.866      3.383      6.423
REMARK INTER + INTRA:          -5.468
REMARK INTER:                  -5.289
REMARK INTRA:                  -0.180
REMARK UNBOUND:                -0.247
REMARK SMILES CCCCCCC=CC(=O)[O-]
REMARK SMILES IDX 5 1 6 2 7 3 8 4 9 5 10 6 11 7 4 8 3 9 2 10 1 11
REMARK H PARENT
REMARK Flexibility Score: inf
ROOT
ATOM      1  C   UNL     1      23.120  17.034  24.803  1.00  0.00     0.004 C 
ENDROOT
BRANCH   1   2
ATOM      2  C   UNL     1      22.240  16.022  25.548  1.00  0.00     0.027 C 
BRANCH   2   3
ATOM      3  C   UNL     1      21.347  16.707  26.542  1.00  0.00    -0.025 C 
ATOM      4  C   UNL     1      21.722  17.831  27.160  1.00  0.00     0.020 C 
BRANCH   4   5
ATOM      5  C   UNL     1      20.863  18.505  28.146  1.00  0.00     0.064 C 
ATOM      6  O   UNL     1      19.615  18.513  27.981  1.00  0.00    -0.545 OA
ATOM      7  O   UNL     1      21.408  19.136  29.258  1.00  0.00    -0.545 OA
ENDBRANCH   4   5
ENDBRANCH   2   3
ENDBRANCH   1   2
BRANCH   1   8
ATOM      8  C   UNL     1      24.189  16.318  23.965  1.00  0.00     0.000 C 
BRANCH   8   9
ATOM      9  C   UNL     1      24.873  17.246  22.945  1.00  0.00    -0.000 C 
BRANCH   9  10
ATOM     10  C   UNL     1      25.975  16.579  22.102  1.00  0.00    -0.003 C 
ATOM     11  C   UNL     1      27.252  16.307  22.895  1.00  0.00     0.004 C 
ENDBRANCH   9  10
ENDBRANCH   8   9
ENDBRANCH   1   8
TORSDOF 6
ENDMDL
MODEL 7
REMARK VINA RESULT:    -3.825      2.618      3.758
REMARK INTER + INTRA:          -5.414
REMARK INTER:                  -4.825
REMARK INTRA:                  -0.589
REMARK UNBOUND:                -0.247
REMARK SMILES CCCCCCC=CC(=O)[O-]
REMARK SMILES IDX 5 1 6 2 7 3 8 4 9 5 10 6 11 7 4 8 3 9 2 10 1 11
REMARK H PARENT
REMARK Flexibility Score: inf
ROOT
ATOM      1  C   UNL     1      17.508  17.019  28.597  1.00  0.00     0.004 C 
ENDROOT
BRANCH   1   2
ATOM      2  C   UNL     1      18.383  16.471  27.463  1.00  0.00     0.027 C 
BRANCH   2   3
ATOM      3  C   UNL     1      19.504  17.416  27.137  1.00  0.00    -0.025 C 
ATOM      4  C   UNL     1      20.766  16.989  27.023  1.00  0.00     0.020 C 
BRANCH   4   5
ATOM      5  C   UNL     1      21.876  17.905  26.717  1.00  0.00     0.064 C 
ATOM      6  O   UNL     1      22.201  18.788  27.553  1.00  0.00    -0.545 OA
ATOM      7  O   UNL     1      22.571  17.812  25.517  1.00  0.00    -0.545 OA
ENDBRANCH   4   5
ENDBRANCH   2   3
ENDBRANCH   1   2
BRANCH   1   8
ATOM      8  C   UNL     1      18.347  17.297  29.853  1.00  0.00     0.000 C 
BRANCH   8   9
ATOM      9  C   UNL     1      18.107  18.701  30.437  1.00  0.00    -0.000 C 
BRANCH   9  10
ATOM     10  C   UNL     1      19.084  19.783  29.943  1.00  0.00    -0.003 C 
ATOM     11  C   UNL     1      20.500  19.604  30.489  1.00  0.00     0.004 C 
ENDBRANCH   9  10
ENDBRANCH   8   9
ENDBRANCH   1   8
TORSDOF 6
ENDMDL
MODEL 8
REMARK VINA RESULT:    -3.812     13.342     14.877
REMARK INTER + INTRA:          -5.396
REMARK INTER:                  -4.778
REMARK INTRA:                  -0.618
REMARK UNBOUND:                -0.247
REMARK SMILES CCCCCCC=CC(=O)[O-]
REMARK SMILES IDX 5 1 6 2 7 3 8 4 9 5 10 6 11 7 4 8 3 9 2 10 1 11
REMARK H PARENT
REMARK Flexibility Score: inf
ROOT
ATOM      1  C   UNL     1      20.894  33.929  27.500  1.00  0.00     0.004 C 
ENDROOT
BRANCH   1   2
ATOM      2  C   UNL     1      21.907  34.348  26.427  1.00  0.00     0.027 C 
BRANCH   2   3
ATOM      3  C   UNL     1      22.119  33.251  25.422  1.00  0.00    -0.025 C 
ATOM      4  C   UNL     1      21.421  32.112  25.474  1.00  0.00     0.020 C 
BRANCH   4   5
ATOM      5  C   UNL     1      21.627  31.025  24.505  1.00  0.00     0.064 C 
ATOM      6  O   UNL     1      21.883  31.302  23.305  1.00  0.00    -0.545 OA
ATOM      7  O   UNL     1      21.544  29.693  24.895  1.00  0.00    -0.545 OA
ENDBRANCH   4   5
ENDBRANCH   2   3
ENDBRANCH   1   2
BRANCH   1   8
ATOM      8  C   UNL     1      21.551  33.884  28.887  1.00  0.00     0.000 C 
BRANCH   8   9
ATOM      9  C   UNL     1      20.956  32.796  29.798  1.00  0.00    -0.000 C 
BRANCH   9  10
ATOM     10  C   UNL     1      20.379  31.576  29.057  1.00  0.00    -0.003 C 
ATOM     11  C   UNL     1      21.417  30.483  28.806  1.00  0.00     0.004 C 
ENDBRANCH   9  10
ENDBRANCH   8   9
ENDBRANCH   1   8
TORSDOF 6
ENDMDL
MODEL 9
REMARK VINA RESULT:    -3.807     13.483     14.458
REMARK INTER + INTRA:          -5.390
REMARK INTER:                  -4.914
REMARK INTRA:                  -0.476
REMARK UNBOUND:                -0.247
REMARK SMILES CCCCCCC=CC(=O)[O-]
REMARK SMILES IDX 5 1 6 2 7 3 8 4 9 5 10 6 11 7 4 8 3 9 2 10 1 11
REMARK H PARENT
REMARK Flexibility Score: inf
ROOT
ATOM      1  C   UNL     1      21.810  32.646  28.904  1.00  0.00     0.004 C 
ENDROOT
BRANCH   1   2
ATOM      2  C   UNL     1      21.768  33.085  27.435  1.00  0.00     0.027 C 
BRANCH   2   3
ATOM      3  C   UNL     1      21.666  31.901  26.517  1.00  0.00    -0.025 C 
ATOM      4  C   UNL     1      21.573  32.050  25.192  1.00  0.00     0.020 C 
BRANCH   4   5
ATOM      5  C   UNL     1      21.459  30.900  24.282  1.00  0.00     0.064 C 
ATOM      6  O   UNL     1      21.243  31.095  23.058  1.00  0.00    -0.545 OA
ATOM      7  O   UNL     1      21.585  29.598  24.753  1.00  0.00    -0.545 OA
ENDBRANCH   4   5
ENDBRANCH   2   3
ENDBRANCH   1   2
BRANCH   1   8
ATOM      8  C   UNL     1      20.717  31.610  29.199  1.00  0.00     0.000 C 
BRANCH   8   9
ATOM      9  C   UNL     1      19.650  32.126  30.181  1.00  0.00    -0.000 C 
BRANCH   9  10
ATOM     10  C   UNL     1      18.225  32.208  29.604  1.00  0.00    -0.003 C 
ATOM     11  C   UNL     1      18.086  33.260  28.504  1.00  0.00     0.004 C 
ENDBRANCH   9  10
ENDBRANCH   8   9
ENDBRANCH   1   8
TORSDOF 6
ENDMDL
