MODEL 1
REMARK VINA RESULT:    -4.271      0.000      0.000
REMARK INTER + INTRA:         -14.145
REMARK INTER:                 -10.764
REMARK INTRA:                  -3.382
REMARK UNBOUND:                -3.382
REMARK SMILES CCCCCCCCCCCCCCCCCCCCCCCCCCCC(=O)[O-]
REMARK SMILES IDX 15 1 16 2 17 3 18 4 19 5 20 6 21 7 22 8 23 9 24 10 25 11
REMARK SMILES IDX 26 12 27 13 28 14 29 15 30 16 14 17 13 18 12 19 11 20 10 21
REMARK SMILES IDX 9 22 8 23 7 24 6 25 5 26 4 27 3 28 2 29 1 30
REMARK H PARENT
REMARK Flexibility Score: inf
ROOT
ATOM      1  C   UNL     1     -12.921   5.943   5.597  1.00  0.00     0.000 C 
ENDROOT
BRANCH   1   2
ATOM      2  C   UNL     1     -12.910   4.944   6.768  1.00  0.00     0.000 C 
BRANCH   2   3
ATOM      3  C   UNL     1     -11.868   3.812   6.626  1.00  0.00     0.000 C 
BRANCH   3   4
ATOM      4  C   UNL     1     -10.719   3.853   7.651  1.00  0.00     0.000 C 
BRANCH   4   5
ATOM      5  C   UNL     1     -10.746   5.111   8.540  1.00  0.00     0.000 C 
BRANCH   5   6
ATOM      6  C   UNL     1      -9.747   6.178   8.065  1.00  0.00     0.000 C 
BRANCH   6   7
ATOM      7  C   UNL     1      -8.987   5.741   6.800  1.00  0.00     0.000 C 
BRANCH   7   8
ATOM      8  C   UNL     1      -9.177   6.710   5.619  1.00  0.00     0.000 C 
BRANCH   8   9
ATOM      9  C   UNL     1      -9.250   8.199   6.004  1.00  0.00     0.000 C 
BRANCH   9  10
ATOM     10  C   UNL     1      -8.357   9.091   5.125  1.00  0.00     0.000 C 
BRANCH  10  11
ATOM     11  C   UNL     1      -8.580  10.592   5.377  1.00  0.00     0.000 C 
BRANCH  11  12
ATOM     12  C   UNL     1      -7.277  11.403   5.314  1.00  0.00     0.006 C 
BRANCH  12  13
ATOM     13  C   UNL     1      -6.122  10.647   5.980  1.00  0.00     0.053 C 
BRANCH  13  14
ATOM     14  C   UNL     1      -5.720  11.316   7.257  1.00  0.00     0.041 C 
ATOM     15  O   UNL     1      -4.657  11.991   7.313  1.00  0.00    -0.550 OA
ATOM     16  O   UNL     1      -6.507  11.177   8.395  1.00  0.00    -0.550 OA
ENDBRANCH  13  14
ENDBRANCH  12  13
ENDBRANCH  11  12
ENDBRANCH  10  11
ENDBRANCH   9  10
ENDBRANCH   8   9
ENDBRANCH   7   8
ENDBRANCH   6   7
ENDBRANCH   5   6
ENDBRANCH   4   5
ENDBRANCH   3   4
ENDBRANCH   2   3
ENDBRANCH   1   2
BRANCH   1  17
ATOM     17  C   UNL     1     -14.282   6.626   5.394  1.00  0.00     0.000 C 
BRANCH  17  18
ATOM     18  C   UNL     1     -14.940   6.277   4.048  1.00  0.00     0.000 C 
BRANCH  18  19
ATOM     19  C   UNL     1     -13.946   6.121   2.876  1.00  0.00     0.000 C 
BRANCH  19  20
ATOM     20  C   UNL     1     -13.986   7.255   1.834  1.00  0.00     0.000 C 
BRANCH  20  21
ATOM     21  C   UNL     1     -13.620   8.628   2.423  1.00  0.00     0.000 C 
BRANCH  21  22
ATOM     22  C   UNL     1     -13.725   9.730   1.356  1.00  0.00    -0.000 C 
BRANCH  22  23
ATOM     23  C   UNL     1     -12.581  10.757   1.444  1.00  0.00    -0.000 C 
BRANCH  23  24
ATOM     24  C   UNL     1     -12.962  12.097   2.105  1.00  0.00    -0.000 C 
BRANCH  24  25
ATOM     25  C   UNL     1     -14.083  12.009   3.159  1.00  0.00    -0.000 C 
BRANCH  25  26
ATOM     26  C   UNL     1     -13.612  12.077   4.623  1.00  0.00    -0.000 C 
BRANCH  26  27
ATOM     27  C   UNL     1     -12.222  11.452   4.832  1.00  0.00    -0.000 C 
BRANCH  27  28
ATOM     28  C   UNL     1     -12.284  10.043   5.452  1.00  0.00    -0.000 C 
BRANCH  28  29
ATOM     29  C   UNL     1     -12.668  10.004   6.943  1.00  0.00    -0.003 C 
ATOM     30  C   UNL     1     -12.247  11.261   7.705  1.00  0.00     0.004 C 
ENDBRANCH  28  29
ENDBRANCH  27  28
ENDBRANCH  26  27
ENDBRANCH  25  26
ENDBRANCH  24  25
ENDBRANCH  23  24
ENDBRANCH  22  23
ENDBRANCH  21  22
ENDBRANCH  20  21
ENDBRANCH  19  20
ENDBRANCH  18  19
ENDBRANCH  17  18
ENDBRANCH   1  17
TORSDOF 26
ENDMDL
MODEL 2
REMARK VINA RESULT:    -3.942      1.711      6.280
REMARK INTER + INTRA:         -13.316
REMARK INTER:                 -10.179
REMARK INTRA:                  -3.137
REMARK UNBOUND:                -3.382
REMARK SMILES CCCCCCCCCCCCCCCCCCCCCCCCCCCC(=O)[O-]
REMARK SMILES IDX 15 1 16 2 17 3 18 4 19 5 20 6 21 7 22 8 23 9 24 10 25 11
REMARK SMILES IDX 26 12 27 13 28 14 29 15 30 16 14 17 13 18 12 19 11 20 10 21
REMARK SMILES IDX 9 22 8 23 7 24 6 25 5 26 4 27 3 28 2 29 1 30
REMARK H PARENT
REMARK Flexibility Score: inf
ROOT
ATOM      1  C   UNL     1     -12.858   6.137   5.790  1.00  0.00     0.000 C 
ENDROOT
BRANCH   1   2
ATOM      2  C   UNL     1     -14.380   6.351   5.727  1.00  0.00     0.000 C 
BRANCH   2   3
ATOM      3  C   UNL     1     -14.891   6.879   4.368  1.00  0.00     0.000 C 
BRANCH   3   4
ATOM      4  C   UNL     1     -14.319   6.160   3.133  1.00  0.00     0.000 C 
BRANCH   4   5
ATOM      5  C   UNL     1     -14.025   7.114   1.960  1.00  0.00     0.000 C 
BRANCH   5   6
ATOM      6  C   UNL     1     -13.676   8.532   2.440  1.00  0.00     0.000 C 
BRANCH   6   7
ATOM      7  C   UNL     1     -13.734   9.563   1.299  1.00  0.00     0.000 C 
BRANCH   7   8
ATOM      8  C   UNL     1     -13.017  10.881   1.641  1.00  0.00     0.000 C 
BRANCH   8   9
ATOM      9  C   UNL     1     -13.825  11.852   2.522  1.00  0.00     0.000 C 
BRANCH   9  10
ATOM     10  C   UNL     1     -13.194  12.074   3.907  1.00  0.00     0.000 C 
BRANCH  10  11
ATOM     11  C   UNL     1     -11.658  12.006   3.880  1.00  0.00     0.000 C 
BRANCH  11  12
ATOM     12  C   UNL     1     -11.078  11.247   5.083  1.00  0.00     0.006 C 
BRANCH  12  13
ATOM     13  C   UNL     1     -12.185  10.558   5.888  1.00  0.00     0.053 C 
BRANCH  13  14
ATOM     14  C   UNL     1     -12.201  11.056   7.299  1.00  0.00     0.041 C 
ATOM     15  O   UNL     1     -11.326  11.873   7.694  1.00  0.00    -0.550 OA
ATOM     16  O   UNL     1     -13.171  10.604   8.187  1.00  0.00    -0.550 OA
ENDBRANCH  13  14
ENDBRANCH  12  13
ENDBRANCH  11  12
ENDBRANCH  10  11
ENDBRANCH   9  10
ENDBRANCH   8   9
ENDBRANCH   7   8
ENDBRANCH   6   7
ENDBRANCH   5   6
ENDBRANCH   4   5
ENDBRANCH   3   4
ENDBRANCH   2   3
ENDBRANCH   1   2
BRANCH   1  17
ATOM     17  C   UNL     1     -12.456   4.661   5.924  1.00  0.00     0.000 C 
BRANCH  17  18
ATOM     18  C   UNL     1     -12.406   4.176   7.383  1.00  0.00     0.000 C 
BRANCH  18  19
ATOM     19  C   UNL     1     -11.076   3.499   7.783  1.00  0.00     0.000 C 
BRANCH  19  20
ATOM     20  C   UNL     1     -10.244   4.268   8.827  1.00  0.00     0.000 C 
BRANCH  20  21
ATOM     21  C   UNL     1     -10.491   5.785   8.796  1.00  0.00     0.000 C 
BRANCH  21  22
ATOM     22  C   UNL     1      -9.428   6.498   7.944  1.00  0.00    -0.000 C 
BRANCH  22  23
ATOM     23  C   UNL     1      -9.164   5.791   6.603  1.00  0.00    -0.000 C 
BRANCH  23  24
ATOM     24  C   UNL     1      -8.809   6.731   5.433  1.00  0.00    -0.000 C 
BRANCH  24  25
ATOM     25  C   UNL     1      -8.908   8.235   5.751  1.00  0.00    -0.000 C 
BRANCH  25  26
ATOM     26  C   UNL     1      -7.999   9.145   4.905  1.00  0.00    -0.000 C 
BRANCH  26  27
ATOM     27  C   UNL     1      -6.927   9.861   5.743  1.00  0.00    -0.000 C 
BRANCH  27  28
ATOM     28  C   UNL     1      -7.522  10.852   6.761  1.00  0.00    -0.000 C 
BRANCH  28  29
ATOM     29  C   UNL     1      -6.535  11.902   7.303  1.00  0.00    -0.003 C 
ATOM     30  C   UNL     1      -6.407  11.875   8.826  1.00  0.00     0.004 C 
ENDBRANCH  28  29
ENDBRANCH  27  28
ENDBRANCH  26  27
ENDBRANCH  25  26
ENDBRANCH  24  25
ENDBRANCH  23  24
ENDBRANCH  22  23
ENDBRANCH  21  22
ENDBRANCH  20  21
ENDBRANCH  19  20
ENDBRANCH  18  19
ENDBRANCH  17  18
ENDBRANCH   1  17
TORSDOF 26
ENDMDL
MODEL 3
REMARK VINA RESULT:    -3.706      2.143      6.781
REMARK INTER + INTRA:         -12.720
REMARK INTER:                 -10.360
REMARK INTRA:                  -2.360
REMARK UNBOUND:                -3.382
REMARK SMILES CCCCCCCCCCCCCCCCCCCCCCCCCCCC(=O)[O-]
REMARK SMILES IDX 15 1 16 2 17 3 18 4 19 5 20 6 21 7 22 8 23 9 24 10 25 11
REMARK SMILES IDX 26 12 27 13 28 14 29 15 30 16 14 17 13 18 12 19 11 20 10 21
REMARK SMILES IDX 9 22 8 23 7 24 6 25 5 26 4 27 3 28 2 29 1 30
REMARK H PARENT
REMARK Flexibility Score: inf
ROOT
ATOM      1  C   UNL     1     -11.375   3.897   6.745  1.00  0.00     0.000 C 
ENDROOT
BRANCH   1   2
ATOM      2  C   UNL     1     -12.678   4.297   6.032  1.00  0.00     0.000 C 
BRANCH   2   3
ATOM      3  C   UNL     1     -13.192   5.709   6.392  1.00  0.00     0.000 C 
BRANCH   3   4
ATOM      4  C   UNL     1     -13.728   6.529   5.205  1.00  0.00     0.000 C 
BRANCH   4   5
ATOM      5  C   UNL     1     -13.727   5.745   3.879  1.00  0.00     0.000 C 
BRANCH   5   6
ATOM      6  C   UNL     1     -14.172   6.615   2.691  1.00  0.00     0.000 C 
BRANCH   6   7
ATOM      7  C   UNL     1     -13.992   8.117   2.970  1.00  0.00     0.000 C 
BRANCH   7   8
ATOM      8  C   UNL     1     -13.633   8.925   1.710  1.00  0.00     0.000 C 
BRANCH   8   9
ATOM      9  C   UNL     1     -13.590  10.452   1.906  1.00  0.00     0.000 C 
BRANCH   9  10
ATOM     10  C   UNL     1     -14.410  10.925   3.119  1.00  0.00     0.000 C 
BRANCH  10  11
ATOM     11  C   UNL     1     -13.649  11.933   3.996  1.00  0.00     0.000 C 
BRANCH  11  12
ATOM     12  C   UNL     1     -13.874  11.699   5.498  1.00  0.00     0.006 C 
BRANCH  12  13
ATOM     13  C   UNL     1     -12.550  11.735   6.268  1.00  0.00     0.053 C 
BRANCH  13  14
ATOM     14  C   UNL     1     -11.588  10.733   5.712  1.00  0.00     0.041 C 
ATOM     15  O   UNL     1     -10.511  11.113   5.179  1.00  0.00    -0.550 OA
ATOM     16  O   UNL     1     -11.888   9.376   5.764  1.00  0.00    -0.550 OA
ENDBRANCH  13  14
ENDBRANCH  12  13
ENDBRANCH  11  12
ENDBRANCH  10  11
ENDBRANCH   9  10
ENDBRANCH   8   9
ENDBRANCH   7   8
ENDBRANCH   6   7
ENDBRANCH   5   6
ENDBRANCH   4   5
ENDBRANCH   3   4
ENDBRANCH   2   3
ENDBRANCH   1   2
BRANCH   1  17
ATOM     17  C   UNL     1     -11.433   4.083   8.268  1.00  0.00     0.000 C 
BRANCH  17  18
ATOM     18  C   UNL     1     -10.220   4.842   8.833  1.00  0.00     0.000 C 
BRANCH  18  19
ATOM     19  C   UNL     1      -9.950   6.204   8.155  1.00  0.00     0.000 C 
BRANCH  19  20
ATOM     20  C   UNL     1      -8.943   6.161   6.989  1.00  0.00     0.000 C 
BRANCH  20  21
ATOM     21  C   UNL     1      -9.428   6.925   5.746  1.00  0.00     0.000 C 
BRANCH  21  22
ATOM     22  C   UNL     1      -8.398   7.981   5.312  1.00  0.00    -0.000 C 
BRANCH  22  23
ATOM     23  C   UNL     1      -7.810   8.766   6.498  1.00  0.00    -0.000 C 
BRANCH  23  24
ATOM     24  C   UNL     1      -7.606  10.272   6.241  1.00  0.00    -0.000 C 
BRANCH  24  25
ATOM     25  C   UNL     1      -6.888  11.036   7.370  1.00  0.00    -0.000 C 
BRANCH  25  26
ATOM     26  C   UNL     1      -5.604  11.774   6.948  1.00  0.00    -0.000 C 
BRANCH  26  27
ATOM     27  C   UNL     1      -4.912  11.123   5.739  1.00  0.00    -0.000 C 
BRANCH  27  28
ATOM     28  C   UNL     1      -3.376  11.190   5.819  1.00  0.00    -0.000 C 
BRANCH  28  29
ATOM     29  C   UNL     1      -2.692  11.897   4.634  1.00  0.00    -0.003 C 
ATOM     30  C   UNL     1      -1.196  12.125   4.852  1.00  0.00     0.004 C 
ENDBRANCH  28  29
ENDBRANCH  27  28
ENDBRANCH  26  27
ENDBRANCH  25  26
ENDBRANCH  24  25
ENDBRANCH  23  24
ENDBRANCH  22  23
ENDBRANCH  21  22
ENDBRANCH  20  21
ENDBRANCH  19  20
ENDBRANCH  18  19
ENDBRANCH  17  18
ENDBRANCH   1  17
TORSDOF 26
ENDMDL
MODEL 4
REMARK VINA RESULT:    -3.525      1.436      3.763
REMARK INTER + INTRA:         -12.264
REMARK INTER:                  -9.338
REMARK INTRA:                  -2.926
REMARK UNBOUND:                -3.382
REMARK SMILES CCCCCCCCCCCCCCCCCCCCCCCCCCCC(=O)[O-]
REMARK SMILES IDX 15 1 16 2 17 3 18 4 19 5 20 6 21 7 22 8 23 9 24 10 25 11
REMARK SMILES IDX 26 12 27 13 28 14 29 15 30 16 14 17 13 18 12 19 11 20 10 21
REMARK SMILES IDX 9 22 8 23 7 24 6 25 5 26 4 27 3 28 2 29 1 30
REMARK H PARENT
REMARK Flexibility Score: inf
ROOT
ATOM      1  C   UNL     1     -10.586   4.455   7.497  1.00  0.00     0.000 C 
ENDROOT
BRANCH   1   2
ATOM      2  C   UNL     1     -10.107   5.906   7.674  1.00  0.00     0.000 C 
BRANCH   2   3
ATOM      3  C   UNL     1      -8.876   6.278   6.818  1.00  0.00     0.000 C 
BRANCH   3   4
ATOM      4  C   UNL     1      -9.125   7.368   5.758  1.00  0.00     0.000 C 
BRANCH   4   5
ATOM      5  C   UNL     1     -10.389   8.203   6.036  1.00  0.00     0.000 C 
BRANCH   5   6
ATOM      6  C   UNL     1     -10.316   9.597   5.391  1.00  0.00     0.000 C 
BRANCH   6   7
ATOM      7  C   UNL     1     -11.294  10.591   6.043  1.00  0.00     0.000 C 
BRANCH   7   8
ATOM      8  C   UNL     1     -10.627  11.921   6.437  1.00  0.00     0.000 C 
BRANCH   8   9
ATOM      9  C   UNL     1      -9.150  12.055   6.024  1.00  0.00     0.000 C 
BRANCH   9  10
ATOM     10  C   UNL     1      -8.185  12.016   7.222  1.00  0.00     0.000 C 
BRANCH  10  11
ATOM     11  C   UNL     1      -7.267  10.783   7.209  1.00  0.00     0.000 C 
BRANCH  11  12
ATOM     12  C   UNL     1      -6.792  10.414   5.795  1.00  0.00     0.006 C 
BRANCH  12  13
ATOM     13  C   UNL     1      -5.684  11.359   5.320  1.00  0.00     0.053 C 
BRANCH  13  14
ATOM     14  C   UNL     1      -4.531  11.343   6.273  1.00  0.00     0.041 C 
ATOM     15  O   UNL     1      -3.434  10.824   5.934  1.00  0.00    -0.550 OA
ATOM     16  O   UNL     1      -4.672  11.884   7.547  1.00  0.00    -0.550 OA
ENDBRANCH  13  14
ENDBRANCH  12  13
ENDBRANCH  11  12
ENDBRANCH  10  11
ENDBRANCH   9  10
ENDBRANCH   8   9
ENDBRANCH   7   8
ENDBRANCH   6   7
ENDBRANCH   5   6
ENDBRANCH   4   5
ENDBRANCH   3   4
ENDBRANCH   2   3
ENDBRANCH   1   2
BRANCH   1  17
ATOM     17  C   UNL     1     -12.115   4.320   7.447  1.00  0.00     0.000 C 
BRANCH  17  18
ATOM     18  C   UNL     1     -12.777   5.290   6.454  1.00  0.00     0.000 C 
BRANCH  18  19
ATOM     19  C   UNL     1     -12.105   5.332   5.063  1.00  0.00     0.000 C 
BRANCH  19  20
ATOM     20  C   UNL     1     -13.015   5.811   3.916  1.00  0.00     0.000 C 
BRANCH  20  21
ATOM     21  C   UNL     1     -14.509   5.770   4.275  1.00  0.00     0.000 C 
BRANCH  21  22
ATOM     22  C   UNL     1     -15.125   7.178   4.231  1.00  0.00    -0.000 C 
BRANCH  22  23
ATOM     23  C   UNL     1     -14.270   8.227   4.965  1.00  0.00    -0.000 C 
BRANCH  23  24
ATOM     24  C   UNL     1     -14.958   9.590   5.178  1.00  0.00    -0.000 C 
BRANCH  24  25
ATOM     25  C   UNL     1     -14.224  10.796   4.561  1.00  0.00    -0.000 C 
BRANCH  25  26
ATOM     26  C   UNL     1     -14.902  11.414   3.326  1.00  0.00    -0.000 C 
BRANCH  26  27
ATOM     27  C   UNL     1     -13.893  11.963   2.303  1.00  0.00    -0.000 C 
BRANCH  27  28
ATOM     28  C   UNL     1     -12.445  11.529   2.596  1.00  0.00    -0.000 C 
BRANCH  28  29
ATOM     29  C   UNL     1     -11.752  10.759   1.457  1.00  0.00    -0.003 C 
ATOM     30  C   UNL     1     -11.775  11.509   0.125  1.00  0.00     0.004 C 
ENDBRANCH  28  29
ENDBRANCH  27  28
ENDBRANCH  26  27
ENDBRANCH  25  26
ENDBRANCH  24  25
ENDBRANCH  23  24
ENDBRANCH  22  23
ENDBRANCH  21  22
ENDBRANCH  20  21
ENDBRANCH  19  20
ENDBRANCH  18  19
ENDBRANCH  17  18
ENDBRANCH   1  17
TORSDOF 26
ENDMDL
MODEL 5
REMARK VINA RESULT:    -3.438      1.498      2.038
REMARK INTER + INTRA:         -12.045
REMARK INTER:                  -9.416
REMARK INTRA:                  -2.628
REMARK UNBOUND:                -3.382
REMARK SMILES CCCCCCCCCCCCCCCCCCCCCCCCCCCC(=O)[O-]
REMARK SMILES IDX 15 1 16 2 17 3 18 4 19 5 20 6 21 7 22 8 23 9 24 10 25 11
REMARK SMILES IDX 26 12 27 13 28 14 29 15 30 16 14 17 13 18 12 19 11 20 10 21
REMARK SMILES IDX 9 22 8 23 7 24 6 25 5 26 4 27 3 28 2 29 1 30
REMARK H PARENT
REMARK Flexibility Score: inf
ROOT
ATOM      1  C   UNL     1     -12.455   5.338   5.290  1.00  0.00     0.000 C 
ENDROOT
BRANCH   1   2
ATOM      2  C   UNL     1     -12.368   4.426   6.527  1.00  0.00     0.000 C 
BRANCH   2   3
ATOM      3  C   UNL     1     -10.946   3.904   6.833  1.00  0.00     0.000 C 
BRANCH   3   4
ATOM      4  C   UNL     1     -10.278   4.523   8.075  1.00  0.00     0.000 C 
BRANCH   4   5
ATOM      5  C   UNL     1     -10.028   6.037   7.935  1.00  0.00     0.000 C 
BRANCH   5   6
ATOM      6  C   UNL     1      -8.883   6.347   6.956  1.00  0.00     0.000 C 
BRANCH   6   7
ATOM      7  C   UNL     1      -9.352   7.201   5.765  1.00  0.00     0.000 C 
BRANCH   7   8
ATOM      8  C   UNL     1      -8.325   8.268   5.347  1.00  0.00     0.000 C 
BRANCH   8   9
ATOM      9  C   UNL     1      -7.685   9.046   6.512  1.00  0.00     0.000 C 
BRANCH   9  10
ATOM     10  C   UNL     1      -7.426  10.525   6.176  1.00  0.00     0.000 C 
BRANCH  10  11
ATOM     11  C   UNL     1      -6.108  10.741   5.414  1.00  0.00     0.000 C 
BRANCH  11  12
ATOM     12  C   UNL     1      -4.871  10.547   6.305  1.00  0.00     0.006 C 
BRANCH  12  13
ATOM     13  C   UNL     1      -3.961  11.779   6.262  1.00  0.00     0.053 C 
BRANCH  13  14
ATOM     14  C   UNL     1      -3.014  11.697   5.106  1.00  0.00     0.041 C 
ATOM     15  O   UNL     1      -3.416  11.948   3.938  1.00  0.00    -0.550 OA
ATOM     16  O   UNL     1      -1.691  11.324   5.314  1.00  0.00    -0.550 OA
ENDBRANCH  13  14
ENDBRANCH  12  13
ENDBRANCH  11  12
ENDBRANCH  10  11
ENDBRANCH   9  10
ENDBRANCH   8   9
ENDBRANCH   7   8
ENDBRANCH   6   7
ENDBRANCH   5   6
ENDBRANCH   4   5
ENDBRANCH   3   4
ENDBRANCH   2   3
ENDBRANCH   1   2
BRANCH   1  17
ATOM     17  C   UNL     1     -13.168   6.670   5.565  1.00  0.00     0.000 C 
BRANCH  17  18
ATOM     18  C   UNL     1     -14.455   6.849   4.742  1.00  0.00     0.000 C 
BRANCH  18  19
ATOM     19  C   UNL     1     -14.553   5.928   3.506  1.00  0.00     0.000 C 
BRANCH  19  20
ATOM     20  C   UNL     1     -14.479   6.653   2.148  1.00  0.00     0.000 C 
BRANCH  20  21
ATOM     21  C   UNL     1     -13.473   7.815   2.139  1.00  0.00     0.000 C 
BRANCH  21  22
ATOM     22  C   UNL     1     -14.160   9.136   1.758  1.00  0.00    -0.000 C 
BRANCH  22  23
ATOM     23  C   UNL     1     -13.159  10.255   1.420  1.00  0.00    -0.000 C 
BRANCH  23  24
ATOM     24  C   UNL     1     -12.814  11.193   2.595  1.00  0.00    -0.000 C 
BRANCH  24  25
ATOM     25  C   UNL     1     -14.025  11.861   3.273  1.00  0.00    -0.000 C 
BRANCH  25  26
ATOM     26  C   UNL     1     -14.621  11.085   4.461  1.00  0.00    -0.000 C 
BRANCH  26  27
ATOM     27  C   UNL     1     -14.421  11.805   5.805  1.00  0.00    -0.000 C 
BRANCH  27  28
ATOM     28  C   UNL     1     -13.913  10.870   6.918  1.00  0.00    -0.000 C 
BRANCH  28  29
ATOM     29  C   UNL     1     -12.381  10.732   7.005  1.00  0.00    -0.003 C 
ATOM     30  C   UNL     1     -11.766  10.081   5.766  1.00  0.00     0.004 C 
ENDBRANCH  28  29
ENDBRANCH  27  28
ENDBRANCH  26  27
ENDBRANCH  25  26
ENDBRANCH  24  25
ENDBRANCH  23  24
ENDBRANCH  22  23
ENDBRANCH  21  22
ENDBRANCH  20  21
ENDBRANCH  19  20
ENDBRANCH  18  19
ENDBRANCH  17  18
ENDBRANCH   1  17
TORSDOF 26
ENDMDL
MODEL 6
REMARK VINA RESULT:    -3.209      2.600      7.453
REMARK INTER + INTRA:         -11.467
REMARK INTER:                  -9.279
REMARK INTRA:                  -2.188
REMARK UNBOUND:                -3.382
REMARK SMILES CCCCCCCCCCCCCCCCCCCCCCCCCCCC(=O)[O-]
REMARK SMILES IDX 15 1 16 2 17 3 18 4 19 5 20 6 21 7 22 8 23 9 24 10 25 11
REMARK SMILES IDX 26 12 27 13 28 14 29 15 30 16 14 17 13 18 12 19 11 20 10 21
REMARK SMILES IDX 9 22 8 23 7 24 6 25 5 26 4 27 3 28 2 29 1 30
REMARK H PARENT
REMARK Flexibility Score: inf
ROOT
ATOM      1  C   UNL     1      -6.676  10.003   6.314  1.00  0.00     0.000 C 
ENDROOT
BRANCH   1   2
ATOM      2  C   UNL     1      -7.429  11.085   5.520  1.00  0.00     0.000 C 
BRANCH   2   3
ATOM      3  C   UNL     1      -8.160  12.125   6.399  1.00  0.00     0.000 C 
BRANCH   3   4
ATOM      4  C   UNL     1      -9.483  11.638   7.020  1.00  0.00     0.000 C 
BRANCH   4   5
ATOM      5  C   UNL     1     -10.719  12.022   6.185  1.00  0.00     0.000 C 
BRANCH   5   6
ATOM      6  C   UNL     1     -12.029  11.825   6.965  1.00  0.00     0.000 C 
BRANCH   6   7
ATOM      7  C   UNL     1     -12.443  10.345   7.042  1.00  0.00     0.000 C 
BRANCH   7   8
ATOM      8  C   UNL     1     -12.834   9.757   5.674  1.00  0.00     0.000 C 
BRANCH   8   9
ATOM      9  C   UNL     1     -14.342   9.516   5.477  1.00  0.00     0.000 C 
BRANCH   9  10
ATOM     10  C   UNL     1     -15.093  10.770   4.997  1.00  0.00     0.000 C 
BRANCH  10  11
ATOM     11  C   UNL     1     -14.499  11.364   3.708  1.00  0.00     0.000 C 
BRANCH  11  12
ATOM     12  C   UNL     1     -13.472  10.432   3.046  1.00  0.00     0.006 C 
BRANCH  12  13
ATOM     13  C   UNL     1     -13.366  10.706   1.543  1.00  0.00     0.053 C 
BRANCH  13  14
ATOM     14  C   UNL     1     -12.083  11.405   1.222  1.00  0.00     0.041 C 
ATOM     15  O   UNL     1     -11.443  12.005   2.127  1.00  0.00    -0.550 OA
ATOM     16  O   UNL     1     -11.601  11.414  -0.083  1.00  0.00    -0.550 OA
ENDBRANCH  13  14
ENDBRANCH  12  13
ENDBRANCH  11  12
ENDBRANCH  10  11
ENDBRANCH   9  10
ENDBRANCH   8   9
ENDBRANCH   7   8
ENDBRANCH   6   7
ENDBRANCH   5   6
ENDBRANCH   4   5
ENDBRANCH   3   4
ENDBRANCH   2   3
ENDBRANCH   1   2
BRANCH   1  17
ATOM     17  C   UNL     1      -7.458   8.688   6.443  1.00  0.00     0.000 C 
BRANCH  17  18
ATOM     18  C   UNL     1      -8.640   8.587   5.463  1.00  0.00     0.000 C 
BRANCH  18  19
ATOM     19  C   UNL     1      -9.660   7.479   5.809  1.00  0.00     0.000 C 
BRANCH  19  20
ATOM     20  C   UNL     1      -9.244   6.057   5.386  1.00  0.00     0.000 C 
BRANCH  20  21
ATOM     21  C   UNL     1      -9.496   5.006   6.480  1.00  0.00     0.000 C 
BRANCH  21  22
ATOM     22  C   UNL     1      -9.471   5.647   7.877  1.00  0.00    -0.000 C 
BRANCH  22  23
ATOM     23  C   UNL     1     -10.159   4.779   8.945  1.00  0.00    -0.000 C 
BRANCH  23  24
ATOM     24  C   UNL     1     -11.689   4.656   8.794  1.00  0.00    -0.000 C 
BRANCH  24  25
ATOM     25  C   UNL     1     -12.179   4.328   7.371  1.00  0.00    -0.000 C 
BRANCH  25  26
ATOM     26  C   UNL     1     -12.954   5.457   6.668  1.00  0.00    -0.000 C 
BRANCH  26  27
ATOM     27  C   UNL     1     -13.243   5.152   5.189  1.00  0.00    -0.000 C 
BRANCH  27  28
ATOM     28  C   UNL     1     -13.506   6.419   4.354  1.00  0.00    -0.000 C 
BRANCH  28  29
ATOM     29  C   UNL     1     -13.630   6.186   2.837  1.00  0.00    -0.003 C 
ATOM     30  C   UNL     1     -15.079   6.059   2.365  1.00  0.00     0.004 C 
ENDBRANCH  28  29
ENDBRANCH  27  28
ENDBRANCH  26  27
ENDBRANCH  25  26
ENDBRANCH  24  25
ENDBRANCH  23  24
ENDBRANCH  22  23
ENDBRANCH  21  22
ENDBRANCH  20  21
ENDBRANCH  19  20
ENDBRANCH  18  19
ENDBRANCH  17  18
ENDBRANCH   1  17
TORSDOF 26
ENDMDL
MODEL 7
REMARK VINA RESULT:    -3.139      2.304      4.821
REMARK INTER + INTRA:         -11.292
REMARK INTER:                  -8.463
REMARK INTRA:                  -2.829
REMARK UNBOUND:                -3.382
REMARK SMILES CCCCCCCCCCCCCCCCCCCCCCCCCCCC(=O)[O-]
REMARK SMILES IDX 15 1 16 2 17 3 18 4 19 5 20 6 21 7 22 8 23 9 24 10 25 11
REMARK SMILES IDX 26 12 27 13 28 14 29 15 30 16 14 17 13 18 12 19 11 20 10 21
REMARK SMILES IDX 9 22 8 23 7 24 6 25 5 26 4 27 3 28 2 29 1 30
REMARK H PARENT
REMARK Flexibility Score: inf
ROOT
ATOM      1  C   UNL     1     -10.704   4.728   8.676  1.00  0.00     0.000 C 
ENDROOT
BRANCH   1   2
ATOM      2  C   UNL     1     -10.447   6.175   8.219  1.00  0.00     0.000 C 
BRANCH   2   3
ATOM      3  C   UNL     1      -9.049   6.407   7.603  1.00  0.00     0.000 C 
BRANCH   3   4
ATOM      4  C   UNL     1      -9.037   6.621   6.078  1.00  0.00     0.000 C 
BRANCH   4   5
ATOM      5  C   UNL     1      -9.341   8.075   5.669  1.00  0.00     0.000 C 
BRANCH   5   6
ATOM      6  C   UNL     1      -8.088   8.810   5.165  1.00  0.00     0.000 C 
BRANCH   6   7
ATOM      7  C   UNL     1      -7.152   9.219   6.316  1.00  0.00     0.000 C 
BRANCH   7   8
ATOM      8  C   UNL     1      -6.525  10.610   6.116  1.00  0.00     0.000 C 
BRANCH   8   9
ATOM      9  C   UNL     1      -7.520  11.725   5.742  1.00  0.00     0.000 C 
BRANCH   9  10
ATOM     10  C   UNL     1      -8.631  11.913   6.790  1.00  0.00     0.000 C 
BRANCH  10  11
ATOM     11  C   UNL     1     -10.032  12.006   6.162  1.00  0.00     0.000 C 
BRANCH  11  12
ATOM     12  C   UNL     1     -11.146  12.104   7.215  1.00  0.00     0.006 C 
BRANCH  12  13
ATOM     13  C   UNL     1     -12.444  11.467   6.708  1.00  0.00     0.053 C 
BRANCH  13  14
ATOM     14  C   UNL     1     -13.467  11.411   7.799  1.00  0.00     0.041 C 
ATOM     15  O   UNL     1     -14.694  11.492   7.523  1.00  0.00    -0.550 OA
ATOM     16  O   UNL     1     -13.066  11.290   9.125  1.00  0.00    -0.550 OA
ENDBRANCH  13  14
ENDBRANCH  12  13
ENDBRANCH  11  12
ENDBRANCH  10  11
ENDBRANCH   9  10
ENDBRANCH   8   9
ENDBRANCH   7   8
ENDBRANCH   6   7
ENDBRANCH   5   6
ENDBRANCH   4   5
ENDBRANCH   3   4
ENDBRANCH   2   3
ENDBRANCH   1   2
BRANCH   1  17
ATOM     17  C   UNL     1     -10.614   3.704   7.535  1.00  0.00     0.000 C 
BRANCH  17  18
ATOM     18  C   UNL     1     -11.708   3.888   6.468  1.00  0.00     0.000 C 
BRANCH  18  19
ATOM     19  C   UNL     1     -12.953   4.660   6.960  1.00  0.00     0.000 C 
BRANCH  19  20
ATOM     20  C   UNL     1     -13.436   5.780   6.020  1.00  0.00     0.000 C 
BRANCH  20  21
ATOM     21  C   UNL     1     -12.790   5.718   4.626  1.00  0.00     0.000 C 
BRANCH  21  22
ATOM     22  C   UNL     1     -13.353   6.815   3.709  1.00  0.00    -0.000 C 
BRANCH  22  23
ATOM     23  C   UNL     1     -13.697   8.110   4.467  1.00  0.00    -0.000 C 
BRANCH  23  24
ATOM     24  C   UNL     1     -14.514   9.137   3.658  1.00  0.00    -0.000 C 
BRANCH  24  25
ATOM     25  C   UNL     1     -14.731  10.494   4.355  1.00  0.00    -0.000 C 
BRANCH  25  26
ATOM     26  C   UNL     1     -14.748  11.716   3.420  1.00  0.00    -0.000 C 
BRANCH  26  27
ATOM     27  C   UNL     1     -13.900  11.509   2.153  1.00  0.00    -0.000 C 
BRANCH  27  28
ATOM     28  C   UNL     1     -12.408  11.822   2.372  1.00  0.00    -0.000 C 
BRANCH  28  29
ATOM     29  C   UNL     1     -11.445  11.128   1.390  1.00  0.00    -0.003 C 
ATOM     30  C   UNL     1     -11.784  11.400  -0.075  1.00  0.00     0.004 C 
ENDBRANCH  28  29
ENDBRANCH  27  28
ENDBRANCH  26  27
ENDBRANCH  25  26
ENDBRANCH  24  25
ENDBRANCH  23  24
ENDBRANCH  22  23
ENDBRANCH  21  22
ENDBRANCH  20  21
ENDBRANCH  19  20
ENDBRANCH  18  19
ENDBRANCH  17  18
ENDBRANCH   1  17
TORSDOF 26
ENDMDL
MODEL 8
REMARK VINA RESULT:    -2.687      1.168      2.996
REMARK INTER + INTRA:         -10.153
REMARK INTER:                  -6.825
REMARK INTRA:                  -3.328
REMARK UNBOUND:                -3.382
REMARK SMILES CCCCCCCCCCCCCCCCCCCCCCCCCCCC(=O)[O-]
REMARK SMILES IDX 15 1 16 2 17 3 18 4 19 5 20 6 21 7 22 8 23 9 24 10 25 11
REMARK SMILES IDX 26 12 27 13 28 14 29 15 30 16 14 17 13 18 12 19 11 20 10 21
REMARK SMILES IDX 9 22 8 23 7 24 6 25 5 26 4 27 3 28 2 29 1 30
REMARK H PARENT
REMARK Flexibility Score: inf
ROOT
ATOM      1  C   UNL     1     -10.977   4.209   7.853  1.00  0.00     0.000 C 
ENDROOT
BRANCH   1   2
ATOM      2  C   UNL     1     -10.806   5.707   8.163  1.00  0.00     0.000 C 
BRANCH   2   3
ATOM      3  C   UNL     1      -9.378   6.246   7.921  1.00  0.00     0.000 C 
BRANCH   3   4
ATOM      4  C   UNL     1      -8.809   5.975   6.516  1.00  0.00     0.000 C 
BRANCH   4   5
ATOM      5  C   UNL     1      -9.100   7.110   5.517  1.00  0.00     0.000 C 
BRANCH   5   6
ATOM      6  C   UNL     1      -8.348   8.403   5.872  1.00  0.00     0.000 C 
BRANCH   6   7
ATOM      7  C   UNL     1      -8.458   9.464   4.763  1.00  0.00     0.000 C 
BRANCH   7   8
ATOM      8  C   UNL     1      -8.154  10.889   5.261  1.00  0.00     0.000 C 
BRANCH   8   9
ATOM      9  C   UNL     1      -8.966  11.335   6.490  1.00  0.00     0.000 C 
BRANCH   9  10
ATOM     10  C   UNL     1      -8.083  11.878   7.628  1.00  0.00     0.000 C 
BRANCH  10  11
ATOM     11  C   UNL     1      -6.730  11.156   7.729  1.00  0.00     0.000 C 
BRANCH  11  12
ATOM     12  C   UNL     1      -5.538  12.125   7.702  1.00  0.00     0.006 C 
BRANCH  12  13
ATOM     13  C   UNL     1      -4.233  11.389   7.381  1.00  0.00     0.053 C 
BRANCH  13  14
ATOM     14  C   UNL     1      -3.965  11.406   5.909  1.00  0.00     0.041 C 
ATOM     15  O   UNL     1      -2.781  11.371   5.479  1.00  0.00    -0.550 OA
ATOM     16  O   UNL     1      -5.022  11.482   5.008  1.00  0.00    -0.550 OA
ENDBRANCH  13  14
ENDBRANCH  12  13
ENDBRANCH  11  12
ENDBRANCH  10  11
ENDBRANCH   9  10
ENDBRANCH   8   9
ENDBRANCH   7   8
ENDBRANCH   6   7
ENDBRANCH   5   6
ENDBRANCH   4   5
ENDBRANCH   3   4
ENDBRANCH   2   3
ENDBRANCH   1   2
BRANCH   1  17
ATOM     17  C   UNL     1     -11.969   3.932   6.714  1.00  0.00     0.000 C 
BRANCH  17  18
ATOM     18  C   UNL     1     -12.200   5.150   5.803  1.00  0.00     0.000 C 
BRANCH  18  19
ATOM     19  C   UNL     1     -13.646   5.694   5.824  1.00  0.00     0.000 C 
BRANCH  19  20
ATOM     20  C   UNL     1     -14.024   6.581   4.622  1.00  0.00     0.000 C 
BRANCH  20  21
ATOM     21  C   UNL     1     -13.609   5.974   3.272  1.00  0.00     0.000 C 
BRANCH  21  22
ATOM     22  C   UNL     1     -13.975   6.913   2.110  1.00  0.00    -0.000 C 
BRANCH  22  23
ATOM     23  C   UNL     1     -14.193   8.368   2.564  1.00  0.00    -0.000 C 
BRANCH  23  24
ATOM     24  C   UNL     1     -13.546   9.434   1.658  1.00  0.00    -0.000 C 
BRANCH  24  25
ATOM     25  C   UNL     1     -13.644  10.880   2.179  1.00  0.00    -0.000 C 
BRANCH  25  26
ATOM     26  C   UNL     1     -14.441  11.054   3.484  1.00  0.00    -0.000 C 
BRANCH  26  27
ATOM     27  C   UNL     1     -13.559  11.486   4.668  1.00  0.00    -0.000 C 
BRANCH  27  28
ATOM     28  C   UNL     1     -12.263  10.663   4.783  1.00  0.00    -0.000 C 
BRANCH  28  29
ATOM     29  C   UNL     1     -12.262   9.600   5.898  1.00  0.00    -0.003 C 
ATOM     30  C   UNL     1     -12.572  10.179   7.279  1.00  0.00     0.004 C 
ENDBRANCH  28  29
ENDBRANCH  27  28
ENDBRANCH  26  27
ENDBRANCH  25  26
ENDBRANCH  24  25
ENDBRANCH  23  24
ENDBRANCH  22  23
ENDBRANCH  21  22
ENDBRANCH  20  21
ENDBRANCH  19  20
ENDBRANCH  18  19
ENDBRANCH  17  18
ENDBRANCH   1  17
TORSDOF 26
ENDMDL
