MODEL 1
REMARK VINA RESULT:    -3.951      0.000      0.000
REMARK INTER + INTRA:          -4.327
REMARK INTER:                  -4.182
REMARK INTRA:                  -0.145
REMARK UNBOUND:                -0.145
REMARK SMILES CC1=CCC(C(C)C)=CC1
REMARK SMILES IDX 1 1 2 2 3 3 4 4 5 5 9 6 10 7 6 8 7 9 8 10
REMARK H PARENT
REMARK Flexibility Score: inf
ROOT
ATOM      1  C   UNL     1     136.372 134.876 161.390  1.00  0.00     0.039 C 
ATOM      2  C   UNL     1     136.245 136.351 161.658  1.00  0.00    -0.073 C 
ATOM      3  C   UNL     1     137.321 137.160 161.601  1.00  0.00    -0.023 C 
ATOM      4  C   UNL     1     137.180 138.647 161.813  1.00  0.00     0.058 C 
ATOM      5  C   UNL     1     136.043 138.969 162.765  1.00  0.00    -0.068 C 
ATOM      6  C   UNL     1     134.964 138.155 162.805  1.00  0.00    -0.023 C 
ATOM      7  C   UNL     1     134.877 136.941 161.915  1.00  0.00     0.057 C 
ENDROOT
BRANCH   5   8
ATOM      8  C   UNL     1     136.121 140.221 163.625  1.00  0.00     0.009 C 
ATOM      9  C   UNL     1     136.329 139.866 165.101  1.00  0.00     0.012 C 
ATOM     10  C   UNL     1     134.883 141.108 163.437  1.00  0.00     0.012 C 
ENDBRANCH   5   8
TORSDOF 1
ENDMDL
MODEL 2
REMARK VINA RESULT:    -2.578      0.968      4.518
REMARK INTER + INTRA:          -2.873
REMARK INTER:                  -2.711
REMARK INTRA:                  -0.162
REMARK UNBOUND:                -0.145
REMARK SMILES CC1=CCC(C(C)C)=CC1
REMARK SMILES IDX 1 1 2 2 3 3 4 4 5 5 9 6 10 7 6 8 7 9 8 10
REMARK H PARENT
REMARK Flexibility Score: inf
ROOT
ATOM      1  C   UNL     1     135.713 140.713 164.405  1.00  0.00     0.039 C 
ATOM      2  C   UNL     1     135.766 139.583 163.412  1.00  0.00    -0.073 C 
ATOM      3  C   UNL     1     134.877 138.571 163.468  1.00  0.00    -0.023 C 
ATOM      4  C   UNL     1     134.896 137.470 162.437  1.00  0.00     0.058 C 
ATOM      5  C   UNL     1     136.299 137.215 161.919  1.00  0.00    -0.068 C 
ATOM      6  C   UNL     1     137.178 138.241 161.858  1.00  0.00    -0.023 C 
ATOM      7  C   UNL     1     136.779 139.629 162.291  1.00  0.00     0.057 C 
ENDROOT
BRANCH   5   8
ATOM      8  C   UNL     1     136.677 135.821 161.443  1.00  0.00     0.009 C 
ATOM      9  C   UNL     1     135.473 134.875 161.488  1.00  0.00     0.012 C 
ATOM     10  C   UNL     1     137.856 135.255 162.246  1.00  0.00     0.012 C 
ENDBRANCH   5   8
TORSDOF 1
ENDMDL
MODEL 3
REMARK VINA RESULT:    -2.187      1.222      4.389
REMARK INTER + INTRA:          -2.460
REMARK INTER:                  -2.315
REMARK INTRA:                  -0.145
REMARK UNBOUND:                -0.145
REMARK SMILES CC1=CCC(C(C)C)=CC1
REMARK SMILES IDX 1 1 2 2 3 3 4 4 5 5 9 6 10 7 6 8 7 9 8 10
REMARK H PARENT
REMARK Flexibility Score: inf
ROOT
ATOM      1  C   UNL     1     135.601 141.295 163.552  1.00  0.00     0.039 C 
ATOM      2  C   UNL     1     135.609 139.844 163.153  1.00  0.00    -0.073 C 
ATOM      3  C   UNL     1     136.198 138.916 163.932  1.00  0.00    -0.023 C 
ATOM      4  C   UNL     1     136.154 137.454 163.558  1.00  0.00     0.058 C 
ATOM      5  C   UNL     1     136.117 137.265 162.053  1.00  0.00    -0.068 C 
ATOM      6  C   UNL     1     135.514 138.198 161.284  1.00  0.00    -0.023 C 
ATOM      7  C   UNL     1     134.875 139.416 161.902  1.00  0.00     0.057 C 
ENDROOT
BRANCH   5   8
ATOM      8  C   UNL     1     136.725 136.010 161.444  1.00  0.00     0.009 C 
ATOM      9  C   UNL     1     135.698 134.875 161.376  1.00  0.00     0.012 C 
ATOM     10  C   UNL     1     137.985 135.573 162.203  1.00  0.00     0.012 C 
ENDBRANCH   5   8
TORSDOF 1
ENDMDL
MODEL 4
REMARK VINA RESULT:    -1.564      0.842      2.005
REMARK INTER + INTRA:          -1.800
REMARK INTER:                  -1.665
REMARK INTRA:                  -0.135
REMARK UNBOUND:                -0.145
REMARK SMILES CC1=CCC(C(C)C)=CC1
REMARK SMILES IDX 1 1 2 2 3 3 4 4 5 5 9 6 10 7 6 8 7 9 8 10
REMARK H PARENT
REMARK Flexibility Score: inf
ROOT
ATOM      1  C   UNL     1     136.394 134.884 160.837  1.00  0.00     0.039 C 
ATOM      2  C   UNL     1     136.234 136.151 161.633  1.00  0.00    -0.073 C 
ATOM      3  C   UNL     1     135.023 136.541 162.078  1.00  0.00    -0.023 C 
ATOM      4  C   UNL     1     134.875 137.781 162.924  1.00  0.00     0.058 C 
ATOM      5  C   UNL     1     135.923 138.822 162.577  1.00  0.00    -0.068 C 
ATOM      6  C   UNL     1     137.138 138.417 162.142  1.00  0.00    -0.023 C 
ATOM      7  C   UNL     1     137.462 136.951 162.004  1.00  0.00     0.057 C 
ENDROOT
BRANCH   5   8
ATOM      8  C   UNL     1     135.600 140.297 162.762  1.00  0.00     0.009 C 
ATOM      9  C   UNL     1     136.488 141.173 161.872  1.00  0.00     0.012 C 
ATOM     10  C   UNL     1     135.708 140.713 164.235  1.00  0.00     0.012 C 
ENDBRANCH   5   8
TORSDOF 1
ENDMDL
