MODEL 1
REMARK VINA RESULT:    -2.954      0.000      0.000
REMARK INTER + INTRA:          -3.213
REMARK INTER:                  -3.213
REMARK INTRA:                   0.000
REMARK UNBOUND:                 0.000
REMARK SMILES [NH3+]CC(=O)[O-]
REMARK SMILES IDX 2 1 1 2 3 6 4 7 5 8
REMARK H PARENT 1 3 1 4 1 5
REMARK Flexibility Score: inf
ROOT
ATOM      1  C   UNL     1      15.305   2.087   7.246  1.00  0.00     0.312 C 
ENDROOT
BRANCH   1   2
ATOM      2  N   UNL     1      14.976   3.509   7.155  1.00  0.00    -0.353 N 
ATOM      3  H   UNL     1      14.189   3.738   7.805  1.00  0.00     0.344 HD
ATOM      4  H   UNL     1      14.682   3.729   6.176  1.00  0.00     0.344 HD
ATOM      5  H   UNL     1      15.814   4.087   7.396  1.00  0.00     0.344 HD
ENDBRANCH   1   2
BRANCH   1   6
ATOM      6  C   UNL     1      14.461   1.415   8.285  1.00  0.00     0.096 C 
ATOM      7  O   UNL     1      14.194   2.008   9.363  1.00  0.00    -0.544 OA
ATOM      8  O   UNL     1      14.016   0.116   8.085  1.00  0.00    -0.544 OA
ENDBRANCH   1   6
TORSDOF 2
ENDMDL
MODEL 2
REMARK VINA RESULT:    -2.941      0.166      1.456
REMARK INTER + INTRA:          -3.199
REMARK INTER:                  -3.199
REMARK INTRA:                   0.000
REMARK UNBOUND:                 0.000
REMARK SMILES [NH3+]CC(=O)[O-]
REMARK SMILES IDX 2 1 1 2 3 6 4 7 5 8
REMARK H PARENT 1 3 1 4 1 5
REMARK Flexibility Score: inf
ROOT
ATOM      1  C   UNL     1      15.250   2.212   7.269  1.00  0.00     0.312 C 
ENDROOT
BRANCH   1   2
ATOM      2  N   UNL     1      14.875   3.625   7.250  1.00  0.00    -0.353 N 
ATOM      3  H   UNL     1      13.833   3.720   7.246  1.00  0.00     0.344 HD
ATOM      4  H   UNL     1      15.259   4.068   6.384  1.00  0.00     0.344 HD
ATOM      5  H   UNL     1      15.273   4.113   8.086  1.00  0.00     0.344 HD
ENDBRANCH   1   2
BRANCH   1   6
ATOM      6  C   UNL     1      14.485   1.477   8.325  1.00  0.00     0.096 C 
ATOM      7  O   UNL     1      14.125   0.285   8.132  1.00  0.00    -0.544 OA
ATOM      8  O   UNL     1      14.125   2.123   9.500  1.00  0.00    -0.544 OA
ENDBRANCH   1   6
TORSDOF 2
ENDMDL
MODEL 3
REMARK VINA RESULT:    -2.737      2.075      2.265
REMARK INTER + INTRA:          -2.977
REMARK INTER:                  -2.977
REMARK INTRA:                   0.000
REMARK UNBOUND:                 0.000
REMARK SMILES [NH3+]CC(=O)[O-]
REMARK SMILES IDX 2 1 1 2 3 6 4 7 5 8
REMARK H PARENT 1 3 1 4 1 5
REMARK Flexibility Score: inf
ROOT
ATOM      1  C   UNL     1      14.605   1.563   8.544  1.00  0.00     0.312 C 
ENDROOT
BRANCH   1   2
ATOM      2  N   UNL     1      14.009   2.579   9.411  1.00  0.00    -0.353 N 
ATOM      3  H   UNL     1      14.494   2.589  10.338  1.00  0.00     0.344 HD
ATOM      4  H   UNL     1      12.999   2.351   9.559  1.00  0.00     0.344 HD
ATOM      5  H   UNL     1      14.082   3.521   8.962  1.00  0.00     0.344 HD
ENDBRANCH   1   2
BRANCH   1   6
ATOM      6  C   UNL     1      14.939   2.142   7.204  1.00  0.00     0.096 C 
ATOM      7  O   UNL     1      15.300   3.344   7.107  1.00  0.00    -0.544 OA
ATOM      8  O   UNL     1      14.802   1.369   6.059  1.00  0.00    -0.544 OA
ENDBRANCH   1   6
TORSDOF 2
ENDMDL
MODEL 4
REMARK VINA RESULT:    -2.690     19.260     19.653
REMARK INTER + INTRA:          -2.926
REMARK INTER:                  -2.926
REMARK INTRA:                   0.000
REMARK UNBOUND:                 0.000
REMARK SMILES [NH3+]CC(=O)[O-]
REMARK SMILES IDX 2 1 1 2 3 6 4 7 5 8
REMARK H PARENT 1 3 1 4 1 5
REMARK Flexibility Score: inf
ROOT
ATOM      1  C   UNL     1      25.471  12.596  -4.316  1.00  0.00     0.312 C 
ENDROOT
BRANCH   1   2
ATOM      2  N   UNL     1      25.765  12.840  -2.905  1.00  0.00    -0.353 N 
ATOM      3  H   UNL     1      25.279  12.132  -2.309  1.00  0.00     0.344 HD
ATOM      4  H   UNL     1      25.423  13.794  -2.645  1.00  0.00     0.344 HD
ATOM      5  H   UNL     1      26.797  12.794  -2.740  1.00  0.00     0.344 HD
ENDBRANCH   1   2
BRANCH   1   6
ATOM      6  C   UNL     1      24.180  13.247  -4.707  1.00  0.00     0.096 C 
ATOM      7  O   UNL     1      23.111  12.582  -4.704  1.00  0.00    -0.544 OA
ATOM      8  O   UNL     1      24.167  14.571  -5.125  1.00  0.00    -0.544 OA
ENDBRANCH   1   6
TORSDOF 2
ENDMDL
MODEL 5
REMARK VINA RESULT:    -2.594      1.410      1.766
REMARK INTER + INTRA:          -2.822
REMARK INTER:                  -2.822
REMARK INTRA:                   0.000
REMARK UNBOUND:                 0.000
REMARK SMILES [NH3+]CC(=O)[O-]
REMARK SMILES IDX 2 1 1 2 3 6 4 7 5 8
REMARK H PARENT 1 3 1 4 1 5
REMARK Flexibility Score: inf
ROOT
ATOM      1  C   UNL     1      14.475   2.653   9.083  1.00  0.00     0.312 C 
ENDROOT
BRANCH   1   2
ATOM      2  N   UNL     1      14.490   3.943   8.395  1.00  0.00    -0.353 N 
ATOM      3  H   UNL     1      13.673   4.521   8.698  1.00  0.00     0.344 HD
ATOM      4  H   UNL     1      14.427   3.780   7.364  1.00  0.00     0.344 HD
ATOM      5  H   UNL     1      15.381   4.450   8.604  1.00  0.00     0.344 HD
ENDBRANCH   1   2
BRANCH   1   6
ATOM      6  C   UNL     1      14.603   1.529   8.102  1.00  0.00     0.096 C 
ATOM      7  O   UNL     1      14.074   0.413   8.347  1.00  0.00    -0.544 OA
ATOM      8  O   UNL     1      15.349   1.699   6.943  1.00  0.00    -0.544 OA
ENDBRANCH   1   6
TORSDOF 2
ENDMDL
MODEL 6
REMARK VINA RESULT:    -2.588     19.435     19.798
REMARK INTER + INTRA:          -2.815
REMARK INTER:                  -2.815
REMARK INTRA:                   0.000
REMARK UNBOUND:                 0.000
REMARK SMILES [NH3+]CC(=O)[O-]
REMARK SMILES IDX 2 1 1 2 3 6 4 7 5 8
REMARK H PARENT 1 3 1 4 1 5
REMARK Flexibility Score: inf
ROOT
ATOM      1  C   UNL     1      25.868  13.430  -3.831  1.00  0.00     0.312 C 
ENDROOT
BRANCH   1   2
ATOM      2  N   UNL     1      25.702  12.378  -2.829  1.00  0.00    -0.353 N 
ATOM      3  H   UNL     1      25.373  12.791  -1.926  1.00  0.00     0.344 HD
ATOM      4  H   UNL     1      26.623  11.908  -2.672  1.00  0.00     0.344 HD
ATOM      5  H   UNL     1      25.012  11.667  -3.166  1.00  0.00     0.344 HD
ENDBRANCH   1   2
BRANCH   1   6
ATOM      6  C   UNL     1      24.574  13.698  -4.535  1.00  0.00     0.096 C 
ATOM      7  O   UNL     1      24.325  14.848  -4.983  1.00  0.00    -0.544 OA
ATOM      8  O   UNL     1      23.623  12.693  -4.648  1.00  0.00    -0.544 OA
ENDBRANCH   1   6
TORSDOF 2
ENDMDL
MODEL 7
REMARK VINA RESULT:    -2.473     20.001     20.183
REMARK INTER + INTRA:          -2.690
REMARK INTER:                  -2.690
REMARK INTRA:                   0.000
REMARK UNBOUND:                 0.000
REMARK SMILES [NH3+]CC(=O)[O-]
REMARK SMILES IDX 2 1 1 2 3 6 4 7 5 8
REMARK H PARENT 1 3 1 4 1 5
REMARK Flexibility Score: inf
ROOT
ATOM      1  C   UNL     1      26.245  15.136  -2.232  1.00  0.00     0.312 C 
ENDROOT
BRANCH   1   2
ATOM      2  N   UNL     1      26.013  13.708  -2.019  1.00  0.00    -0.353 N 
ATOM      3  H   UNL     1      26.736  13.320  -1.370  1.00  0.00     0.344 HD
ATOM      4  H   UNL     1      26.081  13.211  -2.937  1.00  0.00     0.344 HD
ATOM      5  H   UNL     1      25.059  13.555  -1.620  1.00  0.00     0.344 HD
ENDBRANCH   1   2
BRANCH   1   6
ATOM      6  C   UNL     1      24.955  15.895  -2.173  1.00  0.00     0.096 C 
ATOM      7  O   UNL     1      24.239  16.006  -3.203  1.00  0.00    -0.544 OA
ATOM      8  O   UNL     1      24.570  16.521  -0.995  1.00  0.00    -0.544 OA
ENDBRANCH   1   6
TORSDOF 2
ENDMDL
MODEL 8
REMARK VINA RESULT:    -2.369      2.290      2.472
REMARK INTER + INTRA:          -2.576
REMARK INTER:                  -2.576
REMARK INTRA:                   0.000
REMARK UNBOUND:                 0.000
REMARK SMILES [NH3+]CC(=O)[O-]
REMARK SMILES IDX 2 1 1 2 3 6 4 7 5 8
REMARK H PARENT 1 3 1 4 1 5
REMARK Flexibility Score: inf
ROOT
ATOM      1  C   UNL     1      13.855   0.243   8.047  1.00  0.00     0.312 C 
ENDROOT
BRANCH   1   2
ATOM      2  N   UNL     1      12.515   0.378   8.618  1.00  0.00    -0.353 N 
ATOM      3  H   UNL     1      11.798   0.365   7.857  1.00  0.00     0.344 HD
ATOM      4  H   UNL     1      12.452   1.289   9.128  1.00  0.00     0.344 HD
ATOM      5  H   UNL     1      12.332  -0.401   9.292  1.00  0.00     0.344 HD
ENDBRANCH   1   2
BRANCH   1   6
ATOM      6  C   UNL     1      14.631   1.512   8.215  1.00  0.00     0.096 C 
ATOM      7  O   UNL     1      14.436   2.245   9.221  1.00  0.00    -0.544 OA
ATOM      8  O   UNL     1      15.530   1.911   7.236  1.00  0.00    -0.544 OA
ENDBRANCH   1   6
TORSDOF 2
ENDMDL
MODEL 9
REMARK VINA RESULT:    -2.362     19.763     19.877
REMARK INTER + INTRA:          -2.569
REMARK INTER:                  -2.569
REMARK INTRA:                   0.000
REMARK UNBOUND:                 0.000
REMARK SMILES [NH3+]CC(=O)[O-]
REMARK SMILES IDX 2 1 1 2 3 6 4 7 5 8
REMARK H PARENT 1 3 1 4 1 5
REMARK Flexibility Score: inf
ROOT
ATOM      1  C   UNL     1      24.701  13.008  -4.846  1.00  0.00     0.312 C 
ENDROOT
BRANCH   1   2
ATOM      2  N   UNL     1      23.298  12.624  -4.700  1.00  0.00    -0.353 N 
ATOM      3  H   UNL     1      22.717  13.465  -4.480  1.00  0.00     0.344 HD
ATOM      4  H   UNL     1      23.212  11.937  -3.916  1.00  0.00     0.344 HD
ATOM      5  H   UNL     1      22.955  12.177  -5.582  1.00  0.00     0.344 HD
ENDBRANCH   1   2
BRANCH   1   6
ATOM      6  C   UNL     1      25.068  14.059  -3.845  1.00  0.00     0.096 C 
ATOM      7  O   UNL     1      26.045  13.881  -3.070  1.00  0.00    -0.544 OA
ATOM      8  O   UNL     1      24.301  15.210  -3.733  1.00  0.00    -0.544 OA
ENDBRANCH   1   6
TORSDOF 2
ENDMDL
