MODEL 1
REMARK VINA RESULT:    -5.183      0.000      0.000
REMARK INTER + INTRA:          -6.777
REMARK INTER:                  -6.395
REMARK INTRA:                  -0.382
REMARK UNBOUND:                -0.382
REMARK SMILES Oc1cc(O)c2cc(O)c(-c3cc(O)c(O)c(O)c3)[o+]c2c1
REMARK SMILES IDX 10 1 20 2 21 3 22 4 2 5 3 6 4 7 6 8 7 9 8 10 11 11 12 12
REMARK SMILES IDX 13 13 19 14 15 15 17 16 14 17 16 19 18 21 9 23 1 25 5 27
REMARK H PARENT 14 18 16 20 18 22 9 24 1 26 5 28
REMARK Flexibility Score: inf
ROOT
ATOM      1  C   UNL     1      -4.852 -13.233  32.314  1.00  0.00     0.402 A 
ATOM      2  O   UNL     1      -4.925 -12.199  33.150  1.00  0.00    -0.202 OA
ATOM      3  C   UNL     1      -5.741 -12.168  34.199  1.00  0.00     0.368 A 
ATOM      4  C   UNL     1      -5.761 -11.041  35.027  1.00  0.00     0.162 A 
ATOM      5  C   UNL     1      -6.618 -10.994  36.134  1.00  0.00     0.128 A 
ATOM      6  C   UNL     1      -7.456 -12.078  36.412  1.00  0.00     0.093 A 
ATOM      7  C   UNL     1      -7.447 -13.216  35.592  1.00  0.00     0.136 A 
ATOM      8  C   UNL     1      -6.585 -13.263  34.479  1.00  0.00     0.125 A 
ATOM      9  C   UNL     1      -6.527 -14.375  33.630  1.00  0.00     0.078 A 
ATOM     10  C   UNL     1      -5.649 -14.373  32.543  1.00  0.00     0.223 A 
ENDROOT
BRANCH   1  11
ATOM     11  C   UNL     1      -3.911 -13.147  31.174  1.00  0.00     0.091 A 
ATOM     12  C   UNL     1      -2.589 -13.593  31.335  1.00  0.00     0.068 A 
ATOM     13  C   UNL     1      -1.673 -13.503  30.278  1.00  0.00     0.162 A 
ATOM     14  C   UNL     1      -4.295 -12.576  29.948  1.00  0.00     0.068 A 
ATOM     15  C   UNL     1      -2.069 -12.953  29.053  1.00  0.00     0.200 A 
ATOM     16  C   UNL     1      -3.382 -12.483  28.888  1.00  0.00     0.162 A 
BRANCH  13  17
ATOM     17  O   UNL     1      -0.367 -13.960  30.439  1.00  0.00    -0.504 OA
ATOM     18  H   UNL     1      -0.166 -14.932  30.646  1.00  0.00     0.293 HD
ENDBRANCH  13  17
BRANCH  15  19
ATOM     19  O   UNL     1      -1.144 -12.875  28.010  1.00  0.00    -0.502 OA
ATOM     20  H   UNL     1      -1.414 -12.981  27.041  1.00  0.00     0.293 HD
ENDBRANCH  15  19
BRANCH  16  21
ATOM     21  O   UNL     1      -3.776 -11.921  27.675  1.00  0.00    -0.504 OA
ATOM     22  H   UNL     1      -4.143 -12.488  26.920  1.00  0.00     0.293 HD
ENDBRANCH  16  21
ENDBRANCH   1  11
BRANCH  10  23
ATOM     23  O   UNL     1      -5.549 -15.497  31.723  1.00  0.00    -0.500 OA
ATOM     24  H   UNL     1      -6.372 -15.982  31.384  1.00  0.00     0.294 HD
ENDBRANCH  10  23
BRANCH   5  25
ATOM     25  O   UNL     1      -6.644  -9.875  36.963  1.00  0.00    -0.507 OA
ATOM     26  H   UNL     1      -7.320  -9.788  37.713  1.00  0.00     0.293 HD
ENDBRANCH   5  25
BRANCH   7  27
ATOM     27  O   UNL     1      -8.287 -14.292  35.881  1.00  0.00    -0.507 OA
ATOM     28  H   UNL     1      -8.373 -14.661  36.822  1.00  0.00     0.293 HD
ENDBRANCH   7  27
TORSDOF 7
ENDMDL
MODEL 2
REMARK VINA RESULT:    -5.080      1.387      2.727
REMARK INTER + INTRA:          -6.650
REMARK INTER:                  -6.493
REMARK INTRA:                  -0.157
REMARK UNBOUND:                -0.382
REMARK SMILES Oc1cc(O)c2cc(O)c(-c3cc(O)c(O)c(O)c3)[o+]c2c1
REMARK SMILES IDX 10 1 20 2 21 3 22 4 2 5 3 6 4 7 6 8 7 9 8 10 11 11 12 12
REMARK SMILES IDX 13 13 19 14 15 15 17 16 14 17 16 19 18 21 9 23 1 25 5 27
REMARK H PARENT 14 18 16 20 18 22 9 24 1 26 5 28
REMARK Flexibility Score: inf
ROOT
ATOM      1  C   UNL     1      -3.919 -12.238  32.123  1.00  0.00     0.402 A 
ATOM      2  O   UNL     1      -4.771 -13.109  32.661  1.00  0.00    -0.202 OA
ATOM      3  C   UNL     1      -5.608 -12.793  33.645  1.00  0.00     0.368 A 
ATOM      4  C   UNL     1      -6.469 -13.767  34.159  1.00  0.00     0.162 A 
ATOM      5  C   UNL     1      -7.354 -13.450  35.197  1.00  0.00     0.128 A 
ATOM      6  C   UNL     1      -7.375 -12.153  35.722  1.00  0.00     0.093 A 
ATOM      7  C   UNL     1      -6.518 -11.165  35.216  1.00  0.00     0.136 A 
ATOM      8  C   UNL     1      -5.629 -11.485  34.172  1.00  0.00     0.125 A 
ATOM      9  C   UNL     1      -4.757 -10.538  33.623  1.00  0.00     0.078 A 
ATOM     10  C   UNL     1      -3.899 -10.905  32.582  1.00  0.00     0.223 A 
ENDROOT
BRANCH   1  11
ATOM     11  C   UNL     1      -3.029 -12.709  31.037  1.00  0.00     0.091 A 
ATOM     12  C   UNL     1      -1.637 -12.593  31.185  1.00  0.00     0.068 A 
ATOM     13  C   UNL     1      -0.775 -13.013  30.164  1.00  0.00     0.162 A 
ATOM     14  C   UNL     1      -3.548 -13.220  29.834  1.00  0.00     0.068 A 
ATOM     15  C   UNL     1      -1.298 -13.540  28.977  1.00  0.00     0.200 A 
ATOM     16  C   UNL     1      -2.689 -13.640  28.808  1.00  0.00     0.162 A 
BRANCH  13  17
ATOM     17  O   UNL     1       0.606 -12.909  30.322  1.00  0.00    -0.504 OA
ATOM     18  H   UNL     1       1.015 -12.414  31.107  1.00  0.00     0.293 HD
ENDBRANCH  13  17
BRANCH  15  19
ATOM     19  O   UNL     1      -0.424 -13.956  27.972  1.00  0.00    -0.502 OA
ATOM     20  H   UNL     1       0.333 -13.372  27.640  1.00  0.00     0.293 HD
ENDBRANCH  15  19
BRANCH  16  21
ATOM     21  O   UNL     1      -3.215 -14.150  27.623  1.00  0.00    -0.504 OA
ATOM     22  H   UNL     1      -3.217 -13.610  26.766  1.00  0.00     0.293 HD
ENDBRANCH  16  21
ENDBRANCH   1  11
BRANCH  10  23
ATOM     23  O   UNL     1      -3.063  -9.955  31.996  1.00  0.00    -0.500 OA
ATOM     24  H   UNL     1      -3.414  -9.282  31.324  1.00  0.00     0.294 HD
ENDBRANCH  10  23
BRANCH   5  25
ATOM     25  O   UNL     1      -8.215 -14.414  35.716  1.00  0.00    -0.507 OA
ATOM     26  H   UNL     1      -9.218 -14.271  35.739  1.00  0.00     0.293 HD
ENDBRANCH   5  25
BRANCH   7  27
ATOM     27  O   UNL     1      -6.550  -9.875  35.747  1.00  0.00    -0.507 OA
ATOM     28  H   UNL     1      -5.794  -9.218  35.594  1.00  0.00     0.293 HD
ENDBRANCH   7  27
TORSDOF 7
ENDMDL
MODEL 3
REMARK VINA RESULT:    -5.064      1.395      3.138
REMARK INTER + INTRA:          -6.630
REMARK INTER:                  -6.439
REMARK INTRA:                  -0.191
REMARK UNBOUND:                -0.382
REMARK SMILES Oc1cc(O)c2cc(O)c(-c3cc(O)c(O)c(O)c3)[o+]c2c1
REMARK SMILES IDX 10 1 20 2 21 3 22 4 2 5 3 6 4 7 6 8 7 9 8 10 11 11 12 12
REMARK SMILES IDX 13 13 19 14 15 15 17 16 14 17 16 19 18 21 9 23 1 25 5 27
REMARK H PARENT 14 18 16 20 18 22 9 24 1 26 5 28
REMARK Flexibility Score: inf
ROOT
ATOM      1  C   UNL     1      -3.944 -12.191  32.130  1.00  0.00     0.402 A 
ATOM      2  O   UNL     1      -4.786 -13.073  32.664  1.00  0.00    -0.202 OA
ATOM      3  C   UNL     1      -5.624 -12.772  33.652  1.00  0.00     0.368 A 
ATOM      4  C   UNL     1      -6.475 -13.757  34.162  1.00  0.00     0.162 A 
ATOM      5  C   UNL     1      -7.360 -13.455  35.205  1.00  0.00     0.128 A 
ATOM      6  C   UNL     1      -7.393 -12.162  35.737  1.00  0.00     0.093 A 
ATOM      7  C   UNL     1      -6.547 -11.161  35.235  1.00  0.00     0.136 A 
ATOM      8  C   UNL     1      -5.657 -11.467  34.187  1.00  0.00     0.125 A 
ATOM      9  C   UNL     1      -4.796 -10.508  33.641  1.00  0.00     0.078 A 
ATOM     10  C   UNL     1      -3.936 -10.860  32.597  1.00  0.00     0.223 A 
ENDROOT
BRANCH   1  11
ATOM     11  C   UNL     1      -3.052 -12.647  31.039  1.00  0.00     0.091 A 
ATOM     12  C   UNL     1      -3.607 -13.244  29.897  1.00  0.00     0.068 A 
ATOM     13  C   UNL     1      -2.783 -13.703  28.861  1.00  0.00     0.162 A 
ATOM     14  C   UNL     1      -1.653 -12.546  31.147  1.00  0.00     0.068 A 
ATOM     15  C   UNL     1      -1.392 -13.580  28.965  1.00  0.00     0.200 A 
ATOM     16  C   UNL     1      -0.824 -13.005  30.114  1.00  0.00     0.162 A 
BRANCH  13  17
ATOM     17  O   UNL     1      -3.341 -14.282  27.723  1.00  0.00    -0.504 OA
ATOM     18  H   UNL     1      -4.322 -14.167  27.495  1.00  0.00     0.293 HD
ENDBRANCH  13  17
BRANCH  15  19
ATOM     19  O   UNL     1      -0.587 -14.040  27.921  1.00  0.00    -0.502 OA
ATOM     20  H   UNL     1      -0.882 -14.782  27.300  1.00  0.00     0.293 HD
ENDBRANCH  15  19
BRANCH  16  21
ATOM     21  O   UNL     1       0.561 -12.894  30.228  1.00  0.00    -0.504 OA
ATOM     22  H   UNL     1       1.116 -12.421  29.526  1.00  0.00     0.293 HD
ENDBRANCH  16  21
ENDBRANCH   1  11
BRANCH  10  23
ATOM     23  O   UNL     1      -3.112  -9.898  32.014  1.00  0.00    -0.500 OA
ATOM     24  H   UNL     1      -2.312 -10.157  31.448  1.00  0.00     0.294 HD
ENDBRANCH  10  23
BRANCH   5  25
ATOM     25  O   UNL     1      -8.211 -14.431  35.719  1.00  0.00    -0.507 OA
ATOM     26  H   UNL     1      -8.035 -14.866  36.617  1.00  0.00     0.293 HD
ENDBRANCH   5  25
BRANCH   7  27
ATOM     27  O   UNL     1      -6.592  -9.875  35.773  1.00  0.00    -0.507 OA
ATOM     28  H   UNL     1      -5.838  -9.213  35.629  1.00  0.00     0.293 HD
ENDBRANCH   7  27
TORSDOF 7
ENDMDL
MODEL 4
REMARK VINA RESULT:    -4.259      1.574      6.999
REMARK INTER + INTRA:          -5.637
REMARK INTER:                  -6.013
REMARK INTRA:                   0.375
REMARK UNBOUND:                -0.382
REMARK SMILES Oc1cc(O)c2cc(O)c(-c3cc(O)c(O)c(O)c3)[o+]c2c1
REMARK SMILES IDX 10 1 20 2 21 3 22 4 2 5 3 6 4 7 6 8 7 9 8 10 11 11 12 12
REMARK SMILES IDX 13 13 19 14 15 15 17 16 14 17 16 19 18 21 9 23 1 25 5 27
REMARK H PARENT 14 18 16 20 18 22 9 24 1 26 5 28
REMARK Flexibility Score: inf
ROOT
ATOM      1  C   UNL     1      -5.296 -12.696  33.297  1.00  0.00     0.402 A 
ATOM      2  O   UNL     1      -4.417 -11.750  32.969  1.00  0.00    -0.202 OA
ATOM      3  C   UNL     1      -3.601 -11.848  31.924  1.00  0.00     0.368 A 
ATOM      4  C   UNL     1      -2.702 -10.814  31.649  1.00  0.00     0.162 A 
ATOM      5  C   UNL     1      -1.834 -10.905  30.553  1.00  0.00     0.128 A 
ATOM      6  C   UNL     1      -1.867 -12.036  29.731  1.00  0.00     0.093 A 
ATOM      7  C   UNL     1      -2.765 -13.083  29.993  1.00  0.00     0.136 A 
ATOM      8  C   UNL     1      -3.636 -12.990  31.095  1.00  0.00     0.125 A 
ATOM      9  C   UNL     1      -4.557 -13.998  31.400  1.00  0.00     0.078 A 
ATOM     10  C   UNL     1      -5.406 -13.854  32.502  1.00  0.00     0.223 A 
ENDROOT
BRANCH   1  11
ATOM     11  C   UNL     1      -6.147 -12.477  34.490  1.00  0.00     0.091 A 
ATOM     12  C   UNL     1      -6.014 -11.287  35.223  1.00  0.00     0.068 A 
ATOM     13  C   UNL     1      -6.793 -11.065  36.367  1.00  0.00     0.162 A 
ATOM     14  C   UNL     1      -7.045 -13.461  34.939  1.00  0.00     0.068 A 
ATOM     15  C   UNL     1      -7.701 -12.039  36.796  1.00  0.00     0.200 A 
ATOM     16  C   UNL     1      -7.825 -13.244  36.084  1.00  0.00     0.162 A 
BRANCH  13  17
ATOM     17  O   UNL     1      -6.667  -9.876  37.083  1.00  0.00    -0.504 OA
ATOM     18  H   UNL     1      -7.476  -9.321  37.338  1.00  0.00     0.293 HD
ENDBRANCH  13  17
BRANCH  15  19
ATOM     19  O   UNL     1      -8.470 -11.800  37.937  1.00  0.00    -0.502 OA
ATOM     20  H   UNL     1      -8.083 -11.861  38.870  1.00  0.00     0.293 HD
ENDBRANCH  15  19
BRANCH  16  21
ATOM     21  O   UNL     1      -8.718 -14.223  36.516  1.00  0.00    -0.504 OA
ATOM     22  H   UNL     1      -9.233 -14.127  37.382  1.00  0.00     0.293 HD
ENDBRANCH  16  21
ENDBRANCH   1  11
BRANCH  10  23
ATOM     23  O   UNL     1      -6.361 -14.831  32.782  1.00  0.00    -0.500 OA
ATOM     24  H   UNL     1      -6.172 -15.588  33.429  1.00  0.00     0.294 HD
ENDBRANCH  10  23
BRANCH   5  25
ATOM     25  O   UNL     1      -0.935  -9.879  30.272  1.00  0.00    -0.507 OA
ATOM     26  H   UNL     1      -0.904  -9.034  30.831  1.00  0.00     0.293 HD
ENDBRANCH   5  25
BRANCH   7  27
ATOM     27  O   UNL     1      -2.789 -14.204  29.164  1.00  0.00    -0.507 OA
ATOM     28  H   UNL     1      -3.389 -14.249  28.348  1.00  0.00     0.293 HD
ENDBRANCH   7  27
TORSDOF 7
ENDMDL
MODEL 5
REMARK VINA RESULT:    -4.079      1.566      6.994
REMARK INTER + INTRA:          -5.414
REMARK INTER:                  -5.875
REMARK INTRA:                   0.461
REMARK UNBOUND:                -0.382
REMARK SMILES Oc1cc(O)c2cc(O)c(-c3cc(O)c(O)c(O)c3)[o+]c2c1
REMARK SMILES IDX 10 1 20 2 21 3 22 4 2 5 3 6 4 7 6 8 7 9 8 10 11 11 12 12
REMARK SMILES IDX 13 13 19 14 15 15 17 16 14 17 16 19 18 21 9 23 1 25 5 27
REMARK H PARENT 14 18 16 20 18 22 9 24 1 26 5 28
REMARK Flexibility Score: inf
ROOT
ATOM      1  C   UNL     1      -5.253 -12.661  33.236  1.00  0.00     0.402 A 
ATOM      2  O   UNL     1      -4.357 -11.728  32.919  1.00  0.00    -0.202 OA
ATOM      3  C   UNL     1      -3.551 -11.822  31.866  1.00  0.00     0.368 A 
ATOM      4  C   UNL     1      -2.633 -10.801  31.604  1.00  0.00     0.162 A 
ATOM      5  C   UNL     1      -1.776 -10.889  30.499  1.00  0.00     0.128 A 
ATOM      6  C   UNL     1      -1.838 -12.002  29.655  1.00  0.00     0.093 A 
ATOM      7  C   UNL     1      -2.756 -13.035  29.904  1.00  0.00     0.136 A 
ATOM      8  C   UNL     1      -3.617 -12.946  31.015  1.00  0.00     0.125 A 
ATOM      9  C   UNL     1      -4.556 -13.941  31.308  1.00  0.00     0.078 A 
ATOM     10  C   UNL     1      -5.393 -13.801  32.419  1.00  0.00     0.223 A 
ENDROOT
BRANCH   1  11
ATOM     11  C   UNL     1      -6.089 -12.448  34.440  1.00  0.00     0.091 A 
ATOM     12  C   UNL     1      -7.014 -13.433  34.821  1.00  0.00     0.068 A 
ATOM     13  C   UNL     1      -7.831 -13.246  35.944  1.00  0.00     0.162 A 
ATOM     14  C   UNL     1      -6.019 -11.253  35.178  1.00  0.00     0.068 A 
ATOM     15  C   UNL     1      -7.740 -12.064  36.688  1.00  0.00     0.200 A 
ATOM     16  C   UNL     1      -6.835 -11.061  36.302  1.00  0.00     0.162 A 
BRANCH  13  17
ATOM     17  O   UNL     1      -8.736 -14.234  36.327  1.00  0.00    -0.504 OA
ATOM     18  H   UNL     1      -9.701 -14.014  36.549  1.00  0.00     0.293 HD
ENDBRANCH  13  17
BRANCH  15  19
ATOM     19  O   UNL     1      -8.560 -11.896  37.805  1.00  0.00    -0.502 OA
ATOM     20  H   UNL     1      -9.443 -12.380  37.903  1.00  0.00     0.293 HD
ENDBRANCH  15  19
BRANCH  16  21
ATOM     21  O   UNL     1      -6.752  -9.876  37.031  1.00  0.00    -0.504 OA
ATOM     22  H   UNL     1      -6.117  -9.777  37.813  1.00  0.00     0.293 HD
ENDBRANCH  16  21
ENDBRANCH   1  11
BRANCH  10  23
ATOM     23  O   UNL     1      -6.366 -14.764  32.688  1.00  0.00    -0.500 OA
ATOM     24  H   UNL     1      -6.361 -15.298  33.549  1.00  0.00     0.294 HD
ENDBRANCH  10  23
BRANCH   5  25
ATOM     25  O   UNL     1      -0.858  -9.876  30.231  1.00  0.00    -0.507 OA
ATOM     26  H   UNL     1       0.120 -10.079  30.061  1.00  0.00     0.293 HD
ENDBRANCH   5  25
BRANCH   7  27
ATOM     27  O   UNL     1      -2.810 -14.139  29.054  1.00  0.00    -0.507 OA
ATOM     28  H   UNL     1      -3.446 -14.172  28.266  1.00  0.00     0.293 HD
ENDBRANCH   7  27
TORSDOF 7
ENDMDL
MODEL 6
REMARK VINA RESULT:    -4.050      1.453      7.353
REMARK INTER + INTRA:          -5.379
REMARK INTER:                  -5.053
REMARK INTRA:                  -0.326
REMARK UNBOUND:                -0.382
REMARK SMILES Oc1cc(O)c2cc(O)c(-c3cc(O)c(O)c(O)c3)[o+]c2c1
REMARK SMILES IDX 10 1 20 2 21 3 22 4 2 5 3 6 4 7 6 8 7 9 8 10 11 11 12 12
REMARK SMILES IDX 13 13 19 14 15 15 17 16 14 17 16 19 18 21 9 23 1 25 5 27
REMARK H PARENT 14 18 16 20 18 22 9 24 1 26 5 28
REMARK Flexibility Score: inf
ROOT
ATOM      1  C   UNL     1      -5.143 -11.617  33.097  1.00  0.00     0.402 A 
ATOM      2  O   UNL     1      -4.065 -12.374  32.906  1.00  0.00    -0.202 OA
ATOM      3  C   UNL     1      -3.355 -12.358  31.782  1.00  0.00     0.368 A 
ATOM      4  C   UNL     1      -2.237 -13.188  31.658  1.00  0.00     0.162 A 
ATOM      5  C   UNL     1      -1.482 -13.183  30.478  1.00  0.00     0.128 A 
ATOM      6  C   UNL     1      -1.849 -12.345  29.419  1.00  0.00     0.093 A 
ATOM      7  C   UNL     1      -2.968 -11.506  29.529  1.00  0.00     0.136 A 
ATOM      8  C   UNL     1      -3.726 -11.511  30.716  1.00  0.00     0.125 A 
ATOM      9  C   UNL     1      -4.847 -10.690  30.885  1.00  0.00     0.078 A 
ATOM     10  C   UNL     1      -5.561 -10.728  32.086  1.00  0.00     0.223 A 
ENDROOT
BRANCH   1  11
ATOM     11  C   UNL     1      -5.857 -11.729  34.390  1.00  0.00     0.091 A 
ATOM     12  C   UNL     1      -6.725 -12.810  34.608  1.00  0.00     0.068 A 
ATOM     13  C   UNL     1      -7.428 -12.928  35.815  1.00  0.00     0.162 A 
ATOM     14  C   UNL     1      -5.729 -10.743  35.385  1.00  0.00     0.068 A 
ATOM     15  C   UNL     1      -7.279 -11.955  36.810  1.00  0.00     0.200 A 
ATOM     16  C   UNL     1      -6.431 -10.856  36.593  1.00  0.00     0.162 A 
BRANCH  13  17
ATOM     17  O   UNL     1      -8.277 -14.012  36.031  1.00  0.00    -0.504 OA
ATOM     18  H   UNL     1      -7.916 -14.938  36.231  1.00  0.00     0.293 HD
ENDBRANCH  13  17
BRANCH  15  19
ATOM     19  O   UNL     1      -7.985 -12.090  38.007  1.00  0.00    -0.502 OA
ATOM     20  H   UNL     1      -7.792 -11.511  38.814  1.00  0.00     0.293 HD
ENDBRANCH  15  19
BRANCH  16  21
ATOM     21  O   UNL     1      -6.291  -9.877  37.576  1.00  0.00    -0.504 OA
ATOM     22  H   UNL     1      -6.906  -9.838  38.379  1.00  0.00     0.293 HD
ENDBRANCH  16  21
ENDBRANCH   1  11
BRANCH  10  23
ATOM     23  O   UNL     1      -6.648  -9.876  32.280  1.00  0.00    -0.500 OA
ATOM     24  H   UNL     1      -6.658  -8.934  31.906  1.00  0.00     0.294 HD
ENDBRANCH  10  23
BRANCH   5  25
ATOM     25  O   UNL     1      -0.367 -14.007  30.345  1.00  0.00    -0.507 OA
ATOM     26  H   UNL     1       0.192 -14.010  29.500  1.00  0.00     0.293 HD
ENDBRANCH   5  25
BRANCH   7  27
ATOM     27  O   UNL     1      -3.322 -10.673  28.468  1.00  0.00    -0.507 OA
ATOM     28  H   UNL     1      -2.747 -10.600  27.636  1.00  0.00     0.293 HD
ENDBRANCH   7  27
TORSDOF 7
ENDMDL
MODEL 7
REMARK VINA RESULT:    -4.009      1.280      7.011
REMARK INTER + INTRA:          -5.328
REMARK INTER:                  -5.328
REMARK INTRA:                   0.000
REMARK UNBOUND:                -0.382
REMARK SMILES Oc1cc(O)c2cc(O)c(-c3cc(O)c(O)c(O)c3)[o+]c2c1
REMARK SMILES IDX 10 1 20 2 21 3 22 4 2 5 3 6 4 7 6 8 7 9 8 10 11 11 12 12
REMARK SMILES IDX 13 13 19 14 15 15 17 16 14 17 16 19 18 21 9 23 1 25 5 27
REMARK H PARENT 14 18 16 20 18 22 9 24 1 26 5 28
REMARK Flexibility Score: inf
ROOT
ATOM      1  C   UNL     1      -4.834 -12.739  32.389  1.00  0.00     0.402 A 
ATOM      2  O   UNL     1      -4.734 -11.764  31.487  1.00  0.00    -0.202 OA
ATOM      3  C   UNL     1      -4.061 -11.893  30.348  1.00  0.00     0.368 A 
ATOM      4  C   UNL     1      -3.999 -10.819  29.455  1.00  0.00     0.162 A 
ATOM      5  C   UNL     1      -3.291 -10.940  28.253  1.00  0.00     0.128 A 
ATOM      6  C   UNL     1      -2.643 -12.141  27.944  1.00  0.00     0.093 A 
ATOM      7  C   UNL     1      -2.697 -13.229  28.829  1.00  0.00     0.136 A 
ATOM      8  C   UNL     1      -3.409 -13.105  30.038  1.00  0.00     0.125 A 
ATOM      9  C   UNL     1      -3.503 -14.159  30.955  1.00  0.00     0.078 A 
ATOM     10  C   UNL     1      -4.229 -13.987  32.137  1.00  0.00     0.223 A 
ENDROOT
BRANCH   1  11
ATOM     11  C   UNL     1      -5.604 -12.473  33.625  1.00  0.00     0.091 A 
ATOM     12  C   UNL     1      -6.582 -13.390  34.040  1.00  0.00     0.068 A 
ATOM     13  C   UNL     1      -7.338 -13.150  35.196  1.00  0.00     0.162 A 
ATOM     14  C   UNL     1      -5.416 -11.291  34.365  1.00  0.00     0.068 A 
ATOM     15  C   UNL     1      -7.131 -11.982  35.939  1.00  0.00     0.200 A 
ATOM     16  C   UNL     1      -6.171 -11.046  35.521  1.00  0.00     0.162 A 
BRANCH  13  17
ATOM     17  O   UNL     1      -8.299 -14.071  35.611  1.00  0.00    -0.504 OA
ATOM     18  H   UNL     1      -9.075 -14.335  35.014  1.00  0.00     0.293 HD
ENDBRANCH  13  17
BRANCH  15  19
ATOM     19  O   UNL     1      -7.892 -11.762  37.089  1.00  0.00    -0.502 OA
ATOM     20  H   UNL     1      -8.594 -12.419  37.405  1.00  0.00     0.293 HD
ENDBRANCH  15  19
BRANCH  16  21
ATOM     21  O   UNL     1      -5.972  -9.875  36.249  1.00  0.00    -0.504 OA
ATOM     22  H   UNL     1      -6.504  -9.673  37.087  1.00  0.00     0.293 HD
ENDBRANCH  16  21
ENDBRANCH   1  11
BRANCH  10  23
ATOM     23  O   UNL     1      -4.370 -15.048  33.032  1.00  0.00    -0.500 OA
ATOM     24  H   UNL     1      -4.881 -14.946  33.901  1.00  0.00     0.294 HD
ENDBRANCH  10  23
BRANCH   5  25
ATOM     25  O   UNL     1      -3.224  -9.875  27.357  1.00  0.00    -0.507 OA
ATOM     26  H   UNL     1      -3.455  -8.930  27.641  1.00  0.00     0.293 HD
ENDBRANCH   5  25
BRANCH   7  27
ATOM     27  O   UNL     1      -2.049 -14.421  28.509  1.00  0.00    -0.507 OA
ATOM     28  H   UNL     1      -1.454 -14.500  27.691  1.00  0.00     0.293 HD
ENDBRANCH   7  27
TORSDOF 7
ENDMDL
MODEL 8
REMARK VINA RESULT:    -2.994      1.787      7.319
REMARK INTER + INTRA:          -4.077
REMARK INTER:                  -4.071
REMARK INTRA:                  -0.005
REMARK UNBOUND:                -0.382
REMARK SMILES Oc1cc(O)c2cc(O)c(-c3cc(O)c(O)c(O)c3)[o+]c2c1
REMARK SMILES IDX 10 1 20 2 21 3 22 4 2 5 3 6 4 7 6 8 7 9 8 10 11 11 12 12
REMARK SMILES IDX 13 13 19 14 15 15 17 16 14 17 16 19 18 21 9 23 1 25 5 27
REMARK H PARENT 14 18 16 20 18 22 9 24 1 26 5 28
REMARK Flexibility Score: inf
ROOT
ATOM      1  C   UNL     1      -4.552 -12.665  31.672  1.00  0.00     0.402 A 
ATOM      2  O   UNL     1      -5.199 -13.280  30.684  1.00  0.00    -0.202 OA
ATOM      3  C   UNL     1      -4.661 -13.500  29.489  1.00  0.00     0.368 A 
ATOM      4  C   UNL     1      -5.409 -14.149  28.502  1.00  0.00     0.162 A 
ATOM      5  C   UNL     1      -4.856 -14.384  27.237  1.00  0.00     0.128 A 
ATOM      6  C   UNL     1      -3.550 -13.968  26.959  1.00  0.00     0.093 A 
ATOM      7  C   UNL     1      -2.785 -13.317  27.940  1.00  0.00     0.136 A 
ATOM      8  C   UNL     1      -3.343 -13.080  29.211  1.00  0.00     0.125 A 
ATOM      9  C   UNL     1      -2.625 -12.442  30.230  1.00  0.00     0.078 A 
ATOM     10  C   UNL     1      -3.223 -12.238  31.477  1.00  0.00     0.223 A 
ENDROOT
BRANCH   1  11
ATOM     11  C   UNL     1      -5.260 -12.470  32.958  1.00  0.00     0.091 A 
ATOM     12  C   UNL     1      -6.076 -13.496  33.460  1.00  0.00     0.068 A 
ATOM     13  C   UNL     1      -6.773 -13.328  34.664  1.00  0.00     0.162 A 
ATOM     14  C   UNL     1      -5.179 -11.255  33.662  1.00  0.00     0.068 A 
ATOM     15  C   UNL     1      -6.670 -12.124  35.371  1.00  0.00     0.200 A 
ATOM     16  C   UNL     1      -5.875 -11.081  34.866  1.00  0.00     0.162 A 
BRANCH  13  17
ATOM     17  O   UNL     1      -7.570 -14.356  35.165  1.00  0.00    -0.504 OA
ATOM     18  H   UNL     1      -7.167 -15.160  35.633  1.00  0.00     0.293 HD
ENDBRANCH  13  17
BRANCH  15  19
ATOM     19  O   UNL     1      -7.369 -11.975  36.570  1.00  0.00    -0.502 OA
ATOM     20  H   UNL     1      -7.196 -11.205  37.203  1.00  0.00     0.293 HD
ENDBRANCH  15  19
BRANCH  16  21
ATOM     21  O   UNL     1      -5.782  -9.875  35.559  1.00  0.00    -0.504 OA
ATOM     22  H   UNL     1      -5.490  -9.840  36.528  1.00  0.00     0.293 HD
ENDBRANCH  16  21
ENDBRANCH   1  11
BRANCH  10  23
ATOM     23  O   UNL     1      -2.497 -11.649  32.512  1.00  0.00    -0.500 OA
ATOM     24  H   UNL     1      -1.547 -11.935  32.724  1.00  0.00     0.294 HD
ENDBRANCH  10  23
BRANCH   5  25
ATOM     25  O   UNL     1      -5.594 -15.030  26.248  1.00  0.00    -0.507 OA
ATOM     26  H   UNL     1      -5.577 -16.038  26.147  1.00  0.00     0.293 HD
ENDBRANCH   5  25
BRANCH   7  27
ATOM     27  O   UNL     1      -1.483 -12.908  27.652  1.00  0.00    -0.507 OA
ATOM     28  H   UNL     1      -0.817 -13.531  27.209  1.00  0.00     0.293 HD
ENDBRANCH   7  27
TORSDOF 7
ENDMDL
