MODEL 1
REMARK VINA RESULT:    -4.947      0.000      0.000
REMARK INTER + INTRA:         -14.744
REMARK INTER:                 -11.310
REMARK INTRA:                  -3.434
REMARK UNBOUND:                -3.434
REMARK SMILES CCCCCCCCCCCCCCCCCCCCCCCC(=O)[O-]
REMARK SMILES IDX 13 1 14 2 15 3 16 4 17 5 18 6 19 7 20 8 21 9 22 10 23 11
REMARK SMILES IDX 24 12 25 13 26 14 12 15 11 16 10 17 9 18 8 19 7 20 6 21 5 22
REMARK SMILES IDX 4 23 3 24 2 25 1 26
REMARK H PARENT
REMARK Flexibility Score: inf
ROOT
ATOM      1  C   UNL     1      -4.561   5.975  15.477  1.00  0.00     0.000 C 
ENDROOT
BRANCH   1   2
ATOM      2  C   UNL     1      -4.785   5.515  16.922  1.00  0.00     0.000 C 
BRANCH   2   3
ATOM      3  C   UNL     1      -5.483   4.147  16.961  1.00  0.00     0.000 C 
BRANCH   3   4
ATOM      4  C   UNL     1      -4.748   3.084  16.128  1.00  0.00     0.000 C 
BRANCH   4   5
ATOM      5  C   UNL     1      -3.489   2.546  16.831  1.00  0.00     0.000 C 
BRANCH   5   6
ATOM      6  C   UNL     1      -2.194   2.929  16.097  1.00  0.00     0.000 C 
BRANCH   6   7
ATOM      7  C   UNL     1      -1.222   3.716  16.987  1.00  0.00     0.000 C 
BRANCH   7   8
ATOM      8  C   UNL     1      -1.215   5.203  16.611  1.00  0.00     0.000 C 
BRANCH   8   9
ATOM      9  C   UNL     1      -0.057   5.940  17.301  1.00  0.00     0.000 C 
BRANCH   9  10
ATOM     10  C   UNL     1      -0.089   5.792  18.830  1.00  0.00     0.006 C 
BRANCH  10  11
ATOM     11  C   UNL     1       0.291   7.088  19.557  1.00  0.00     0.053 C 
BRANCH  11  12
ATOM     12  C   UNL     1       0.444   6.840  21.024  1.00  0.00     0.041 C 
ATOM     13  O   UNL     1       1.570   6.968  21.574  1.00  0.00    -0.550 OA
ATOM     14  O   UNL     1      -0.665   6.515  21.795  1.00  0.00    -0.550 OA
ENDBRANCH  11  12
ENDBRANCH  10  11
ENDBRANCH   9  10
ENDBRANCH   8   9
ENDBRANCH   7   8
ENDBRANCH   6   7
ENDBRANCH   5   6
ENDBRANCH   4   5
ENDBRANCH   3   4
ENDBRANCH   2   3
ENDBRANCH   1   2
BRANCH   1  15
ATOM     15  C   UNL     1      -5.559   7.072  15.086  1.00  0.00     0.000 C 
BRANCH  15  16
ATOM     16  C   UNL     1      -6.395   7.514  16.295  1.00  0.00     0.000 C 
BRANCH  16  17
ATOM     17  C   UNL     1      -7.864   7.064  16.203  1.00  0.00     0.000 C 
BRANCH  17  18
ATOM     18  C   UNL     1      -8.497   7.183  14.802  1.00  0.00    -0.000 C 
BRANCH  18  19
ATOM     19  C   UNL     1      -9.119   5.887  14.255  1.00  0.00    -0.000 C 
BRANCH  19  20
ATOM     20  C   UNL     1      -8.323   5.288  13.087  1.00  0.00    -0.000 C 
BRANCH  20  21
ATOM     21  C   UNL     1      -7.331   4.226  13.587  1.00  0.00    -0.000 C 
BRANCH  21  22
ATOM     22  C   UNL     1      -6.110   4.074  12.665  1.00  0.00    -0.000 C 
BRANCH  22  23
ATOM     23  C   UNL     1      -6.179   5.000  11.437  1.00  0.00    -0.000 C 
BRANCH  23  24
ATOM     24  C   UNL     1      -5.128   6.120  11.484  1.00  0.00    -0.000 C 
BRANCH  24  25
ATOM     25  C   UNL     1      -5.607   7.414  10.809  1.00  0.00    -0.003 C 
ATOM     26  C   UNL     1      -6.473   8.240  11.756  1.00  0.00     0.004 C 
ENDBRANCH  24  25
ENDBRANCH  23  24
ENDBRANCH  22  23
ENDBRANCH  21  22
ENDBRANCH  20  21
ENDBRANCH  19  20
ENDBRANCH  18  19
ENDBRANCH  17  18
ENDBRANCH  16  17
ENDBRANCH  15  16
ENDBRANCH   1  15
TORSDOF 22
ENDMDL
MODEL 2
REMARK VINA RESULT:    -4.652      1.610      3.031
REMARK INTER + INTRA:         -14.070
REMARK INTER:                 -10.726
REMARK INTRA:                  -3.343
REMARK UNBOUND:                -3.434
REMARK SMILES CCCCCCCCCCCCCCCCCCCCCCCC(=O)[O-]
REMARK SMILES IDX 13 1 14 2 15 3 16 4 17 5 18 6 19 7 20 8 21 9 22 10 23 11
REMARK SMILES IDX 24 12 25 13 26 14 12 15 11 16 10 17 9 18 8 19 7 20 6 21 5 22
REMARK SMILES IDX 4 23 3 24 2 25 1 26
REMARK H PARENT
REMARK Flexibility Score: inf
ROOT
ATOM      1  C   UNL     1      -6.936   7.091  14.792  1.00  0.00     0.000 C 
ENDROOT
BRANCH   1   2
ATOM      2  C   UNL     1      -6.140   7.496  16.038  1.00  0.00     0.000 C 
BRANCH   2   3
ATOM      3  C   UNL     1      -6.045   6.329  17.032  1.00  0.00     0.000 C 
BRANCH   3   4
ATOM      4  C   UNL     1      -4.687   5.611  16.973  1.00  0.00     0.000 C 
BRANCH   4   5
ATOM      5  C   UNL     1      -4.830   4.082  16.866  1.00  0.00     0.000 C 
BRANCH   5   6
ATOM      6  C   UNL     1      -3.516   3.393  16.466  1.00  0.00     0.000 C 
BRANCH   6   7
ATOM      7  C   UNL     1      -2.655   4.258  15.535  1.00  0.00     0.000 C 
BRANCH   7   8
ATOM      8  C   UNL     1      -1.163   4.076  15.841  1.00  0.00     0.000 C 
BRANCH   8   9
ATOM      9  C   UNL     1      -0.856   4.420  17.307  1.00  0.00     0.000 C 
BRANCH   9  10
ATOM     10  C   UNL     1      -0.133   5.768  17.459  1.00  0.00     0.006 C 
BRANCH  10  11
ATOM     11  C   UNL     1      -0.142   6.282  18.905  1.00  0.00     0.053 C 
BRANCH  11  12
ATOM     12  C   UNL     1       0.560   7.600  18.995  1.00  0.00     0.041 C 
ATOM     13  O   UNL     1       0.874   8.074  20.118  1.00  0.00    -0.550 OA
ATOM     14  O   UNL     1       0.911   8.282  17.837  1.00  0.00    -0.550 OA
ENDBRANCH  11  12
ENDBRANCH  10  11
ENDBRANCH   9  10
ENDBRANCH   8   9
ENDBRANCH   7   8
ENDBRANCH   6   7
ENDBRANCH   5   6
ENDBRANCH   4   5
ENDBRANCH   3   4
ENDBRANCH   2   3
ENDBRANCH   1   2
BRANCH   1  15
ATOM     15  C   UNL     1      -7.887   5.927  15.099  1.00  0.00     0.000 C 
BRANCH  15  16
ATOM     16  C   UNL     1      -7.906   4.912  13.948  1.00  0.00     0.000 C 
BRANCH  16  17
ATOM     17  C   UNL     1      -6.581   4.141  13.810  1.00  0.00     0.000 C 
BRANCH  17  18
ATOM     18  C   UNL     1      -5.926   4.212  12.415  1.00  0.00    -0.000 C 
BRANCH  18  19
ATOM     19  C   UNL     1      -6.904   4.415  11.245  1.00  0.00    -0.000 C 
BRANCH  19  20
ATOM     20  C   UNL     1      -6.480   5.551  10.304  1.00  0.00    -0.000 C 
BRANCH  20  21
ATOM     21  C   UNL     1      -6.682   6.921  10.971  1.00  0.00    -0.000 C 
BRANCH  21  22
ATOM     22  C   UNL     1      -5.493   7.871  10.746  1.00  0.00    -0.000 C 
BRANCH  22  23
ATOM     23  C   UNL     1      -4.139   7.202  11.041  1.00  0.00    -0.000 C 
BRANCH  23  24
ATOM     24  C   UNL     1      -3.035   8.221  11.364  1.00  0.00    -0.000 C 
BRANCH  24  25
ATOM     25  C   UNL     1      -2.774   8.356  12.871  1.00  0.00    -0.003 C 
ATOM     26  C   UNL     1      -3.335   7.161  13.636  1.00  0.00     0.004 C 
ENDBRANCH  24  25
ENDBRANCH  23  24
ENDBRANCH  22  23
ENDBRANCH  21  22
ENDBRANCH  20  21
ENDBRANCH  19  20
ENDBRANCH  18  19
ENDBRANCH  17  18
ENDBRANCH  16  17
ENDBRANCH  15  16
ENDBRANCH   1  15
TORSDOF 22
ENDMDL
MODEL 3
REMARK VINA RESULT:    -4.633      1.376      3.876
REMARK INTER + INTRA:         -14.026
REMARK INTER:                 -11.688
REMARK INTRA:                  -2.338
REMARK UNBOUND:                -3.434
REMARK SMILES CCCCCCCCCCCCCCCCCCCCCCCC(=O)[O-]
REMARK SMILES IDX 13 1 14 2 15 3 16 4 17 5 18 6 19 7 20 8 21 9 22 10 23 11
REMARK SMILES IDX 24 12 25 13 26 14 12 15 11 16 10 17 9 18 8 19 7 20 6 21 5 22
REMARK SMILES IDX 4 23 3 24 2 25 1 26
REMARK H PARENT
REMARK Flexibility Score: inf
ROOT
ATOM      1  C   UNL     1      -2.126   3.728  16.023  1.00  0.00     0.000 C 
ENDROOT
BRANCH   1   2
ATOM      2  C   UNL     1      -0.896   3.689  16.937  1.00  0.00     0.000 C 
BRANCH   2   3
ATOM      3  C   UNL     1      -0.670   5.049  17.614  1.00  0.00     0.000 C 
BRANCH   3   4
ATOM      4  C   UNL     1      -0.355   6.166  16.606  1.00  0.00     0.000 C 
BRANCH   4   5
ATOM      5  C   UNL     1       1.129   6.575  16.621  1.00  0.00     0.000 C 
BRANCH   5   6
ATOM      6  C   UNL     1       1.347   8.024  16.159  1.00  0.00     0.000 C 
BRANCH   6   7
ATOM      7  C   UNL     1       0.992   9.050  17.245  1.00  0.00     0.000 C 
BRANCH   7   8
ATOM      8  C   UNL     1       1.636   8.675  18.585  1.00  0.00     0.000 C 
BRANCH   8   9
ATOM      9  C   UNL     1       0.566   8.429  19.660  1.00  0.00     0.000 C 
BRANCH   9  10
ATOM     10  C   UNL     1       0.772   7.102  20.408  1.00  0.00     0.006 C 
BRANCH  10  11
ATOM     11  C   UNL     1      -0.384   6.778  21.364  1.00  0.00     0.053 C 
BRANCH  11  12
ATOM     12  C   UNL     1       0.138   6.478  22.733  1.00  0.00     0.041 C 
ATOM     13  O   UNL     1       1.358   6.646  22.996  1.00  0.00    -0.550 OA
ATOM     14  O   UNL     1      -0.730   6.062  23.734  1.00  0.00    -0.550 OA
ENDBRANCH  11  12
ENDBRANCH  10  11
ENDBRANCH   9  10
ENDBRANCH   8   9
ENDBRANCH   7   8
ENDBRANCH   6   7
ENDBRANCH   5   6
ENDBRANCH   4   5
ENDBRANCH   3   4
ENDBRANCH   2   3
ENDBRANCH   1   2
BRANCH   1  15
ATOM     15  C   UNL     1      -3.275   2.897  16.607  1.00  0.00     0.000 C 
BRANCH  15  16
ATOM     16  C   UNL     1      -4.627   3.347  16.036  1.00  0.00     0.000 C 
BRANCH  16  17
ATOM     17  C   UNL     1      -5.395   4.283  16.985  1.00  0.00     0.000 C 
BRANCH  17  18
ATOM     18  C   UNL     1      -5.456   5.758  16.540  1.00  0.00    -0.000 C 
BRANCH  18  19
ATOM     19  C   UNL     1      -6.868   6.368  16.494  1.00  0.00    -0.000 C 
BRANCH  19  20
ATOM     20  C   UNL     1      -7.043   7.384  15.356  1.00  0.00    -0.000 C 
BRANCH  20  21
ATOM     21  C   UNL     1      -7.569   6.699  14.085  1.00  0.00    -0.000 C 
BRANCH  21  22
ATOM     22  C   UNL     1      -8.086   5.275  14.349  1.00  0.00    -0.000 C 
BRANCH  22  23
ATOM     23  C   UNL     1      -7.473   4.238  13.391  1.00  0.00    -0.000 C 
BRANCH  23  24
ATOM     24  C   UNL     1      -6.055   4.621  12.937  1.00  0.00    -0.000 C 
BRANCH  24  25
ATOM     25  C   UNL     1      -5.999   5.056  11.466  1.00  0.00    -0.003 C 
ATOM     26  C   UNL     1      -7.159   4.462  10.672  1.00  0.00     0.004 C 
ENDBRANCH  24  25
ENDBRANCH  23  24
ENDBRANCH  22  23
ENDBRANCH  21  22
ENDBRANCH  20  21
ENDBRANCH  19  20
ENDBRANCH  18  19
ENDBRANCH  17  18
ENDBRANCH  16  17
ENDBRANCH  15  16
ENDBRANCH   1  15
TORSDOF 22
ENDMDL
MODEL 4
REMARK VINA RESULT:    -4.594      2.421      8.350
REMARK INTER + INTRA:         -13.935
REMARK INTER:                 -11.477
REMARK INTRA:                  -2.459
REMARK UNBOUND:                -3.434
REMARK SMILES CCCCCCCCCCCCCCCCCCCCCCCC(=O)[O-]
REMARK SMILES IDX 13 1 14 2 15 3 16 4 17 5 18 6 19 7 20 8 21 9 22 10 23 11
REMARK SMILES IDX 24 12 25 13 26 14 12 15 11 16 10 17 9 18 8 19 7 20 6 21 5 22
REMARK SMILES IDX 4 23 3 24 2 25 1 26
REMARK H PARENT
REMARK Flexibility Score: inf
ROOT
ATOM      1  C   UNL     1      -5.212   3.879  13.796  1.00  0.00     0.000 C 
ENDROOT
BRANCH   1   2
ATOM      2  C   UNL     1      -6.693   4.124  14.108  1.00  0.00     0.000 C 
BRANCH   2   3
ATOM      3  C   UNL     1      -7.477   4.452  12.829  1.00  0.00     0.000 C 
BRANCH   3   4
ATOM      4  C   UNL     1      -6.559   4.739  11.630  1.00  0.00     0.000 C 
BRANCH   4   5
ATOM      5  C   UNL     1      -7.123   5.829  10.700  1.00  0.00     0.000 C 
BRANCH   5   6
ATOM      6  C   UNL     1      -6.859   7.248  11.227  1.00  0.00     0.000 C 
BRANCH   6   7
ATOM      7  C   UNL     1      -8.041   7.810  12.030  1.00  0.00     0.000 C 
BRANCH   7   8
ATOM      8  C   UNL     1      -7.574   8.350  13.388  1.00  0.00     0.000 C 
BRANCH   8   9
ATOM      9  C   UNL     1      -6.151   7.871  13.711  1.00  0.00     0.000 C 
BRANCH   9  10
ATOM     10  C   UNL     1      -5.864   7.844  15.221  1.00  0.00     0.006 C 
BRANCH  10  11
ATOM     11  C   UNL     1      -7.045   7.303  16.036  1.00  0.00     0.053 C 
BRANCH  11  12
ATOM     12  C   UNL     1      -6.599   6.920  17.412  1.00  0.00     0.041 C 
ATOM     13  O   UNL     1      -5.548   6.247  17.573  1.00  0.00    -0.550 OA
ATOM     14  O   UNL     1      -7.317   7.350  18.521  1.00  0.00    -0.550 OA
ENDBRANCH  11  12
ENDBRANCH  10  11
ENDBRANCH   9  10
ENDBRANCH   8   9
ENDBRANCH   7   8
ENDBRANCH   6   7
ENDBRANCH   5   6
ENDBRANCH   4   5
ENDBRANCH   3   4
ENDBRANCH   2   3
ENDBRANCH   1   2
BRANCH   1  15
ATOM     15  C   UNL     1      -4.310   4.721  14.708  1.00  0.00     0.000 C 
BRANCH  15  16
ATOM     16  C   UNL     1      -3.709   3.866  15.831  1.00  0.00     0.000 C 
BRANCH  16  17
ATOM     17  C   UNL     1      -2.260   3.434  15.543  1.00  0.00     0.000 C 
BRANCH  17  18
ATOM     18  C   UNL     1      -1.242   3.784  16.647  1.00  0.00    -0.000 C 
BRANCH  18  19
ATOM     19  C   UNL     1      -1.207   5.266  17.057  1.00  0.00    -0.000 C 
BRANCH  19  20
ATOM     20  C   UNL     1      -0.180   5.557  18.160  1.00  0.00    -0.000 C 
BRANCH  20  21
ATOM     21  C   UNL     1       0.498   6.917  17.934  1.00  0.00    -0.000 C 
BRANCH  21  22
ATOM     22  C   UNL     1       0.523   7.786  19.202  1.00  0.00    -0.000 C 
BRANCH  22  23
ATOM     23  C   UNL     1       0.196   6.982  20.474  1.00  0.00    -0.000 C 
BRANCH  23  24
ATOM     24  C   UNL     1       1.380   6.919  21.452  1.00  0.00    -0.000 C 
BRANCH  24  25
ATOM     25  C   UNL     1       0.943   6.630  22.895  1.00  0.00    -0.003 C 
ATOM     26  C   UNL     1      -0.574   6.494  22.994  1.00  0.00     0.004 C 
ENDBRANCH  24  25
ENDBRANCH  23  24
ENDBRANCH  22  23
ENDBRANCH  21  22
ENDBRANCH  20  21
ENDBRANCH  19  20
ENDBRANCH  18  19
ENDBRANCH  17  18
ENDBRANCH  16  17
ENDBRANCH  15  16
ENDBRANCH   1  15
TORSDOF 22
ENDMDL
MODEL 5
REMARK VINA RESULT:    -4.588      3.664      9.066
REMARK INTER + INTRA:         -13.922
REMARK INTER:                 -11.213
REMARK INTRA:                  -2.710
REMARK UNBOUND:                -3.434
REMARK SMILES CCCCCCCCCCCCCCCCCCCCCCCC(=O)[O-]
REMARK SMILES IDX 13 1 14 2 15 3 16 4 17 5 18 6 19 7 20 8 21 9 22 10 23 11
REMARK SMILES IDX 24 12 25 13 26 14 12 15 11 16 10 17 9 18 8 19 7 20 6 21 5 22
REMARK SMILES IDX 4 23 3 24 2 25 1 26
REMARK H PARENT
REMARK Flexibility Score: inf
ROOT
ATOM      1  C   UNL     1      -3.653   3.872  16.109  1.00  0.00     0.000 C 
ENDROOT
BRANCH   1   2
ATOM      2  C   UNL     1      -4.999   4.585  16.285  1.00  0.00     0.000 C 
BRANCH   2   3
ATOM      3  C   UNL     1      -4.880   5.742  17.288  1.00  0.00     0.000 C 
BRANCH   3   4
ATOM      4  C   UNL     1      -6.068   6.715  17.212  1.00  0.00     0.000 C 
BRANCH   4   5
ATOM      5  C   UNL     1      -7.073   6.336  16.109  1.00  0.00     0.000 C 
BRANCH   5   6
ATOM      6  C   UNL     1      -7.170   7.404  15.007  1.00  0.00     0.000 C 
BRANCH   6   7
ATOM      7  C   UNL     1      -5.811   8.035  14.675  1.00  0.00     0.000 C 
BRANCH   7   8
ATOM      8  C   UNL     1      -5.380   7.690  13.244  1.00  0.00     0.000 C 
BRANCH   8   9
ATOM      9  C   UNL     1      -4.754   6.289  13.181  1.00  0.00     0.000 C 
BRANCH   9  10
ATOM     10  C   UNL     1      -5.357   5.421  12.065  1.00  0.00     0.006 C 
BRANCH  10  11
ATOM     11  C   UNL     1      -6.210   4.269  12.609  1.00  0.00     0.053 C 
BRANCH  11  12
ATOM     12  C   UNL     1      -7.651   4.665  12.662  1.00  0.00     0.041 C 
ATOM     13  O   UNL     1      -8.368   4.321  13.639  1.00  0.00    -0.550 OA
ATOM     14  O   UNL     1      -8.193   5.458  11.658  1.00  0.00    -0.550 OA
ENDBRANCH  11  12
ENDBRANCH  10  11
ENDBRANCH   9  10
ENDBRANCH   8   9
ENDBRANCH   7   8
ENDBRANCH   6   7
ENDBRANCH   5   6
ENDBRANCH   4   5
ENDBRANCH   3   4
ENDBRANCH   2   3
ENDBRANCH   1   2
BRANCH   1  15
ATOM     15  C   UNL     1      -2.521   4.881  15.877  1.00  0.00     0.000 C 
BRANCH  15  16
ATOM     16  C   UNL     1      -1.221   4.414  16.547  1.00  0.00     0.000 C 
BRANCH  16  17
ATOM     17  C   UNL     1      -0.530   5.528  17.352  1.00  0.00     0.000 C 
BRANCH  17  18
ATOM     18  C   UNL     1       0.609   6.258  16.612  1.00  0.00    -0.000 C 
BRANCH  18  19
ATOM     19  C   UNL     1       0.610   7.789  16.763  1.00  0.00    -0.000 C 
BRANCH  19  20
ATOM     20  C   UNL     1       1.952   8.339  17.265  1.00  0.00    -0.000 C 
BRANCH  20  21
ATOM     21  C   UNL     1       1.802   8.965  18.660  1.00  0.00    -0.000 C 
BRANCH  21  22
ATOM     22  C   UNL     1       0.594   8.408  19.433  1.00  0.00    -0.000 C 
BRANCH  22  23
ATOM     23  C   UNL     1       1.000   7.359  20.484  1.00  0.00    -0.000 C 
BRANCH  23  24
ATOM     24  C   UNL     1      -0.206   6.800  21.255  1.00  0.00    -0.000 C 
BRANCH  24  25
ATOM     25  C   UNL     1       0.034   6.738  22.770  1.00  0.00    -0.003 C 
ATOM     26  C   UNL     1      -1.272   6.503  23.524  1.00  0.00     0.004 C 
ENDBRANCH  24  25
ENDBRANCH  23  24
ENDBRANCH  22  23
ENDBRANCH  21  22
ENDBRANCH  20  21
ENDBRANCH  19  20
ENDBRANCH  18  19
ENDBRANCH  17  18
ENDBRANCH  16  17
ENDBRANCH  15  16
ENDBRANCH   1  15
TORSDOF 22
ENDMDL
MODEL 6
REMARK VINA RESULT:    -4.585      2.743      7.058
REMARK INTER + INTRA:         -13.915
REMARK INTER:                 -10.887
REMARK INTRA:                  -3.027
REMARK UNBOUND:                -3.434
REMARK SMILES CCCCCCCCCCCCCCCCCCCCCCCC(=O)[O-]
REMARK SMILES IDX 13 1 14 2 15 3 16 4 17 5 18 6 19 7 20 8 21 9 22 10 23 11
REMARK SMILES IDX 24 12 25 13 26 14 12 15 11 16 10 17 9 18 8 19 7 20 6 21 5 22
REMARK SMILES IDX 4 23 3 24 2 25 1 26
REMARK H PARENT
REMARK Flexibility Score: inf
ROOT
ATOM      1  C   UNL     1      -6.942   7.393  15.494  1.00  0.00     0.000 C 
ENDROOT
BRANCH   1   2
ATOM      2  C   UNL     1      -8.323   6.864  15.895  1.00  0.00     0.000 C 
BRANCH   2   3
ATOM      3  C   UNL     1      -8.807   5.788  14.911  1.00  0.00     0.000 C 
BRANCH   3   4
ATOM      4  C   UNL     1      -7.923   5.695  13.656  1.00  0.00     0.000 C 
BRANCH   4   5
ATOM      5  C   UNL     1      -7.557   4.244  13.296  1.00  0.00     0.000 C 
BRANCH   5   6
ATOM      6  C   UNL     1      -6.115   4.108  12.783  1.00  0.00     0.000 C 
BRANCH   6   7
ATOM      7  C   UNL     1      -5.441   5.468  12.550  1.00  0.00     0.000 C 
BRANCH   7   8
ATOM      8  C   UNL     1      -5.233   5.728  11.053  1.00  0.00     0.000 C 
BRANCH   8   9
ATOM      9  C   UNL     1      -5.069   7.230  10.773  1.00  0.00     0.000 C 
BRANCH   9  10
ATOM     10  C   UNL     1      -3.596   7.663  10.713  1.00  0.00     0.006 C 
BRANCH  10  11
ATOM     11  C   UNL     1      -3.282   8.820  11.671  1.00  0.00     0.053 C 
BRANCH  11  12
ATOM     12  C   UNL     1      -2.381   8.358  12.771  1.00  0.00     0.041 C 
ATOM     13  O   UNL     1      -2.731   7.407  13.519  1.00  0.00    -0.550 OA
ATOM     14  O   UNL     1      -1.133   8.944  12.941  1.00  0.00    -0.550 OA
ENDBRANCH  11  12
ENDBRANCH  10  11
ENDBRANCH   9  10
ENDBRANCH   8   9
ENDBRANCH   7   8
ENDBRANCH   6   7
ENDBRANCH   5   6
ENDBRANCH   4   5
ENDBRANCH   3   4
ENDBRANCH   2   3
ENDBRANCH   1   2
BRANCH   1  15
ATOM     15  C   UNL     1      -5.899   7.088  16.577  1.00  0.00     0.000 C 
BRANCH  15  16
ATOM     16  C   UNL     1      -5.008   5.907  16.166  1.00  0.00     0.000 C 
BRANCH  16  17
ATOM     17  C   UNL     1      -5.456   4.575  16.792  1.00  0.00     0.000 C 
BRANCH  17  18
ATOM     18  C   UNL     1      -4.880   3.312  16.121  1.00  0.00    -0.000 C 
BRANCH  18  19
ATOM     19  C   UNL     1      -3.467   2.914  16.582  1.00  0.00    -0.000 C 
BRANCH  19  20
ATOM     20  C   UNL     1      -2.371   3.378  15.613  1.00  0.00    -0.000 C 
BRANCH  20  21
ATOM     21  C   UNL     1      -1.128   3.857  16.380  1.00  0.00    -0.000 C 
BRANCH  21  22
ATOM     22  C   UNL     1      -1.311   5.257  16.991  1.00  0.00    -0.000 C 
BRANCH  22  23
ATOM     23  C   UNL     1      -0.218   5.599  18.019  1.00  0.00    -0.000 C 
BRANCH  23  24
ATOM     24  C   UNL     1       0.359   7.009  17.818  1.00  0.00    -0.000 C 
BRANCH  24  25
ATOM     25  C   UNL     1       0.604   7.744  19.144  1.00  0.00    -0.003 C 
ATOM     26  C   UNL     1       0.177   6.890  20.334  1.00  0.00     0.004 C 
ENDBRANCH  24  25
ENDBRANCH  23  24
ENDBRANCH  22  23
ENDBRANCH  21  22
ENDBRANCH  20  21
ENDBRANCH  19  20
ENDBRANCH  18  19
ENDBRANCH  17  18
ENDBRANCH  16  17
ENDBRANCH  15  16
ENDBRANCH   1  15
TORSDOF 22
ENDMDL
MODEL 7
REMARK VINA RESULT:    -4.565      1.232      3.404
REMARK INTER + INTRA:         -13.869
REMARK INTER:                 -11.084
REMARK INTRA:                  -2.785
REMARK UNBOUND:                -3.434
REMARK SMILES CCCCCCCCCCCCCCCCCCCCCCCC(=O)[O-]
REMARK SMILES IDX 13 1 14 2 15 3 16 4 17 5 18 6 19 7 20 8 21 9 22 10 23 11
REMARK SMILES IDX 24 12 25 13 26 14 12 15 11 16 10 17 9 18 8 19 7 20 6 21 5 22
REMARK SMILES IDX 4 23 3 24 2 25 1 26
REMARK H PARENT
REMARK Flexibility Score: inf
ROOT
ATOM      1  C   UNL     1      -4.461   4.291  14.746  1.00  0.00     0.000 C 
ENDROOT
BRANCH   1   2
ATOM      2  C   UNL     1      -4.939   3.382  15.883  1.00  0.00     0.000 C 
BRANCH   2   3
ATOM      3  C   UNL     1      -3.748   2.772  16.638  1.00  0.00     0.000 C 
BRANCH   3   4
ATOM      4  C   UNL     1      -2.412   2.995  15.912  1.00  0.00     0.000 C 
BRANCH   4   5
ATOM      5  C   UNL     1      -1.350   3.652  16.813  1.00  0.00     0.000 C 
BRANCH   5   6
ATOM      6  C   UNL     1      -1.471   5.183  16.847  1.00  0.00     0.000 C 
BRANCH   6   7
ATOM      7  C   UNL     1      -0.110   5.880  16.988  1.00  0.00     0.000 C 
BRANCH   7   8
ATOM      8  C   UNL     1       0.258   6.071  18.465  1.00  0.00     0.000 C 
BRANCH   8   9
ATOM      9  C   UNL     1       0.564   7.545  18.770  1.00  0.00     0.000 C 
BRANCH   9  10
ATOM     10  C   UNL     1       0.451   7.876  20.266  1.00  0.00     0.006 C 
BRANCH  10  11
ATOM     11  C   UNL     1      -0.304   6.797  21.054  1.00  0.00     0.053 C 
BRANCH  11  12
ATOM     12  C   UNL     1       0.198   6.730  22.461  1.00  0.00     0.041 C 
ATOM     13  O   UNL     1      -0.611   6.584  23.416  1.00  0.00    -0.550 OA
ATOM     14  O   UNL     1       1.563   6.777  22.717  1.00  0.00    -0.550 OA
ENDBRANCH  11  12
ENDBRANCH  10  11
ENDBRANCH   9  10
ENDBRANCH   8   9
ENDBRANCH   7   8
ENDBRANCH   6   7
ENDBRANCH   5   6
ENDBRANCH   4   5
ENDBRANCH   3   4
ENDBRANCH   2   3
ENDBRANCH   1   2
BRANCH   1  15
ATOM     15  C   UNL     1      -5.410   4.215  13.543  1.00  0.00     0.000 C 
BRANCH  15  16
ATOM     16  C   UNL     1      -6.877   4.263  13.993  1.00  0.00     0.000 C 
BRANCH  16  17
ATOM     17  C   UNL     1      -7.850   4.531  12.832  1.00  0.00     0.000 C 
BRANCH  17  18
ATOM     18  C   UNL     1      -7.219   4.476  11.425  1.00  0.00    -0.000 C 
BRANCH  18  19
ATOM     19  C   UNL     1      -7.299   5.787  10.624  1.00  0.00    -0.000 C 
BRANCH  19  20
ATOM     20  C   UNL     1      -7.196   7.036  11.510  1.00  0.00    -0.000 C 
BRANCH  20  21
ATOM     21  C   UNL     1      -5.735   7.492  11.649  1.00  0.00    -0.000 C 
BRANCH  21  22
ATOM     22  C   UNL     1      -5.506   8.383  12.882  1.00  0.00    -0.000 C 
BRANCH  22  23
ATOM     23  C   UNL     1      -6.232   7.857  14.132  1.00  0.00    -0.000 C 
BRANCH  23  24
ATOM     24  C   UNL     1      -5.349   7.902  15.389  1.00  0.00    -0.000 C 
BRANCH  24  25
ATOM     25  C   UNL     1      -6.164   7.869  16.690  1.00  0.00    -0.003 C 
ATOM     26  C   UNL     1      -6.236   6.455  17.259  1.00  0.00     0.004 C 
ENDBRANCH  24  25
ENDBRANCH  23  24
ENDBRANCH  22  23
ENDBRANCH  21  22
ENDBRANCH  20  21
ENDBRANCH  19  20
ENDBRANCH  18  19
ENDBRANCH  17  18
ENDBRANCH  16  17
ENDBRANCH  15  16
ENDBRANCH   1  15
TORSDOF 22
ENDMDL
MODEL 8
REMARK VINA RESULT:    -4.550      1.433      3.233
REMARK INTER + INTRA:         -13.835
REMARK INTER:                 -11.523
REMARK INTRA:                  -2.312
REMARK UNBOUND:                -3.434
REMARK SMILES CCCCCCCCCCCCCCCCCCCCCCCC(=O)[O-]
REMARK SMILES IDX 13 1 14 2 15 3 16 4 17 5 18 6 19 7 20 8 21 9 22 10 23 11
REMARK SMILES IDX 24 12 25 13 26 14 12 15 11 16 10 17 9 18 8 19 7 20 6 21 5 22
REMARK SMILES IDX 4 23 3 24 2 25 1 26
REMARK H PARENT
REMARK Flexibility Score: inf
ROOT
ATOM      1  C   UNL     1      -4.265   2.620  16.908  1.00  0.00     0.000 C 
ENDROOT
BRANCH   1   2
ATOM      2  C   UNL     1      -2.786   2.689  16.513  1.00  0.00     0.000 C 
BRANCH   2   3
ATOM      3  C   UNL     1      -2.562   3.723  15.399  1.00  0.00     0.000 C 
BRANCH   3   4
ATOM      4  C   UNL     1      -1.862   4.994  15.905  1.00  0.00     0.000 C 
BRANCH   4   5
ATOM      5  C   UNL     1      -0.789   4.696  16.967  1.00  0.00     0.000 C 
BRANCH   5   6
ATOM      6  C   UNL     1      -0.136   5.972  17.522  1.00  0.00     0.000 C 
BRANCH   6   7
ATOM      7  C   UNL     1       0.923   6.554  16.574  1.00  0.00     0.000 C 
BRANCH   7   8
ATOM      8  C   UNL     1       0.902   8.087  16.603  1.00  0.00     0.000 C 
BRANCH   8   9
ATOM      9  C   UNL     1       1.667   8.625  17.822  1.00  0.00     0.000 C 
BRANCH   9  10
ATOM     10  C   UNL     1       0.827   8.592  19.109  1.00  0.00     0.006 C 
BRANCH  10  11
ATOM     11  C   UNL     1       1.678   8.348  20.362  1.00  0.00     0.053 C 
BRANCH  11  12
ATOM     12  C   UNL     1       1.161   7.170  21.125  1.00  0.00     0.041 C 
ATOM     13  O   UNL     1       1.862   6.642  22.028  1.00  0.00    -0.550 OA
ATOM     14  O   UNL     1      -0.117   6.685  20.873  1.00  0.00    -0.550 OA
ENDBRANCH  11  12
ENDBRANCH  10  11
ENDBRANCH   9  10
ENDBRANCH   8   9
ENDBRANCH   7   8
ENDBRANCH   6   7
ENDBRANCH   5   6
ENDBRANCH   4   5
ENDBRANCH   3   4
ENDBRANCH   2   3
ENDBRANCH   1   2
BRANCH   1  15
ATOM     15  C   UNL     1      -5.138   3.399  15.916  1.00  0.00     0.000 C 
BRANCH  15  16
ATOM     16  C   UNL     1      -5.748   4.643  16.577  1.00  0.00     0.000 C 
BRANCH  16  17
ATOM     17  C   UNL     1      -6.852   5.292  15.724  1.00  0.00     0.000 C 
BRANCH  17  18
ATOM     18  C   UNL     1      -6.359   6.335  14.701  1.00  0.00    -0.000 C 
BRANCH  18  19
ATOM     19  C   UNL     1      -5.206   7.231  15.186  1.00  0.00    -0.000 C 
BRANCH  19  20
ATOM     20  C   UNL     1      -4.553   8.032  14.051  1.00  0.00    -0.000 C 
BRANCH  20  21
ATOM     21  C   UNL     1      -3.883   7.095  13.033  1.00  0.00    -0.000 C 
BRANCH  21  22
ATOM     22  C   UNL     1      -4.399   7.308  11.600  1.00  0.00    -0.000 C 
BRANCH  22  23
ATOM     23  C   UNL     1      -4.820   5.991  10.924  1.00  0.00    -0.000 C 
BRANCH  23  24
ATOM     24  C   UNL     1      -6.346   5.817  10.873  1.00  0.00    -0.000 C 
BRANCH  24  25
ATOM     25  C   UNL     1      -6.803   4.435  11.362  1.00  0.00    -0.003 C 
ATOM     26  C   UNL     1      -5.789   3.831  12.329  1.00  0.00     0.004 C 
ENDBRANCH  24  25
ENDBRANCH  23  24
ENDBRANCH  22  23
ENDBRANCH  21  22
ENDBRANCH  20  21
ENDBRANCH  19  20
ENDBRANCH  18  19
ENDBRANCH  17  18
ENDBRANCH  16  17
ENDBRANCH  15  16
ENDBRANCH   1  15
TORSDOF 22
ENDMDL
MODEL 9
REMARK VINA RESULT:    -4.461      1.130      2.473
REMARK INTER + INTRA:         -13.631
REMARK INTER:                 -10.641
REMARK INTRA:                  -2.990
REMARK UNBOUND:                -3.434
REMARK SMILES CCCCCCCCCCCCCCCCCCCCCCCC(=O)[O-]
REMARK SMILES IDX 13 1 14 2 15 3 16 4 17 5 18 6 19 7 20 8 21 9 22 10 23 11
REMARK SMILES IDX 24 12 25 13 26 14 12 15 11 16 10 17 9 18 8 19 7 20 6 21 5 22
REMARK SMILES IDX 4 23 3 24 2 25 1 26
REMARK H PARENT
REMARK Flexibility Score: inf
ROOT
ATOM      1  C   UNL     1      -5.017   5.427  17.075  1.00  0.00     0.000 C 
ENDROOT
BRANCH   1   2
ATOM      2  C   UNL     1      -5.483   4.475  15.969  1.00  0.00     0.000 C 
BRANCH   2   3
ATOM      3  C   UNL     1      -4.307   3.655  15.418  1.00  0.00     0.000 C 
BRANCH   3   4
ATOM      4  C   UNL     1      -3.450   3.028  16.530  1.00  0.00     0.000 C 
BRANCH   4   5
ATOM      5  C   UNL     1      -1.946   3.289  16.336  1.00  0.00     0.000 C 
BRANCH   5   6
ATOM      6  C   UNL     1      -1.622   4.782  16.168  1.00  0.00     0.000 C 
BRANCH   6   7
ATOM      7  C   UNL     1      -0.886   5.367  17.383  1.00  0.00     0.000 C 
BRANCH   7   8
ATOM      8  C   UNL     1       0.147   6.413  16.946  1.00  0.00     0.000 C 
BRANCH   8   9
ATOM      9  C   UNL     1       0.611   7.260  18.141  1.00  0.00     0.000 C 
BRANCH   9  10
ATOM     10  C   UNL     1       0.291   6.602  19.492  1.00  0.00     0.006 C 
BRANCH  10  11
ATOM     11  C   UNL     1       0.958   7.322  20.672  1.00  0.00     0.053 C 
BRANCH  11  12
ATOM     12  C   UNL     1       0.402   6.826  21.969  1.00  0.00     0.041 C 
ATOM     13  O   UNL     1      -0.838   6.652  22.101  1.00  0.00    -0.550 OA
ATOM     14  O   UNL     1       1.257   6.508  23.017  1.00  0.00    -0.550 OA
ENDBRANCH  11  12
ENDBRANCH  10  11
ENDBRANCH   9  10
ENDBRANCH   8   9
ENDBRANCH   7   8
ENDBRANCH   6   7
ENDBRANCH   5   6
ENDBRANCH   4   5
ENDBRANCH   3   4
ENDBRANCH   2   3
ENDBRANCH   1   2
BRANCH   1  15
ATOM     15  C   UNL     1      -6.110   6.446  17.424  1.00  0.00     0.000 C 
BRANCH  15  16
ATOM     16  C   UNL     1      -7.218   6.450  16.361  1.00  0.00     0.000 C 
BRANCH  16  17
ATOM     17  C   UNL     1      -7.224   7.731  15.509  1.00  0.00     0.000 C 
BRANCH  17  18
ATOM     18  C   UNL     1      -5.838   8.366  15.274  1.00  0.00    -0.000 C 
BRANCH  18  19
ATOM     19  C   UNL     1      -5.364   8.374  13.811  1.00  0.00    -0.000 C 
BRANCH  19  20
ATOM     20  C   UNL     1      -4.720   7.047  13.384  1.00  0.00    -0.000 C 
BRANCH  20  21
ATOM     21  C   UNL     1      -4.425   7.040  11.876  1.00  0.00    -0.000 C 
BRANCH  21  22
ATOM     22  C   UNL     1      -5.043   5.830  11.156  1.00  0.00    -0.000 C 
BRANCH  22  23
ATOM     23  C   UNL     1      -5.606   4.785  12.136  1.00  0.00    -0.000 C 
BRANCH  23  24
ATOM     24  C   UNL     1      -7.062   4.407  11.823  1.00  0.00    -0.000 C 
BRANCH  24  25
ATOM     25  C   UNL     1      -8.025   4.751  12.968  1.00  0.00    -0.003 C 
ATOM     26  C   UNL     1      -8.696   6.102  12.735  1.00  0.00     0.004 C 
ENDBRANCH  24  25
ENDBRANCH  23  24
ENDBRANCH  22  23
ENDBRANCH  21  22
ENDBRANCH  20  21
ENDBRANCH  19  20
ENDBRANCH  18  19
ENDBRANCH  17  18
ENDBRANCH  16  17
ENDBRANCH  15  16
ENDBRANCH   1  15
TORSDOF 22
ENDMDL
