MODEL 1
REMARK VINA RESULT:    -4.710      0.000      0.000
REMARK INTER + INTRA:          -5.081
REMARK INTER:                  -4.985
REMARK INTRA:                  -0.096
REMARK UNBOUND:                -0.096
REMARK SMILES C=C(C)[C@@H]1CC=C(C)C(=O)C1
REMARK SMILES IDX 8 1 7 2 6 3 5 4 4 5 11 6 9 7 10 8 2 9 1 10 3 11
REMARK H PARENT
REMARK Flexibility Score: inf
ROOT
ATOM      1  C   UNL     1      -2.498   1.400  14.834  1.00  0.00     0.048 C 
ATOM      2  C   UNL     1      -3.743   2.235  14.945  1.00  0.00    -0.012 C 
ATOM      3  C   UNL     1      -3.823   3.194  15.882  1.00  0.00    -0.019 C 
ATOM      4  C   UNL     1      -5.040   4.072  16.026  1.00  0.00     0.036 C 
ATOM      5  C   UNL     1      -6.322   3.308  15.646  1.00  0.00     0.025 C 
ATOM      6  C   UNL     1      -6.193   2.717  14.230  1.00  0.00     0.089 C 
ATOM      7  C   UNL     1      -4.925   1.918  14.104  1.00  0.00     0.158 C 
ATOM      8  O   UNL     1      -4.864   0.995  13.248  1.00  0.00    -0.295 OA
ENDROOT
BRANCH   5   9
ATOM      9  C   UNL     1      -7.555   4.193  15.769  1.00  0.00    -0.077 C 
ATOM     10  C   UNL     1      -7.649   5.079  16.772  1.00  0.00     0.008 C 
ATOM     11  C   UNL     1      -8.692   4.099  14.782  1.00  0.00     0.039 C 
ENDBRANCH   5   9
TORSDOF 1
ENDMDL
MODEL 2
REMARK VINA RESULT:    -4.523      5.670      8.033
REMARK INTER + INTRA:          -4.883
REMARK INTER:                  -4.785
REMARK INTRA:                  -0.098
REMARK UNBOUND:                -0.096
REMARK SMILES C=C(C)[C@@H]1CC=C(C)C(=O)C1
REMARK SMILES IDX 8 1 7 2 6 3 5 4 4 5 11 6 9 7 10 8 2 9 1 10 3 11
REMARK H PARENT
REMARK Flexibility Score: inf
ROOT
ATOM      1  C   UNL     1      -4.025   2.183  10.166  1.00  0.00     0.048 C 
ATOM      2  C   UNL     1      -3.712   0.713  10.108  1.00  0.00    -0.012 C 
ATOM      3  C   UNL     1      -3.416   0.139   8.930  1.00  0.00    -0.019 C 
ATOM      4  C   UNL     1      -3.077  -1.325   8.817  1.00  0.00     0.036 C 
ATOM      5  C   UNL     1      -3.843  -2.153   9.865  1.00  0.00     0.025 C 
ATOM      6  C   UNL     1      -3.582  -1.601  11.278  1.00  0.00     0.089 C 
ATOM      7  C   UNL     1      -3.852  -0.122  11.327  1.00  0.00     0.158 C 
ATOM      8  O   UNL     1      -4.164   0.410  12.426  1.00  0.00    -0.295 OA
ENDROOT
BRANCH   5   9
ATOM      9  C   UNL     1      -3.493  -3.631   9.772  1.00  0.00    -0.077 C 
ATOM     10  C   UNL     1      -2.478  -4.034   8.991  1.00  0.00     0.008 C 
ATOM     11  C   UNL     1      -4.267  -4.673  10.542  1.00  0.00     0.039 C 
ENDBRANCH   5   9
TORSDOF 1
ENDMDL
MODEL 3
REMARK VINA RESULT:    -4.425      1.957      4.226
REMARK INTER + INTRA:          -4.779
REMARK INTER:                  -4.681
REMARK INTRA:                  -0.098
REMARK UNBOUND:                -0.096
REMARK SMILES C=C(C)[C@@H]1CC=C(C)C(=O)C1
REMARK SMILES IDX 8 1 7 2 6 3 5 4 4 5 11 6 9 7 10 8 2 9 1 10 3 11
REMARK H PARENT
REMARK Flexibility Score: inf
ROOT
ATOM      1  C   UNL     1      -6.887   6.371  17.228  1.00  0.00     0.048 C 
ATOM      2  C   UNL     1      -6.299   5.142  16.591  1.00  0.00    -0.012 C 
ATOM      3  C   UNL     1      -4.967   5.034  16.450  1.00  0.00    -0.019 C 
ATOM      4  C   UNL     1      -4.325   3.818  15.836  1.00  0.00     0.036 C 
ATOM      5  C   UNL     1      -5.229   3.199  14.755  1.00  0.00     0.025 C 
ATOM      6  C   UNL     1      -6.623   2.893  15.333  1.00  0.00     0.089 C 
ATOM      7  C   UNL     1      -7.193   4.110  16.009  1.00  0.00     0.158 C 
ATOM      8  O   UNL     1      -8.444   4.227  16.109  1.00  0.00    -0.295 OA
ENDROOT
BRANCH   5   9
ATOM      9  C   UNL     1      -4.597   1.958  14.142  1.00  0.00    -0.077 C 
ATOM     10  C   UNL     1      -3.396   1.535  14.567  1.00  0.00     0.008 C 
ATOM     11  C   UNL     1      -5.291   1.177  13.053  1.00  0.00     0.039 C 
ENDBRANCH   5   9
TORSDOF 1
ENDMDL
MODEL 4
REMARK VINA RESULT:    -4.410      5.411      7.077
REMARK INTER + INTRA:          -4.764
REMARK INTER:                  -4.670
REMARK INTRA:                  -0.093
REMARK UNBOUND:                -0.096
REMARK SMILES C=C(C)[C@@H]1CC=C(C)C(=O)C1
REMARK SMILES IDX 8 1 7 2 6 3 5 4 4 5 11 6 9 7 10 8 2 9 1 10 3 11
REMARK H PARENT
REMARK Flexibility Score: inf
ROOT
ATOM      1  C   UNL     1      -2.302  -3.963   8.757  1.00  0.00     0.048 C 
ATOM      2  C   UNL     1      -2.913  -2.717   9.338  1.00  0.00    -0.012 C 
ATOM      3  C   UNL     1      -3.332  -1.735   8.523  1.00  0.00    -0.019 C 
ATOM      4  C   UNL     1      -3.966  -0.474   9.050  1.00  0.00     0.036 C 
ATOM      5  C   UNL     1      -3.379  -0.090  10.421  1.00  0.00     0.025 C 
ATOM      6  C   UNL     1      -3.508  -1.265  11.407  1.00  0.00     0.089 C 
ATOM      7  C   UNL     1      -2.938  -2.522  10.809  1.00  0.00     0.158 C 
ATOM      8  O   UNL     1      -2.513  -3.428  11.575  1.00  0.00    -0.295 OA
ENDROOT
BRANCH   5   9
ATOM      9  C   UNL     1      -4.028   1.172  10.972  1.00  0.00    -0.077 C 
ATOM     10  C   UNL     1      -4.010   2.306  10.254  1.00  0.00     0.008 C 
ATOM     11  C   UNL     1      -4.700   1.185  12.323  1.00  0.00     0.039 C 
ENDBRANCH   5   9
TORSDOF 1
ENDMDL
MODEL 5
REMARK VINA RESULT:    -4.328      1.854      2.436
REMARK INTER + INTRA:          -4.677
REMARK INTER:                  -4.587
REMARK INTRA:                  -0.089
REMARK UNBOUND:                -0.096
REMARK SMILES C=C(C)[C@@H]1CC=C(C)C(=O)C1
REMARK SMILES IDX 8 1 7 2 6 3 5 4 4 5 11 6 9 7 10 8 2 9 1 10 3 11
REMARK H PARENT
REMARK Flexibility Score: inf
ROOT
ATOM      1  C   UNL     1      -2.120   1.132  14.914  1.00  0.00     0.048 C 
ATOM      2  C   UNL     1      -3.353   1.993  14.952  1.00  0.00    -0.012 C 
ATOM      3  C   UNL     1      -4.432   1.648  14.230  1.00  0.00    -0.019 C 
ATOM      4  C   UNL     1      -5.698   2.464  14.245  1.00  0.00     0.036 C 
ATOM      5  C   UNL     1      -5.391   3.961  14.436  1.00  0.00     0.025 C 
ATOM      6  C   UNL     1      -4.543   4.176  15.703  1.00  0.00     0.089 C 
ATOM      7  C   UNL     1      -3.333   3.283  15.687  1.00  0.00     0.158 C 
ATOM      8  O   UNL     1      -2.309   3.625  16.337  1.00  0.00    -0.295 OA
ENDROOT
BRANCH   5   9
ATOM      9  C   UNL     1      -6.666   4.792  14.473  1.00  0.00    -0.077 C 
ATOM     10  C   UNL     1      -6.687   6.016  13.924  1.00  0.00     0.008 C 
ATOM     11  C   UNL     1      -7.925   4.271  15.120  1.00  0.00     0.039 C 
ENDBRANCH   5   9
TORSDOF 1
ENDMDL
MODEL 6
REMARK VINA RESULT:    -4.302      1.302      1.869
REMARK INTER + INTRA:          -4.649
REMARK INTER:                  -4.556
REMARK INTRA:                  -0.093
REMARK UNBOUND:                -0.096
REMARK SMILES C=C(C)[C@@H]1CC=C(C)C(=O)C1
REMARK SMILES IDX 8 1 7 2 6 3 5 4 4 5 11 6 9 7 10 8 2 9 1 10 3 11
REMARK H PARENT
REMARK Flexibility Score: inf
ROOT
ATOM      1  C   UNL     1      -1.773   0.547  13.361  1.00  0.00     0.048 C 
ATOM      2  C   UNL     1      -2.837   1.417  13.970  1.00  0.00    -0.012 C 
ATOM      3  C   UNL     1      -2.537   2.208  15.014  1.00  0.00    -0.019 C 
ATOM      4  C   UNL     1      -3.560   3.113  15.651  1.00  0.00     0.036 C 
ATOM      5  C   UNL     1      -4.968   2.494  15.580  1.00  0.00     0.025 C 
ATOM      6  C   UNL     1      -5.326   2.143  14.124  1.00  0.00     0.089 C 
ATOM      7  C   UNL     1      -4.241   1.309  13.500  1.00  0.00     0.158 C 
ATOM      8  O   UNL     1      -4.530   0.541  12.543  1.00  0.00    -0.295 OA
ENDROOT
BRANCH   5   9
ATOM      9  C   UNL     1      -6.012   3.410  16.203  1.00  0.00    -0.077 C 
ATOM     10  C   UNL     1      -7.223   2.929  16.525  1.00  0.00     0.008 C 
ATOM     11  C   UNL     1      -5.721   4.865  16.473  1.00  0.00     0.039 C 
ENDBRANCH   5   9
TORSDOF 1
ENDMDL
MODEL 7
REMARK VINA RESULT:    -4.291      6.195      8.082
REMARK INTER + INTRA:          -4.637
REMARK INTER:                  -4.541
REMARK INTRA:                  -0.096
REMARK UNBOUND:                -0.096
REMARK SMILES C=C(C)[C@@H]1CC=C(C)C(=O)C1
REMARK SMILES IDX 8 1 7 2 6 3 5 4 4 5 11 6 9 7 10 8 2 9 1 10 3 11
REMARK H PARENT
REMARK Flexibility Score: inf
ROOT
ATOM      1  C   UNL     1      -0.885   0.263  13.074  1.00  0.00     0.048 C 
ATOM      2  C   UNL     1      -1.545  -0.778  12.211  1.00  0.00    -0.012 C 
ATOM      3  C   UNL     1      -2.784  -0.564  11.737  1.00  0.00    -0.019 C 
ATOM      4  C   UNL     1      -3.485  -1.565  10.854  1.00  0.00     0.036 C 
ATOM      5  C   UNL     1      -3.074  -3.004  11.214  1.00  0.00     0.025 C 
ATOM      6  C   UNL     1      -1.543  -3.153  11.163  1.00  0.00     0.089 C 
ATOM      7  C   UNL     1      -0.880  -2.086  11.990  1.00  0.00     0.158 C 
ATOM      8  O   UNL     1       0.268  -2.301  12.464  1.00  0.00    -0.295 OA
ENDROOT
BRANCH   5   9
ATOM      9  C   UNL     1      -3.763  -4.021  10.314  1.00  0.00    -0.077 C 
ATOM     10  C   UNL     1      -3.548  -4.002   8.990  1.00  0.00     0.008 C 
ATOM     11  C   UNL     1      -4.695  -5.066  10.878  1.00  0.00     0.039 C 
ENDBRANCH   5   9
TORSDOF 1
ENDMDL
MODEL 8
REMARK VINA RESULT:    -4.244      5.681      7.252
REMARK INTER + INTRA:          -4.588
REMARK INTER:                  -4.490
REMARK INTRA:                  -0.098
REMARK UNBOUND:                -0.096
REMARK SMILES C=C(C)[C@@H]1CC=C(C)C(=O)C1
REMARK SMILES IDX 8 1 7 2 6 3 5 4 4 5 11 6 9 7 10 8 2 9 1 10 3 11
REMARK H PARENT
REMARK Flexibility Score: inf
ROOT
ATOM      1  C   UNL     1      -2.004  -3.848   8.632  1.00  0.00     0.048 C 
ATOM      2  C   UNL     1      -2.382  -2.535   9.262  1.00  0.00    -0.012 C 
ATOM      3  C   UNL     1      -3.023  -2.521  10.442  1.00  0.00    -0.019 C 
ATOM      4  C   UNL     1      -3.410  -1.235  11.126  1.00  0.00     0.036 C 
ATOM      5  C   UNL     1      -3.741  -0.138  10.097  1.00  0.00     0.025 C 
ATOM      6  C   UNL     1      -2.567   0.051   9.120  1.00  0.00     0.089 C 
ATOM      7  C   UNL     1      -2.159  -1.268   8.522  1.00  0.00     0.158 C 
ATOM      8  O   UNL     1      -1.589  -1.282   7.398  1.00  0.00    -0.295 OA
ENDROOT
BRANCH   5   9
ATOM      9  C   UNL     1      -4.113   1.171  10.779  1.00  0.00    -0.077 C 
ATOM     10  C   UNL     1      -4.004   2.331  10.113  1.00  0.00     0.008 C 
ATOM     11  C   UNL     1      -4.608   1.203  12.204  1.00  0.00     0.039 C 
ENDBRANCH   5   9
TORSDOF 1
ENDMDL
MODEL 9
REMARK VINA RESULT:    -4.205      3.027      4.783
REMARK INTER + INTRA:          -4.547
REMARK INTER:                  -4.448
REMARK INTRA:                  -0.098
REMARK UNBOUND:                -0.096
REMARK SMILES C=C(C)[C@@H]1CC=C(C)C(=O)C1
REMARK SMILES IDX 8 1 7 2 6 3 5 4 4 5 11 6 9 7 10 8 2 9 1 10 3 11
REMARK H PARENT
REMARK Flexibility Score: inf
ROOT
ATOM      1  C   UNL     1      -6.157   9.201  16.084  1.00  0.00     0.048 C 
ATOM      2  C   UNL     1      -6.299   7.705  16.013  1.00  0.00    -0.012 C 
ATOM      3  C   UNL     1      -6.566   7.006  17.128  1.00  0.00    -0.019 C 
ATOM      4  C   UNL     1      -6.736   5.509  17.110  1.00  0.00     0.036 C 
ATOM      5  C   UNL     1      -5.845   4.862  16.034  1.00  0.00     0.025 C 
ATOM      6  C   UNL     1      -6.121   5.497  14.659  1.00  0.00     0.089 C 
ATOM      7  C   UNL     1      -6.022   6.996  14.739  1.00  0.00     0.158 C 
ATOM      8  O   UNL     1      -5.737   7.649  13.699  1.00  0.00    -0.295 OA
ENDROOT
BRANCH   5   9
ATOM      9  C   UNL     1      -6.025   3.351  15.995  1.00  0.00    -0.077 C 
ATOM     10  C   UNL     1      -7.093   2.786  16.578  1.00  0.00     0.008 C 
ATOM     11  C   UNL     1      -5.019   2.457  15.312  1.00  0.00     0.039 C 
ENDBRANCH   5   9
TORSDOF 1
ENDMDL
