MODEL 1
REMARK VINA RESULT:    -7.075      0.000      0.000
REMARK INTER + INTRA:          -7.281
REMARK INTER:                  -7.281
REMARK INTRA:                   0.000
REMARK UNBOUND:                 0.000
REMARK SMILES C[C@H]1CC[C@@]2(OC1)O[C@H]1C[C@@H]3[C@@H]4CC=C5C[C@H](O)CC[C@]5(C)[C@@H]4CC[C@]3(C)[C@@H]1[C@@H]2C
REMARK SMILES IDX 1 1 2 2 3 3 4 4 5 5 29 6 28 7 9 8 8 9 10 10 11 11 26 12
REMARK SMILES IDX 25 13 24 14 23 15 12 16 13 17 14 18 15 19 21 20 20 21 19 22
REMARK SMILES IDX 17 23 16 24 22 25 27 26 30 27 6 28 7 29 18 30
REMARK H PARENT 18 31
REMARK Flexibility Score: inf
ROOT
ATOM      1  C   UNL     1      10.123  -4.640  18.457  1.00  0.00     0.010 C 
ATOM      2  C   UNL     1       8.908  -3.717  18.538  1.00  0.00     0.012 C 
ATOM      3  C   UNL     1       8.871  -2.721  17.365  1.00  0.00     0.011 C 
ATOM      4  C   UNL     1       8.403  -3.386  16.062  1.00  0.00     0.066 C 
ATOM      5  C   UNL     1       7.124  -4.240  16.292  1.00  0.00     0.171 C 
ATOM      6  C   UNL     1       6.753  -5.006  14.961  1.00  0.00     0.052 C 
ATOM      7  C   UNL     1       5.556  -4.186  14.528  1.00  0.00     0.033 C 
ATOM      8  C   UNL     1       4.971  -3.783  15.826  1.00  0.00     0.126 C 
ATOM      9  O   UNL     1       6.042  -3.344  16.606  1.00  0.00    -0.346 OA
ATOM     10  C   UNL     1       3.927  -2.752  15.432  1.00  0.00     0.037 C 
ATOM     11  C   UNL     1       3.400  -3.270  14.045  1.00  0.00     0.002 C 
ATOM     12  C   UNL     1       4.337  -4.477  13.615  1.00  0.00    -0.024 C 
ATOM     13  C   UNL     1       3.637  -5.847  13.876  1.00  0.00     0.008 C 
ATOM     14  C   UNL     1       2.209  -5.973  13.284  1.00  0.00     0.005 C 
ATOM     15  C   UNL     1       1.508  -4.630  12.920  1.00  0.00     0.003 C 
ATOM     16  C   UNL     1       1.846  -3.545  13.981  1.00  0.00     0.000 C 
ATOM     17  C   UNL     1       1.156  -3.895  15.325  1.00  0.00     0.031 C 
ATOM     18  C   UNL     1      -0.254  -4.424  15.197  1.00  0.00    -0.027 C 
ATOM     19  C   UNL     1      -0.762  -4.942  14.058  1.00  0.00    -0.065 C 
ATOM     20  C   UNL     1      -0.053  -4.777  12.717  1.00  0.00    -0.008 C 
ATOM     21  C   UNL     1      -0.387  -6.025  11.844  1.00  0.00     0.014 C 
ATOM     22  C   UNL     1      -1.892  -6.246  11.621  1.00  0.00     0.033 C 
ATOM     23  C   UNL     1      -2.799  -5.904  12.827  1.00  0.00     0.118 C 
ATOM     24  C   UNL     1      -2.047  -5.749  14.158  1.00  0.00     0.063 C 
ATOM     25  C   UNL     1      -0.594  -3.497  12.000  1.00  0.00     0.016 C 
ATOM     26  C   UNL     1       4.808  -4.406  12.145  1.00  0.00     0.012 C 
ATOM     27  C   UNL     1       6.498  -6.514  15.146  1.00  0.00     0.014 C 
ATOM     28  O   UNL     1       7.329  -5.168  17.358  1.00  0.00    -0.349 OA
ATOM     29  C   UNL     1       7.588  -4.516  18.586  1.00  0.00     0.167 C 
ENDROOT
BRANCH  23  30
ATOM     30  O   UNL     1      -3.773  -6.908  13.016  1.00  0.00    -0.393 OA
ATOM     31  H   UNL     1      -3.950  -6.969  13.994  1.00  0.00     0.210 HD
ENDBRANCH  23  30
TORSDOF 1
ENDMDL
MODEL 2
REMARK VINA RESULT:    -6.951      1.759      8.753
REMARK INTER + INTRA:          -7.154
REMARK INTER:                  -7.154
REMARK INTRA:                   0.000
REMARK UNBOUND:                 0.000
REMARK SMILES C[C@H]1CC[C@@]2(OC1)O[C@H]1C[C@@H]3[C@@H]4CC=C5C[C@H](O)CC[C@]5(C)[C@@H]4CC[C@]3(C)[C@@H]1[C@@H]2C
REMARK SMILES IDX 1 1 2 2 3 3 4 4 5 5 29 6 28 7 9 8 8 9 10 10 11 11 26 12
REMARK SMILES IDX 25 13 24 14 23 15 12 16 13 17 14 18 15 19 21 20 20 21 19 22
REMARK SMILES IDX 17 23 16 24 22 25 27 26 30 27 6 28 7 29 18 30
REMARK H PARENT 18 31
REMARK Flexibility Score: inf
ROOT
ATOM      1  C   UNL     1      -2.997  -5.108  12.627  1.00  0.00     0.010 C 
ATOM      2  C   UNL     1      -1.808  -6.049  12.436  1.00  0.00     0.012 C 
ATOM      3  C   UNL     1      -0.836  -5.530  11.362  1.00  0.00     0.011 C 
ATOM      4  C   UNL     1       0.034  -4.376  11.885  1.00  0.00     0.066 C 
ATOM      5  C   UNL     1       0.647  -4.716  13.272  1.00  0.00     0.171 C 
ATOM      6  C   UNL     1       1.425  -3.459  13.829  1.00  0.00     0.052 C 
ATOM      7  C   UNL     1       2.847  -3.931  13.612  1.00  0.00     0.033 C 
ATOM      8  C   UNL     1       2.722  -5.392  13.816  1.00  0.00     0.126 C 
ATOM      9  O   UNL     1       1.597  -5.782  13.089  1.00  0.00    -0.346 OA
ATOM     10  C   UNL     1       4.069  -5.923  13.354  1.00  0.00     0.037 C 
ATOM     11  C   UNL     1       5.075  -4.787  13.762  1.00  0.00     0.002 C 
ATOM     12  C   UNL     1       4.206  -3.554  14.256  1.00  0.00    -0.024 C 
ATOM     13  C   UNL     1       4.191  -3.470  15.813  1.00  0.00     0.008 C 
ATOM     14  C   UNL     1       5.591  -3.507  16.482  1.00  0.00     0.005 C 
ATOM     15  C   UNL     1       6.748  -4.057  15.595  1.00  0.00     0.003 C 
ATOM     16  C   UNL     1       6.240  -5.242  14.727  1.00  0.00     0.000 C 
ATOM     17  C   UNL     1       5.942  -6.464  15.632  1.00  0.00     0.031 C 
ATOM     18  C   UNL     1       6.952  -6.703  16.732  1.00  0.00    -0.027 C 
ATOM     19  C   UNL     1       7.808  -5.760  17.182  1.00  0.00    -0.065 C 
ATOM     20  C   UNL     1       8.033  -4.455  16.425  1.00  0.00    -0.008 C 
ATOM     21  C   UNL     1       8.386  -3.352  17.470  1.00  0.00     0.014 C 
ATOM     22  C   UNL     1       9.616  -3.681  18.333  1.00  0.00     0.033 C 
ATOM     23  C   UNL     1       9.774  -5.170  18.724  1.00  0.00     0.118 C 
ATOM     24  C   UNL     1       8.511  -6.017  18.507  1.00  0.00     0.063 C 
ATOM     25  C   UNL     1       9.239  -4.627  15.444  1.00  0.00     0.016 C 
ATOM     26  C   UNL     1       4.659  -2.199  13.666  1.00  0.00     0.012 C 
ATOM     27  C   UNL     1       1.061  -3.076  15.277  1.00  0.00     0.014 C 
ATOM     28  O   UNL     1      -0.378  -5.110  14.187  1.00  0.00    -0.349 OA
ATOM     29  C   UNL     1      -1.047  -6.281  13.760  1.00  0.00     0.167 C 
ENDROOT
BRANCH  23  30
ATOM     30  O   UNL     1      10.125  -5.291  20.086  1.00  0.00    -0.393 OA
ATOM     31  H   UNL     1      10.854  -4.635  20.263  1.00  0.00     0.210 HD
ENDBRANCH  23  30
TORSDOF 1
ENDMDL
MODEL 3
REMARK VINA RESULT:    -6.084      5.684      8.543
REMARK INTER + INTRA:          -6.261
REMARK INTER:                  -6.261
REMARK INTRA:                   0.000
REMARK UNBOUND:                 0.000
REMARK SMILES C[C@H]1CC[C@@]2(OC1)O[C@H]1C[C@@H]3[C@@H]4CC=C5C[C@H](O)CC[C@]5(C)[C@@H]4CC[C@]3(C)[C@@H]1[C@@H]2C
REMARK SMILES IDX 1 1 2 2 3 3 4 4 5 5 29 6 28 7 9 8 8 9 10 10 11 11 26 12
REMARK SMILES IDX 25 13 24 14 23 15 12 16 13 17 14 18 15 19 21 20 20 21 19 22
REMARK SMILES IDX 17 23 16 24 22 25 27 26 30 27 6 28 7 29 18 30
REMARK H PARENT 18 31
REMARK Flexibility Score: inf
ROOT
ATOM      1  C   UNL     1       6.375  -7.047  17.017  1.00  0.00     0.010 C 
ATOM      2  C   UNL     1       7.113  -5.822  17.557  1.00  0.00     0.012 C 
ATOM      3  C   UNL     1       8.461  -5.609  16.846  1.00  0.00     0.011 C 
ATOM      4  C   UNL     1       8.281  -5.005  15.445  1.00  0.00     0.066 C 
ATOM      5  C   UNL     1       7.309  -3.792  15.474  1.00  0.00     0.171 C 
ATOM      6  C   UNL     1       7.052  -3.284  14.000  1.00  0.00     0.052 C 
ATOM      7  C   UNL     1       7.883  -2.017  14.027  1.00  0.00     0.033 C 
ATOM      8  C   UNL     1       7.742  -1.585  15.435  1.00  0.00     0.126 C 
ATOM      9  O   UNL     1       7.947  -2.729  16.206  1.00  0.00    -0.346 OA
ATOM     10  C   UNL     1       8.765  -0.468  15.558  1.00  0.00     0.037 C 
ATOM     11  C   UNL     1       8.748   0.209  14.141  1.00  0.00     0.002 C 
ATOM     12  C   UNL     1       7.852  -0.705  13.201  1.00  0.00    -0.024 C 
ATOM     13  C   UNL     1       6.433  -0.086  13.009  1.00  0.00     0.008 C 
ATOM     14  C   UNL     1       6.424   1.399  12.563  1.00  0.00     0.005 C 
ATOM     15  C   UNL     1       7.751   2.182  12.795  1.00  0.00     0.003 C 
ATOM     16  C   UNL     1       8.399   1.750  14.140  1.00  0.00     0.000 C 
ATOM     17  C   UNL     1       7.535   2.257  15.324  1.00  0.00     0.031 C 
ATOM     18  C   UNL     1       6.985   3.656  15.156  1.00  0.00    -0.027 C 
ATOM     19  C   UNL     1       6.879   4.283  13.964  1.00  0.00    -0.065 C 
ATOM     20  C   UNL     1       7.572   3.750  12.714  1.00  0.00    -0.008 C 
ATOM     21  C   UNL     1       6.705   4.150  11.481  1.00  0.00     0.014 C 
ATOM     22  C   UNL     1       6.468   5.664  11.349  1.00  0.00     0.033 C 
ATOM     23  C   UNL     1       6.280   6.425  12.683  1.00  0.00     0.118 C 
ATOM     24  C   UNL     1       5.997   5.520  13.891  1.00  0.00     0.063 C 
ATOM     25  C   UNL     1       8.981   4.416  12.580  1.00  0.00     0.016 C 
ATOM     26  C   UNL     1       8.487  -0.989  11.822  1.00  0.00     0.012 C 
ATOM     27  C   UNL     1       5.566  -3.101  13.640  1.00  0.00     0.014 C 
ATOM     28  O   UNL     1       6.075  -4.156  16.095  1.00  0.00    -0.349 OA
ATOM     29  C   UNL     1       6.255  -4.544  17.443  1.00  0.00     0.167 C 
ENDROOT
BRANCH  23  30
ATOM     30  O   UNL     1       5.206   7.336  12.587  1.00  0.00    -0.393 OA
ATOM     31  H   UNL     1       5.428   8.117  13.165  1.00  0.00     0.210 HD
ENDBRANCH  23  30
TORSDOF 1
ENDMDL
MODEL 4
REMARK VINA RESULT:    -5.894      5.684      8.585
REMARK INTER + INTRA:          -6.067
REMARK INTER:                  -6.067
REMARK INTRA:                   0.000
REMARK UNBOUND:                 0.000
REMARK SMILES C[C@H]1CC[C@@]2(OC1)O[C@H]1C[C@@H]3[C@@H]4CC=C5C[C@H](O)CC[C@]5(C)[C@@H]4CC[C@]3(C)[C@@H]1[C@@H]2C
REMARK SMILES IDX 1 1 2 2 3 3 4 4 5 5 29 6 28 7 9 8 8 9 10 10 11 11 26 12
REMARK SMILES IDX 25 13 24 14 23 15 12 16 13 17 14 18 15 19 21 20 20 21 19 22
REMARK SMILES IDX 17 23 16 24 22 25 27 26 30 27 6 28 7 29 18 30
REMARK H PARENT 18 31
REMARK Flexibility Score: inf
ROOT
ATOM      1  C   UNL     1       6.875   7.760  13.505  1.00  0.00     0.010 C 
ATOM      2  C   UNL     1       6.099   6.637  12.819  1.00  0.00     0.012 C 
ATOM      3  C   UNL     1       6.936   5.952  11.724  1.00  0.00     0.011 C 
ATOM      4  C   UNL     1       7.985   4.998  12.316  1.00  0.00     0.066 C 
ATOM      5  C   UNL     1       7.360   4.072  13.397  1.00  0.00     0.171 C 
ATOM      6  C   UNL     1       8.494   3.201  14.068  1.00  0.00     0.052 C 
ATOM      7  C   UNL     1       8.194   1.864  13.424  1.00  0.00     0.033 C 
ATOM      8  C   UNL     1       6.723   1.918  13.269  1.00  0.00     0.126 C 
ATOM      9  O   UNL     1       6.443   3.178  12.738  1.00  0.00    -0.346 OA
ATOM     10  C   UNL     1       6.421   0.711  12.397  1.00  0.00     0.037 C 
ATOM     11  C   UNL     1       7.491  -0.348  12.846  1.00  0.00     0.002 C 
ATOM     12  C   UNL     1       8.499   0.396  13.821  1.00  0.00    -0.024 C 
ATOM     13  C   UNL     1       8.195   0.045  15.311  1.00  0.00     0.008 C 
ATOM     14  C   UNL     1       8.097  -1.472  15.616  1.00  0.00     0.005 C 
ATOM     15  C   UNL     1       7.866  -2.395  14.382  1.00  0.00     0.003 C 
ATOM     16  C   UNL     1       6.898  -1.713  13.376  1.00  0.00     0.000 C 
ATOM     17  C   UNL     1       5.472  -1.652  13.981  1.00  0.00     0.031 C 
ATOM     18  C   UNL     1       5.045  -2.895  14.727  1.00  0.00    -0.027 C 
ATOM     19  C   UNL     1       5.907  -3.821  15.200  1.00  0.00    -0.065 C 
ATOM     20  C   UNL     1       7.371  -3.845  14.772  1.00  0.00    -0.008 C 
ATOM     21  C   UNL     1       8.205  -4.419  15.959  1.00  0.00     0.014 C 
ATOM     22  C   UNL     1       7.764  -5.822  16.410  1.00  0.00     0.033 C 
ATOM     23  C   UNL     1       6.240  -6.087  16.360  1.00  0.00     0.118 C 
ATOM     24  C   UNL     1       5.384  -4.819  16.222  1.00  0.00     0.063 C 
ATOM     25  C   UNL     1       7.533  -4.788  13.535  1.00  0.00     0.016 C 
ATOM     26  C   UNL     1       9.986   0.113  13.513  1.00  0.00     0.012 C 
ATOM     27  C   UNL     1       8.481   3.219  15.609  1.00  0.00     0.014 C 
ATOM     28  O   UNL     1       6.679   4.847  14.385  1.00  0.00    -0.349 OA
ATOM     29  C   UNL     1       5.604   5.583  13.833  1.00  0.00     0.167 C 
ENDROOT
BRANCH  23  30
ATOM     30  O   UNL     1       5.814  -6.750  17.531  1.00  0.00    -0.393 OA
ATOM     31  H   UNL     1       6.500  -6.582  18.233  1.00  0.00     0.210 HD
ENDBRANCH  23  30
TORSDOF 1
ENDMDL
MODEL 5
REMARK VINA RESULT:    -5.511      2.723      8.576
REMARK INTER + INTRA:          -5.672
REMARK INTER:                  -5.672
REMARK INTRA:                   0.000
REMARK UNBOUND:                 0.000
REMARK SMILES C[C@H]1CC[C@@]2(OC1)O[C@H]1C[C@@H]3[C@@H]4CC=C5C[C@H](O)CC[C@]5(C)[C@@H]4CC[C@]3(C)[C@@H]1[C@@H]2C
REMARK SMILES IDX 1 1 2 2 3 3 4 4 5 5 29 6 28 7 9 8 8 9 10 10 11 11 26 12
REMARK SMILES IDX 25 13 24 14 23 15 12 16 13 17 14 18 15 19 21 20 20 21 19 22
REMARK SMILES IDX 17 23 16 24 22 25 27 26 30 27 6 28 7 29 18 30
REMARK H PARENT 18 31
REMARK Flexibility Score: inf
ROOT
ATOM      1  C   UNL     1      -3.450  -6.506  12.505  1.00  0.00     0.010 C 
ATOM      2  C   UNL     1      -2.793  -5.535  13.485  1.00  0.00     0.012 C 
ATOM      3  C   UNL     1      -2.017  -6.276  14.588  1.00  0.00     0.011 C 
ATOM      4  C   UNL     1      -0.676  -6.825  14.077  1.00  0.00     0.066 C 
ATOM      5  C   UNL     1       0.109  -5.745  13.280  1.00  0.00     0.171 C 
ATOM      6  C   UNL     1       1.415  -6.385  12.666  1.00  0.00     0.052 C 
ATOM      7  C   UNL     1       2.448  -5.776  13.592  1.00  0.00     0.033 C 
ATOM      8  C   UNL     1       1.847  -4.460  13.903  1.00  0.00     0.126 C 
ATOM      9  O   UNL     1       0.509  -4.715  14.204  1.00  0.00    -0.346 OA
ATOM     10  C   UNL     1       2.726  -3.934  15.025  1.00  0.00     0.037 C 
ATOM     11  C   UNL     1       4.152  -4.492  14.671  1.00  0.00     0.002 C 
ATOM     12  C   UNL     1       3.968  -5.499  13.458  1.00  0.00    -0.024 C 
ATOM     13  C   UNL     1       4.396  -4.836  12.112  1.00  0.00     0.008 C 
ATOM     14  C   UNL     1       5.804  -4.185  12.125  1.00  0.00     0.005 C 
ATOM     15  C   UNL     1       6.395  -3.883  13.535  1.00  0.00     0.003 C 
ATOM     16  C   UNL     1       5.274  -3.394  14.493  1.00  0.00     0.000 C 
ATOM     17  C   UNL     1       4.792  -1.986  14.058  1.00  0.00     0.031 C 
ATOM     18  C   UNL     1       5.892  -1.043  13.625  1.00  0.00    -0.027 C 
ATOM     19  C   UNL     1       7.123  -1.448  13.247  1.00  0.00    -0.065 C 
ATOM     20  C   UNL     1       7.610  -2.872  13.498  1.00  0.00    -0.008 C 
ATOM     21  C   UNL     1       8.609  -3.242  12.359  1.00  0.00     0.014 C 
ATOM     22  C   UNL     1       9.809  -2.286  12.247  1.00  0.00     0.033 C 
ATOM     23  C   UNL     1       9.498  -0.796  12.525  1.00  0.00     0.118 C 
ATOM     24  C   UNL     1       8.002  -0.450  12.509  1.00  0.00     0.063 C 
ATOM     25  C   UNL     1       8.360  -2.929  14.869  1.00  0.00     0.016 C 
ATOM     26  C   UNL     1       4.719  -6.837  13.641  1.00  0.00     0.012 C 
ATOM     27  C   UNL     1       1.616  -6.105  11.164  1.00  0.00     0.014 C 
ATOM     28  O   UNL     1      -0.709  -5.197  12.245  1.00  0.00    -0.349 OA
ATOM     29  C   UNL     1      -1.853  -4.545  12.762  1.00  0.00     0.167 C 
ENDROOT
BRANCH  23  30
ATOM     30  O   UNL     1      10.125   0.029  11.565  1.00  0.00    -0.393 OA
ATOM     31  H   UNL     1      10.771   0.610  12.051  1.00  0.00     0.210 HD
ENDBRANCH  23  30
TORSDOF 1
ENDMDL
MODEL 6
REMARK VINA RESULT:    -5.200      6.102      9.459
REMARK INTER + INTRA:          -5.352
REMARK INTER:                  -5.352
REMARK INTRA:                   0.000
REMARK UNBOUND:                 0.000
REMARK SMILES C[C@H]1CC[C@@]2(OC1)O[C@H]1C[C@@H]3[C@@H]4CC=C5C[C@H](O)CC[C@]5(C)[C@@H]4CC[C@]3(C)[C@@H]1[C@@H]2C
REMARK SMILES IDX 1 1 2 2 3 3 4 4 5 5 29 6 28 7 9 8 8 9 10 10 11 11 26 12
REMARK SMILES IDX 25 13 24 14 23 15 12 16 13 17 14 18 15 19 21 20 20 21 19 22
REMARK SMILES IDX 17 23 16 24 22 25 27 26 30 27 6 28 7 29 18 30
REMARK H PARENT 18 31
REMARK Flexibility Score: inf
ROOT
ATOM      1  C   UNL     1       7.220   7.365  11.603  1.00  0.00     0.010 C 
ATOM      2  C   UNL     1       6.194   6.282  11.933  1.00  0.00     0.012 C 
ATOM      3  C   UNL     1       6.075   5.245  10.801  1.00  0.00     0.011 C 
ATOM      4  C   UNL     1       7.257   4.263  10.796  1.00  0.00     0.066 C 
ATOM      5  C   UNL     1       7.536   3.709  12.221  1.00  0.00     0.171 C 
ATOM      6  C   UNL     1       8.833   2.808  12.194  1.00  0.00     0.052 C 
ATOM      7  C   UNL     1       8.188   1.442  12.301  1.00  0.00     0.033 C 
ATOM      8  C   UNL     1       7.000   1.725  13.137  1.00  0.00     0.126 C 
ATOM      9  O   UNL     1       6.424   2.877  12.600  1.00  0.00    -0.346 OA
ATOM     10  C   UNL     1       6.198   0.438  13.049  1.00  0.00     0.037 C 
ATOM     11  C   UNL     1       7.299  -0.679  12.958  1.00  0.00     0.002 C 
ATOM     12  C   UNL     1       8.694   0.058  12.785  1.00  0.00    -0.024 C 
ATOM     13  C   UNL     1       9.482   0.084  14.131  1.00  0.00     0.008 C 
ATOM     14  C   UNL     1       9.630  -1.294  14.828  1.00  0.00     0.005 C 
ATOM     15  C   UNL     1       8.633  -2.396  14.360  1.00  0.00     0.003 C 
ATOM     16  C   UNL     1       7.234  -1.776  14.094  1.00  0.00     0.000 C 
ATOM     17  C   UNL     1       6.593  -1.335  15.435  1.00  0.00     0.031 C 
ATOM     18  C   UNL     1       6.794  -2.299  16.583  1.00  0.00    -0.027 C 
ATOM     19  C   UNL     1       7.757  -3.246  16.608  1.00  0.00    -0.065 C 
ATOM     20  C   UNL     1       8.545  -3.620  15.357  1.00  0.00    -0.008 C 
ATOM     21  C   UNL     1       9.967  -4.076  15.807  1.00  0.00     0.014 C 
ATOM     22  C   UNL     1       9.961  -5.252  16.798  1.00  0.00     0.033 C 
ATOM     23  C   UNL     1       8.808  -5.243  17.831  1.00  0.00     0.118 C 
ATOM     24  C   UNL     1       8.073  -3.900  17.944  1.00  0.00     0.063 C 
ATOM     25  C   UNL     1       7.836  -4.813  14.635  1.00  0.00     0.016 C 
ATOM     26  C   UNL     1       9.583  -0.545  11.674  1.00  0.00     0.012 C 
ATOM     27  C   UNL     1       9.866   3.147  13.285  1.00  0.00     0.014 C 
ATOM     28  O   UNL     1       7.697   4.782  13.151  1.00  0.00    -0.349 OA
ATOM     29  C   UNL     1       6.526   5.567  13.261  1.00  0.00     0.167 C 
ENDROOT
BRANCH  23  30
ATOM     30  O   UNL     1       9.293  -5.562  19.118  1.00  0.00    -0.393 OA
ATOM     31  H   UNL     1       8.503  -5.652  19.717  1.00  0.00     0.210 HD
ENDBRANCH  23  30
TORSDOF 1
ENDMDL
MODEL 7
REMARK VINA RESULT:    -5.023      7.343     10.038
REMARK INTER + INTRA:          -5.170
REMARK INTER:                  -5.170
REMARK INTRA:                   0.000
REMARK UNBOUND:                 0.000
REMARK SMILES C[C@H]1CC[C@@]2(OC1)O[C@H]1C[C@@H]3[C@@H]4CC=C5C[C@H](O)CC[C@]5(C)[C@@H]4CC[C@]3(C)[C@@H]1[C@@H]2C
REMARK SMILES IDX 1 1 2 2 3 3 4 4 5 5 29 6 28 7 9 8 8 9 10 10 11 11 26 12
REMARK SMILES IDX 25 13 24 14 23 15 12 16 13 17 14 18 15 19 21 20 20 21 19 22
REMARK SMILES IDX 17 23 16 24 22 25 27 26 30 27 6 28 7 29 18 30
REMARK H PARENT 18 31
REMARK Flexibility Score: inf
ROOT
ATOM      1  C   UNL     1       9.599   9.331  12.556  1.00  0.00     0.010 C 
ATOM      2  C   UNL     1       8.781   8.523  13.562  1.00  0.00     0.012 C 
ATOM      3  C   UNL     1       7.414   8.113  12.986  1.00  0.00     0.011 C 
ATOM      4  C   UNL     1       7.535   6.944  11.996  1.00  0.00     0.066 C 
ATOM      5  C   UNL     1       8.417   5.803  12.576  1.00  0.00     0.171 C 
ATOM      6  C   UNL     1       8.622   4.683  11.481  1.00  0.00     0.052 C 
ATOM      7  C   UNL     1       7.703   3.618  12.042  1.00  0.00     0.033 C 
ATOM      8  C   UNL     1       7.826   3.839  13.500  1.00  0.00     0.126 C 
ATOM      9  O   UNL     1       7.712   5.217  13.686  1.00  0.00    -0.346 OA
ATOM     10  C   UNL     1       6.727   2.964  14.078  1.00  0.00     0.037 C 
ATOM     11  C   UNL     1       6.680   1.733  13.102  1.00  0.00     0.002 C 
ATOM     12  C   UNL     1       7.630   2.078  11.877  1.00  0.00    -0.024 C 
ATOM     13  C   UNL     1       8.999   1.341  12.008  1.00  0.00     0.008 C 
ATOM     14  C   UNL     1       8.896  -0.187  12.259  1.00  0.00     0.005 C 
ATOM     15  C   UNL     1       7.518  -0.693  12.781  1.00  0.00     0.003 C 
ATOM     16  C   UNL     1       6.917   0.329  13.786  1.00  0.00     0.000 C 
ATOM     17  C   UNL     1       7.754   0.335  15.090  1.00  0.00     0.031 C 
ATOM     18  C   UNL     1       8.200  -1.030  15.566  1.00  0.00    -0.027 C 
ATOM     19  C   UNL     1       8.248  -2.122  14.773  1.00  0.00    -0.065 C 
ATOM     20  C   UNL     1       7.583  -2.146  13.401  1.00  0.00    -0.008 C 
ATOM     21  C   UNL     1       8.406  -3.106  12.488  1.00  0.00     0.014 C 
ATOM     22  C   UNL     1       8.532  -4.536  13.038  1.00  0.00     0.033 C 
ATOM     23  C   UNL     1       8.678  -4.645  14.575  1.00  0.00     0.118 C 
ATOM     24  C   UNL     1       9.038  -3.324  15.270  1.00  0.00     0.063 C 
ATOM     25  C   UNL     1       6.128  -2.704  13.541  1.00  0.00     0.016 C 
ATOM     26  C   UNL     1       7.003   1.770  10.499  1.00  0.00     0.012 C 
ATOM     27  C   UNL     1      10.088   4.259  11.271  1.00  0.00     0.014 C 
ATOM     28  O   UNL     1       9.681   6.317  13.002  1.00  0.00    -0.349 OA
ATOM     29  C   UNL     1       9.543   7.268  14.039  1.00  0.00     0.167 C 
ENDROOT
BRANCH  23  30
ATOM     30  O   UNL     1       9.683  -5.578  14.913  1.00  0.00    -0.393 OA
ATOM     31  H   UNL     1      10.055  -5.306  15.795  1.00  0.00     0.210 HD
ENDBRANCH  23  30
TORSDOF 1
ENDMDL
MODEL 8
REMARK VINA RESULT:    -4.635      1.964      8.728
REMARK INTER + INTRA:          -4.771
REMARK INTER:                  -4.771
REMARK INTRA:                   0.000
REMARK UNBOUND:                 0.000
REMARK SMILES C[C@H]1CC[C@@]2(OC1)O[C@H]1C[C@@H]3[C@@H]4CC=C5C[C@H](O)CC[C@]5(C)[C@@H]4CC[C@]3(C)[C@@H]1[C@@H]2C
REMARK SMILES IDX 1 1 2 2 3 3 4 4 5 5 29 6 28 7 9 8 8 9 10 10 11 11 26 12
REMARK SMILES IDX 25 13 24 14 23 15 12 16 13 17 14 18 15 19 21 20 20 21 19 22
REMARK SMILES IDX 17 23 16 24 22 25 27 26 30 27 6 28 7 29 18 30
REMARK H PARENT 18 31
REMARK Flexibility Score: inf
ROOT
ATOM      1  C   UNL     1      -3.682  -6.091  12.459  1.00  0.00     0.010 C 
ATOM      2  C   UNL     1      -2.659  -6.917  13.237  1.00  0.00     0.012 C 
ATOM      3  C   UNL     1      -1.761  -7.743  12.299  1.00  0.00     0.011 C 
ATOM      4  C   UNL     1      -0.691  -6.876  11.619  1.00  0.00     0.066 C 
ATOM      5  C   UNL     1       0.032  -5.961  12.647  1.00  0.00     0.171 C 
ATOM      6  C   UNL     1       1.030  -4.998  11.890  1.00  0.00     0.052 C 
ATOM      7  C   UNL     1       2.341  -5.657  12.265  1.00  0.00     0.033 C 
ATOM      8  C   UNL     1       2.050  -6.181  13.618  1.00  0.00     0.126 C 
ATOM      9  O   UNL     1       0.804  -6.803  13.524  1.00  0.00    -0.346 OA
ATOM     10  C   UNL     1       3.250  -7.064  13.914  1.00  0.00     0.037 C 
ATOM     11  C   UNL     1       4.439  -6.327  13.198  1.00  0.00     0.002 C 
ATOM     12  C   UNL     1       3.805  -5.151  12.340  1.00  0.00    -0.024 C 
ATOM     13  C   UNL     1       3.986  -3.777  13.056  1.00  0.00     0.008 C 
ATOM     14  C   UNL     1       5.438  -3.460  13.503  1.00  0.00     0.005 C 
ATOM     15  C   UNL     1       6.398  -4.684  13.591  1.00  0.00     0.003 C 
ATOM     16  C   UNL     1       5.639  -5.923  14.142  1.00  0.00     0.000 C 
ATOM     17  C   UNL     1       5.291  -5.701  15.637  1.00  0.00     0.031 C 
ATOM     18  C   UNL     1       6.384  -5.049  16.454  1.00  0.00    -0.027 C 
ATOM     19  C   UNL     1       7.405  -4.346  15.918  1.00  0.00    -0.065 C 
ATOM     20  C   UNL     1       7.709  -4.388  14.424  1.00  0.00    -0.008 C 
ATOM     21  C   UNL     1       8.326  -3.013  14.024  1.00  0.00     0.014 C 
ATOM     22  C   UNL     1       9.595  -2.645  14.811  1.00  0.00     0.033 C 
ATOM     23  C   UNL     1       9.600  -3.071  16.299  1.00  0.00     0.118 C 
ATOM     24  C   UNL     1       8.220  -3.460  16.848  1.00  0.00     0.063 C 
ATOM     25  C   UNL     1       8.756  -5.515  14.141  1.00  0.00     0.016 C 
ATOM     26  C   UNL     1       4.359  -5.064  10.900  1.00  0.00     0.012 C 
ATOM     27  C   UNL     1       0.894  -3.513  12.274  1.00  0.00     0.014 C 
ATOM     28  O   UNL     1      -0.920  -5.202  13.394  1.00  0.00    -0.349 OA
ATOM     29  C   UNL     1      -1.784  -6.029  14.148  1.00  0.00     0.167 C 
ENDROOT
BRANCH  23  30
ATOM     30  O   UNL     1      10.091  -2.027  17.112  1.00  0.00    -0.393 OA
ATOM     31  H   UNL     1      10.387  -2.435  17.971  1.00  0.00     0.210 HD
ENDBRANCH  23  30
TORSDOF 1
ENDMDL
