MODEL 1
REMARK VINA RESULT:     5.172      0.000      0.000
REMARK INTER + INTRA:          11.765
REMARK INTER:                  11.219
REMARK INTRA:                   0.546
REMARK UNBOUND:                 0.546
REMARK SMILES CCCCCCCCCCCCCCCCCCCCCC(=O)[O-]
REMARK SMILES IDX 12 1 11 2 10 3 9 4 8 5 7 6 6 7 5 8 4 9 3 10 2 11 1 12 13 13
REMARK SMILES IDX 14 14 15 15 16 16 17 17 18 18 19 19 20 20 21 21 22 22 23 23
REMARK SMILES IDX 24 24
REMARK H PARENT
REMARK Flexibility Score: inf
ROOT
ATOM      1  C   UNL     1       0.865  42.605  10.835  1.00  0.00     0.000 C 
ENDROOT
BRANCH   1   2
ATOM      2  C   UNL     1       2.074  42.506   9.894  1.00  0.00     0.000 C 
BRANCH   2   3
ATOM      3  C   UNL     1       2.869  43.820   9.877  1.00  0.00     0.000 C 
BRANCH   3   4
ATOM      4  C   UNL     1       3.244  44.298  11.289  1.00  0.00    -0.000 C 
BRANCH   4   5
ATOM      5  C   UNL     1       4.623  44.978  11.330  1.00  0.00    -0.000 C 
BRANCH   5   6
ATOM      6  C   UNL     1       5.307  45.013   9.955  1.00  0.00    -0.000 C 
BRANCH   6   7
ATOM      7  C   UNL     1       6.613  44.198   9.922  1.00  0.00    -0.000 C 
BRANCH   7   8
ATOM      8  C   UNL     1       6.372  42.703  10.221  1.00  0.00    -0.000 C 
BRANCH   8   9
ATOM      9  C   UNL     1       7.556  42.019  10.926  1.00  0.00    -0.000 C 
BRANCH   9  10
ATOM     10  C   UNL     1       7.742  42.487  12.378  1.00  0.00    -0.000 C 
BRANCH  10  11
ATOM     11  C   UNL     1       6.421  42.919  13.032  1.00  0.00    -0.003 C 
ATOM     12  C   UNL     1       6.321  42.495  14.497  1.00  0.00     0.004 C 
ENDBRANCH  10  11
ENDBRANCH   9  10
ENDBRANCH   8   9
ENDBRANCH   7   8
ENDBRANCH   6   7
ENDBRANCH   5   6
ENDBRANCH   4   5
ENDBRANCH   3   4
ENDBRANCH   2   3
ENDBRANCH   1   2
BRANCH   1  13
ATOM     13  C   UNL     1       1.018  43.725  11.880  1.00  0.00     0.000 C 
BRANCH  13  14
ATOM     14  C   UNL     1      -0.124  43.815  12.914  1.00  0.00     0.000 C 
BRANCH  14  15
ATOM     15  C   UNL     1       0.072  44.868  14.020  1.00  0.00     0.000 C 
BRANCH  15  16
ATOM     16  C   UNL     1      -1.194  45.086  14.865  1.00  0.00     0.000 C 
BRANCH  16  17
ATOM     17  C   UNL     1      -2.314  44.090  14.526  1.00  0.00     0.000 C 
BRANCH  17  18
ATOM     18  C   UNL     1      -2.095  42.704  15.158  1.00  0.00     0.000 C 
BRANCH  18  19
ATOM     19  C   UNL     1      -2.890  41.592  14.436  1.00  0.00     0.000 C 
BRANCH  19  20
ATOM     20  C   UNL     1      -4.418  41.717  14.594  1.00  0.00     0.006 C 
BRANCH  20  21
ATOM     21  C   UNL     1      -5.195  40.430  14.283  1.00  0.00     0.053 C 
BRANCH  21  22
ATOM     22  C   UNL     1      -5.896  39.890  15.493  1.00  0.00     0.041 C 
ATOM     23  O   UNL     1      -7.049  40.299  15.790  1.00  0.00    -0.550 OA
ATOM     24  O   UNL     1      -5.261  38.971  16.316  1.00  0.00    -0.550 OA
ENDBRANCH  21  22
ENDBRANCH  20  21
ENDBRANCH  19  20
ENDBRANCH  18  19
ENDBRANCH  17  18
ENDBRANCH  16  17
ENDBRANCH  15  16
ENDBRANCH  14  15
ENDBRANCH  13  14
ENDBRANCH   1  13
TORSDOF 20
ENDMDL
MODEL 2
REMARK VINA RESULT:     5.670      3.543      9.750
REMARK INTER + INTRA:          12.846
REMARK INTER:                  13.569
REMARK INTRA:                  -0.723
REMARK UNBOUND:                 0.546
REMARK SMILES CCCCCCCCCCCCCCCCCCCCCC(=O)[O-]
REMARK SMILES IDX 12 1 11 2 10 3 9 4 8 5 7 6 6 7 5 8 4 9 3 10 2 11 1 12 13 13
REMARK SMILES IDX 14 14 15 15 16 16 17 17 18 18 19 19 20 20 21 21 22 22 23 23
REMARK SMILES IDX 24 24
REMARK H PARENT
REMARK Flexibility Score: inf
ROOT
ATOM      1  C   UNL     1       1.777  43.679  12.234  1.00  0.00     0.000 C 
ENDROOT
BRANCH   1   2
ATOM      2  C   UNL     1       0.452  43.886  12.980  1.00  0.00     0.000 C 
BRANCH   2   3
ATOM      3  C   UNL     1       0.518  45.124  13.887  1.00  0.00     0.000 C 
BRANCH   3   4
ATOM      4  C   UNL     1      -0.552  45.101  14.991  1.00  0.00    -0.000 C 
BRANCH   4   5
ATOM      5  C   UNL     1      -1.981  45.099  14.421  1.00  0.00    -0.000 C 
BRANCH   5   6
ATOM      6  C   UNL     1      -2.742  43.802  14.738  1.00  0.00    -0.000 C 
BRANCH   6   7
ATOM      7  C   UNL     1      -1.834  42.559  14.698  1.00  0.00    -0.000 C 
BRANCH   7   8
ATOM      8  C   UNL     1      -2.646  41.246  14.718  1.00  0.00    -0.000 C 
BRANCH   8   9
ATOM      9  C   UNL     1      -4.165  41.463  14.605  1.00  0.00    -0.000 C 
BRANCH   9  10
ATOM     10  C   UNL     1      -4.963  40.150  14.648  1.00  0.00    -0.000 C 
BRANCH  10  11
ATOM     11  C   UNL     1      -5.969  40.109  15.808  1.00  0.00    -0.003 C 
ATOM     12  C   UNL     1      -7.366  40.573  15.394  1.00  0.00     0.004 C 
ENDBRANCH  10  11
ENDBRANCH   9  10
ENDBRANCH   8   9
ENDBRANCH   7   8
ENDBRANCH   6   7
ENDBRANCH   5   6
ENDBRANCH   4   5
ENDBRANCH   3   4
ENDBRANCH   2   3
ENDBRANCH   1   2
BRANCH   1  13
ATOM     13  C   UNL     1       1.588  43.549  10.712  1.00  0.00     0.000 C 
BRANCH  13  14
ATOM     14  C   UNL     1       2.873  43.722   9.875  1.00  0.00     0.000 C 
BRANCH  14  15
ATOM     15  C   UNL     1       3.543  45.105   9.976  1.00  0.00     0.000 C 
BRANCH  15  16
ATOM     16  C   UNL     1       4.895  45.058  10.707  1.00  0.00     0.000 C 
BRANCH  16  17
ATOM     17  C   UNL     1       5.937  44.197   9.978  1.00  0.00     0.000 C 
BRANCH  17  18
ATOM     18  C   UNL     1       7.369  44.421  10.497  1.00  0.00     0.000 C 
BRANCH  18  19
ATOM     19  C   UNL     1       8.070  43.099  10.885  1.00  0.00     0.000 C 
BRANCH  19  20
ATOM     20  C   UNL     1       7.199  42.161  11.742  1.00  0.00     0.006 C 
BRANCH  20  21
ATOM     21  C   UNL     1       7.217  42.477  13.245  1.00  0.00     0.053 C 
BRANCH  21  22
ATOM     22  C   UNL     1       5.833  42.606  13.808  1.00  0.00     0.041 C 
ATOM     23  O   UNL     1       5.597  42.246  14.992  1.00  0.00    -0.550 OA
ATOM     24  O   UNL     1       4.798  43.082  13.016  1.00  0.00    -0.550 OA
ENDBRANCH  21  22
ENDBRANCH  20  21
ENDBRANCH  19  20
ENDBRANCH  18  19
ENDBRANCH  17  18
ENDBRANCH  16  17
ENDBRANCH  15  16
ENDBRANCH  14  15
ENDBRANCH  13  14
ENDBRANCH   1  13
TORSDOF 20
ENDMDL
