MODEL 1
REMARK VINA RESULT:    -5.482      0.000      0.000
REMARK INTER + INTRA:          -5.482
REMARK INTER:                  -5.482
REMARK INTRA:                   0.000
REMARK UNBOUND:                 0.000
REMARK SMILES C=C1CCCC(C)(C)[C@@]12CC=C(C)CC2
REMARK SMILES IDX 13 1 12 2 11 3 10 4 9 5 15 6 14 7 2 8 1 9 3 10 4 11 5 12
REMARK SMILES IDX 6 13 7 14 8 15
REMARK H PARENT
REMARK Flexibility Score: inf
ROOT
ATOM      1  C   UNL     1       4.477   6.729  13.509  1.00  0.00     0.039 C 
ATOM      2  C   UNL     1       3.906   7.174  14.828  1.00  0.00    -0.077 C 
ATOM      3  C   UNL     1       3.027   8.195  14.849  1.00  0.00    -0.027 C 
ATOM      4  C   UNL     1       2.378   8.703  16.117  1.00  0.00     0.039 C 
ATOM      5  C   UNL     1       3.171   8.352  17.426  1.00  0.00    -0.000 C 
ATOM      6  C   UNL     1       3.526   6.836  17.310  1.00  0.00     0.017 C 
ATOM      7  C   UNL     1       4.425   6.545  16.100  1.00  0.00     0.031 C 
ATOM      8  C   UNL     1       4.488   9.164  17.565  1.00  0.00    -0.070 C 
ATOM      9  C   UNL     1       4.952  10.029  16.637  1.00  0.00     0.008 C 
ATOM     10  C   UNL     1       5.294   8.980  18.832  1.00  0.00     0.031 C 
ATOM     11  C   UNL     1       4.427   9.287  20.048  1.00  0.00     0.005 C 
ATOM     12  C   UNL     1       3.133   8.463  20.034  1.00  0.00     0.008 C 
ATOM     13  C   UNL     1       2.287   8.645  18.730  1.00  0.00    -0.026 C 
ATOM     14  C   UNL     1       1.064   7.696  18.870  1.00  0.00     0.012 C 
ATOM     15  C   UNL     1       1.731  10.096  18.702  1.00  0.00     0.012 C 
ENDROOT
TORSDOF 0
ENDMDL
MODEL 2
REMARK VINA RESULT:    -5.377      1.821      3.516
REMARK INTER + INTRA:          -5.377
REMARK INTER:                  -5.377
REMARK INTRA:                   0.000
REMARK UNBOUND:                 0.000
REMARK SMILES C=C1CCCC(C)(C)[C@@]12CC=C(C)CC2
REMARK SMILES IDX 13 1 12 2 11 3 10 4 9 5 15 6 14 7 2 8 1 9 3 10 4 11 5 12
REMARK SMILES IDX 6 13 7 14 8 15
REMARK H PARENT
REMARK Flexibility Score: inf
ROOT
ATOM      1  C   UNL     1       8.182   7.524  14.639  1.00  0.00     0.039 C 
ATOM      2  C   UNL     1       6.987   7.961  15.441  1.00  0.00    -0.077 C 
ATOM      3  C   UNL     1       6.619   7.238  16.517  1.00  0.00    -0.027 C 
ATOM      4  C   UNL     1       5.449   7.606  17.402  1.00  0.00     0.039 C 
ATOM      5  C   UNL     1       4.389   8.533  16.708  1.00  0.00    -0.000 C 
ATOM      6  C   UNL     1       5.209   9.671  16.022  1.00  0.00     0.017 C 
ATOM      7  C   UNL     1       6.163   9.129  14.948  1.00  0.00     0.031 C 
ATOM      8  C   UNL     1       3.562   7.789  15.623  1.00  0.00    -0.070 C 
ATOM      9  C   UNL     1       3.767   6.507  15.253  1.00  0.00     0.008 C 
ATOM     10  C   UNL     1       2.445   8.555  14.947  1.00  0.00     0.031 C 
ATOM     11  C   UNL     1       1.472   9.083  15.995  1.00  0.00     0.005 C 
ATOM     12  C   UNL     1       2.197   9.903  17.069  1.00  0.00     0.008 C 
ATOM     13  C   UNL     1       3.353   9.124  17.778  1.00  0.00    -0.026 C 
ATOM     14  C   UNL     1       4.004  10.125  18.775  1.00  0.00     0.012 C 
ATOM     15  C   UNL     1       2.730   7.982  18.629  1.00  0.00     0.012 C 
ENDROOT
TORSDOF 0
ENDMDL
MODEL 3
REMARK VINA RESULT:    -5.255      1.315      4.108
REMARK INTER + INTRA:          -5.255
REMARK INTER:                  -5.255
REMARK INTRA:                   0.000
REMARK UNBOUND:                 0.000
REMARK SMILES C=C1CCCC(C)(C)[C@@]12CC=C(C)CC2
REMARK SMILES IDX 13 1 12 2 11 3 10 4 9 5 15 6 14 7 2 8 1 9 3 10 4 11 5 12
REMARK SMILES IDX 6 13 7 14 8 15
REMARK H PARENT
REMARK Flexibility Score: inf
ROOT
ATOM      1  C   UNL     1      -0.376   9.137  18.364  1.00  0.00     0.039 C 
ATOM      2  C   UNL     1       1.105   9.062  18.113  1.00  0.00    -0.077 C 
ATOM      3  C   UNL     1       1.716  10.085  17.483  1.00  0.00    -0.027 C 
ATOM      4  C   UNL     1       3.201  10.116  17.204  1.00  0.00     0.039 C 
ATOM      5  C   UNL     1       3.881   8.702  17.196  1.00  0.00    -0.000 C 
ATOM      6  C   UNL     1       3.367   7.979  18.481  1.00  0.00     0.017 C 
ATOM      7  C   UNL     1       1.843   7.791  18.465  1.00  0.00     0.031 C 
ATOM      8  C   UNL     1       3.487   7.855  15.954  1.00  0.00    -0.070 C 
ATOM      9  C   UNL     1       2.603   8.248  15.012  1.00  0.00     0.008 C 
ATOM     10  C   UNL     1       4.152   6.506  15.788  1.00  0.00     0.031 C 
ATOM     11  C   UNL     1       5.667   6.671  15.777  1.00  0.00     0.005 C 
ATOM     12  C   UNL     1       6.155   7.432  17.016  1.00  0.00     0.008 C 
ATOM     13  C   UNL     1       5.479   8.831  17.200  1.00  0.00    -0.026 C 
ATOM     14  C   UNL     1       6.044   9.415  18.525  1.00  0.00     0.012 C 
ATOM     15  C   UNL     1       5.958   9.765  16.055  1.00  0.00     0.012 C 
ENDROOT
TORSDOF 0
ENDMDL
MODEL 4
REMARK VINA RESULT:    -5.220      2.076      3.345
REMARK INTER + INTRA:          -5.220
REMARK INTER:                  -5.220
REMARK INTRA:                   0.000
REMARK UNBOUND:                 0.000
REMARK SMILES C=C1CCCC(C)(C)[C@@]12CC=C(C)CC2
REMARK SMILES IDX 13 1 12 2 11 3 10 4 9 5 15 6 14 7 2 8 1 9 3 10 4 11 5 12
REMARK SMILES IDX 6 13 7 14 8 15
REMARK H PARENT
REMARK Flexibility Score: inf
ROOT
ATOM      1  C   UNL     1       7.869   6.364  11.724  1.00  0.00     0.039 C 
ATOM      2  C   UNL     1       6.982   6.469  12.935  1.00  0.00    -0.077 C 
ATOM      3  C   UNL     1       5.731   6.948  12.790  1.00  0.00    -0.027 C 
ATOM      4  C   UNL     1       4.754   7.072  13.938  1.00  0.00     0.039 C 
ATOM      5  C   UNL     1       5.433   7.126  15.353  1.00  0.00    -0.000 C 
ATOM      6  C   UNL     1       6.475   5.963  15.366  1.00  0.00     0.017 C 
ATOM      7  C   UNL     1       7.559   6.148  14.294  1.00  0.00     0.031 C 
ATOM      8  C   UNL     1       6.177   8.466  15.609  1.00  0.00    -0.070 C 
ATOM      9  C   UNL     1       6.297   9.457  14.701  1.00  0.00     0.008 C 
ATOM     10  C   UNL     1       6.793   8.673  16.975  1.00  0.00     0.031 C 
ATOM     11  C   UNL     1       5.728   8.517  18.055  1.00  0.00     0.005 C 
ATOM     12  C   UNL     1       4.994   7.177  17.925  1.00  0.00     0.008 C 
ATOM     13  C   UNL     1       4.348   6.949  16.519  1.00  0.00    -0.026 C 
ATOM     14  C   UNL     1       3.713   5.531  16.557  1.00  0.00     0.012 C 
ATOM     15  C   UNL     1       3.181   7.960  16.342  1.00  0.00     0.012 C 
ENDROOT
TORSDOF 0
ENDMDL
MODEL 5
REMARK VINA RESULT:    -5.214     11.338     13.828
REMARK INTER + INTRA:          -5.214
REMARK INTER:                  -5.214
REMARK INTRA:                   0.000
REMARK UNBOUND:                 0.000
REMARK SMILES C=C1CCCC(C)(C)[C@@]12CC=C(C)CC2
REMARK SMILES IDX 13 1 12 2 11 3 10 4 9 5 15 6 14 7 2 8 1 9 3 10 4 11 5 12
REMARK SMILES IDX 6 13 7 14 8 15
REMARK H PARENT
REMARK Flexibility Score: inf
ROOT
ATOM      1  C   UNL     1      18.762   8.603  25.042  1.00  0.00     0.039 C 
ATOM      2  C   UNL     1      17.278   8.639  24.801  1.00  0.00    -0.077 C 
ATOM      3  C   UNL     1      16.540   9.593  25.402  1.00  0.00    -0.027 C 
ATOM      4  C   UNL     1      15.046   9.730  25.207  1.00  0.00     0.039 C 
ATOM      5  C   UNL     1      14.341   8.415  24.719  1.00  0.00    -0.000 C 
ATOM      6  C   UNL     1      15.214   7.881  23.540  1.00  0.00     0.017 C 
ATOM      7  C   UNL     1      16.641   7.535  23.989  1.00  0.00     0.031 C 
ATOM      8  C   UNL     1      14.275   7.325  25.825  1.00  0.00    -0.070 C 
ATOM      9  C   UNL     1      14.822   7.451  27.054  1.00  0.00     0.008 C 
ATOM     10  C   UNL     1      13.536   6.045  25.503  1.00  0.00     0.031 C 
ATOM     11  C   UNL     1      12.107   6.363  25.077  1.00  0.00     0.005 C 
ATOM     12  C   UNL     1      12.080   7.378  23.927  1.00  0.00     0.008 C 
ATOM     13  C   UNL     1      12.839   8.709  24.246  1.00  0.00    -0.026 C 
ATOM     14  C   UNL     1      12.759   9.574  22.957  1.00  0.00     0.012 C 
ATOM     15  C   UNL     1      12.054   9.471  25.350  1.00  0.00     0.012 C 
ENDROOT
TORSDOF 0
ENDMDL
MODEL 6
REMARK VINA RESULT:    -5.184     11.092     13.619
REMARK INTER + INTRA:          -5.184
REMARK INTER:                  -5.184
REMARK INTRA:                   0.000
REMARK UNBOUND:                 0.000
REMARK SMILES C=C1CCCC(C)(C)[C@@]12CC=C(C)CC2
REMARK SMILES IDX 13 1 12 2 11 3 10 4 9 5 15 6 14 7 2 8 1 9 3 10 4 11 5 12
REMARK SMILES IDX 6 13 7 14 8 15
REMARK H PARENT
REMARK Flexibility Score: inf
ROOT
ATOM      1  C   UNL     1      10.632   8.955  22.777  1.00  0.00     0.039 C 
ATOM      2  C   UNL     1      12.053   8.947  23.270  1.00  0.00    -0.077 C 
ATOM      3  C   UNL     1      12.990   8.292  22.557  1.00  0.00    -0.027 C 
ATOM      4  C   UNL     1      14.448   8.243  22.954  1.00  0.00     0.039 C 
ATOM      5  C   UNL     1      14.707   8.524  24.477  1.00  0.00    -0.000 C 
ATOM      6  C   UNL     1      13.870   9.796  24.820  1.00  0.00     0.017 C 
ATOM      7  C   UNL     1      12.365   9.570  24.611  1.00  0.00     0.031 C 
ATOM      8  C   UNL     1      14.238   7.356  25.388  1.00  0.00    -0.070 C 
ATOM      9  C   UNL     1      13.610   6.246  24.944  1.00  0.00     0.008 C 
ATOM     10  C   UNL     1      14.518   7.470  26.871  1.00  0.00     0.031 C 
ATOM     11  C   UNL     1      16.011   7.671  27.103  1.00  0.00     0.005 C 
ATOM     12  C   UNL     1      16.546   8.862  26.298  1.00  0.00     0.008 C 
ATOM     13  C   UNL     1      16.266   8.758  24.762  1.00  0.00    -0.026 C 
ATOM     14  C   UNL     1      16.817  10.067  24.130  1.00  0.00     0.012 C 
ATOM     15  C   UNL     1      17.112   7.589  24.185  1.00  0.00     0.012 C 
ENDROOT
TORSDOF 0
ENDMDL
MODEL 7
REMARK VINA RESULT:    -5.155     11.587     13.985
REMARK INTER + INTRA:          -5.155
REMARK INTER:                  -5.155
REMARK INTRA:                   0.000
REMARK UNBOUND:                 0.000
REMARK SMILES C=C1CCCC(C)(C)[C@@]12CC=C(C)CC2
REMARK SMILES IDX 13 1 12 2 11 3 10 4 9 5 15 6 14 7 2 8 1 9 3 10 4 11 5 12
REMARK SMILES IDX 6 13 7 14 8 15
REMARK H PARENT
REMARK Flexibility Score: inf
ROOT
ATOM      1  C   UNL     1      18.924   9.003  24.864  1.00  0.00     0.039 C 
ATOM      2  C   UNL     1      17.511   8.500  24.976  1.00  0.00    -0.077 C 
ATOM      3  C   UNL     1      17.020   7.704  24.006  1.00  0.00    -0.027 C 
ATOM      4  C   UNL     1      15.623   7.128  24.035  1.00  0.00     0.039 C 
ATOM      5  C   UNL     1      14.622   7.922  24.948  1.00  0.00    -0.000 C 
ATOM      6  C   UNL     1      15.375   8.155  26.296  1.00  0.00     0.017 C 
ATOM      7  C   UNL     1      16.644   8.998  26.110  1.00  0.00     0.031 C 
ATOM      8  C   UNL     1      14.231   9.302  24.350  1.00  0.00    -0.070 C 
ATOM      9  C   UNL     1      14.741   9.809  23.207  1.00  0.00     0.008 C 
ATOM     10  C   UNL     1      13.200  10.121  25.095  1.00  0.00     0.031 C 
ATOM     11  C   UNL     1      11.921   9.310  25.271  1.00  0.00     0.005 C 
ATOM     12  C   UNL     1      12.205   7.956  25.934  1.00  0.00     0.008 C 
ATOM     13  C   UNL     1      13.268   7.095  25.173  1.00  0.00    -0.026 C 
ATOM     14  C   UNL     1      13.468   5.805  26.017  1.00  0.00     0.012 C 
ATOM     15  C   UNL     1      12.662   6.654  23.811  1.00  0.00     0.012 C 
ENDROOT
TORSDOF 0
ENDMDL
MODEL 8
REMARK VINA RESULT:    -5.096      8.808     11.666
REMARK INTER + INTRA:          -5.096
REMARK INTER:                  -5.096
REMARK INTRA:                   0.000
REMARK UNBOUND:                 0.000
REMARK SMILES C=C1CCCC(C)(C)[C@@]12CC=C(C)CC2
REMARK SMILES IDX 13 1 12 2 11 3 10 4 9 5 15 6 14 7 2 8 1 9 3 10 4 11 5 12
REMARK SMILES IDX 6 13 7 14 8 15
REMARK H PARENT
REMARK Flexibility Score: inf
ROOT
ATOM      1  C   UNL     1      10.888   7.985  27.417  1.00  0.00     0.039 C 
ATOM      2  C   UNL     1      11.183   8.209  25.960  1.00  0.00    -0.077 C 
ATOM      3  C   UNL     1      11.205   7.151  25.125  1.00  0.00    -0.027 C 
ATOM      4  C   UNL     1      11.468   7.273  23.641  1.00  0.00     0.039 C 
ATOM      5  C   UNL     1      12.230   8.582  23.231  1.00  0.00    -0.000 C 
ATOM      6  C   UNL     1      11.496   9.746  23.969  1.00  0.00     0.017 C 
ATOM      7  C   UNL     1      11.565   9.596  25.495  1.00  0.00     0.031 C 
ATOM      8  C   UNL     1      13.720   8.571  23.674  1.00  0.00    -0.070 C 
ATOM      9  C   UNL     1      14.294   7.585  24.395  1.00  0.00     0.008 C 
ATOM     10  C   UNL     1      14.583   9.742  23.255  1.00  0.00     0.031 C 
ATOM     11  C   UNL     1      14.548   9.895  21.738  1.00  0.00     0.005 C 
ATOM     12  C   UNL     1      13.108   9.995  21.219  1.00  0.00     0.008 C 
ATOM     13  C   UNL     1      12.204   8.791  21.643  1.00  0.00    -0.026 C 
ATOM     14  C   UNL     1      10.784   9.096  21.087  1.00  0.00     0.012 C 
ATOM     15  C   UNL     1      12.708   7.515  20.913  1.00  0.00     0.012 C 
ENDROOT
TORSDOF 0
ENDMDL
MODEL 9
REMARK VINA RESULT:    -5.082      8.885     11.642
REMARK INTER + INTRA:          -5.082
REMARK INTER:                  -5.082
REMARK INTRA:                   0.000
REMARK UNBOUND:                 0.000
REMARK SMILES C=C1CCCC(C)(C)[C@@]12CC=C(C)CC2
REMARK SMILES IDX 13 1 12 2 11 3 10 4 9 5 15 6 14 7 2 8 1 9 3 10 4 11 5 12
REMARK SMILES IDX 6 13 7 14 8 15
REMARK H PARENT
REMARK Flexibility Score: inf
ROOT
ATOM      1  C   UNL     1      10.486   7.819  27.643  1.00  0.00     0.039 C 
ATOM      2  C   UNL     1      11.254   8.031  26.367  1.00  0.00    -0.077 C 
ATOM      3  C   UNL     1      11.419   9.285  25.902  1.00  0.00    -0.027 C 
ATOM      4  C   UNL     1      12.193   9.606  24.643  1.00  0.00     0.039 C 
ATOM      5  C   UNL     1      12.322   8.400  23.646  1.00  0.00    -0.000 C 
ATOM      6  C   UNL     1      12.761   7.180  24.515  1.00  0.00     0.017 C 
ATOM      7  C   UNL     1      11.714   6.824  25.581  1.00  0.00     0.031 C 
ATOM      8  C   UNL     1      10.979   8.057  22.944  1.00  0.00    -0.070 C 
ATOM      9  C   UNL     1       9.804   8.670  23.203  1.00  0.00     0.008 C 
ATOM     10  C   UNL     1      10.997   6.971  21.891  1.00  0.00     0.031 C 
ATOM     11  C   UNL     1      12.014   7.315  20.809  1.00  0.00     0.005 C 
ATOM     12  C   UNL     1      13.398   7.591  21.410  1.00  0.00     0.008 C 
ATOM     13  C   UNL     1      13.396   8.715  22.499  1.00  0.00    -0.026 C 
ATOM     14  C   UNL     1      14.853   8.807  23.031  1.00  0.00     0.012 C 
ATOM     15  C   UNL     1      13.081  10.071  21.808  1.00  0.00     0.012 C 
ENDROOT
TORSDOF 0
ENDMDL
