MODEL 1
REMARK VINA RESULT:    -5.003      0.000      0.000
REMARK INTER + INTRA:          -7.641
REMARK INTER:                  -6.758
REMARK INTRA:                  -0.883
REMARK UNBOUND:                -0.883
REMARK SMILES CC(=O)CCC=C(C)CCC=C(C)C
REMARK SMILES IDX 7 1 6 2 8 3 9 4 10 5 11 6 13 7 12 8 14 9 5 10 4 11 2 12 3 13
REMARK SMILES IDX 1 14
REMARK H PARENT
REMARK Flexibility Score: inf
ROOT
ATOM      1  C   UNL     1      32.765  31.932 -15.782  1.00  0.00    -0.077 C 
ATOM      2  C   UNL     1      32.719  31.294 -16.974  1.00  0.00    -0.028 C 
ATOM      3  C   UNL     1      31.515  32.220 -14.983  1.00  0.00     0.039 C 
ENDROOT
BRANCH   1   4
ATOM      4  C   UNL     1      34.106  32.381 -15.240  1.00  0.00     0.034 C 
BRANCH   4   5
ATOM      5  C   UNL     1      34.894  31.191 -14.680  1.00  0.00     0.032 C 
BRANCH   5   6
ATOM      6  C   UNL     1      35.069  31.305 -13.185  1.00  0.00    -0.028 C 
ATOM      7  C   UNL     1      33.221  29.680 -12.758  1.00  0.00     0.039 C 
ATOM      8  C   UNL     1      34.309  30.620 -12.302  1.00  0.00    -0.080 C 
ATOM      9  C   UNL     1      34.537  30.783 -10.822  1.00  0.00     0.039 C 
ENDBRANCH   5   6
ENDBRANCH   4   5
ENDBRANCH   1   4
BRANCH   2  10
ATOM     10  C   UNL     1      31.459  30.762 -17.611  1.00  0.00     0.035 C 
BRANCH  10  11
ATOM     11  C   UNL     1      30.926  31.740 -18.661  1.00  0.00     0.079 C 
BRANCH  11  12
ATOM     12  C   UNL     1      29.498  32.113 -18.366  1.00  0.00     0.130 C 
ATOM     13  O   UNL     1      29.264  33.052 -17.619  1.00  0.00    -0.300 OA
ATOM     14  C   UNL     1      28.350  31.352 -18.961  1.00  0.00     0.087 C 
ENDBRANCH  11  12
ENDBRANCH  10  11
ENDBRANCH   2  10
TORSDOF 6
ENDMDL
MODEL 2
REMARK VINA RESULT:    -4.959     11.452     13.319
REMARK INTER + INTRA:          -7.582
REMARK INTER:                  -6.776
REMARK INTRA:                  -0.806
REMARK UNBOUND:                -0.883
REMARK SMILES CC(=O)CCC=C(C)CCC=C(C)C
REMARK SMILES IDX 7 1 6 2 8 3 9 4 10 5 11 6 13 7 12 8 14 9 5 10 4 11 2 12 3 13
REMARK SMILES IDX 1 14
REMARK H PARENT
REMARK Flexibility Score: inf
ROOT
ATOM      1  C   UNL     1      21.542  28.383 -14.046  1.00  0.00    -0.077 C 
ATOM      2  C   UNL     1      20.210  28.355 -13.810  1.00  0.00    -0.028 C 
ATOM      3  C   UNL     1      22.119  28.034 -15.398  1.00  0.00     0.039 C 
ENDROOT
BRANCH   1   4
ATOM      4  C   UNL     1      22.480  28.762 -12.920  1.00  0.00     0.034 C 
BRANCH   4   5
ATOM      5  C   UNL     1      21.728  29.502 -11.808  1.00  0.00     0.032 C 
BRANCH   5   6
ATOM      6  C   UNL     1      21.972  28.862 -10.462  1.00  0.00    -0.028 C 
ATOM      7  C   UNL     1      19.539  28.401 -10.142  1.00  0.00     0.039 C 
ATOM      8  C   UNL     1      20.979  28.358  -9.697  1.00  0.00    -0.080 C 
ATOM      9  C   UNL     1      21.295  27.735  -8.362  1.00  0.00     0.039 C 
ENDBRANCH   5   6
ENDBRANCH   4   5
ENDBRANCH   1   4
BRANCH   2  10
ATOM     10  C   UNL     1      19.164  28.033 -14.847  1.00  0.00     0.035 C 
BRANCH  10  11
ATOM     11  C   UNL     1      17.760  28.091 -14.240  1.00  0.00     0.079 C 
BRANCH  11  12
ATOM     12  C   UNL     1      17.372  26.755 -13.664  1.00  0.00     0.130 C 
ATOM     13  O   UNL     1      17.456  26.573 -12.459  1.00  0.00    -0.300 OA
ATOM     14  C   UNL     1      16.892  25.635 -14.539  1.00  0.00     0.087 C 
ENDBRANCH  11  12
ENDBRANCH  10  11
ENDBRANCH   2  10
TORSDOF 6
ENDMDL
MODEL 3
REMARK VINA RESULT:    -4.939      6.891     10.311
REMARK INTER + INTRA:          -7.554
REMARK INTER:                  -6.442
REMARK INTRA:                  -1.112
REMARK UNBOUND:                -0.883
REMARK SMILES CC(=O)CCC=C(C)CCC=C(C)C
REMARK SMILES IDX 7 1 6 2 8 3 9 4 10 5 11 6 13 7 12 8 14 9 5 10 4 11 2 12 3 13
REMARK SMILES IDX 1 14
REMARK H PARENT
REMARK Flexibility Score: inf
ROOT
ATOM      1  C   UNL     1      32.615  36.685 -23.010  1.00  0.00    -0.077 C 
ATOM      2  C   UNL     1      32.499  36.445 -21.683  1.00  0.00    -0.028 C 
ATOM      3  C   UNL     1      32.480  35.582 -24.034  1.00  0.00     0.039 C 
ENDROOT
BRANCH   1   4
ATOM      4  C   UNL     1      32.899  38.096 -23.479  1.00  0.00     0.034 C 
BRANCH   4   5
ATOM      5  C   UNL     1      31.802  39.059 -23.010  1.00  0.00     0.032 C 
BRANCH   5   6
ATOM      6  C   UNL     1      30.573  38.955 -23.882  1.00  0.00    -0.028 C 
ATOM      7  C   UNL     1      29.168  38.203 -21.959  1.00  0.00     0.039 C 
ATOM      8  C   UNL     1      29.369  38.565 -23.409  1.00  0.00    -0.080 C 
ATOM      9  C   UNL     1      28.184  38.482 -24.336  1.00  0.00     0.039 C 
ENDBRANCH   5   6
ENDBRANCH   4   5
ENDBRANCH   1   4
BRANCH   2  10
ATOM     10  C   UNL     1      32.181  35.098 -21.083  1.00  0.00     0.035 C 
BRANCH  10  11
ATOM     11  C   UNL     1      33.435  34.465 -20.473  1.00  0.00     0.079 C 
BRANCH  11  12
ATOM     12  C   UNL     1      34.043  33.467 -21.422  1.00  0.00     0.130 C 
ATOM     13  O   UNL     1      34.920  33.828 -22.193  1.00  0.00    -0.300 OA
ATOM     14  C   UNL     1      33.590  32.037 -21.450  1.00  0.00     0.087 C 
ENDBRANCH  11  12
ENDBRANCH  10  11
ENDBRANCH   2  10
TORSDOF 6
ENDMDL
MODEL 4
REMARK VINA RESULT:    -4.862      2.706      6.398
REMARK INTER + INTRA:          -7.450
REMARK INTER:                  -6.639
REMARK INTRA:                  -0.811
REMARK UNBOUND:                -0.883
REMARK SMILES CC(=O)CCC=C(C)CCC=C(C)C
REMARK SMILES IDX 7 1 6 2 8 3 9 4 10 5 11 6 13 7 12 8 14 9 5 10 4 11 2 12 3 13
REMARK SMILES IDX 1 14
REMARK H PARENT
REMARK Flexibility Score: inf
ROOT
ATOM      1  C   UNL     1      32.219  30.417 -13.646  1.00  0.00    -0.077 C 
ATOM      2  C   UNL     1      33.341  31.135 -13.882  1.00  0.00    -0.028 C 
ATOM      3  C   UNL     1      32.230  29.189 -12.764  1.00  0.00     0.039 C 
ENDROOT
BRANCH   1   4
ATOM      4  C   UNL     1      30.920  30.849 -14.291  1.00  0.00     0.034 C 
BRANCH   4   5
ATOM      5  C   UNL     1      31.169  31.929 -15.351  1.00  0.00     0.032 C 
BRANCH   5   6
ATOM      6  C   UNL     1      30.807  31.436 -16.731  1.00  0.00    -0.028 C 
ATOM      7  C   UNL     1      33.172  31.621 -17.512  1.00  0.00     0.039 C 
ATOM      8  C   UNL     1      31.715  31.293 -17.722  1.00  0.00    -0.080 C 
ATOM      9  C   UNL     1      31.283  30.797 -19.077  1.00  0.00     0.039 C 
ENDBRANCH   5   6
ENDBRANCH   4   5
ENDBRANCH   1   4
BRANCH   2  10
ATOM     10  C   UNL     1      34.690  30.838 -13.275  1.00  0.00     0.035 C 
BRANCH  10  11
ATOM     11  C   UNL     1      35.817  31.292 -14.207  1.00  0.00     0.079 C 
BRANCH  11  12
ATOM     12  C   UNL     1      36.621  32.395 -13.574  1.00  0.00     0.130 C 
ATOM     13  O   UNL     1      36.878  33.399 -14.221  1.00  0.00    -0.300 OA
ATOM     14  C   UNL     1      37.125  32.287 -12.164  1.00  0.00     0.087 C 
ENDBRANCH  11  12
ENDBRANCH  10  11
ENDBRANCH   2  10
TORSDOF 6
ENDMDL
MODEL 5
REMARK VINA RESULT:    -4.839      3.260      5.664
REMARK INTER + INTRA:          -7.419
REMARK INTER:                  -6.248
REMARK INTRA:                  -1.171
REMARK UNBOUND:                -0.883
REMARK SMILES CC(=O)CCC=C(C)CCC=C(C)C
REMARK SMILES IDX 7 1 6 2 8 3 9 4 10 5 11 6 13 7 12 8 14 9 5 10 4 11 2 12 3 13
REMARK SMILES IDX 1 14
REMARK H PARENT
REMARK Flexibility Score: inf
ROOT
ATOM      1  C   UNL     1      34.330  30.454 -10.489  1.00  0.00    -0.077 C 
ATOM      2  C   UNL     1      33.605  29.623 -11.272  1.00  0.00    -0.028 C 
ATOM      3  C   UNL     1      35.281  31.473 -11.075  1.00  0.00     0.039 C 
ENDROOT
BRANCH   1   4
ATOM      4  C   UNL     1      34.195  30.353  -8.985  1.00  0.00     0.034 C 
BRANCH   4   5
ATOM      5  C   UNL     1      32.722  30.408  -8.564  1.00  0.00     0.032 C 
BRANCH   5   6
ATOM      6  C   UNL     1      32.274  31.830  -8.322  1.00  0.00    -0.028 C 
ATOM      7  C   UNL     1      30.655  31.735 -10.221  1.00  0.00     0.039 C 
ATOM      8  C   UNL     1      31.333  32.441  -9.074  1.00  0.00    -0.080 C 
ATOM      9  C   UNL     1      30.935  33.864  -8.777  1.00  0.00     0.039 C 
ENDBRANCH   5   6
ENDBRANCH   4   5
ENDBRANCH   1   4
BRANCH   2  10
ATOM     10  C   UNL     1      33.615  29.642 -12.780  1.00  0.00     0.035 C 
BRANCH  10  11
ATOM     11  C   UNL     1      32.549  30.599 -13.319  1.00  0.00     0.079 C 
BRANCH  11  12
ATOM     12  C   UNL     1      33.137  31.529 -14.346  1.00  0.00     0.130 C 
ATOM     13  O   UNL     1      32.422  32.363 -14.882  1.00  0.00    -0.300 OA
ATOM     14  C   UNL     1      34.584  31.451 -14.735  1.00  0.00     0.087 C 
ENDBRANCH  11  12
ENDBRANCH  10  11
ENDBRANCH   2  10
TORSDOF 6
ENDMDL
MODEL 6
REMARK VINA RESULT:    -4.824      3.150      5.511
REMARK INTER + INTRA:          -7.399
REMARK INTER:                  -6.586
REMARK INTRA:                  -0.813
REMARK UNBOUND:                -0.883
REMARK SMILES CC(=O)CCC=C(C)CCC=C(C)C
REMARK SMILES IDX 7 1 6 2 8 3 9 4 10 5 11 6 13 7 12 8 14 9 5 10 4 11 2 12 3 13
REMARK SMILES IDX 1 14
REMARK H PARENT
REMARK Flexibility Score: inf
ROOT
ATOM      1  C   UNL     1      32.379  30.938 -14.090  1.00  0.00    -0.077 C 
ATOM      2  C   UNL     1      33.696  31.098 -13.828  1.00  0.00    -0.028 C 
ATOM      3  C   UNL     1      31.786  31.293 -15.435  1.00  0.00     0.039 C 
ENDROOT
BRANCH   1   4
ATOM      4  C   UNL     1      31.472  30.401 -13.004  1.00  0.00     0.034 C 
BRANCH   4   5
ATOM      5  C   UNL     1      32.222  29.410 -12.107  1.00  0.00     0.032 C 
BRANCH   5   6
ATOM      6  C   UNL     1      32.023  29.735 -10.646  1.00  0.00    -0.028 C 
ATOM      7  C   UNL     1      34.483  29.944 -10.268  1.00  0.00     0.039 C 
ATOM      8  C   UNL     1      33.049  29.979  -9.801  1.00  0.00    -0.080 C 
ATOM      9  C   UNL     1      32.778  30.295  -8.353  1.00  0.00     0.039 C 
ENDBRANCH   5   6
ENDBRANCH   4   5
ENDBRANCH   1   4
BRANCH   2  10
ATOM     10  C   UNL     1      34.715  31.586 -14.827  1.00  0.00     0.035 C 
BRANCH  10  11
ATOM     11  C   UNL     1      36.137  31.311 -14.332  1.00  0.00     0.079 C 
BRANCH  11  12
ATOM     12  C   UNL     1      36.686  32.504 -13.596  1.00  0.00     0.130 C 
ATOM     13  O   UNL     1      36.785  33.575 -14.177  1.00  0.00    -0.300 OA
ATOM     14  C   UNL     1      37.124  32.408 -12.164  1.00  0.00     0.087 C 
ENDBRANCH  11  12
ENDBRANCH  10  11
ENDBRANCH   2  10
TORSDOF 6
ENDMDL
MODEL 7
REMARK VINA RESULT:    -4.792      4.385      6.708
REMARK INTER + INTRA:          -7.356
REMARK INTER:                  -6.496
REMARK INTRA:                  -0.860
REMARK UNBOUND:                -0.883
REMARK SMILES CC(=O)CCC=C(C)CCC=C(C)C
REMARK SMILES IDX 7 1 6 2 8 3 9 4 10 5 11 6 13 7 12 8 14 9 5 10 4 11 2 12 3 13
REMARK SMILES IDX 1 14
REMARK H PARENT
REMARK Flexibility Score: inf
ROOT
ATOM      1  C   UNL     1      33.212  30.411 -12.274  1.00  0.00    -0.077 C 
ATOM      2  C   UNL     1      34.157  30.361 -11.308  1.00  0.00    -0.028 C 
ATOM      3  C   UNL     1      31.770  30.050 -11.999  1.00  0.00     0.039 C 
ENDROOT
BRANCH   1   4
ATOM      4  C   UNL     1      33.612  30.830 -13.673  1.00  0.00     0.034 C 
BRANCH   4   5
ATOM      5  C   UNL     1      35.130  30.729 -13.860  1.00  0.00     0.032 C 
BRANCH   5   6
ATOM      6  C   UNL     1      35.721  32.058 -14.267  1.00  0.00    -0.028 C 
ATOM      7  C   UNL     1      37.000  32.241 -12.129  1.00  0.00     0.039 C 
ATOM      8  C   UNL     1      36.574  32.753 -13.482  1.00  0.00    -0.080 C 
ATOM      9  C   UNL     1      37.125  34.075 -13.951  1.00  0.00     0.039 C 
ENDBRANCH   5   6
ENDBRANCH   4   5
ENDBRANCH   1   4
BRANCH   2  10
ATOM     10  C   UNL     1      33.890  29.998  -9.869  1.00  0.00     0.035 C 
BRANCH  10  11
ATOM     11  C   UNL     1      34.102  31.208  -8.955  1.00  0.00     0.079 C 
BRANCH  11  12
ATOM     12  C   UNL     1      32.801  31.925  -8.709  1.00  0.00     0.130 C 
ATOM     13  O   UNL     1      31.746  31.333  -8.883  1.00  0.00    -0.300 OA
ATOM     14  C   UNL     1      32.768  33.358  -8.265  1.00  0.00     0.087 C 
ENDBRANCH  11  12
ENDBRANCH  10  11
ENDBRANCH   2  10
TORSDOF 6
ENDMDL
MODEL 8
REMARK VINA RESULT:    -4.766      1.780      3.256
REMARK INTER + INTRA:          -7.320
REMARK INTER:                  -6.452
REMARK INTRA:                  -0.869
REMARK UNBOUND:                -0.883
REMARK SMILES CC(=O)CCC=C(C)CCC=C(C)C
REMARK SMILES IDX 7 1 6 2 8 3 9 4 10 5 11 6 13 7 12 8 14 9 5 10 4 11 2 12 3 13
REMARK SMILES IDX 1 14
REMARK H PARENT
REMARK Flexibility Score: inf
ROOT
ATOM      1  C   UNL     1      34.532  31.297 -14.234  1.00  0.00    -0.077 C 
ATOM      2  C   UNL     1      33.386  31.616 -14.879  1.00  0.00    -0.028 C 
ATOM      3  C   UNL     1      35.840  31.125 -14.971  1.00  0.00     0.039 C 
ENDROOT
BRANCH   1   4
ATOM      4  C   UNL     1      34.500  31.096 -12.734  1.00  0.00     0.034 C 
BRANCH   4   5
ATOM      5  C   UNL     1      33.093  30.707 -12.265  1.00  0.00     0.032 C 
BRANCH   5   6
ATOM      6  C   UNL     1      32.956  29.209 -12.131  1.00  0.00    -0.028 C 
ATOM      7  C   UNL     1      30.955  29.172 -13.626  1.00  0.00     0.039 C 
ATOM      8  C   UNL     1      31.983  28.503 -12.749  1.00  0.00    -0.080 C 
ATOM      9  C   UNL     1      31.904  27.009 -12.569  1.00  0.00     0.039 C 
ENDBRANCH   5   6
ENDBRANCH   4   5
ENDBRANCH   1   4
BRANCH   2  10
ATOM     10  C   UNL     1      33.284  31.880 -16.360  1.00  0.00     0.035 C 
BRANCH  10  11
ATOM     11  C   UNL     1      32.096  31.127 -16.966  1.00  0.00     0.079 C 
BRANCH  11  12
ATOM     12  C   UNL     1      31.989  31.401 -18.443  1.00  0.00     0.130 C 
ATOM     13  O   UNL     1      31.065  30.915 -19.078  1.00  0.00    -0.300 OA
ATOM     14  C   UNL     1      32.999  32.250 -19.157  1.00  0.00     0.087 C 
ENDBRANCH  11  12
ENDBRANCH  10  11
ENDBRANCH   2  10
TORSDOF 6
ENDMDL
MODEL 9
REMARK VINA RESULT:    -4.756      9.966     13.104
REMARK INTER + INTRA:          -7.307
REMARK INTER:                  -6.368
REMARK INTRA:                  -0.940
REMARK UNBOUND:                -0.883
REMARK SMILES CC(=O)CCC=C(C)CCC=C(C)C
REMARK SMILES IDX 7 1 6 2 8 3 9 4 10 5 11 6 13 7 12 8 14 9 5 10 4 11 2 12 3 13
REMARK SMILES IDX 1 14
REMARK H PARENT
REMARK Flexibility Score: inf
ROOT
ATOM      1  C   UNL     1      18.906  27.797 -13.878  1.00  0.00    -0.077 C 
ATOM      2  C   UNL     1      19.936  28.533 -13.401  1.00  0.00    -0.028 C 
ATOM      3  C   UNL     1      17.988  27.022 -12.961  1.00  0.00     0.039 C 
ENDROOT
BRANCH   1   4
ATOM      4  C   UNL     1      18.674  27.739 -15.373  1.00  0.00     0.034 C 
BRANCH   4   5
ATOM      5  C   UNL     1      19.806  26.976 -16.072  1.00  0.00     0.032 C 
BRANCH   5   6
ATOM      6  C   UNL     1      20.580  27.877 -17.004  1.00  0.00    -0.028 C 
ATOM      7  C   UNL     1      22.673  27.605 -15.668  1.00  0.00     0.039 C 
ATOM      8  C   UNL     1      21.887  28.169 -16.826  1.00  0.00    -0.080 C 
ATOM      9  C   UNL     1      22.597  29.079 -17.795  1.00  0.00     0.039 C 
ENDBRANCH   5   6
ENDBRANCH   4   5
ENDBRANCH   1   4
BRANCH   2  10
ATOM     10  C   UNL     1      20.256  28.708 -11.938  1.00  0.00     0.035 C 
BRANCH  10  11
ATOM     11  C   UNL     1      21.145  29.936 -11.718  1.00  0.00     0.079 C 
BRANCH  11  12
ATOM     12  C   UNL     1      22.540  29.681 -12.223  1.00  0.00     0.130 C 
ATOM     13  O   UNL     1      23.147  28.692 -11.838  1.00  0.00    -0.300 OA
ATOM     14  C   UNL     1      23.209  30.620 -13.183  1.00  0.00     0.087 C 
ENDBRANCH  11  12
ENDBRANCH  10  11
ENDBRANCH   2  10
TORSDOF 6
ENDMDL
