MODEL 1
REMARK VINA RESULT:    -7.000      0.000      0.000
REMARK INTER + INTRA:         -13.184
REMARK INTER:                 -11.706
REMARK INTRA:                  -1.477
REMARK UNBOUND:                -1.477
REMARK SMILES COc1cc(-c2oc3cc(O)cc(O)c3c(=O)c2O[C@@H]2O[C@@H](CO[C@@H]3O[C@H](C)[C@@H](O)[C@@H](O)[C@@H]3O)[C@H](O)[C@@H](O)[C@H]2O)ccc1O
REMARK SMILES IDX 22 1 35 2 37 3 39 4 20 5 21 6 23 7 24 8 25 9 28 10 27 11
REMARK SMILES IDX 29 12 26 13 31 14 33 15 30 16 32 18 34 20 36 22 38 24 19 26
REMARK SMILES IDX 18 27 6 28 16 29 7 30 15 31 17 32 8 33 13 34 9 35 12 36
REMARK SMILES IDX 10 37 5 38 4 39 41 40 3 41 42 42 43 43 2 44 1 45 44 46 14 48
REMARK SMILES IDX 11 50 40 52
REMARK H PARENT 30 17 32 19 34 21 36 23 38 25 44 47 14 49 11 51 40 53
REMARK Flexibility Score: inf
ROOT
ATOM      1  C   UNL     1      10.620   1.079  -0.188  1.00  0.00     0.180 C 
ATOM      2  C   UNL     1       9.316   0.278  -0.087  1.00  0.00     0.177 C 
ATOM      3  C   UNL     1       8.960   0.057   1.389  1.00  0.00     0.180 C 
ATOM      4  C   UNL     1      10.199   0.046   2.340  1.00  0.00     0.214 C 
ATOM      5  C   UNL     1      11.626   0.067   1.678  1.00  0.00     0.339 C 
ATOM      6  O   UNL     1      11.665   0.253   0.265  1.00  0.00    -0.332 OA
ENDROOT
BRANCH   1   7
ATOM      7  C   UNL     1      10.906   1.493  -1.637  1.00  0.00     0.198 C 
BRANCH   7   8
ATOM      8  O   UNL     1      11.008   2.904  -1.713  1.00  0.00    -0.347 OA
BRANCH   8   9
ATOM      9  C   UNL     1      10.069   3.533  -0.850  1.00  0.00     0.281 C 
ATOM     10  C   UNL     1       7.922   6.472  -1.349  1.00  0.00     0.041 C 
ATOM     11  C   UNL     1       8.351   5.129  -0.754  1.00  0.00     0.150 C 
ATOM     12  C   UNL     1       8.593   5.257   0.789  1.00  0.00     0.174 C 
ATOM     13  O   UNL     1       9.508   4.694  -1.454  1.00  0.00    -0.344 OA
ATOM     14  C   UNL     1      10.116   5.213   1.080  1.00  0.00     0.179 C 
ATOM     15  C   UNL     1      10.749   3.919   0.491  1.00  0.00     0.202 C 
BRANCH  12  16
ATOM     16  O   UNL     1       7.875   4.238   1.453  1.00  0.00    -0.388 OA
ATOM     17  H   UNL     1       8.427   3.422   1.497  1.00  0.00     0.211 HD
ENDBRANCH  12  16
BRANCH  14  18
ATOM     18  O   UNL     1      10.366   5.403   2.455  1.00  0.00    -0.387 OA
ATOM     19  H   UNL     1       9.706   4.904   3.010  1.00  0.00     0.211 HD
ENDBRANCH  14  18
BRANCH  15  20
ATOM     20  O   UNL     1      12.137   4.100   0.332  1.00  0.00    -0.385 OA
ATOM     21  H   UNL     1      12.565   3.852   1.191  1.00  0.00     0.211 HD
ENDBRANCH  15  20
ENDBRANCH   8   9
ENDBRANCH   7   8
ENDBRANCH   1   7
BRANCH   2  22
ATOM     22  O   UNL     1       8.261   0.948  -0.733  1.00  0.00    -0.387 OA
ATOM     23  H   UNL     1       7.808   0.279  -1.315  1.00  0.00     0.211 HD
ENDBRANCH   2  22
BRANCH   3  24
ATOM     24  O   UNL     1       8.202  -1.124   1.514  1.00  0.00    -0.387 OA
ATOM     25  H   UNL     1       8.831  -1.825   1.829  1.00  0.00     0.211 HD
ENDBRANCH   3  24
BRANCH   5  26
ATOM     26  O   UNL     1      12.379   1.116   2.298  1.00  0.00    -0.454 OA
BRANCH  26  27
ATOM     27  C   UNL     1      13.481   1.044   3.175  1.00  0.00     0.214 A 
ATOM     28  C   UNL     1      14.671   1.712   2.806  1.00  0.00     0.180 A 
ATOM     29  C   UNL     1      13.447   0.379   4.426  1.00  0.00     0.239 A 
ATOM     30  O   UNL     1      15.686   1.789   3.662  1.00  0.00    -0.452 OA
ATOM     31  C   UNL     1      14.571   0.437   5.273  1.00  0.00     0.111 A 
ATOM     32  O   UNL     1      12.428  -0.247   4.790  1.00  0.00    -0.285 OA
ATOM     33  C   UNL     1      15.678   1.216   4.859  1.00  0.00     0.146 A 
ATOM     34  C   UNL     1      14.645  -0.265   6.499  1.00  0.00     0.134 A 
ATOM     35  C   UNL     1      16.794   1.357   5.695  1.00  0.00     0.094 A 
ATOM     36  C   UNL     1      15.782  -0.125   7.311  1.00  0.00     0.093 A 
ATOM     37  C   UNL     1      16.845   0.695   6.928  1.00  0.00     0.123 A 
BRANCH  28  38
ATOM     38  C   UNL     1      14.881   2.295   1.450  1.00  0.00     0.025 A 
ATOM     39  C   UNL     1      14.610   1.499   0.325  1.00  0.00     0.062 A 
ATOM     40  C   UNL     1      15.319   3.614   1.243  1.00  0.00     0.016 A 
ATOM     41  C   UNL     1      14.715   2.010  -0.977  1.00  0.00     0.161 A 
ATOM     42  C   UNL     1      15.422   4.138  -0.048  1.00  0.00     0.051 A 
ATOM     43  C   UNL     1      15.129   3.354  -1.168  1.00  0.00     0.157 A 
BRANCH  41  44
ATOM     44  O   UNL     1      14.399   1.134  -2.028  1.00  0.00    -0.493 OA
ATOM     45  C   UNL     1      14.876  -0.204  -2.183  1.00  0.00     0.278 C 
ENDBRANCH  41  44
BRANCH  43  46
ATOM     46  O   UNL     1      15.288   3.892  -2.437  1.00  0.00    -0.504 OA
ATOM     47  H   UNL     1      14.495   4.096  -3.038  1.00  0.00     0.293 HD
ENDBRANCH  43  46
ENDBRANCH  28  38
BRANCH  34  48
ATOM     48  O   UNL     1      13.625  -1.122   6.908  1.00  0.00    -0.507 OA
ATOM     49  H   UNL     1      13.813  -1.997   7.381  1.00  0.00     0.293 HD
ENDBRANCH  34  48
BRANCH  37  50
ATOM     50  O   UNL     1      17.935   0.841   7.780  1.00  0.00    -0.508 OA
ATOM     51  H   UNL     1      17.914   0.503   8.737  1.00  0.00     0.293 HD
ENDBRANCH  37  50
ENDBRANCH  26  27
ENDBRANCH   5  26
BRANCH   4  52
ATOM     52  O   UNL     1      10.117  -0.979   3.295  1.00  0.00    -0.384 OA
ATOM     53  H   UNL     1       9.224  -1.406   3.212  1.00  0.00     0.211 HD
ENDBRANCH   4  52
TORSDOF 16
ENDMDL
MODEL 2
REMARK VINA RESULT:    -6.098      1.565      6.819
REMARK INTER + INTRA:         -11.675
REMARK INTER:                 -11.033
REMARK INTRA:                  -0.642
REMARK UNBOUND:                -1.477
REMARK SMILES COc1cc(-c2oc3cc(O)cc(O)c3c(=O)c2O[C@@H]2O[C@@H](CO[C@@H]3O[C@H](C)[C@@H](O)[C@@H](O)[C@@H]3O)[C@H](O)[C@@H](O)[C@H]2O)ccc1O
REMARK SMILES IDX 22 1 35 2 37 3 39 4 20 5 21 6 23 7 24 8 25 9 28 10 27 11
REMARK SMILES IDX 29 12 26 13 31 14 33 15 30 16 32 18 34 20 36 22 38 24 19 26
REMARK SMILES IDX 18 27 6 28 16 29 7 30 15 31 17 32 8 33 13 34 9 35 12 36
REMARK SMILES IDX 10 37 5 38 4 39 41 40 3 41 42 42 43 43 2 44 1 45 44 46 14 48
REMARK SMILES IDX 11 50 40 52
REMARK H PARENT 30 17 32 19 34 21 36 23 38 25 44 47 14 49 11 51 40 53
REMARK Flexibility Score: inf
ROOT
ATOM      1  C   UNL     1      11.364   0.534   2.311  1.00  0.00     0.180 C 
ATOM      2  C   UNL     1      10.316  -0.216   3.143  1.00  0.00     0.177 C 
ATOM      3  C   UNL     1       9.359  -0.969   2.211  1.00  0.00     0.180 C 
ATOM      4  C   UNL     1       9.211  -0.314   0.800  1.00  0.00     0.214 C 
ATOM      5  C   UNL     1       9.882   1.092   0.575  1.00  0.00     0.339 C 
ATOM      6  O   UNL     1      10.703   1.577   1.634  1.00  0.00    -0.332 OA
ENDROOT
BRANCH   1   7
ATOM      7  C   UNL     1      12.455   1.135   3.204  1.00  0.00     0.198 C 
BRANCH   7   8
ATOM      8  O   UNL     1      13.659   0.407   3.033  1.00  0.00    -0.347 OA
BRANCH   8   9
ATOM      9  C   UNL     1      14.253   0.096   4.287  1.00  0.00     0.281 C 
ATOM     10  C   UNL     1      12.837   0.029   7.677  1.00  0.00     0.041 C 
ATOM     11  C   UNL     1      13.795  -0.352   6.545  1.00  0.00     0.150 C 
ATOM     12  C   UNL     1      15.264   0.063   6.897  1.00  0.00     0.174 C 
ATOM     13  O   UNL     1      13.324   0.263   5.354  1.00  0.00    -0.344 OA
ATOM     14  C   UNL     1      15.673   1.293   6.046  1.00  0.00     0.179 C 
ATOM     15  C   UNL     1      15.495   0.995   4.529  1.00  0.00     0.202 C 
BRANCH  12  16
ATOM     16  O   UNL     1      16.114  -1.049   6.703  1.00  0.00    -0.388 OA
ATOM     17  H   UNL     1      16.078  -1.633   7.496  1.00  0.00     0.211 HD
ENDBRANCH  12  16
BRANCH  14  18
ATOM     18  O   UNL     1      16.966   1.734   6.399  1.00  0.00    -0.387 OA
ATOM     19  H   UNL     1      16.922   2.560   6.954  1.00  0.00     0.211 HD
ENDBRANCH  14  18
BRANCH  15  20
ATOM     20  O   UNL     1      15.401   2.207   3.816  1.00  0.00    -0.385 OA
ATOM     21  H   UNL     1      15.423   1.979   2.851  1.00  0.00     0.211 HD
ENDBRANCH  15  20
ENDBRANCH   8   9
ENDBRANCH   7   8
ENDBRANCH   1   7
BRANCH   2  22
ATOM     22  O   UNL     1      10.930  -1.125   4.025  1.00  0.00    -0.387 OA
ATOM     23  H   UNL     1      10.959  -0.685   4.918  1.00  0.00     0.211 HD
ENDBRANCH   2  22
BRANCH   3  24
ATOM     24  O   UNL     1       8.109  -1.116   2.845  1.00  0.00    -0.387 OA
ATOM     25  H   UNL     1       7.707  -0.210   2.879  1.00  0.00     0.211 HD
ENDBRANCH   3  24
BRANCH   5  26
ATOM     26  O   UNL     1      10.672   1.012  -0.616  1.00  0.00    -0.454 OA
BRANCH  26  27
ATOM     27  C   UNL     1      12.019   1.368  -0.836  1.00  0.00     0.214 A 
ATOM     28  C   UNL     1      12.435   2.666  -0.463  1.00  0.00     0.180 A 
ATOM     29  C   UNL     1      12.989   0.481  -1.367  1.00  0.00     0.239 A 
ATOM     30  O   UNL     1      13.722   2.997  -0.522  1.00  0.00    -0.452 OA
ATOM     31  C   UNL     1      14.330   0.899  -1.468  1.00  0.00     0.111 A 
ATOM     32  O   UNL     1      12.670  -0.671  -1.735  1.00  0.00    -0.285 OA
ATOM     33  C   UNL     1      14.667   2.182  -0.973  1.00  0.00     0.146 A 
ATOM     34  C   UNL     1      15.340   0.104  -2.059  1.00  0.00     0.134 A 
ATOM     35  C   UNL     1      15.999   2.619  -0.992  1.00  0.00     0.094 A 
ATOM     36  C   UNL     1      16.663   0.571  -2.086  1.00  0.00     0.093 A 
ATOM     37  C   UNL     1      17.002   1.810  -1.539  1.00  0.00     0.123 A 
BRANCH  28  38
ATOM     38  C   UNL     1      11.478   3.734  -0.058  1.00  0.00     0.025 A 
ATOM     39  C   UNL     1      10.490   4.136  -0.972  1.00  0.00     0.062 A 
ATOM     40  C   UNL     1      11.502   4.345   1.208  1.00  0.00     0.016 A 
ATOM     41  C   UNL     1       9.513   5.082  -0.627  1.00  0.00     0.161 A 
ATOM     42  C   UNL     1      10.531   5.282   1.567  1.00  0.00     0.051 A 
ATOM     43  C   UNL     1       9.533   5.666   0.666  1.00  0.00     0.157 A 
BRANCH  41  44
ATOM     44  O   UNL     1       8.560   5.395  -1.611  1.00  0.00    -0.493 OA
ATOM     45  C   UNL     1       8.626   6.485  -2.532  1.00  0.00     0.278 C 
ENDBRANCH  41  44
BRANCH  43  46
ATOM     46  O   UNL     1       8.613   6.636   1.040  1.00  0.00    -0.504 OA
ATOM     47  H   UNL     1       8.903   7.556   1.359  1.00  0.00     0.293 HD
ENDBRANCH  43  46
ENDBRANCH  28  38
BRANCH  34  48
ATOM     48  O   UNL     1      15.045  -1.124  -2.648  1.00  0.00    -0.507 OA
ATOM     49  H   UNL     1      14.377  -1.213  -3.403  1.00  0.00     0.293 HD
ENDBRANCH  34  48
BRANCH  37  50
ATOM     50  O   UNL     1      18.332   2.219  -1.547  1.00  0.00    -0.508 OA
ATOM     51  H   UNL     1      18.635   3.044  -2.056  1.00  0.00     0.293 HD
ENDBRANCH  37  50
ENDBRANCH  26  27
ENDBRANCH   5  26
BRANCH   4  52
ATOM     52  O   UNL     1       7.875  -0.293   0.370  1.00  0.00    -0.384 OA
ATOM     53  H   UNL     1       7.613  -1.223   0.139  1.00  0.00     0.211 HD
ENDBRANCH   4  52
TORSDOF 16
ENDMDL
MODEL 3
REMARK VINA RESULT:    -4.844      1.448      2.046
REMARK INTER + INTRA:          -9.578
REMARK INTER:                  -8.414
REMARK INTRA:                  -1.165
REMARK UNBOUND:                -1.477
REMARK SMILES COc1cc(-c2oc3cc(O)cc(O)c3c(=O)c2O[C@@H]2O[C@@H](CO[C@@H]3O[C@H](C)[C@@H](O)[C@@H](O)[C@@H]3O)[C@H](O)[C@@H](O)[C@H]2O)ccc1O
REMARK SMILES IDX 22 1 35 2 37 3 39 4 20 5 21 6 23 7 24 8 25 9 28 10 27 11
REMARK SMILES IDX 29 12 26 13 31 14 33 15 30 16 32 18 34 20 36 22 38 24 19 26
REMARK SMILES IDX 18 27 6 28 16 29 7 30 15 31 17 32 8 33 13 34 9 35 12 36
REMARK SMILES IDX 10 37 5 38 4 39 41 40 3 41 42 42 43 43 2 44 1 45 44 46 14 48
REMARK SMILES IDX 11 50 40 52
REMARK H PARENT 30 17 32 19 34 21 36 23 38 25 44 47 14 49 11 51 40 53
REMARK Flexibility Score: inf
ROOT
ATOM      1  C   UNL     1      10.079   0.670  -0.343  1.00  0.00     0.180 C 
ATOM      2  C   UNL     1      10.518  -0.132  -1.575  1.00  0.00     0.177 C 
ATOM      3  C   UNL     1      11.794  -0.918  -1.251  1.00  0.00     0.180 C 
ATOM      4  C   UNL     1      12.673  -0.260  -0.140  1.00  0.00     0.214 C 
ATOM      5  C   UNL     1      12.263   1.176   0.359  1.00  0.00     0.339 C 
ATOM      6  O   UNL     1      11.029   1.688  -0.136  1.00  0.00    -0.332 OA
ENDROOT
BRANCH   1   7
ATOM      7  C   UNL     1       8.703   1.311  -0.559  1.00  0.00     0.198 C 
BRANCH   7   8
ATOM      8  O   UNL     1       8.248   1.873   0.660  1.00  0.00    -0.347 OA
BRANCH   8   9
ATOM      9  C   UNL     1       8.308   3.293   0.622  1.00  0.00     0.281 C 
ATOM     10  C   UNL     1       9.338   5.596  -2.050  1.00  0.00     0.041 C 
ATOM     11  C   UNL     1       8.590   5.145  -0.793  1.00  0.00     0.150 C 
ATOM     12  C   UNL     1       9.029   5.993   0.449  1.00  0.00     0.174 C 
ATOM     13  O   UNL     1       8.833   3.756  -0.619  1.00  0.00    -0.344 OA
ATOM     14  C   UNL     1       9.923   5.130   1.376  1.00  0.00     0.179 C 
ATOM     15  C   UNL     1       9.185   3.823   1.789  1.00  0.00     0.202 C 
BRANCH  12  16
ATOM     16  O   UNL     1       7.875   6.487   1.099  1.00  0.00    -0.388 OA
ATOM     17  H   UNL     1       7.473   5.771   1.644  1.00  0.00     0.211 HD
ENDBRANCH  12  16
BRANCH  14  18
ATOM     18  O   UNL     1      10.395   5.894   2.465  1.00  0.00    -0.387 OA
ATOM     19  H   UNL     1      11.207   5.480   2.865  1.00  0.00     0.211 HD
ENDBRANCH  14  18
BRANCH  15  20
ATOM     20  O   UNL     1      10.125   2.860   2.206  1.00  0.00    -0.385 OA
ATOM     21  H   UNL     1      10.893   3.351   2.595  1.00  0.00     0.211 HD
ENDBRANCH  15  20
ENDBRANCH   8   9
ENDBRANCH   7   8
ENDBRANCH   1   7
BRANCH   2  22
ATOM     22  O   UNL     1       9.506  -1.020  -1.984  1.00  0.00    -0.387 OA
ATOM     23  H   UNL     1       9.213  -1.517  -1.172  1.00  0.00     0.211 HD
ENDBRANCH   2  22
BRANCH   3  24
ATOM     24  O   UNL     1      12.528  -1.125  -2.436  1.00  0.00    -0.387 OA
ATOM     25  H   UNL     1      11.898  -0.959  -3.184  1.00  0.00     0.211 HD
ENDBRANCH   3  24
BRANCH   5  26
ATOM     26  O   UNL     1      12.203   1.139   1.789  1.00  0.00    -0.454 OA
BRANCH  26  27
ATOM     27  C   UNL     1      13.240   1.193   2.742  1.00  0.00     0.214 A 
ATOM     28  C   UNL     1      14.331   2.057   2.492  1.00  0.00     0.180 A 
ATOM     29  C   UNL     1      13.229   0.464   3.958  1.00  0.00     0.239 A 
ATOM     30  O   UNL     1      15.261   2.245   3.425  1.00  0.00    -0.452 OA
ATOM     31  C   UNL     1      14.270   0.650   4.888  1.00  0.00     0.111 A 
ATOM     32  O   UNL     1      12.301  -0.332   4.218  1.00  0.00    -0.285 OA
ATOM     33  C   UNL     1      15.264   1.614   4.592  1.00  0.00     0.146 A 
ATOM     34  C   UNL     1      14.372  -0.097   6.085  1.00  0.00     0.134 A 
ATOM     35  C   UNL     1      16.285   1.881   5.515  1.00  0.00     0.094 A 
ATOM     36  C   UNL     1      15.416   0.174   6.984  1.00  0.00     0.093 A 
ATOM     37  C   UNL     1      16.358   1.170   6.718  1.00  0.00     0.123 A 
BRANCH  28  38
ATOM     38  C   UNL     1      14.536   2.738   1.183  1.00  0.00     0.025 A 
ATOM     39  C   UNL     1      15.469   2.199   0.281  1.00  0.00     0.062 A 
ATOM     40  C   UNL     1      13.822   3.886   0.796  1.00  0.00     0.016 A 
ATOM     41  C   UNL     1      15.655   2.748  -0.996  1.00  0.00     0.161 A 
ATOM     42  C   UNL     1      13.992   4.438  -0.476  1.00  0.00     0.051 A 
ATOM     43  C   UNL     1      14.904   3.888  -1.383  1.00  0.00     0.157 A 
BRANCH  41  44
ATOM     44  O   UNL     1      16.599   2.117  -1.824  1.00  0.00    -0.493 OA
ATOM     45  C   UNL     1      16.569   0.753  -2.249  1.00  0.00     0.278 C 
ENDBRANCH  41  44
BRANCH  43  46
ATOM     46  O   UNL     1      15.083   4.491  -2.620  1.00  0.00    -0.504 OA
ATOM     47  H   UNL     1      15.721   5.271  -2.749  1.00  0.00     0.293 HD
ENDBRANCH  43  46
ENDBRANCH  28  38
BRANCH  34  48
ATOM     48  O   UNL     1      13.477  -1.123   6.379  1.00  0.00    -0.507 OA
ATOM     49  H   UNL     1      12.906  -1.117   7.215  1.00  0.00     0.293 HD
ENDBRANCH  34  48
BRANCH  37  50
ATOM     50  O   UNL     1      17.352   1.438   7.654  1.00  0.00    -0.508 OA
ATOM     51  H   UNL     1      17.661   0.736   8.321  1.00  0.00     0.293 HD
ENDBRANCH  37  50
ENDBRANCH  26  27
ENDBRANCH   5  26
BRANCH   4  52
ATOM     52  O   UNL     1      14.039  -0.294  -0.464  1.00  0.00    -0.384 OA
ATOM     53  H   UNL     1      14.120  -0.320  -1.453  1.00  0.00     0.211 HD
ENDBRANCH   4  52
TORSDOF 16
ENDMDL
MODEL 4
REMARK VINA RESULT:    -4.675      1.771      2.628
REMARK INTER + INTRA:          -9.296
REMARK INTER:                  -9.450
REMARK INTRA:                   0.154
REMARK UNBOUND:                -1.477
REMARK SMILES COc1cc(-c2oc3cc(O)cc(O)c3c(=O)c2O[C@@H]2O[C@@H](CO[C@@H]3O[C@H](C)[C@@H](O)[C@@H](O)[C@@H]3O)[C@H](O)[C@@H](O)[C@H]2O)ccc1O
REMARK SMILES IDX 22 1 35 2 37 3 39 4 20 5 21 6 23 7 24 8 25 9 28 10 27 11
REMARK SMILES IDX 29 12 26 13 31 14 33 15 30 16 32 18 34 20 36 22 38 24 19 26
REMARK SMILES IDX 18 27 6 28 16 29 7 30 15 31 17 32 8 33 13 34 9 35 12 36
REMARK SMILES IDX 10 37 5 38 4 39 41 40 3 41 42 42 43 43 2 44 1 45 44 46 14 48
REMARK SMILES IDX 11 50 40 52
REMARK H PARENT 30 17 32 19 34 21 36 23 38 25 44 47 14 49 11 51 40 53
REMARK Flexibility Score: inf
ROOT
ATOM      1  C   UNL     1       9.919   0.723   0.423  1.00  0.00     0.180 C 
ATOM      2  C   UNL     1       8.745   1.262   1.250  1.00  0.00     0.177 C 
ATOM      3  C   UNL     1       9.073   1.150   2.745  1.00  0.00     0.180 C 
ATOM      4  C   UNL     1      10.070  -0.003   3.085  1.00  0.00     0.214 C 
ATOM      5  C   UNL     1      10.456  -0.999   1.929  1.00  0.00     0.339 C 
ATOM      6  O   UNL     1       9.981  -0.669   0.626  1.00  0.00    -0.332 OA
ENDROOT
BRANCH   1   7
ATOM      7  C   UNL     1       9.717   0.999  -1.072  1.00  0.00     0.198 C 
BRANCH   7   8
ATOM      8  O   UNL     1      10.686   1.934  -1.514  1.00  0.00    -0.347 OA
BRANCH   8   9
ATOM      9  C   UNL     1      11.304   2.590  -0.414  1.00  0.00     0.281 C 
ATOM     10  C   UNL     1      10.343   5.609   1.445  1.00  0.00     0.041 C 
ATOM     11  C   UNL     1      11.003   4.247   1.221  1.00  0.00     0.150 C 
ATOM     12  C   UNL     1      12.560   4.355   1.359  1.00  0.00     0.174 C 
ATOM     13  O   UNL     1      10.600   3.775  -0.058  1.00  0.00    -0.344 OA
ATOM     14  C   UNL     1      13.214   4.253  -0.044  1.00  0.00     0.179 C 
ATOM     15  C   UNL     1      12.777   2.941  -0.759  1.00  0.00     0.202 C 
BRANCH  12  16
ATOM     16  O   UNL     1      13.013   3.357   2.251  1.00  0.00    -0.388 OA
ATOM     17  H   UNL     1      13.462   2.642   1.744  1.00  0.00     0.211 HD
ENDBRANCH  12  16
BRANCH  14  18
ATOM     18  O   UNL     1      14.611   4.423   0.044  1.00  0.00    -0.387 OA
ATOM     19  H   UNL     1      15.068   4.036  -0.753  1.00  0.00     0.211 HD
ENDBRANCH  14  18
BRANCH  15  20
ATOM     20  O   UNL     1      12.964   3.073  -2.149  1.00  0.00    -0.385 OA
ATOM     21  H   UNL     1      12.071   3.237  -2.549  1.00  0.00     0.211 HD
ENDBRANCH  15  20
ENDBRANCH   8   9
ENDBRANCH   7   8
ENDBRANCH   1   7
BRANCH   2  22
ATOM     22  O   UNL     1       8.472   2.603   0.924  1.00  0.00    -0.387 OA
ATOM     23  H   UNL     1       7.618   2.842   1.378  1.00  0.00     0.211 HD
ENDBRANCH   2  22
BRANCH   3  24
ATOM     24  O   UNL     1       7.875   1.030   3.477  1.00  0.00    -0.387 OA
ATOM     25  H   UNL     1       7.900   0.133   3.903  1.00  0.00     0.211 HD
ENDBRANCH   3  24
BRANCH   5  26
ATOM     26  O   UNL     1      11.885  -1.086   1.886  1.00  0.00    -0.454 OA
BRANCH  26  27
ATOM     27  C   UNL     1      12.856  -0.440   2.678  1.00  0.00     0.214 A 
ATOM     28  C   UNL     1      13.884   0.275   2.021  1.00  0.00     0.180 A 
ATOM     29  C   UNL     1      12.834  -0.428   4.096  1.00  0.00     0.239 A 
ATOM     30  O   UNL     1      14.738   1.013   2.725  1.00  0.00    -0.452 OA
ATOM     31  C   UNL     1      13.798   0.318   4.799  1.00  0.00     0.111 A 
ATOM     32  O   UNL     1      11.961  -1.064   4.726  1.00  0.00    -0.285 OA
ATOM     33  C   UNL     1      14.724   1.084   4.050  1.00  0.00     0.146 A 
ATOM     34  C   UNL     1      13.892   0.316   6.211  1.00  0.00     0.134 A 
ATOM     35  C   UNL     1      15.663   1.894   4.704  1.00  0.00     0.094 A 
ATOM     36  C   UNL     1      14.853   1.119   6.843  1.00  0.00     0.093 A 
ATOM     37  C   UNL     1      15.724   1.922   6.102  1.00  0.00     0.123 A 
BRANCH  28  38
ATOM     38  C   UNL     1      14.108   0.194   0.550  1.00  0.00     0.025 A 
ATOM     39  C   UNL     1      15.148   0.950  -0.015  1.00  0.00     0.062 A 
ATOM     40  C   UNL     1      13.341  -0.622  -0.298  1.00  0.00     0.016 A 
ATOM     41  C   UNL     1      15.460   0.863  -1.380  1.00  0.00     0.161 A 
ATOM     42  C   UNL     1      13.645  -0.725  -1.658  1.00  0.00     0.051 A 
ATOM     43  C   UNL     1      14.695   0.010  -2.217  1.00  0.00     0.157 A 
BRANCH  41  44
ATOM     44  O   UNL     1      16.533   1.647  -1.836  1.00  0.00    -0.493 OA
ATOM     45  C   UNL     1      17.904   1.249  -1.890  1.00  0.00     0.278 C 
ENDBRANCH  41  44
BRANCH  43  46
ATOM     46  O   UNL     1      14.938  -0.079  -3.581  1.00  0.00    -0.504 OA
ATOM     47  H   UNL     1      14.356  -0.642  -4.194  1.00  0.00     0.293 HD
ENDBRANCH  43  46
ENDBRANCH  28  38
BRANCH  34  48
ATOM     48  O   UNL     1      13.069  -0.494   6.991  1.00  0.00    -0.507 OA
ATOM     49  H   UNL     1      12.096  -0.652   6.763  1.00  0.00     0.293 HD
ENDBRANCH  34  48
BRANCH  37  50
ATOM     50  O   UNL     1      16.634   2.737   6.768  1.00  0.00    -0.508 OA
ATOM     51  H   UNL     1      17.632   2.546   6.753  1.00  0.00     0.293 HD
ENDBRANCH  37  50
ENDBRANCH  26  27
ENDBRANCH   5  26
BRANCH   4  52
ATOM     52  O   UNL     1       9.680  -0.712   4.232  1.00  0.00    -0.384 OA
ATOM     53  H   UNL     1      10.350  -1.427   4.394  1.00  0.00     0.211 HD
ENDBRANCH   4  52
TORSDOF 16
ENDMDL
MODEL 5
REMARK VINA RESULT:    -4.459      2.232      7.568
REMARK INTER + INTRA:          -8.935
REMARK INTER:                  -7.883
REMARK INTRA:                  -1.052
REMARK UNBOUND:                -1.477
REMARK SMILES COc1cc(-c2oc3cc(O)cc(O)c3c(=O)c2O[C@@H]2O[C@@H](CO[C@@H]3O[C@H](C)[C@@H](O)[C@@H](O)[C@@H]3O)[C@H](O)[C@@H](O)[C@H]2O)ccc1O
REMARK SMILES IDX 22 1 35 2 37 3 39 4 20 5 21 6 23 7 24 8 25 9 28 10 27 11
REMARK SMILES IDX 29 12 26 13 31 14 33 15 30 16 32 18 34 20 36 22 38 24 19 26
REMARK SMILES IDX 18 27 6 28 16 29 7 30 15 31 17 32 8 33 13 34 9 35 12 36
REMARK SMILES IDX 10 37 5 38 4 39 41 40 3 41 42 42 43 43 2 44 1 45 44 46 14 48
REMARK SMILES IDX 11 50 40 52
REMARK H PARENT 30 17 32 19 34 21 36 23 38 25 44 47 14 49 11 51 40 53
REMARK Flexibility Score: inf
ROOT
ATOM      1  C   UNL     1      14.788   2.157   3.583  1.00  0.00     0.180 C 
ATOM      2  C   UNL     1      15.680   2.615   4.743  1.00  0.00     0.177 C 
ATOM      3  C   UNL     1      15.952   1.433   5.682  1.00  0.00     0.180 C 
ATOM      4  C   UNL     1      14.825   0.352   5.675  1.00  0.00     0.214 C 
ATOM      5  C   UNL     1      13.504   0.681   4.885  1.00  0.00     0.339 C 
ATOM      6  O   UNL     1      13.512   1.877   4.110  1.00  0.00    -0.332 OA
ENDROOT
BRANCH   1   7
ATOM      7  C   UNL     1      14.655   3.252   2.518  1.00  0.00     0.198 C 
BRANCH   7   8
ATOM      8  O   UNL     1      15.061   2.739   1.261  1.00  0.00    -0.347 OA
BRANCH   8   9
ATOM      9  C   UNL     1      14.115   3.058   0.248  1.00  0.00     0.281 C 
ATOM     10  C   UNL     1      10.442   3.010   0.275  1.00  0.00     0.041 C 
ATOM     11  C   UNL     1      11.839   3.452  -0.167  1.00  0.00     0.150 C 
ATOM     12  C   UNL     1      12.081   3.100  -1.675  1.00  0.00     0.174 C 
ATOM     13  O   UNL     1      12.782   2.833   0.697  1.00  0.00    -0.344 OA
ATOM     14  C   UNL     1      13.061   1.902  -1.777  1.00  0.00     0.179 C 
ATOM     15  C   UNL     1      14.388   2.214  -1.025  1.00  0.00     0.202 C 
BRANCH  12  16
ATOM     16  O   UNL     1      12.548   4.252  -2.346  1.00  0.00    -0.388 OA
ATOM     17  H   UNL     1      11.943   5.008  -2.161  1.00  0.00     0.211 HD
ENDBRANCH  12  16
BRANCH  14  18
ATOM     18  O   UNL     1      13.237   1.516  -3.122  1.00  0.00    -0.387 OA
ATOM     19  H   UNL     1      12.735   2.120  -3.735  1.00  0.00     0.211 HD
ENDBRANCH  14  18
BRANCH  15  20
ATOM     20  O   UNL     1      15.050   1.010  -0.713  1.00  0.00    -0.385 OA
ATOM     21  H   UNL     1      15.012   0.438  -1.522  1.00  0.00     0.211 HD
ENDBRANCH  15  20
ENDBRANCH   8   9
ENDBRANCH   7   8
ENDBRANCH   1   7
BRANCH   2  22
ATOM     22  O   UNL     1      16.900   3.131   4.266  1.00  0.00    -0.387 OA
ATOM     23  H   UNL     1      16.940   4.084   4.552  1.00  0.00     0.211 HD
ENDBRANCH   2  22
BRANCH   3  24
ATOM     24  O   UNL     1      16.195   1.917   6.983  1.00  0.00    -0.387 OA
ATOM     25  H   UNL     1      15.679   2.761   7.065  1.00  0.00     0.211 HD
ENDBRANCH   3  24
BRANCH   5  26
ATOM     26  O   UNL     1      13.229  -0.424   4.016  1.00  0.00    -0.454 OA
BRANCH  26  27
ATOM     27  C   UNL     1      12.267  -0.555   2.993  1.00  0.00     0.214 A 
ATOM     28  C   UNL     1      10.902  -0.564   3.360  1.00  0.00     0.180 A 
ATOM     29  C   UNL     1      12.591  -0.632   1.615  1.00  0.00     0.239 A 
ATOM     30  O   UNL     1       9.959  -0.545   2.421  1.00  0.00    -0.452 OA
ATOM     31  C   UNL     1      11.556  -0.673   0.661  1.00  0.00     0.111 A 
ATOM     32  O   UNL     1      13.783  -0.651   1.239  1.00  0.00    -0.285 OA
ATOM     33  C   UNL     1      10.221  -0.574   1.121  1.00  0.00     0.146 A 
ATOM     34  C   UNL     1      11.796  -0.830  -0.725  1.00  0.00     0.134 A 
ATOM     35  C   UNL     1       9.159  -0.546   0.206  1.00  0.00     0.094 A 
ATOM     36  C   UNL     1      10.715  -0.819  -1.620  1.00  0.00     0.093 A 
ATOM     37  C   UNL     1       9.404  -0.658  -1.168  1.00  0.00     0.123 A 
BRANCH  28  38
ATOM     38  C   UNL     1      10.448  -0.662   4.776  1.00  0.00     0.025 A 
ATOM     39  C   UNL     1      11.408  -0.879   5.778  1.00  0.00     0.062 A 
ATOM     40  C   UNL     1       9.103  -0.525   5.161  1.00  0.00     0.016 A 
ATOM     41  C   UNL     1      11.057  -0.907   7.136  1.00  0.00     0.161 A 
ATOM     42  C   UNL     1       8.741  -0.542   6.510  1.00  0.00     0.051 A 
ATOM     43  C   UNL     1       9.699  -0.735   7.509  1.00  0.00     0.157 A 
BRANCH  41  44
ATOM     44  O   UNL     1      12.100  -1.110   8.055  1.00  0.00    -0.493 OA
ATOM     45  C   UNL     1      11.983  -1.102   9.479  1.00  0.00     0.278 C 
ENDBRANCH  41  44
BRANCH  43  46
ATOM     46  O   UNL     1       9.297  -0.796   8.837  1.00  0.00    -0.504 OA
ATOM     47  H   UNL     1       9.954  -0.678   9.603  1.00  0.00     0.293 HD
ENDBRANCH  43  46
ENDBRANCH  28  38
BRANCH  34  48
ATOM     48  O   UNL     1      13.082  -1.028  -1.221  1.00  0.00    -0.507 OA
ATOM     49  H   UNL     1      13.539  -0.352  -1.819  1.00  0.00     0.293 HD
ENDBRANCH  34  48
BRANCH  37  50
ATOM     50  O   UNL     1       8.364  -0.609  -2.091  1.00  0.00    -0.508 OA
ATOM     51  H   UNL     1       7.767  -1.412  -2.265  1.00  0.00     0.293 HD
ENDBRANCH  37  50
ENDBRANCH  26  27
ENDBRANCH   5  26
BRANCH   4  52
ATOM     52  O   UNL     1      14.522  -0.098   6.970  1.00  0.00    -0.384 OA
ATOM     53  H   UNL     1      15.027   0.462   7.615  1.00  0.00     0.211 HD
ENDBRANCH   4  52
TORSDOF 16
ENDMDL
MODEL 6
REMARK VINA RESULT:    -4.116     15.207     18.714
REMARK INTER + INTRA:          -8.361
REMARK INTER:                  -6.806
REMARK INTRA:                  -1.555
REMARK UNBOUND:                -1.477
REMARK SMILES COc1cc(-c2oc3cc(O)cc(O)c3c(=O)c2O[C@@H]2O[C@@H](CO[C@@H]3O[C@H](C)[C@@H](O)[C@@H](O)[C@@H]3O)[C@H](O)[C@@H](O)[C@H]2O)ccc1O
REMARK SMILES IDX 22 1 35 2 37 3 39 4 20 5 21 6 23 7 24 8 25 9 28 10 27 11
REMARK SMILES IDX 29 12 26 13 31 14 33 15 30 16 32 18 34 20 36 22 38 24 19 26
REMARK SMILES IDX 18 27 6 28 16 29 7 30 15 31 17 32 8 33 13 34 9 35 12 36
REMARK SMILES IDX 10 37 5 38 4 39 41 40 3 41 42 42 43 43 2 44 1 45 44 46 14 48
REMARK SMILES IDX 11 50 40 52
REMARK H PARENT 30 17 32 19 34 21 36 23 38 25 44 47 14 49 11 51 40 53
REMARK Flexibility Score: inf
ROOT
ATOM      1  C   UNL     1      22.772  15.956   6.340  1.00  0.00     0.180 C 
ATOM      2  C   UNL     1      21.270  16.027   6.039  1.00  0.00     0.177 C 
ATOM      3  C   UNL     1      20.586  14.740   6.517  1.00  0.00     0.180 C 
ATOM      4  C   UNL     1      21.529  13.495   6.532  1.00  0.00     0.214 C 
ATOM      5  C   UNL     1      22.960  13.656   5.896  1.00  0.00     0.339 C 
ATOM      6  O   UNL     1      23.330  14.974   5.499  1.00  0.00    -0.332 OA
ENDROOT
BRANCH   1   7
ATOM      7  C   UNL     1      23.458  17.298   6.061  1.00  0.00     0.198 C 
BRANCH   7   8
ATOM      8  O   UNL     1      23.647  17.449   4.664  1.00  0.00    -0.347 OA
BRANCH   8   9
ATOM      9  C   UNL     1      24.989  17.161   4.295  1.00  0.00     0.281 C 
ATOM     10  C   UNL     1      28.125  17.430   6.191  1.00  0.00     0.041 C 
ATOM     11  C   UNL     1      27.171  16.895   5.121  1.00  0.00     0.150 C 
ATOM     12  C   UNL     1      27.722  17.193   3.685  1.00  0.00     0.174 C 
ATOM     13  O   UNL     1      25.894  17.478   5.348  1.00  0.00    -0.344 OA
ATOM     14  C   UNL     1      26.887  18.327   3.034  1.00  0.00     0.179 C 
ATOM     15  C   UNL     1      25.376  17.956   3.018  1.00  0.00     0.202 C 
BRANCH  12  16
ATOM     16  O   UNL     1      27.710  15.998   2.931  1.00  0.00    -0.388 OA
ATOM     17  H   UNL     1      28.290  16.102   2.141  1.00  0.00     0.211 HD
ENDBRANCH  12  16
BRANCH  14  18
ATOM     18  O   UNL     1      27.411  18.668   1.770  1.00  0.00    -0.387 OA
ATOM     19  H   UNL     1      28.369  18.403   1.697  1.00  0.00     0.211 HD
ENDBRANCH  14  18
BRANCH  15  20
ATOM     20  O   UNL     1      24.601  19.125   2.885  1.00  0.00    -0.385 OA
ATOM     21  H   UNL     1      25.225  19.895   2.936  1.00  0.00     0.211 HD
ENDBRANCH  15  20
ENDBRANCH   8   9
ENDBRANCH   7   8
ENDBRANCH   1   7
BRANCH   2  22
ATOM     22  O   UNL     1      20.682  17.138   6.670  1.00  0.00    -0.387 OA
ATOM     23  H   UNL     1      20.849  17.037   7.647  1.00  0.00     0.211 HD
ENDBRANCH   2  22
BRANCH   3  24
ATOM     24  O   UNL     1      19.435  14.506   5.739  1.00  0.00    -0.387 OA
ATOM     25  H   UNL     1      19.519  13.581   5.390  1.00  0.00     0.211 HD
ENDBRANCH   3  24
BRANCH   5  26
ATOM     26  O   UNL     1      23.917  13.179   6.848  1.00  0.00    -0.454 OA
BRANCH  26  27
ATOM     27  C   UNL     1      24.491  11.900   6.994  1.00  0.00     0.214 A 
ATOM     28  C   UNL     1      25.530  11.739   7.939  1.00  0.00     0.180 A 
ATOM     29  C   UNL     1      24.053  10.756   6.279  1.00  0.00     0.239 A 
ATOM     30  O   UNL     1      26.004  10.525   8.209  1.00  0.00    -0.452 OA
ATOM     31  C   UNL     1      24.630   9.502   6.557  1.00  0.00     0.111 A 
ATOM     32  O   UNL     1      23.154  10.848   5.415  1.00  0.00    -0.285 OA
ATOM     33  C   UNL     1      25.592   9.425   7.593  1.00  0.00     0.146 A 
ATOM     34  C   UNL     1      24.305   8.331   5.833  1.00  0.00     0.134 A 
ATOM     35  C   UNL     1      26.147   8.189   7.950  1.00  0.00     0.094 A 
ATOM     36  C   UNL     1      24.890   7.107   6.195  1.00  0.00     0.093 A 
ATOM     37  C   UNL     1      25.791   7.025   7.259  1.00  0.00     0.123 A 
BRANCH  28  38
ATOM     38  C   UNL     1      26.186  12.891   8.620  1.00  0.00     0.025 A 
ATOM     39  C   UNL     1      26.011  13.043  10.005  1.00  0.00     0.062 A 
ATOM     40  C   UNL     1      26.991  13.823   7.944  1.00  0.00     0.016 A 
ATOM     41  C   UNL     1      26.660  14.062  10.719  1.00  0.00     0.161 A 
ATOM     42  C   UNL     1      27.650  14.838   8.643  1.00  0.00     0.051 A 
ATOM     43  C   UNL     1      27.495  14.976  10.026  1.00  0.00     0.157 A 
BRANCH  41  44
ATOM     44  O   UNL     1      26.430  14.109  12.104  1.00  0.00    -0.493 OA
ATOM     45  C   UNL     1      25.164  13.990  12.754  1.00  0.00     0.278 C 
ENDBRANCH  41  44
BRANCH  43  46
ATOM     46  O   UNL     1      28.125  16.025  10.681  1.00  0.00    -0.504 OA
ATOM     47  H   UNL     1      28.365  16.889  10.203  1.00  0.00     0.293 HD
ENDBRANCH  43  46
ENDBRANCH  28  38
BRANCH  34  48
ATOM     48  O   UNL     1      23.439   8.368   4.742  1.00  0.00    -0.507 OA
ATOM     49  H   UNL     1      23.405   9.156   4.108  1.00  0.00     0.293 HD
ENDBRANCH  34  48
BRANCH  37  50
ATOM     50  O   UNL     1      26.316   5.786   7.615  1.00  0.00    -0.508 OA
ATOM     51  H   UNL     1      26.353   5.013   6.957  1.00  0.00     0.293 HD
ENDBRANCH  37  50
ENDBRANCH  26  27
ENDBRANCH   5  26
BRANCH   4  52
ATOM     52  O   UNL     1      20.894  12.350   6.026  1.00  0.00    -0.384 OA
ATOM     53  H   UNL     1      21.571  11.817   5.531  1.00  0.00     0.211 HD
ENDBRANCH   4  52
TORSDOF 16
ENDMDL
