MODEL 1
REMARK VINA RESULT:    -3.814      0.000      0.000
REMARK INTER + INTRA:          -4.769
REMARK INTER:                  -4.706
REMARK INTRA:                  -0.064
REMARK UNBOUND:                -0.064
REMARK SMILES CCCCCC(C)=O
REMARK SMILES IDX 4 1 3 2 2 3 1 4 5 5 6 6 8 7 7 8
REMARK H PARENT
REMARK Flexibility Score: inf
ROOT
ATOM      1  C   UNL     1      25.875  57.604  -8.816  1.00  0.00     0.008 C 
ENDROOT
BRANCH   1   2
ATOM      2  C   UNL     1      26.298  59.081  -8.742  1.00  0.00     0.000 C 
BRANCH   2   3
ATOM      3  C   UNL     1      27.395  59.431  -9.760  1.00  0.00    -0.003 C 
ATOM      4  C   UNL     1      28.077  60.766  -9.459  1.00  0.00     0.004 C 
ENDBRANCH   2   3
ENDBRANCH   1   2
BRANCH   1   5
ATOM      5  C   UNL     1      24.558  57.346  -8.071  1.00  0.00     0.075 C 
BRANCH   5   6
ATOM      6  C   UNL     1      24.607  56.067  -7.274  1.00  0.00     0.129 C 
ATOM      7  O   UNL     1      25.638  55.413  -7.247  1.00  0.00    -0.300 OA
ATOM      8  C   UNL     1      23.414  55.583  -6.502  1.00  0.00     0.087 C 
ENDBRANCH   5   6
ENDBRANCH   1   5
TORSDOF 4
ENDMDL
MODEL 2
REMARK VINA RESULT:    -3.661      2.354      5.346
REMARK INTER + INTRA:          -4.581
REMARK INTER:                  -4.529
REMARK INTRA:                  -0.052
REMARK UNBOUND:                -0.064
REMARK SMILES CCCCCC(C)=O
REMARK SMILES IDX 4 1 3 2 2 3 1 4 5 5 6 6 8 7 7 8
REMARK H PARENT
REMARK Flexibility Score: inf
ROOT
ATOM      1  C   UNL     1      26.602  58.739  -9.166  1.00  0.00     0.008 C 
ENDROOT
BRANCH   1   2
ATOM      2  C   UNL     1      25.496  58.271  -8.204  1.00  0.00     0.000 C 
BRANCH   2   3
ATOM      3  C   UNL     1      25.275  56.751  -8.255  1.00  0.00    -0.003 C 
ATOM      4  C   UNL     1      24.465  56.231  -7.068  1.00  0.00     0.004 C 
ENDBRANCH   2   3
ENDBRANCH   1   2
BRANCH   1   5
ATOM      5  C   UNL     1      26.960  60.216  -8.954  1.00  0.00     0.075 C 
BRANCH   5   6
ATOM      6  C   UNL     1      28.243  60.587  -9.654  1.00  0.00     0.129 C 
ATOM      7  O   UNL     1      28.830  59.748 -10.319  1.00  0.00    -0.300 OA
ATOM      8  C   UNL     1      28.811  61.973  -9.557  1.00  0.00     0.087 C 
ENDBRANCH   5   6
ENDBRANCH   1   5
TORSDOF 4
ENDMDL
MODEL 3
REMARK VINA RESULT:    -3.640      2.142      4.971
REMARK INTER + INTRA:          -4.555
REMARK INTER:                  -4.454
REMARK INTRA:                  -0.100
REMARK UNBOUND:                -0.064
REMARK SMILES CCCCCC(C)=O
REMARK SMILES IDX 4 1 3 2 2 3 1 4 5 5 6 6 8 7 7 8
REMARK H PARENT
REMARK Flexibility Score: inf
ROOT
ATOM      1  C   UNL     1      25.825  57.252  -8.519  1.00  0.00     0.008 C 
ENDROOT
BRANCH   1   2
ATOM      2  C   UNL     1      24.577  56.395  -8.239  1.00  0.00     0.000 C 
BRANCH   2   3
ATOM      3  C   UNL     1      24.348  56.164  -6.737  1.00  0.00    -0.003 C 
ATOM      4  C   UNL     1      23.025  55.456  -6.444  1.00  0.00     0.004 C 
ENDBRANCH   2   3
ENDBRANCH   1   2
BRANCH   1   5
ATOM      5  C   UNL     1      25.539  58.752  -8.360  1.00  0.00     0.075 C 
BRANCH   5   6
ATOM      6  C   UNL     1      26.645  59.597  -8.940  1.00  0.00     0.129 C 
ATOM      7  O   UNL     1      26.883  60.692  -8.453  1.00  0.00    -0.300 OA
ATOM      8  C   UNL     1      27.468  59.117 -10.098  1.00  0.00     0.087 C 
ENDBRANCH   5   6
ENDBRANCH   1   5
TORSDOF 4
ENDMDL
MODEL 4
REMARK VINA RESULT:    -3.639     16.505     17.769
REMARK INTER + INTRA:          -4.554
REMARK INTER:                  -4.219
REMARK INTRA:                  -0.335
REMARK UNBOUND:                -0.064
REMARK SMILES CCCCCC(C)=O
REMARK SMILES IDX 4 1 3 2 2 3 1 4 5 5 6 6 8 7 7 8
REMARK H PARENT
REMARK Flexibility Score: inf
ROOT
ATOM      1  C   UNL     1      18.972  45.887   0.344  1.00  0.00     0.008 C 
ENDROOT
BRANCH   1   2
ATOM      2  C   UNL     1      17.514  46.202  -0.036  1.00  0.00     0.000 C 
BRANCH   2   3
ATOM      3  C   UNL     1      16.532  45.128   0.457  1.00  0.00    -0.003 C 
ATOM      4  C   UNL     1      15.813  45.530   1.744  1.00  0.00     0.004 C 
ENDBRANCH   2   3
ENDBRANCH   1   2
BRANCH   1   5
ATOM      5  C   UNL     1      19.204  44.382   0.530  1.00  0.00     0.075 C 
BRANCH   5   6
ATOM      6  C   UNL     1      19.831  44.073   1.866  1.00  0.00     0.129 C 
ATOM      7  O   UNL     1      20.737  43.256   1.932  1.00  0.00    -0.300 OA
ATOM      8  C   UNL     1      19.372  44.758   3.120  1.00  0.00     0.087 C 
ENDBRANCH   5   6
ENDBRANCH   1   5
TORSDOF 4
ENDMDL
MODEL 5
REMARK VINA RESULT:    -3.515     16.235     17.992
REMARK INTER + INTRA:          -4.400
REMARK INTER:                  -4.137
REMARK INTRA:                  -0.264
REMARK UNBOUND:                -0.064
REMARK SMILES CCCCCC(C)=O
REMARK SMILES IDX 4 1 3 2 2 3 1 4 5 5 6 6 8 7 7 8
REMARK H PARENT
REMARK Flexibility Score: inf
ROOT
ATOM      1  C   UNL     1      16.799  44.365   1.471  1.00  0.00     0.008 C 
ENDROOT
BRANCH   1   2
ATOM      2  C   UNL     1      15.783  45.396   1.995  1.00  0.00     0.000 C 
BRANCH   2   3
ATOM      3  C   UNL     1      15.044  46.123   0.861  1.00  0.00    -0.003 C 
ATOM      4  C   UNL     1      15.890  46.257  -0.406  1.00  0.00     0.004 C 
ENDBRANCH   2   3
ENDBRANCH   1   2
BRANCH   1   5
ATOM      5  C   UNL     1      18.172  44.521   2.137  1.00  0.00     0.075 C 
BRANCH   5   6
ATOM      6  C   UNL     1      19.277  44.650   1.120  1.00  0.00     0.129 C 
ATOM      7  O   UNL     1      20.050  43.720   0.950  1.00  0.00    -0.300 OA
ATOM      8  C   UNL     1      19.443  45.897   0.302  1.00  0.00     0.087 C 
ENDBRANCH   5   6
ENDBRANCH   1   5
TORSDOF 4
ENDMDL
MODEL 6
REMARK VINA RESULT:    -3.511     16.857     17.934
REMARK INTER + INTRA:          -4.396
REMARK INTER:                  -4.173
REMARK INTRA:                  -0.223
REMARK UNBOUND:                -0.064
REMARK SMILES CCCCCC(C)=O
REMARK SMILES IDX 4 1 3 2 2 3 1 4 5 5 6 6 8 7 7 8
REMARK H PARENT
REMARK Flexibility Score: inf
ROOT
ATOM      1  C   UNL     1      19.200  45.386   0.590  1.00  0.00     0.008 C 
ENDROOT
BRANCH   1   2
ATOM      2  C   UNL     1      19.242  44.875   2.041  1.00  0.00     0.000 C 
BRANCH   2   3
ATOM      3  C   UNL     1      19.686  43.408   2.136  1.00  0.00    -0.003 C 
ATOM      4  C   UNL     1      20.482  42.951   0.913  1.00  0.00     0.004 C 
ENDBRANCH   2   3
ENDBRANCH   1   2
BRANCH   1   5
ATOM      5  C   UNL     1      17.838  45.999   0.236  1.00  0.00     0.075 C 
BRANCH   5   6
ATOM      6  C   UNL     1      16.698  45.098   0.636  1.00  0.00     0.129 C 
ATOM      7  O   UNL     1      16.572  44.010   0.096  1.00  0.00    -0.300 OA
ATOM      8  C   UNL     1      15.716  45.507   1.695  1.00  0.00     0.087 C 
ENDBRANCH   5   6
ENDBRANCH   1   5
TORSDOF 4
ENDMDL
MODEL 7
REMARK VINA RESULT:    -3.454     16.321     17.544
REMARK INTER + INTRA:          -4.326
REMARK INTER:                  -4.137
REMARK INTRA:                  -0.188
REMARK UNBOUND:                -0.064
REMARK SMILES CCCCCC(C)=O
REMARK SMILES IDX 4 1 3 2 2 3 1 4 5 5 6 6 8 7 7 8
REMARK H PARENT
REMARK Flexibility Score: inf
ROOT
ATOM      1  C   UNL     1      17.882  46.311  -0.133  1.00  0.00     0.008 C 
ENDROOT
BRANCH   1   2
ATOM      2  C   UNL     1      19.298  45.896   0.302  1.00  0.00     0.000 C 
BRANCH   2   3
ATOM      3  C   UNL     1      19.310  44.573   1.082  1.00  0.00    -0.003 C 
ATOM      4  C   UNL     1      19.603  44.766   2.570  1.00  0.00     0.004 C 
ENDBRANCH   2   3
ENDBRANCH   1   2
BRANCH   1   5
ATOM      5  C   UNL     1      16.834  45.254   0.238  1.00  0.00     0.075 C 
BRANCH   5   6
ATOM      6  C   UNL     1      15.571  45.881   0.773  1.00  0.00     0.129 C 
ATOM      7  O   UNL     1      14.942  46.660   0.073  1.00  0.00    -0.300 OA
ATOM      8  C   UNL     1      15.064  45.561   2.149  1.00  0.00     0.087 C 
ENDBRANCH   5   6
ENDBRANCH   1   5
TORSDOF 4
ENDMDL
MODEL 8
REMARK VINA RESULT:    -3.408     16.418     17.992
REMARK INTER + INTRA:          -4.268
REMARK INTER:                  -4.001
REMARK INTRA:                  -0.267
REMARK UNBOUND:                -0.064
REMARK SMILES CCCCCC(C)=O
REMARK SMILES IDX 4 1 3 2 2 3 1 4 5 5 6 6 8 7 7 8
REMARK H PARENT
REMARK Flexibility Score: inf
ROOT
ATOM      1  C   UNL     1      16.944  44.461   1.330  1.00  0.00     0.008 C 
ENDROOT
BRANCH   1   2
ATOM      2  C   UNL     1      18.257  44.553   2.127  1.00  0.00     0.000 C 
BRANCH   2   3
ATOM      3  C   UNL     1      19.471  44.840   1.231  1.00  0.00    -0.003 C 
ATOM      4  C   UNL     1      19.224  45.986   0.249  1.00  0.00     0.004 C 
ENDBRANCH   2   3
ENDBRANCH   1   2
BRANCH   1   5
ATOM      5  C   UNL     1      15.808  45.246   2.000  1.00  0.00     0.075 C 
BRANCH   5   6
ATOM      6  C   UNL     1      15.068  46.114   1.014  1.00  0.00     0.129 C 
ATOM      7  O   UNL     1      14.047  46.685   1.364  1.00  0.00    -0.300 OA
ATOM      8  C   UNL     1      15.566  46.298  -0.389  1.00  0.00     0.087 C 
ENDBRANCH   5   6
ENDBRANCH   1   5
TORSDOF 4
ENDMDL
MODEL 9
REMARK VINA RESULT:    -3.346     16.529     18.752
REMARK INTER + INTRA:          -4.193
REMARK INTER:                  -3.826
REMARK INTRA:                  -0.367
REMARK UNBOUND:                -0.064
REMARK SMILES CCCCCC(C)=O
REMARK SMILES IDX 4 1 3 2 2 3 1 4 5 5 6 6 8 7 7 8
REMARK H PARENT
REMARK Flexibility Score: inf
ROOT
ATOM      1  C   UNL     1      17.820  42.622   1.644  1.00  0.00     0.008 C 
ENDROOT
BRANCH   1   2
ATOM      2  C   UNL     1      16.668  43.261   0.848  1.00  0.00     0.000 C 
BRANCH   2   3
ATOM      3  C   UNL     1      15.662  43.991   1.751  1.00  0.00    -0.003 C 
ATOM      4  C   UNL     1      15.758  45.512   1.634  1.00  0.00     0.004 C 
ENDBRANCH   2   3
ENDBRANCH   1   2
BRANCH   1   5
ATOM      5  C   UNL     1      19.190  43.146   1.192  1.00  0.00     0.075 C 
BRANCH   5   6
ATOM      6  C   UNL     1      19.379  44.599   1.548  1.00  0.00     0.129 C 
ATOM      7  O   UNL     1      19.511  44.920   2.719  1.00  0.00    -0.300 OA
ATOM      8  C   UNL     1      19.418  45.662   0.490  1.00  0.00     0.087 C 
ENDBRANCH   5   6
ENDBRANCH   1   5
TORSDOF 4
ENDMDL
