MODEL 1
REMARK VINA RESULT:    -2.354      0.000      0.000
REMARK INTER + INTRA:          -2.354
REMARK INTER:                  -2.354
REMARK INTRA:                   0.000
REMARK UNBOUND:                 0.000
REMARK SMILES CC(=O)[O-]
REMARK SMILES IDX 1 1 2 2 3 3 4 4
REMARK H PARENT
REMARK Flexibility Score: inf
ROOT
ATOM      1  C   UNL     1     114.748 105.478  90.034  1.00  0.00     0.063 C 
ATOM      2  C   UNL     1     114.155 104.196  89.557  1.00  0.00     0.038 C 
ATOM      3  O   UNL     1     114.883 103.330  89.004  1.00  0.00    -0.550 OA
ATOM      4  O   UNL     1     112.789 103.974  89.673  1.00  0.00    -0.550 OA
ENDROOT
TORSDOF 0
ENDMDL
MODEL 2
REMARK VINA RESULT:    -2.283      2.331      2.981
REMARK INTER + INTRA:          -2.283
REMARK INTER:                  -2.283
REMARK INTRA:                   0.000
REMARK UNBOUND:                 0.000
REMARK SMILES CC(=O)[O-]
REMARK SMILES IDX 1 1 2 2 3 3 4 4
REMARK H PARENT
REMARK Flexibility Score: inf
ROOT
ATOM      1  C   UNL     1     114.644 104.460  89.690  1.00  0.00     0.063 C 
ATOM      2  C   UNL     1     114.881 105.886  90.057  1.00  0.00     0.038 C 
ATOM      3  O   UNL     1     114.075 106.485  90.817  1.00  0.00    -0.550 OA
ATOM      4  O   UNL     1     115.961 106.574  89.519  1.00  0.00    -0.550 OA
ENDROOT
TORSDOF 0
ENDMDL
MODEL 3
REMARK VINA RESULT:    -2.258      2.245      2.627
REMARK INTER + INTRA:          -2.258
REMARK INTER:                  -2.258
REMARK INTRA:                   0.000
REMARK UNBOUND:                 0.000
REMARK SMILES CC(=O)[O-]
REMARK SMILES IDX 1 1 2 2 3 3 4 4
REMARK H PARENT
REMARK Flexibility Score: inf
ROOT
ATOM      1  C   UNL     1     114.188 106.901  90.904  1.00  0.00     0.063 C 
ATOM      2  C   UNL     1     115.169 106.153  90.066  1.00  0.00     0.038 C 
ATOM      3  O   UNL     1     116.046 106.776  89.412  1.00  0.00    -0.550 OA
ATOM      4  O   UNL     1     115.085 104.770  89.962  1.00  0.00    -0.550 OA
ENDROOT
TORSDOF 0
ENDMDL
MODEL 4
REMARK VINA RESULT:    -2.209     22.147     22.682
REMARK INTER + INTRA:          -2.209
REMARK INTER:                  -2.209
REMARK INTRA:                   0.000
REMARK UNBOUND:                 0.000
REMARK SMILES CC(=O)[O-]
REMARK SMILES IDX 1 1 2 2 3 3 4 4
REMARK H PARENT
REMARK Flexibility Score: inf
ROOT
ATOM      1  C   UNL     1     100.288 110.110 105.268  1.00  0.00     0.063 C 
ATOM      2  C   UNL     1     100.145 111.504 105.779  1.00  0.00     0.038 C 
ATOM      3  O   UNL     1     101.168 112.204 106.001  1.00  0.00    -0.550 OA
ATOM      4  O   UNL     1      98.885 112.016 106.062  1.00  0.00    -0.550 OA
ENDROOT
TORSDOF 0
ENDMDL
MODEL 5
REMARK VINA RESULT:    -2.158      1.502      1.788
REMARK INTER + INTRA:          -2.158
REMARK INTER:                  -2.158
REMARK INTRA:                   0.000
REMARK UNBOUND:                 0.000
REMARK SMILES CC(=O)[O-]
REMARK SMILES IDX 1 1 2 2 3 3 4 4
REMARK H PARENT
REMARK Flexibility Score: inf
ROOT
ATOM      1  C   UNL     1     112.991 104.076  89.610  1.00  0.00     0.063 C 
ATOM      2  C   UNL     1     114.475 104.089  89.462  1.00  0.00     0.038 C 
ATOM      3  O   UNL     1     115.061 103.133  88.890  1.00  0.00    -0.550 OA
ATOM      4  O   UNL     1     115.219 105.131  90.001  1.00  0.00    -0.550 OA
ENDROOT
TORSDOF 0
ENDMDL
MODEL 6
REMARK VINA RESULT:    -2.119     21.219     21.839
REMARK INTER + INTRA:          -2.119
REMARK INTER:                  -2.119
REMARK INTRA:                   0.000
REMARK UNBOUND:                 0.000
REMARK SMILES CC(=O)[O-]
REMARK SMILES IDX 1 1 2 2 3 3 4 4
REMARK H PARENT
REMARK Flexibility Score: inf
ROOT
ATOM      1  C   UNL     1     100.241 110.235 105.385  1.00  0.00     0.063 C 
ATOM      2  C   UNL     1     100.449 111.584 104.784  1.00  0.00     0.038 C 
ATOM      3  O   UNL     1      99.631 112.513 105.016  1.00  0.00    -0.550 OA
ATOM      4  O   UNL     1     101.516 111.806 103.922  1.00  0.00    -0.550 OA
ENDROOT
TORSDOF 0
ENDMDL
MODEL 7
REMARK VINA RESULT:    -2.028     21.752     22.200
REMARK INTER + INTRA:          -2.028
REMARK INTER:                  -2.028
REMARK INTRA:                   0.000
REMARK UNBOUND:                 0.000
REMARK SMILES CC(=O)[O-]
REMARK SMILES IDX 1 1 2 2 3 3 4 4
REMARK H PARENT
REMARK Flexibility Score: inf
ROOT
ATOM      1  C   UNL     1      99.204 111.915 106.042  1.00  0.00     0.063 C 
ATOM      2  C   UNL     1     100.341 111.237 105.354  1.00  0.00     0.038 C 
ATOM      3  O   UNL     1     101.074 111.883 104.560  1.00  0.00    -0.550 OA
ATOM      4  O   UNL     1     100.562 109.879 105.546  1.00  0.00    -0.550 OA
ENDROOT
TORSDOF 0
ENDMDL
MODEL 8
REMARK VINA RESULT:    -1.964     22.805     23.218
REMARK INTER + INTRA:          -1.964
REMARK INTER:                  -1.964
REMARK INTRA:                   0.000
REMARK UNBOUND:                 0.000
REMARK SMILES CC(=O)[O-]
REMARK SMILES IDX 1 1 2 2 3 3 4 4
REMARK H PARENT
REMARK Flexibility Score: inf
ROOT
ATOM      1  C   UNL     1     101.115 112.443 106.125  1.00  0.00     0.063 C 
ATOM      2  C   UNL     1      99.669 112.176 105.877  1.00  0.00     0.038 C 
ATOM      3  O   UNL     1      99.257 110.993 105.754  1.00  0.00    -0.550 OA
ATOM      4  O   UNL     1      98.781 113.234 105.729  1.00  0.00    -0.550 OA
ENDROOT
TORSDOF 0
ENDMDL
