MODEL 1
REMARK VINA RESULT:    -1.934      0.000      0.000
REMARK INTER + INTRA:          -1.934
REMARK INTER:                  -1.934
REMARK INTRA:                   0.000
REMARK UNBOUND:                 0.000
REMARK SMILES CC(=O)[O-]
REMARK SMILES IDX 1 1 2 2 3 3 4 4
REMARK H PARENT
REMARK Flexibility Score: inf
ROOT
ATOM      1  C   UNL     1      10.307  14.002  -0.565  1.00  0.00     0.063 C 
ATOM      2  C   UNL     1      10.101  14.836   0.654  1.00  0.00     0.038 C 
ATOM      3  O   UNL     1       9.043  14.722   1.327  1.00  0.00    -0.550 OA
ATOM      4  O   UNL     1      11.052  15.780   1.020  1.00  0.00    -0.550 OA
ENDROOT
TORSDOF 0
ENDMDL
MODEL 2
REMARK VINA RESULT:    -1.923      0.082      1.619
REMARK INTER + INTRA:          -1.923
REMARK INTER:                  -1.923
REMARK INTRA:                   0.000
REMARK UNBOUND:                 0.000
REMARK SMILES CC(=O)[O-]
REMARK SMILES IDX 1 1 2 2 3 3 4 4
REMARK H PARENT
REMARK Flexibility Score: inf
ROOT
ATOM      1  C   UNL     1      10.313  13.996  -0.548  1.00  0.00     0.063 C 
ATOM      2  C   UNL     1      10.126  14.872   0.644  1.00  0.00     0.038 C 
ATOM      3  O   UNL     1      11.019  15.698   0.969  1.00  0.00    -0.550 OA
ATOM      4  O   UNL     1       8.989  14.743   1.431  1.00  0.00    -0.550 OA
ENDROOT
TORSDOF 0
ENDMDL
MODEL 3
REMARK VINA RESULT:    -1.890      2.091      2.326
REMARK INTER + INTRA:          -1.890
REMARK INTER:                  -1.890
REMARK INTRA:                   0.000
REMARK UNBOUND:                 0.000
REMARK SMILES CC(=O)[O-]
REMARK SMILES IDX 1 1 2 2 3 3 4 4
REMARK H PARENT
REMARK Flexibility Score: inf
ROOT
ATOM      1  C   UNL     1      10.447  13.868  -0.709  1.00  0.00     0.063 C 
ATOM      2  C   UNL     1      11.516  13.624   0.302  1.00  0.00     0.038 C 
ATOM      3  O   UNL     1      11.416  14.111   1.458  1.00  0.00    -0.550 OA
ATOM      4  O   UNL     1      12.651  12.903  -0.046  1.00  0.00    -0.550 OA
ENDROOT
TORSDOF 0
ENDMDL
MODEL 4
REMARK VINA RESULT:    -1.862      1.868      2.574
REMARK INTER + INTRA:          -1.862
REMARK INTER:                  -1.862
REMARK INTRA:                   0.000
REMARK UNBOUND:                 0.000
REMARK SMILES CC(=O)[O-]
REMARK SMILES IDX 1 1 2 2 3 3 4 4
REMARK H PARENT
REMARK Flexibility Score: inf
ROOT
ATOM      1  C   UNL     1       9.920  15.234   1.007  1.00  0.00     0.063 C 
ATOM      2  C   UNL     1      10.076  16.657   1.427  1.00  0.00     0.038 C 
ATOM      3  O   UNL     1      11.201  17.217   1.358  1.00  0.00    -0.550 OA
ATOM      4  O   UNL     1       8.992  17.352   1.946  1.00  0.00    -0.550 OA
ENDROOT
TORSDOF 0
ENDMDL
MODEL 5
REMARK VINA RESULT:    -1.833      2.116      2.316
REMARK INTER + INTRA:          -1.833
REMARK INTER:                  -1.833
REMARK INTRA:                   0.000
REMARK UNBOUND:                 0.000
REMARK SMILES CC(=O)[O-]
REMARK SMILES IDX 1 1 2 2 3 3 4 4
REMARK H PARENT
REMARK Flexibility Score: inf
ROOT
ATOM      1  C   UNL     1       9.879  14.792   0.739  1.00  0.00     0.063 C 
ATOM      2  C   UNL     1      10.917  14.060  -0.044  1.00  0.00     0.038 C 
ATOM      3  O   UNL     1      10.829  13.986  -1.297  1.00  0.00    -0.550 OA
ATOM      4  O   UNL     1      11.956  13.414   0.612  1.00  0.00    -0.550 OA
ENDROOT
TORSDOF 0
ENDMDL
MODEL 6
REMARK VINA RESULT:    -1.802      1.947      2.217
REMARK INTER + INTRA:          -1.802
REMARK INTER:                  -1.802
REMARK INTRA:                   0.000
REMARK UNBOUND:                 0.000
REMARK SMILES CC(=O)[O-]
REMARK SMILES IDX 1 1 2 2 3 3 4 4
REMARK H PARENT
REMARK Flexibility Score: inf
ROOT
ATOM      1  C   UNL     1      11.898  13.225   0.600  1.00  0.00     0.063 C 
ATOM      2  C   UNL     1      10.807  13.964  -0.098  1.00  0.00     0.038 C 
ATOM      3  O   UNL     1      10.747  13.966  -1.355  1.00  0.00    -0.550 OA
ATOM      4  O   UNL     1       9.882  14.696   0.637  1.00  0.00    -0.550 OA
ENDROOT
TORSDOF 0
ENDMDL
MODEL 7
REMARK VINA RESULT:    -1.697     16.005     16.570
REMARK INTER + INTRA:          -1.697
REMARK INTER:                  -1.697
REMARK INTRA:                   0.000
REMARK UNBOUND:                 0.000
REMARK SMILES CC(=O)[O-]
REMARK SMILES IDX 1 1 2 2 3 3 4 4
REMARK H PARENT
REMARK Flexibility Score: inf
ROOT
ATOM      1  C   UNL     1      19.743  21.117 -12.416  1.00  0.00     0.063 C 
ATOM      2  C   UNL     1      18.475  20.331 -12.425  1.00  0.00     0.038 C 
ATOM      3  O   UNL     1      18.210  19.547 -11.477  1.00  0.00    -0.550 OA
ATOM      4  O   UNL     1      17.608  20.423 -13.506  1.00  0.00    -0.550 OA
ENDROOT
TORSDOF 0
ENDMDL
MODEL 8
REMARK VINA RESULT:    -1.634      1.575      2.217
REMARK INTER + INTRA:          -1.634
REMARK INTER:                  -1.634
REMARK INTRA:                   0.000
REMARK UNBOUND:                 0.000
REMARK SMILES CC(=O)[O-]
REMARK SMILES IDX 1 1 2 2 3 3 4 4
REMARK H PARENT
REMARK Flexibility Score: inf
ROOT
ATOM      1  C   UNL     1      10.526  16.281   1.385  1.00  0.00     0.063 C 
ATOM      2  C   UNL     1       9.646  15.105   1.123  1.00  0.00     0.038 C 
ATOM      3  O   UNL     1       9.822  14.400   0.095  1.00  0.00    -0.550 OA
ATOM      4  O   UNL     1       8.596  14.817   1.984  1.00  0.00    -0.550 OA
ENDROOT
TORSDOF 0
ENDMDL
MODEL 9
REMARK VINA RESULT:    -1.459     16.160     16.548
REMARK INTER + INTRA:          -1.459
REMARK INTER:                  -1.459
REMARK INTRA:                   0.000
REMARK UNBOUND:                 0.000
REMARK SMILES CC(=O)[O-]
REMARK SMILES IDX 1 1 2 2 3 3 4 4
REMARK H PARENT
REMARK Flexibility Score: inf
ROOT
ATOM      1  C   UNL     1      18.277  19.184 -11.559  1.00  0.00     0.063 C 
ATOM      2  C   UNL     1      18.535  20.308 -12.505  1.00  0.00     0.038 C 
ATOM      3  O   UNL     1      17.662  20.636 -13.351  1.00  0.00    -0.550 OA
ATOM      4  O   UNL     1      19.759  20.963 -12.490  1.00  0.00    -0.550 OA
ENDROOT
TORSDOF 0
ENDMDL
