MODEL 1
REMARK VINA RESULT:    -5.846      0.000      0.000
REMARK INTER + INTRA:          -8.199
REMARK INTER:                  -7.384
REMARK INTRA:                  -0.815
REMARK UNBOUND:                -0.815
REMARK SMILES CC(C)[C@H](C)C=C[C@@H](C)[C@@H]1CC[C@@H]2C3=CC=C4C[C@@H](O)CC[C@@]4(C)[C@@H]3CC[C@@]21C
REMARK SMILES IDX 8 1 9 2 7 3 6 4 4 5 5 6 2 7 1 8 3 9 10 10 11 11 28 12 12 13
REMARK SMILES IDX 13 14 27 15 29 16 14 17 26 18 25 19 15 20 23 21 16 22 17 23
REMARK SMILES IDX 22 24 24 25 18 26 21 27 19 28 20 29
REMARK H PARENT 20 30
REMARK Flexibility Score: inf
ROOT
ATOM      1  C   UNL     1      41.977  11.121   4.588  1.00  0.00     0.012 C 
ATOM      2  C   UNL     1      42.979  12.123   5.175  1.00  0.00     0.012 C 
ENDROOT
BRANCH   1   3
ATOM      3  C   UNL     1      41.562  11.686   3.214  1.00  0.00    -0.028 C 
ATOM      4  C   UNL     1      41.987  11.229   2.028  1.00  0.00    -0.028 C 
BRANCH   4   5
ATOM      5  C   UNL     1      41.037  10.745   0.941  1.00  0.00     0.011 C 
ATOM      6  C   UNL     1      40.650  11.908   0.007  1.00  0.00     0.012 C 
BRANCH   5   7
ATOM      7  C   UNL     1      41.533   9.479   0.148  1.00  0.00    -0.011 C 
ATOM      8  C   UNL     1      41.059   8.128   0.716  1.00  0.00     0.008 C 
ATOM      9  C   UNL     1      41.190   9.597  -1.351  1.00  0.00     0.008 C 
ENDBRANCH   5   7
ENDBRANCH   4   5
ENDBRANCH   1   3
BRANCH   1  10
ATOM     10  C   UNL     1      40.792  10.856   5.611  1.00  0.00     0.002 C 
ATOM     11  C   UNL     1      41.127  10.052   6.871  1.00  0.00     0.005 C 
ATOM     12  C   UNL     1      39.487  10.150   5.098  1.00  0.00    -0.023 C 
ATOM     13  C   UNL     1      39.801   9.986   7.594  1.00  0.00     0.009 C 
ATOM     14  C   UNL     1      38.750   9.810   6.452  1.00  0.00     0.021 C 
ATOM     15  C   UNL     1      39.776   8.825   4.288  1.00  0.00     0.008 C 
ATOM     16  C   UNL     1      38.718  11.144   4.215  1.00  0.00     0.012 C 
ATOM     17  C   UNL     1      38.009   8.465   6.373  1.00  0.00    -0.063 C 
ATOM     18  C   UNL     1      38.511   7.955   4.022  1.00  0.00     0.009 C 
ATOM     19  C   UNL     1      37.365   8.182   5.046  1.00  0.00     0.025 C 
ATOM     20  C   UNL     1      38.038   7.508   7.315  1.00  0.00    -0.000 C 
ATOM     21  C   UNL     1      36.216   7.119   5.109  1.00  0.00    -0.005 C 
ATOM     22  C   UNL     1      37.294   6.251   7.160  1.00  0.00    -0.000 C 
ATOM     23  C   UNL     1      36.468   6.037   6.150  1.00  0.00    -0.061 C 
ATOM     24  C   UNL     1      34.881   7.847   5.514  1.00  0.00     0.014 C 
ATOM     25  C   UNL     1      36.031   6.457   3.712  1.00  0.00     0.017 C 
ATOM     26  C   UNL     1      35.367   5.010   6.333  1.00  0.00     0.063 C 
ATOM     27  C   UNL     1      33.700   6.905   5.832  1.00  0.00     0.033 C 
ATOM     28  C   UNL     1      34.075   5.749   6.789  1.00  0.00     0.118 C 
BRANCH  28  29
ATOM     29  O   UNL     1      34.192   6.190   8.121  1.00  0.00    -0.393 OA
ATOM     30  H   UNL     1      35.110   5.966   8.405  1.00  0.00     0.210 HD
ENDBRANCH  28  29
ENDBRANCH   1  10
TORSDOF 5
ENDMDL
MODEL 2
REMARK VINA RESULT:    -5.185     13.383     16.619
REMARK INTER + INTRA:          -7.364
REMARK INTER:                  -6.698
REMARK INTRA:                  -0.666
REMARK UNBOUND:                -0.815
REMARK SMILES CC(C)[C@H](C)C=C[C@@H](C)[C@@H]1CC[C@@H]2C3=CC=C4C[C@@H](O)CC[C@@]4(C)[C@@H]3CC[C@@]21C
REMARK SMILES IDX 8 1 9 2 7 3 6 4 4 5 5 6 2 7 1 8 3 9 10 10 11 11 28 12 12 13
REMARK SMILES IDX 13 14 27 15 29 16 14 17 26 18 25 19 15 20 23 21 16 22 17 23
REMARK SMILES IDX 22 24 24 25 18 26 21 27 19 28 20 29
REMARK H PARENT 20 30
REMARK Flexibility Score: inf
ROOT
ATOM      1  C   UNL     1      38.673   2.140  -9.874  1.00  0.00     0.012 C 
ATOM      2  C   UNL     1      37.207   2.591  -9.928  1.00  0.00     0.012 C 
ENDROOT
BRANCH   1   3
ATOM      3  C   UNL     1      39.060   2.116  -8.381  1.00  0.00    -0.028 C 
ATOM      4  C   UNL     1      40.221   1.664  -7.888  1.00  0.00    -0.028 C 
BRANCH   4   5
ATOM      5  C   UNL     1      41.144   2.519  -7.032  1.00  0.00     0.011 C 
ATOM      6  C   UNL     1      41.155   2.010  -5.577  1.00  0.00     0.012 C 
BRANCH   5   7
ATOM      7  C   UNL     1      42.594   2.708  -7.612  1.00  0.00    -0.011 C 
ATOM      8  C   UNL     1      42.960   4.155  -7.994  1.00  0.00     0.008 C 
ATOM      9  C   UNL     1      43.651   2.105  -6.664  1.00  0.00     0.008 C 
ENDBRANCH   5   7
ENDBRANCH   4   5
ENDBRANCH   1   3
BRANCH   1  10
ATOM     10  C   UNL     1      39.572   3.060 -10.804  1.00  0.00     0.002 C 
ATOM     11  C   UNL     1      41.089   2.861 -10.724  1.00  0.00     0.005 C 
ATOM     12  C   UNL     1      39.430   4.620 -10.698  1.00  0.00    -0.023 C 
ATOM     13  C   UNL     1      41.618   3.878 -11.710  1.00  0.00     0.009 C 
ATOM     14  C   UNL     1      40.682   5.115 -11.523  1.00  0.00     0.021 C 
ATOM     15  C   UNL     1      39.515   5.150  -9.213  1.00  0.00     0.008 C 
ATOM     16  C   UNL     1      38.087   5.025 -11.322  1.00  0.00     0.012 C 
ATOM     17  C   UNL     1      41.300   6.384 -10.914  1.00  0.00    -0.063 C 
ATOM     18  C   UNL     1      39.672   6.697  -9.099  1.00  0.00     0.009 C 
ATOM     19  C   UNL     1      40.303   7.359 -10.355  1.00  0.00     0.025 C 
ATOM     20  C   UNL     1      42.612   6.588 -10.714  1.00  0.00    -0.000 C 
ATOM     21  C   UNL     1      40.849   8.820 -10.217  1.00  0.00    -0.005 C 
ATOM     22  C   UNL     1      43.117   7.836 -10.128  1.00  0.00    -0.000 C 
ATOM     23  C   UNL     1      42.332   8.868  -9.871  1.00  0.00    -0.061 C 
ATOM     24  C   UNL     1      40.675   9.553 -11.599  1.00  0.00     0.014 C 
ATOM     25  C   UNL     1      40.041   9.587  -9.129  1.00  0.00     0.017 C 
ATOM     26  C   UNL     1      42.961  10.245  -9.797  1.00  0.00     0.063 C 
ATOM     27  C   UNL     1      41.363  10.931 -11.693  1.00  0.00     0.033 C 
ATOM     28  C   UNL     1      42.827  10.925 -11.191  1.00  0.00     0.118 C 
BRANCH  28  29
ATOM     29  O   UNL     1      43.697  10.331 -12.125  1.00  0.00    -0.393 OA
ATOM     30  H   UNL     1      43.561  10.815 -12.974  1.00  0.00     0.210 HD
ENDBRANCH  28  29
ENDBRANCH   1  10
TORSDOF 5
ENDMDL
MODEL 3
REMARK VINA RESULT:    -5.114      3.309      6.943
REMARK INTER + INTRA:          -7.274
REMARK INTER:                  -6.484
REMARK INTRA:                  -0.790
REMARK UNBOUND:                -0.815
REMARK SMILES CC(C)[C@H](C)C=C[C@@H](C)[C@@H]1CC[C@@H]2C3=CC=C4C[C@@H](O)CC[C@@]4(C)[C@@H]3CC[C@@]21C
REMARK SMILES IDX 8 1 9 2 7 3 6 4 4 5 5 6 2 7 1 8 3 9 10 10 11 11 28 12 12 13
REMARK SMILES IDX 13 14 27 15 29 16 14 17 26 18 25 19 15 20 23 21 16 22 17 23
REMARK SMILES IDX 22 24 24 25 18 26 21 27 19 28 20 29
REMARK H PARENT 20 30
REMARK Flexibility Score: inf
ROOT
ATOM      1  C   UNL     1      34.356   6.667   6.341  1.00  0.00     0.012 C 
ATOM      2  C   UNL     1      34.663   5.175   6.523  1.00  0.00     0.012 C 
ENDROOT
BRANCH   1   3
ATOM      3  C   UNL     1      34.385   6.929   4.820  1.00  0.00    -0.028 C 
ATOM      4  C   UNL     1      33.898   8.019   4.212  1.00  0.00    -0.028 C 
BRANCH   4   5
ATOM      5  C   UNL     1      34.746   8.914   3.319  1.00  0.00     0.011 C 
ATOM      6  C   UNL     1      34.282   8.808   1.854  1.00  0.00     0.012 C 
BRANCH   5   7
ATOM      7  C   UNL     1      34.864  10.406   3.804  1.00  0.00    -0.011 C 
ATOM      8  C   UNL     1      36.235  10.795   4.388  1.00  0.00     0.008 C 
ATOM      9  C   UNL     1      34.443  11.384   2.688  1.00  0.00     0.008 C 
ENDBRANCH   5   7
ENDBRANCH   4   5
ENDBRANCH   1   3
BRANCH   1  10
ATOM     10  C   UNL     1      35.348   7.550   7.210  1.00  0.00     0.002 C 
ATOM     11  C   UNL     1      35.172   9.070   7.141  1.00  0.00     0.005 C 
ATOM     12  C   UNL     1      36.896   7.380   7.007  1.00  0.00    -0.023 C 
ATOM     13  C   UNL     1      36.258   9.580   8.061  1.00  0.00     0.009 C 
ATOM     14  C   UNL     1      37.463   8.623   7.798  1.00  0.00     0.021 C 
ATOM     15  C   UNL     1      37.334   7.455   5.491  1.00  0.00     0.008 C 
ATOM     16  C   UNL     1      37.315   6.030   7.606  1.00  0.00     0.012 C 
ATOM     17  C   UNL     1      38.703   9.217   7.110  1.00  0.00    -0.063 C 
ATOM     18  C   UNL     1      38.873   7.584   5.281  1.00  0.00     0.009 C 
ATOM     19  C   UNL     1      39.623   8.204   6.492  1.00  0.00     0.025 C 
ATOM     20  C   UNL     1      38.918  10.526   6.896  1.00  0.00    -0.000 C 
ATOM     21  C   UNL     1      41.083   8.723   6.263  1.00  0.00    -0.005 C 
ATOM     22  C   UNL     1      40.136  11.009   6.233  1.00  0.00    -0.000 C 
ATOM     23  C   UNL     1      41.135  10.205   5.913  1.00  0.00    -0.061 C 
ATOM     24  C   UNL     1      41.897   8.536   7.596  1.00  0.00     0.014 C 
ATOM     25  C   UNL     1      41.765   7.902   5.130  1.00  0.00     0.017 C 
ATOM     26  C   UNL     1      42.516  10.809   5.752  1.00  0.00     0.063 C 
ATOM     27  C   UNL     1      43.290   9.200   7.603  1.00  0.00     0.033 C 
ATOM     28  C   UNL     1      43.279  10.663   7.101  1.00  0.00     0.118 C 
BRANCH  28  29
ATOM     29  O   UNL     1      42.761  11.544   8.069  1.00  0.00    -0.393 OA
ATOM     30  H   UNL     1      41.865  11.808   7.750  1.00  0.00     0.210 HD
ENDBRANCH  28  29
ENDBRANCH   1  10
TORSDOF 5
ENDMDL
MODEL 4
REMARK VINA RESULT:    -4.366     13.256     15.402
REMARK INTER + INTRA:          -6.329
REMARK INTER:                  -6.771
REMARK INTRA:                   0.442
REMARK UNBOUND:                -0.815
REMARK SMILES CC(C)[C@H](C)C=C[C@@H](C)[C@@H]1CC[C@@H]2C3=CC=C4C[C@@H](O)CC[C@@]4(C)[C@@H]3CC[C@@]21C
REMARK SMILES IDX 8 1 9 2 7 3 6 4 4 5 5 6 2 7 1 8 3 9 10 10 11 11 28 12 12 13
REMARK SMILES IDX 13 14 27 15 29 16 14 17 26 18 25 19 15 20 23 21 16 22 17 23
REMARK SMILES IDX 22 24 24 25 18 26 21 27 19 28 20 29
REMARK H PARENT 20 30
REMARK Flexibility Score: inf
ROOT
ATOM      1  C   UNL     1      43.871   9.662 -10.134  1.00  0.00     0.012 C 
ATOM      2  C   UNL     1      44.045   9.759  -8.613  1.00  0.00     0.012 C 
ENDROOT
BRANCH   1   3
ATOM      3  C   UNL     1      42.728  10.632 -10.498  1.00  0.00    -0.028 C 
ATOM      4  C   UNL     1      42.130  10.711 -11.694  1.00  0.00    -0.028 C 
BRANCH   4   5
ATOM      5  C   UNL     1      40.629  10.538 -11.880  1.00  0.00     0.011 C 
ATOM      6  C   UNL     1      40.283   9.057 -12.125  1.00  0.00     0.012 C 
BRANCH   5   7
ATOM      7  C   UNL     1      39.746  11.179 -10.746  1.00  0.00    -0.011 C 
ATOM      8  C   UNL     1      38.622  12.108 -11.242  1.00  0.00     0.008 C 
ATOM      9  C   UNL     1      39.188  10.096  -9.801  1.00  0.00     0.008 C 
ENDBRANCH   5   7
ENDBRANCH   4   5
ENDBRANCH   1   3
BRANCH   1  10
ATOM     10  C   UNL     1      43.659   8.152 -10.575  1.00  0.00     0.002 C 
ATOM     11  C   UNL     1      42.971   7.909 -11.922  1.00  0.00     0.005 C 
ATOM     12  C   UNL     1      42.880   7.181  -9.618  1.00  0.00    -0.023 C 
ATOM     13  C   UNL     1      42.930   6.401 -12.015  1.00  0.00     0.009 C 
ATOM     14  C   UNL     1      42.633   5.934 -10.554  1.00  0.00     0.021 C 
ATOM     15  C   UNL     1      41.500   7.772  -9.126  1.00  0.00     0.008 C 
ATOM     16  C   UNL     1      43.777   6.872  -8.411  1.00  0.00     0.012 C 
ATOM     17  C   UNL     1      41.268   5.281 -10.284  1.00  0.00    -0.063 C 
ATOM     18  C   UNL     1      40.578   6.730  -8.422  1.00  0.00     0.009 C 
ATOM     19  C   UNL     1      40.859   5.260  -8.839  1.00  0.00     0.025 C 
ATOM     20  C   UNL     1      40.392   4.896 -11.227  1.00  0.00    -0.000 C 
ATOM     21  C   UNL     1      39.775   4.182  -8.498  1.00  0.00    -0.005 C 
ATOM     22  C   UNL     1      39.108   4.274 -10.878  1.00  0.00    -0.000 C 
ATOM     23  C   UNL     1      38.789   3.954  -9.636  1.00  0.00    -0.061 C 
ATOM     24  C   UNL     1      40.499   2.810  -8.233  1.00  0.00     0.014 C 
ATOM     25  C   UNL     1      38.996   4.602  -7.217  1.00  0.00     0.017 C 
ATOM     26  C   UNL     1      37.753   2.868  -9.421  1.00  0.00     0.063 C 
ATOM     27  C   UNL     1      39.556   1.595  -8.099  1.00  0.00     0.033 C 
ATOM     28  C   UNL     1      38.492   1.513  -9.220  1.00  0.00     0.118 C 
BRANCH  28  29
ATOM     29  O   UNL     1      39.045   1.058 -10.431  1.00  0.00    -0.393 OA
ATOM     30  H   UNL     1      39.089   1.843 -11.026  1.00  0.00     0.210 HD
ENDBRANCH  28  29
ENDBRANCH   1  10
TORSDOF 5
ENDMDL
MODEL 5
REMARK VINA RESULT:    -4.112      2.029      3.486
REMARK INTER + INTRA:          -6.009
REMARK INTER:                  -6.107
REMARK INTRA:                   0.098
REMARK UNBOUND:                -0.815
REMARK SMILES CC(C)[C@H](C)C=C[C@@H](C)[C@@H]1CC[C@@H]2C3=CC=C4C[C@@H](O)CC[C@@]4(C)[C@@H]3CC[C@@]21C
REMARK SMILES IDX 8 1 9 2 7 3 6 4 4 5 5 6 2 7 1 8 3 9 10 10 11 11 28 12 12 13
REMARK SMILES IDX 13 14 27 15 29 16 14 17 26 18 25 19 15 20 23 21 16 22 17 23
REMARK SMILES IDX 22 24 24 25 18 26 21 27 19 28 20 29
REMARK H PARENT 20 30
REMARK Flexibility Score: inf
ROOT
ATOM      1  C   UNL     1      41.471  11.950   5.499  1.00  0.00     0.012 C 
ATOM      2  C   UNL     1      41.306  11.664   4.000  1.00  0.00     0.012 C 
ENDROOT
BRANCH   1   3
ATOM      3  C   UNL     1      42.740  11.193   5.942  1.00  0.00    -0.028 C 
ATOM      4  C   UNL     1      42.826  10.380   7.004  1.00  0.00    -0.028 C 
BRANCH   4   5
ATOM      5  C   UNL     1      43.270   8.928   6.898  1.00  0.00     0.011 C 
ATOM      6  C   UNL     1      44.124   8.535   8.119  1.00  0.00     0.012 C 
BRANCH   5   7
ATOM      7  C   UNL     1      42.109   7.902   6.623  1.00  0.00    -0.011 C 
ATOM      8  C   UNL     1      42.544   6.595   5.933  1.00  0.00     0.008 C 
ATOM      9  C   UNL     1      41.316   7.606   7.913  1.00  0.00     0.008 C 
ENDBRANCH   5   7
ENDBRANCH   4   5
ENDBRANCH   1   3
BRANCH   1  10
ATOM     10  C   UNL     1      40.140  11.584   6.284  1.00  0.00     0.002 C 
ATOM     11  C   UNL     1      40.300  10.988   7.686  1.00  0.00     0.005 C 
ATOM     12  C   UNL     1      39.107  10.608   5.618  1.00  0.00    -0.023 C 
ATOM     13  C   UNL     1      38.871  10.762   8.124  1.00  0.00     0.009 C 
ATOM     14  C   UNL     1      38.144  10.285   6.827  1.00  0.00     0.021 C 
ATOM     15  C   UNL     1      39.768   9.279   5.078  1.00  0.00     0.008 C 
ATOM     16  C   UNL     1      38.415  11.353   4.467  1.00  0.00     0.012 C 
ATOM     17  C   UNL     1      37.652   8.829   6.787  1.00  0.00    -0.063 C 
ATOM     18  C   UNL     1      38.742   8.175   4.683  1.00  0.00     0.009 C 
ATOM     19  C   UNL     1      37.373   8.299   5.409  1.00  0.00     0.025 C 
ATOM     20  C   UNL     1      37.612   7.994   7.839  1.00  0.00    -0.000 C 
ATOM     21  C   UNL     1      36.415   7.061   5.383  1.00  0.00    -0.005 C 
ATOM     22  C   UNL     1      37.121   6.616   7.712  1.00  0.00    -0.000 C 
ATOM     23  C   UNL     1      36.586   6.154   6.594  1.00  0.00    -0.061 C 
ATOM     24  C   UNL     1      34.929   7.577   5.401  1.00  0.00     0.014 C 
ATOM     25  C   UNL     1      36.652   6.235   4.084  1.00  0.00     0.017 C 
ATOM     26  C   UNL     1      35.641   4.973   6.690  1.00  0.00     0.063 C 
ATOM     27  C   UNL     1      33.863   6.478   5.598  1.00  0.00     0.033 C 
ATOM     28  C   UNL     1      34.183   5.512   6.764  1.00  0.00     0.118 C 
BRANCH  28  29
ATOM     29  O   UNL     1      33.929   6.103   8.016  1.00  0.00    -0.393 OA
ATOM     30  H   UNL     1      34.595   5.726   8.639  1.00  0.00     0.210 HD
ENDBRANCH  28  29
ENDBRANCH   1  10
TORSDOF 5
ENDMDL
MODEL 6
REMARK VINA RESULT:    -4.077      1.339      2.308
REMARK INTER + INTRA:          -5.965
REMARK INTER:                  -7.136
REMARK INTRA:                   1.171
REMARK UNBOUND:                -0.815
REMARK SMILES CC(C)[C@H](C)C=C[C@@H](C)[C@@H]1CC[C@@H]2C3=CC=C4C[C@@H](O)CC[C@@]4(C)[C@@H]3CC[C@@]21C
REMARK SMILES IDX 8 1 9 2 7 3 6 4 4 5 5 6 2 7 1 8 3 9 10 10 11 11 28 12 12 13
REMARK SMILES IDX 13 14 27 15 29 16 14 17 26 18 25 19 15 20 23 21 16 22 17 23
REMARK SMILES IDX 22 24 24 25 18 26 21 27 19 28 20 29
REMARK H PARENT 20 30
REMARK Flexibility Score: inf
ROOT
ATOM      1  C   UNL     1      40.997  11.307   4.204  1.00  0.00     0.012 C 
ATOM      2  C   UNL     1      39.720  12.125   4.439  1.00  0.00     0.012 C 
ENDROOT
BRANCH   1   3
ATOM      3  C   UNL     1      41.414  11.573   2.743  1.00  0.00    -0.028 C 
ATOM      4  C   UNL     1      41.668  10.631   1.826  1.00  0.00    -0.028 C 
BRANCH   4   5
ATOM      5  C   UNL     1      40.932  10.554   0.496  1.00  0.00     0.011 C 
ATOM      6  C   UNL     1      40.784  11.958  -0.120  1.00  0.00     0.012 C 
BRANCH   5   7
ATOM      7  C   UNL     1      41.521   9.511  -0.525  1.00  0.00    -0.011 C 
ATOM      8  C   UNL     1      41.717   8.090   0.035  1.00  0.00     0.008 C 
ATOM      9  C   UNL     1      40.692   9.481  -1.825  1.00  0.00     0.008 C 
ENDBRANCH   5   7
ENDBRANCH   4   5
ENDBRANCH   1   3
BRANCH   1  10
ATOM     10  C   UNL     1      40.760   9.784   4.587  1.00  0.00     0.002 C 
ATOM     11  C   UNL     1      40.658   8.784   3.432  1.00  0.00     0.005 C 
ATOM     12  C   UNL     1      39.520   9.406   5.471  1.00  0.00    -0.023 C 
ATOM     13  C   UNL     1      40.432   7.468   4.141  1.00  0.00     0.009 C 
ATOM     14  C   UNL     1      39.494   7.833   5.336  1.00  0.00     0.021 C 
ATOM     15  C   UNL     1      38.166  10.019   4.937  1.00  0.00     0.008 C 
ATOM     16  C   UNL     1      39.784   9.892   6.904  1.00  0.00     0.012 C 
ATOM     17  C   UNL     1      38.057   7.289   5.300  1.00  0.00    -0.063 C 
ATOM     18  C   UNL     1      36.891   9.430   5.613  1.00  0.00     0.009 C 
ATOM     19  C   UNL     1      37.093   8.006   6.200  1.00  0.00     0.025 C 
ATOM     20  C   UNL     1      37.598   6.366   4.437  1.00  0.00    -0.000 C 
ATOM     21  C   UNL     1      35.815   7.174   6.560  1.00  0.00    -0.005 C 
ATOM     22  C   UNL     1      36.207   5.899   4.476  1.00  0.00    -0.000 C 
ATOM     23  C   UNL     1      35.362   6.266   5.424  1.00  0.00    -0.061 C 
ATOM     24  C   UNL     1      36.150   6.245   7.785  1.00  0.00     0.014 C 
ATOM     25  C   UNL     1      34.652   8.132   6.950  1.00  0.00     0.017 C 
ATOM     26  C   UNL     1      34.178   5.365   5.715  1.00  0.00     0.063 C 
ATOM     27  C   UNL     1      35.064   5.203   8.125  1.00  0.00     0.033 C 
ATOM     28  C   UNL     1      34.556   4.418   6.892  1.00  0.00     0.118 C 
BRANCH  28  29
ATOM     29  O   UNL     1      35.482   3.444   6.475  1.00  0.00    -0.393 OA
ATOM     30  H   UNL     1      35.386   3.373   5.496  1.00  0.00     0.210 HD
ENDBRANCH  28  29
ENDBRANCH   1  10
TORSDOF 5
ENDMDL
MODEL 7
REMARK VINA RESULT:    -3.879      9.415     14.468
REMARK INTER + INTRA:          -5.714
REMARK INTER:                  -4.904
REMARK INTRA:                  -0.810
REMARK UNBOUND:                -0.815
REMARK SMILES CC(C)[C@H](C)C=C[C@@H](C)[C@@H]1CC[C@@H]2C3=CC=C4C[C@@H](O)CC[C@@]4(C)[C@@H]3CC[C@@]21C
REMARK SMILES IDX 8 1 9 2 7 3 6 4 4 5 5 6 2 7 1 8 3 9 10 10 11 11 28 12 12 13
REMARK SMILES IDX 13 14 27 15 29 16 14 17 26 18 25 19 15 20 23 21 16 22 17 23
REMARK SMILES IDX 22 24 24 25 18 26 21 27 19 28 20 29
REMARK H PARENT 20 30
REMARK Flexibility Score: inf
ROOT
ATOM      1  C   UNL     1      43.258   9.072  -7.950  1.00  0.00     0.012 C 
ATOM      2  C   UNL     1      44.125  10.158  -8.600  1.00  0.00     0.012 C 
ENDROOT
BRANCH   1   3
ATOM      3  C   UNL     1      43.844   8.842  -6.541  1.00  0.00    -0.028 C 
ATOM      4  C   UNL     1      43.403   9.416  -5.414  1.00  0.00    -0.028 C 
BRANCH   4   5
ATOM      5  C   UNL     1      42.939   8.615  -4.206  1.00  0.00     0.011 C 
ATOM      6  C   UNL     1      44.076   8.492  -3.173  1.00  0.00     0.012 C 
BRANCH   5   7
ATOM      7  C   UNL     1      41.594   9.115  -3.560  1.00  0.00    -0.011 C 
ATOM      8  C   UNL     1      40.321   8.766  -4.354  1.00  0.00     0.008 C 
ATOM      9  C   UNL     1      41.476   8.645  -2.096  1.00  0.00     0.008 C 
ENDBRANCH   5   7
ENDBRANCH   4   5
ENDBRANCH   1   3
BRANCH   1  10
ATOM     10  C   UNL     1      43.179   7.791  -8.882  1.00  0.00     0.002 C 
ATOM     11  C   UNL     1      42.861   8.024 -10.362  1.00  0.00     0.005 C 
ATOM     12  C   UNL     1      42.189   6.633  -8.504  1.00  0.00    -0.023 C 
ATOM     13  C   UNL     1      42.858   6.625 -10.935  1.00  0.00     0.009 C 
ATOM     14  C   UNL     1      42.201   5.756  -9.816  1.00  0.00     0.021 C 
ATOM     15  C   UNL     1      40.724   7.143  -8.204  1.00  0.00     0.008 C 
ATOM     16  C   UNL     1      42.749   5.903  -7.275  1.00  0.00     0.012 C 
ATOM     17  C   UNL     1      40.817   5.153 -10.109  1.00  0.00    -0.063 C 
ATOM     18  C   UNL     1      39.661   6.006  -8.115  1.00  0.00     0.009 C 
ATOM     19  C   UNL     1      40.052   4.718  -8.892  1.00  0.00     0.025 C 
ATOM     20  C   UNL     1      40.215   5.141 -11.311  1.00  0.00    -0.000 C 
ATOM     21  C   UNL     1      38.926   3.670  -9.186  1.00  0.00    -0.005 C 
ATOM     22  C   UNL     1      38.890   4.538 -11.503  1.00  0.00    -0.000 C 
ATOM     23  C   UNL     1      38.267   3.876 -10.544  1.00  0.00    -0.061 C 
ATOM     24  C   UNL     1      39.569   2.234  -9.200  1.00  0.00     0.014 C 
ATOM     25  C   UNL     1      37.841   3.732  -8.072  1.00  0.00     0.017 C 
ATOM     26  C   UNL     1      37.219   2.855 -10.944  1.00  0.00     0.063 C 
ATOM     27  C   UNL     1      38.634   1.109  -9.691  1.00  0.00     0.033 C 
ATOM     28  C   UNL     1      37.894   1.454 -11.006  1.00  0.00     0.118 C 
BRANCH  28  29
ATOM     29  O   UNL     1      38.742   1.354 -12.125  1.00  0.00    -0.393 OA
ATOM     30  H   UNL     1      38.488   2.090 -12.730  1.00  0.00     0.210 HD
ENDBRANCH  28  29
ENDBRANCH   1  10
TORSDOF 5
ENDMDL
MODEL 8
REMARK VINA RESULT:    -3.598     13.787     16.306
REMARK INTER + INTRA:          -5.360
REMARK INTER:                  -4.556
REMARK INTRA:                  -0.804
REMARK UNBOUND:                -0.815
REMARK SMILES CC(C)[C@H](C)C=C[C@@H](C)[C@@H]1CC[C@@H]2C3=CC=C4C[C@@H](O)CC[C@@]4(C)[C@@H]3CC[C@@]21C
REMARK SMILES IDX 8 1 9 2 7 3 6 4 4 5 5 6 2 7 1 8 3 9 10 10 11 11 28 12 12 13
REMARK SMILES IDX 13 14 27 15 29 16 14 17 26 18 25 19 15 20 23 21 16 22 17 23
REMARK SMILES IDX 22 24 24 25 18 26 21 27 19 28 20 29
REMARK H PARENT 20 30
REMARK Flexibility Score: inf
ROOT
ATOM      1  C   UNL     1      41.232   2.793  -7.369  1.00  0.00     0.012 C 
ATOM      2  C   UNL     1      42.120   2.182  -6.277  1.00  0.00     0.012 C 
ENDROOT
BRANCH   1   3
ATOM      3  C   UNL     1      40.455   1.618  -7.997  1.00  0.00    -0.028 C 
ATOM      4  C   UNL     1      39.254   1.709  -8.584  1.00  0.00    -0.028 C 
BRANCH   4   5
ATOM      5  C   UNL     1      39.001   1.269 -10.019  1.00  0.00     0.011 C 
ATOM      6  C   UNL     1      38.814  -0.259 -10.090  1.00  0.00     0.012 C 
BRANCH   5   7
ATOM      7  C   UNL     1      37.848   2.049 -10.754  1.00  0.00    -0.011 C 
ATOM      8  C   UNL     1      36.962   2.915  -9.840  1.00  0.00     0.008 C 
ATOM      9  C   UNL     1      38.403   2.877 -11.930  1.00  0.00     0.008 C 
ENDBRANCH   5   7
ENDBRANCH   4   5
ENDBRANCH   1   3
BRANCH   1  10
ATOM     10  C   UNL     1      42.104   3.659  -8.374  1.00  0.00     0.002 C 
ATOM     11  C   UNL     1      43.470   4.140  -7.876  1.00  0.00     0.005 C 
ATOM     12  C   UNL     1      41.487   4.968  -8.983  1.00  0.00    -0.023 C 
ATOM     13  C   UNL     1      44.007   4.919  -9.054  1.00  0.00     0.009 C 
ATOM     14  C   UNL     1      42.754   5.649  -9.634  1.00  0.00     0.021 C 
ATOM     15  C   UNL     1      40.857   5.922  -7.892  1.00  0.00     0.008 C 
ATOM     16  C   UNL     1      40.415   4.565 -10.006  1.00  0.00     0.012 C 
ATOM     17  C   UNL     1      42.705   7.180  -9.506  1.00  0.00    -0.063 C 
ATOM     18  C   UNL     1      40.505   7.346  -8.421  1.00  0.00     0.009 C 
ATOM     19  C   UNL     1      41.336   7.779  -9.661  1.00  0.00     0.025 C 
ATOM     20  C   UNL     1      43.730   7.960  -9.123  1.00  0.00    -0.000 C 
ATOM     21  C   UNL     1      41.343   9.297 -10.044  1.00  0.00    -0.005 C 
ATOM     22  C   UNL     1      43.597   9.419  -9.031  1.00  0.00    -0.000 C 
ATOM     23  C   UNL     1      42.509  10.058  -9.427  1.00  0.00    -0.061 C 
ATOM     24  C   UNL     1      41.489   9.419 -11.606  1.00  0.00     0.014 C 
ATOM     25  C   UNL     1      40.005   9.960  -9.604  1.00  0.00     0.017 C 
ATOM     26  C   UNL     1      42.638  11.519  -9.811  1.00  0.00     0.063 C 
ATOM     27  C   UNL     1      41.731  10.852 -12.125  1.00  0.00     0.033 C 
ATOM     28  C   UNL     1      42.839  11.608 -11.352  1.00  0.00     0.118 C 
BRANCH  28  29
ATOM     29  O   UNL     1      44.125  11.167 -11.717  1.00  0.00    -0.393 OA
ATOM     30  H   UNL     1      44.706  11.338 -10.939  1.00  0.00     0.210 HD
ENDBRANCH  28  29
ENDBRANCH   1  10
TORSDOF 5
ENDMDL
MODEL 9
REMARK VINA RESULT:    -3.215      3.190      7.725
REMARK INTER + INTRA:          -4.876
REMARK INTER:                  -5.126
REMARK INTRA:                   0.250
REMARK UNBOUND:                -0.815
REMARK SMILES CC(C)[C@H](C)C=C[C@@H](C)[C@@H]1CC[C@@H]2C3=CC=C4C[C@@H](O)CC[C@@]4(C)[C@@H]3CC[C@@]21C
REMARK SMILES IDX 8 1 9 2 7 3 6 4 4 5 5 6 2 7 1 8 3 9 10 10 11 11 28 12 12 13
REMARK SMILES IDX 13 14 27 15 29 16 14 17 26 18 25 19 15 20 23 21 16 22 17 23
REMARK SMILES IDX 22 24 24 25 18 26 21 27 19 28 20 29
REMARK H PARENT 20 30
REMARK Flexibility Score: inf
ROOT
ATOM      1  C   UNL     1      34.784   8.192   3.994  1.00  0.00     0.012 C 
ATOM      2  C   UNL     1      33.671   8.903   3.213  1.00  0.00     0.012 C 
ENDROOT
BRANCH   1   3
ATOM      3  C   UNL     1      34.090   7.099   4.831  1.00  0.00    -0.028 C 
ATOM      4  C   UNL     1      34.715   6.113   5.490  1.00  0.00    -0.028 C 
BRANCH   4   5
ATOM      5  C   UNL     1      34.552   5.887   6.986  1.00  0.00     0.011 C 
ATOM      6  C   UNL     1      33.090   6.126   7.411  1.00  0.00     0.012 C 
BRANCH   5   7
ATOM      7  C   UNL     1      35.110   4.512   7.510  1.00  0.00    -0.011 C 
ATOM      8  C   UNL     1      35.055   3.356   6.493  1.00  0.00     0.008 C 
ATOM      9  C   UNL     1      36.533   4.675   8.082  1.00  0.00     0.008 C 
ENDBRANCH   5   7
ENDBRANCH   4   5
ENDBRANCH   1   3
BRANCH   1  10
ATOM     10  C   UNL     1      35.647   9.244   4.812  1.00  0.00     0.002 C 
ATOM     11  C   UNL     1      36.015  10.549   4.099  1.00  0.00     0.005 C 
ATOM     12  C   UNL     1      37.023   8.792   5.418  1.00  0.00    -0.023 C 
ATOM     13  C   UNL     1      36.821  11.290   5.140  1.00  0.00     0.009 C 
ATOM     14  C   UNL     1      37.658  10.174   5.843  1.00  0.00     0.021 C 
ATOM     15  C   UNL     1      37.954   8.066   4.370  1.00  0.00     0.008 C 
ATOM     16  C   UNL     1      36.743   7.858   6.604  1.00  0.00     0.012 C 
ATOM     17  C   UNL     1      39.180  10.190   5.628  1.00  0.00    -0.063 C 
ATOM     18  C   UNL     1      39.423   7.870   4.853  1.00  0.00     0.009 C 
ATOM     19  C   UNL     1      39.870   8.892   5.935  1.00  0.00     0.025 C 
ATOM     20  C   UNL     1      39.872  11.191   5.058  1.00  0.00    -0.000 C 
ATOM     21  C   UNL     1      41.403   9.035   6.219  1.00  0.00    -0.005 C 
ATOM     22  C   UNL     1      41.330  11.125   4.896  1.00  0.00    -0.000 C 
ATOM     23  C   UNL     1      42.056  10.141   5.400  1.00  0.00    -0.061 C 
ATOM     24  C   UNL     1      41.600   9.410   7.735  1.00  0.00     0.014 C 
ATOM     25  C   UNL     1      42.124   7.686   5.930  1.00  0.00     0.017 C 
ATOM     26  C   UNL     1      43.524  10.402   5.671  1.00  0.00     0.063 C 
ATOM     27  C   UNL     1      43.041   9.801   8.125  1.00  0.00     0.033 C 
ATOM     28  C   UNL     1      43.684  10.825   7.160  1.00  0.00     0.118 C 
BRANCH  28  29
ATOM     29  O   UNL     1      43.183  12.124   7.369  1.00  0.00    -0.393 OA
ATOM     30  H   UNL     1      42.270  12.131   6.997  1.00  0.00     0.210 HD
ENDBRANCH  28  29
ENDBRANCH   1  10
TORSDOF 5
ENDMDL
