MODEL 1
REMARK VINA RESULT:    42.510      0.000      0.000
REMARK INTER + INTRA:          75.843
REMARK INTER:                  62.391
REMARK INTRA:                  13.452
REMARK UNBOUND:                13.452
REMARK SMILES Cc1cc2c(C(C)C)c(O)c(O)c(C=O)c2c(O)c1-c1c(C)cc2c(C(C)C)c(O)c(O)c(C=O)c2c1O
REMARK SMILES IDX 1 1 2 2 3 3 4 4 16 5 13 6 11 7 9 8 5 9 17 10 19 11 20 12
REMARK SMILES IDX 37 13 21 14 36 15 23 16 22 17 24 18 33 19 25 20 31 21 29 22
REMARK SMILES IDX 38 23 34 25 35 26 26 27 27 28 28 29 32 30 30 32 18 34 6 36
REMARK SMILES IDX 7 37 8 38 14 39 15 40 10 41 12 43
REMARK H PARENT 38 24 32 31 30 33 18 35 10 42 12 44
REMARK Flexibility Score: inf
ROOT
ATOM      1  C   UNL     1      14.964 177.070  46.583  1.00  0.00     0.045 C 
ATOM      2  C   UNL     1      15.141 177.361  48.056  1.00  0.00    -0.039 A 
ATOM      3  C   UNL     1      16.434 177.328  48.575  1.00  0.00     0.013 A 
ATOM      4  C   UNL     1      16.697 177.502  49.952  1.00  0.00    -0.006 A 
ATOM      5  C   UNL     1      15.596 177.712  50.842  1.00  0.00     0.039 A 
ATOM      6  C   UNL     1      15.844 177.752  52.249  1.00  0.00     0.072 A 
ATOM      7  C   UNL     1      17.148 177.523  52.735  1.00  0.00     0.169 A 
ATOM      8  C   UNL     1      18.210 177.309  51.855  1.00  0.00     0.162 A 
ATOM      9  C   UNL     1      18.031 177.421  50.460  1.00  0.00     0.008 A 
ATOM     10  C   UNL     1      14.280 177.812  50.294  1.00  0.00     0.132 A 
ATOM     11  C   UNL     1      14.055 177.586  48.920  1.00  0.00     0.031 A 
ENDROOT
BRANCH  11  12
ATOM     12  C   UNL     1      12.663 177.477  48.411  1.00  0.00     0.031 A 
ATOM     13  C   UNL     1      12.416 177.118  47.068  1.00  0.00     0.132 A 
ATOM     14  C   UNL     1      11.586 177.729  49.279  1.00  0.00    -0.039 A 
ATOM     15  C   UNL     1      11.077 177.007  46.586  1.00  0.00     0.039 A 
ATOM     16  C   UNL     1      10.279 177.536  48.828  1.00  0.00     0.013 A 
ATOM     17  C   UNL     1      11.807 178.101  50.726  1.00  0.00     0.045 C 
ATOM     18  C   UNL     1      10.000 177.103  47.512  1.00  0.00    -0.006 A 
ATOM     19  C   UNL     1      10.784 176.789  45.208  1.00  0.00     0.072 A 
ATOM     20  C   UNL     1       8.669 176.784  47.102  1.00  0.00     0.008 A 
ATOM     21  C   UNL     1       9.455 176.622  44.786  1.00  0.00     0.169 A 
ATOM     22  C   UNL     1       8.400 176.621  45.723  1.00  0.00     0.162 A 
BRANCH  13  23
ATOM     23  O   UNL     1      13.497 176.838  46.229  1.00  0.00    -0.507 OA
ATOM     24  H   UNL     1      13.954 175.936  46.180  1.00  0.00     0.293 HD
ENDBRANCH  13  23
BRANCH  19  25
ATOM     25  C   UNL     1      11.826 176.850  44.160  1.00  0.00     0.264 C 
ATOM     26  O   UNL     1      12.549 177.876  44.033  1.00  0.00    -0.298 OA
ENDBRANCH  19  25
BRANCH  20  27
ATOM     27  C   UNL     1       7.521 176.629  48.122  1.00  0.00     0.017 C 
ATOM     28  C   UNL     1       6.533 177.789  48.014  1.00  0.00     0.012 C 
ATOM     29  C   UNL     1       6.800 175.267  48.054  1.00  0.00     0.012 C 
ENDBRANCH  20  27
BRANCH  21  30
ATOM     30  O   UNL     1       9.213 176.486  43.411  1.00  0.00    -0.504 OA
ATOM     31  H   UNL     1       9.187 177.244  42.747  1.00  0.00     0.293 HD
ENDBRANCH  21  30
BRANCH  22  32
ATOM     32  O   UNL     1       7.070 176.480  45.310  1.00  0.00    -0.504 OA
ATOM     33  H   UNL     1       6.681 176.821  44.443  1.00  0.00     0.293 HD
ENDBRANCH  22  32
ENDBRANCH  11  12
BRANCH  10  34
ATOM     34  O   UNL     1      13.191 178.124  51.112  1.00  0.00    -0.507 OA
ATOM     35  H   UNL     1      13.210 178.082  52.121  1.00  0.00     0.293 HD
ENDBRANCH  10  34
BRANCH   9  36
ATOM     36  C   UNL     1      19.256 177.373  49.527  1.00  0.00     0.017 C 
ATOM     37  C   UNL     1      20.466 178.062  50.179  1.00  0.00     0.012 C 
ATOM     38  C   UNL     1      18.983 177.928  48.114  1.00  0.00     0.012 C 
ENDBRANCH   9  36
BRANCH   6  39
ATOM     39  C   UNL     1      14.759 177.962  53.230  1.00  0.00     0.264 C 
ATOM     40  O   UNL     1      13.721 177.252  53.195  1.00  0.00    -0.298 OA
ENDBRANCH   6  39
BRANCH   8  41
ATOM     41  O   UNL     1      19.467 176.975  52.375  1.00  0.00    -0.504 OA
ATOM     42  H   UNL     1      20.240 176.672  51.788  1.00  0.00     0.293 HD
ENDBRANCH   8  41
BRANCH   7  43
ATOM     43  O   UNL     1      17.427 177.527  54.107  1.00  0.00    -0.504 OA
ATOM     44  H   UNL     1      16.785 177.855  54.817  1.00  0.00     0.293 HD
ENDBRANCH   7  43
TORSDOF 11
ENDMDL
MODEL 2
REMARK VINA RESULT:    44.129      2.018      3.090
REMARK INTER + INTRA:          78.219
REMARK INTER:                  61.402
REMARK INTRA:                  16.818
REMARK UNBOUND:                13.452
REMARK SMILES Cc1cc2c(C(C)C)c(O)c(O)c(C=O)c2c(O)c1-c1c(C)cc2c(C(C)C)c(O)c(O)c(C=O)c2c1O
REMARK SMILES IDX 1 1 2 2 3 3 4 4 16 5 13 6 11 7 9 8 5 9 17 10 19 11 20 12
REMARK SMILES IDX 37 13 21 14 36 15 23 16 22 17 24 18 33 19 25 20 31 21 29 22
REMARK SMILES IDX 38 23 34 25 35 26 26 27 27 28 28 29 32 30 30 32 18 34 6 36
REMARK SMILES IDX 7 37 8 38 14 39 15 40 10 41 12 43
REMARK H PARENT 38 24 32 31 30 33 18 35 10 42 12 44
REMARK Flexibility Score: inf
ROOT
ATOM      1  C   UNL     1      14.279 177.508  47.723  1.00  0.00     0.045 C 
ATOM      2  C   UNL     1      15.135 177.576  48.967  1.00  0.00    -0.039 A 
ATOM      3  C   UNL     1      16.503 177.349  48.828  1.00  0.00     0.013 A 
ATOM      4  C   UNL     1      17.375 177.305  49.939  1.00  0.00    -0.006 A 
ATOM      5  C   UNL     1      16.832 177.494  51.249  1.00  0.00     0.039 A 
ATOM      6  C   UNL     1      17.684 177.316  52.383  1.00  0.00     0.072 A 
ATOM      7  C   UNL     1      19.018 176.900  52.194  1.00  0.00     0.169 A 
ATOM      8  C   UNL     1      19.531 176.709  50.911  1.00  0.00     0.162 A 
ATOM      9  C   UNL     1      18.768 177.029  49.768  1.00  0.00     0.008 A 
ATOM     10  C   UNL     1      15.439 177.793  51.378  1.00  0.00     0.132 A 
ATOM     11  C   UNL     1      14.596 177.782  50.249  1.00  0.00     0.031 A 
ENDROOT
BRANCH  11  12
ATOM     12  C   UNL     1      13.123 177.877  50.430  1.00  0.00     0.031 A 
ATOM     13  C   UNL     1      12.256 177.796  49.319  1.00  0.00     0.132 A 
ATOM     14  C   UNL     1      12.593 178.044  51.722  1.00  0.00    -0.039 A 
ATOM     15  C   UNL     1      10.843 177.879  49.499  1.00  0.00     0.039 A 
ATOM     16  C   UNL     1      11.209 178.039  51.904  1.00  0.00     0.013 A 
ATOM     17  C   UNL     1      13.486 178.121  52.938  1.00  0.00     0.045 C 
ATOM     18  C   UNL     1      10.315 177.883  50.822  1.00  0.00    -0.006 A 
ATOM     19  C   UNL     1       9.941 177.946  48.397  1.00  0.00     0.072 A 
ATOM     20  C   UNL     1       8.908 177.749  51.034  1.00  0.00     0.008 A 
ATOM     21  C   UNL     1       8.555 177.964  48.618  1.00  0.00     0.169 A 
ATOM     22  C   UNL     1       8.036 177.868  49.927  1.00  0.00     0.162 A 
BRANCH  13  23
ATOM     23  O   UNL     1      12.798 177.595  48.046  1.00  0.00    -0.507 OA
ATOM     24  H   UNL     1      13.330 178.295  47.544  1.00  0.00     0.293 HD
ENDBRANCH  13  23
BRANCH  19  25
ATOM     25  C   UNL     1      10.408 178.123  47.005  1.00  0.00     0.264 C 
ATOM     26  O   UNL     1       9.642 177.870  46.034  1.00  0.00    -0.298 OA
ENDBRANCH  19  25
BRANCH  20  27
ATOM     27  C   UNL     1       8.321 177.494  52.438  1.00  0.00     0.017 C 
ATOM     28  C   UNL     1       8.029 176.008  52.648  1.00  0.00     0.012 C 
ATOM     29  C   UNL     1       9.173 178.067  53.589  1.00  0.00     0.012 C 
ENDBRANCH  20  27
BRANCH  21  30
ATOM     30  O   UNL     1       7.712 178.106  47.505  1.00  0.00    -0.504 OA
ATOM     31  H   UNL     1       7.951 178.588  46.653  1.00  0.00     0.293 HD
ENDBRANCH  21  30
BRANCH  22  32
ATOM     32  O   UNL     1       6.656 177.909  50.160  1.00  0.00    -0.504 OA
ATOM     33  H   UNL     1       6.209 178.245  51.000  1.00  0.00     0.293 HD
ENDBRANCH  22  32
ENDBRANCH  11  12
BRANCH  10  34
ATOM     34  O   UNL     1      14.889 178.092  52.627  1.00  0.00    -0.507 OA
ATOM     35  H   UNL     1      14.428 178.963  52.848  1.00  0.00     0.293 HD
ENDBRANCH  10  34
BRANCH   9  36
ATOM     36  C   UNL     1      19.426 176.993  48.376  1.00  0.00     0.017 C 
ATOM     37  C   UNL     1      18.378 176.722  47.283  1.00  0.00     0.012 C 
ATOM     38  C   UNL     1      20.613 176.014  48.275  1.00  0.00     0.012 C 
ENDBRANCH   9  36
BRANCH   6  39
ATOM     39  C   UNL     1      17.195 177.492  53.766  1.00  0.00     0.264 C 
ATOM     40  O   UNL     1      15.986 177.768  53.985  1.00  0.00    -0.298 OA
ENDBRANCH   6  39
BRANCH   8  41
ATOM     41  O   UNL     1      20.824 176.188  50.765  1.00  0.00    -0.504 OA
ATOM     42  H   UNL     1      21.004 175.273  50.360  1.00  0.00     0.293 HD
ENDBRANCH   8  41
BRANCH   7  43
ATOM     43  O   UNL     1      19.877 176.688  53.279  1.00  0.00    -0.504 OA
ATOM     44  H   UNL     1      20.620 177.319  53.549  1.00  0.00     0.293 HD
ENDBRANCH   7  43
TORSDOF 11
ENDMDL
MODEL 3
REMARK VINA RESULT:    44.896      2.885     10.278
REMARK INTER + INTRA:          79.345
REMARK INTER:                  76.412
REMARK INTRA:                   2.933
REMARK UNBOUND:                13.452
REMARK SMILES Cc1cc2c(C(C)C)c(O)c(O)c(C=O)c2c(O)c1-c1c(C)cc2c(C(C)C)c(O)c(O)c(C=O)c2c1O
REMARK SMILES IDX 1 1 2 2 3 3 4 4 16 5 13 6 11 7 9 8 5 9 17 10 19 11 20 12
REMARK SMILES IDX 37 13 21 14 36 15 23 16 22 17 24 18 33 19 25 20 31 21 29 22
REMARK SMILES IDX 38 23 34 25 35 26 26 27 27 28 28 29 32 30 30 32 18 34 6 36
REMARK SMILES IDX 7 37 8 38 14 39 15 40 10 41 12 43
REMARK H PARENT 38 24 32 31 30 33 18 35 10 42 12 44
REMARK Flexibility Score: inf
ROOT
ATOM      1  C   UNL     1       9.814 173.209  45.689  1.00  0.00     0.045 C 
ATOM      2  C   UNL     1       8.599 174.096  45.842  1.00  0.00    -0.039 A 
ATOM      3  C   UNL     1       7.394 173.647  45.303  1.00  0.00     0.013 A 
ATOM      4  C   UNL     1       6.223 174.436  45.318  1.00  0.00    -0.006 A 
ATOM      5  C   UNL     1       6.279 175.742  45.901  1.00  0.00     0.039 A 
ATOM      6  C   UNL     1       5.137 176.595  45.797  1.00  0.00     0.072 A 
ATOM      7  C   UNL     1       4.006 176.161  45.074  1.00  0.00     0.169 A 
ATOM      8  C   UNL     1       3.969 174.889  44.502  1.00  0.00     0.162 A 
ATOM      9  C   UNL     1       5.013 173.964  44.720  1.00  0.00     0.008 A 
ATOM     10  C   UNL     1       7.500 176.169  46.511  1.00  0.00     0.132 A 
ATOM     11  C   UNL     1       8.659 175.369  46.434  1.00  0.00     0.031 A 
ENDROOT
BRANCH  11  12
ATOM     12  C   UNL     1       9.965 175.923  46.879  1.00  0.00     0.031 A 
ATOM     13  C   UNL     1      10.194 176.214  48.241  1.00  0.00     0.132 A 
ATOM     14  C   UNL     1      10.979 176.153  45.932  1.00  0.00    -0.039 A 
ATOM     15  C   UNL     1      11.453 176.738  48.665  1.00  0.00     0.039 A 
ATOM     16  C   UNL     1      12.236 176.583  46.361  1.00  0.00     0.013 A 
ATOM     17  C   UNL     1      10.778 175.841  44.468  1.00  0.00     0.045 C 
ATOM     18  C   UNL     1      12.521 176.810  47.726  1.00  0.00    -0.006 A 
ATOM     19  C   UNL     1      11.679 177.179  50.001  1.00  0.00     0.072 A 
ATOM     20  C   UNL     1      13.844 177.124  48.166  1.00  0.00     0.008 A 
ATOM     21  C   UNL     1      12.950 177.628  50.392  1.00  0.00     0.169 A 
ATOM     22  C   UNL     1      14.029 177.605  49.483  1.00  0.00     0.162 A 
BRANCH  13  23
ATOM     23  O   UNL     1       9.188 175.948  49.173  1.00  0.00    -0.507 OA
ATOM     24  H   UNL     1       8.756 176.656  49.754  1.00  0.00     0.293 HD
ENDBRANCH  13  23
BRANCH  19  25
ATOM     25  C   UNL     1      10.583 177.301  50.988  1.00  0.00     0.264 C 
ATOM     26  O   UNL     1       9.633 178.108  50.795  1.00  0.00    -0.298 OA
ENDBRANCH  19  25
BRANCH  20  27
ATOM     27  C   UNL     1      15.066 176.966  47.237  1.00  0.00     0.017 C 
ATOM     28  C   UNL     1      16.368 177.211  47.999  1.00  0.00     0.012 C 
ATOM     29  C   UNL     1      15.105 175.626  46.473  1.00  0.00     0.012 C 
ENDBRANCH  20  27
BRANCH  21  30
ATOM     30  O   UNL     1      13.102 178.122  51.696  1.00  0.00    -0.504 OA
ATOM     31  H   UNL     1      13.814 177.832  52.348  1.00  0.00     0.293 HD
ENDBRANCH  21  30
BRANCH  22  32
ATOM     32  O   UNL     1      15.295 178.074  49.855  1.00  0.00    -0.504 OA
ATOM     33  H   UNL     1      16.072 178.233  49.231  1.00  0.00     0.293 HD
ENDBRANCH  22  32
ENDBRANCH  11  12
BRANCH  10  34
ATOM     34  O   UNL     1       7.568 177.390  47.186  1.00  0.00    -0.507 OA
ATOM     35  H   UNL     1       8.386 177.983  47.204  1.00  0.00     0.293 HD
ENDBRANCH  10  34
BRANCH   9  36
ATOM     36  C   UNL     1       4.855 172.509  44.241  1.00  0.00     0.017 C 
ATOM     37  C   UNL     1       3.370 172.153  44.057  1.00  0.00     0.012 C 
ATOM     38  C   UNL     1       5.577 171.479  45.135  1.00  0.00     0.012 C 
ENDBRANCH   9  36
BRANCH   6  39
ATOM     39  C   UNL     1       5.121 177.956  46.370  1.00  0.00     0.264 C 
ATOM     40  O   UNL     1       4.972 178.125  47.609  1.00  0.00    -0.298 OA
ENDBRANCH   6  39
BRANCH   8  41
ATOM     41  O   UNL     1       2.878 174.535  43.698  1.00  0.00    -0.504 OA
ATOM     42  H   UNL     1       1.944 174.910  43.846  1.00  0.00     0.293 HD
ENDBRANCH   8  41
BRANCH   7  43
ATOM     43  O   UNL     1       2.878 176.977  44.925  1.00  0.00    -0.504 OA
ATOM     44  H   UNL     1       2.104 176.771  44.306  1.00  0.00     0.293 HD
ENDBRANCH   7  43
TORSDOF 11
ENDMDL
