MODEL 1
REMARK VINA RESULT:    -5.461      0.000      0.000
REMARK INTER + INTRA:          -5.940
REMARK INTER:                  -5.940
REMARK INTRA:                   0.000
REMARK UNBOUND:                 0.000
REMARK SMILES Cc1cc(O)c2c(c1)C(=O)c1cc(O)cc(O)c1C2=O
REMARK SMILES IDX 1 1 2 2 8 3 7 4 6 5 4 6 3 7 19 8 20 9 18 10 11 11 9 12 10 13
REMARK SMILES IDX 12 14 13 15 15 16 16 17 5 18 17 20 14 22
REMARK H PARENT 5 19 17 21 14 23
REMARK Flexibility Score: inf
ROOT
ATOM      1  C   UNL     1      16.890  37.637   6.956  1.00  0.00     0.044 C 
ATOM      2  C   UNL     1      15.667  36.774   6.847  1.00  0.00    -0.047 A 
ATOM      3  C   UNL     1      14.432  37.340   6.516  1.00  0.00     0.016 A 
ATOM      4  C   UNL     1      13.274  36.546   6.444  1.00  0.00     0.038 A 
ATOM      5  C   UNL     1      13.352  35.166   6.729  1.00  0.00     0.076 A 
ATOM      6  C   UNL     1      14.599  34.600   7.077  1.00  0.00     0.127 A 
ATOM      7  C   UNL     1      15.742  35.407   7.139  1.00  0.00     0.050 A 
ATOM      8  C   UNL     1      12.110  34.349   6.688  1.00  0.00     0.201 C 
ATOM      9  O   UNL     1      12.083  33.233   7.274  1.00  0.00    -0.288 OA
ATOM     10  C   UNL     1      10.874  34.894   6.060  1.00  0.00     0.076 A 
ATOM     11  C   UNL     1      10.792  36.289   5.840  1.00  0.00     0.041 A 
ATOM     12  C   UNL     1      11.974  37.151   6.078  1.00  0.00     0.194 C 
ATOM     13  O   UNL     1      11.876  38.404   5.948  1.00  0.00    -0.289 OA
ATOM     14  C   UNL     1       9.588  36.857   5.386  1.00  0.00     0.059 A 
ATOM     15  C   UNL     1       8.476  36.055   5.135  1.00  0.00     0.120 A 
ATOM     16  C   UNL     1       8.564  34.672   5.303  1.00  0.00     0.093 A 
ATOM     17  C   UNL     1       9.758  34.078   5.727  1.00  0.00     0.131 A 
ENDROOT
BRANCH   6  18
ATOM     18  O   UNL     1      14.710  33.237   7.351  1.00  0.00    -0.507 OA
ATOM     19  H   UNL     1      14.481  32.532   6.661  1.00  0.00     0.293 HD
ENDBRANCH   6  18
BRANCH  17  20
ATOM     20  O   UNL     1       9.795  32.683   5.767  1.00  0.00    -0.507 OA
ATOM     21  H   UNL     1      10.388  32.120   5.172  1.00  0.00     0.293 HD
ENDBRANCH  17  20
BRANCH  15  22
ATOM     22  O   UNL     1       7.289  36.643   4.702  1.00  0.00    -0.508 OA
ATOM     23  H   UNL     1       7.257  37.225   3.873  1.00  0.00     0.293 HD
ENDBRANCH  15  22
TORSDOF 3
ENDMDL
MODEL 2
REMARK VINA RESULT:    -5.268      2.510      4.741
REMARK INTER + INTRA:          -5.729
REMARK INTER:                  -5.729
REMARK INTRA:                   0.000
REMARK UNBOUND:                 0.000
REMARK SMILES Cc1cc(O)c2c(c1)C(=O)c1cc(O)cc(O)c1C2=O
REMARK SMILES IDX 1 1 2 2 8 3 7 4 6 5 4 6 3 7 19 8 20 9 18 10 11 11 9 12 10 13
REMARK SMILES IDX 12 14 13 15 15 16 16 17 5 18 17 20 14 22
REMARK H PARENT 5 19 17 21 14 23
REMARK Flexibility Score: inf
ROOT
ATOM      1  C   UNL     1       9.835  29.606   6.422  1.00  0.00     0.044 C 
ATOM      2  C   UNL     1      10.309  31.028   6.338  1.00  0.00    -0.047 A 
ATOM      3  C   UNL     1       9.447  32.032   5.883  1.00  0.00     0.016 A 
ATOM      4  C   UNL     1       9.890  33.361   5.769  1.00  0.00     0.038 A 
ATOM      5  C   UNL     1      11.224  33.686   6.095  1.00  0.00     0.076 A 
ATOM      6  C   UNL     1      12.096  32.667   6.542  1.00  0.00     0.127 A 
ATOM      7  C   UNL     1      11.634  31.349   6.653  1.00  0.00     0.050 A 
ATOM      8  C   UNL     1      11.688  35.089   5.930  1.00  0.00     0.201 C 
ATOM      9  O   UNL     1      12.923  35.330   5.865  1.00  0.00    -0.288 OA
ATOM     10  C   UNL     1      10.700  36.186   5.729  1.00  0.00     0.076 A 
ATOM     11  C   UNL     1       9.384  35.841   5.340  1.00  0.00     0.041 A 
ATOM     12  C   UNL     1       8.967  34.420   5.301  1.00  0.00     0.194 C 
ATOM     13  O   UNL     1       7.815  34.112   4.887  1.00  0.00    -0.289 OA
ATOM     14  C   UNL     1       8.467  36.852   4.999  1.00  0.00     0.059 A 
ATOM     15  C   UNL     1       8.837  38.194   5.055  1.00  0.00     0.120 A 
ATOM     16  C   UNL     1      10.119  38.544   5.484  1.00  0.00     0.093 A 
ATOM     17  C   UNL     1      11.042  37.560   5.856  1.00  0.00     0.131 A 
ENDROOT
BRANCH   6  18
ATOM     18  O   UNL     1      13.416  32.958   6.885  1.00  0.00    -0.507 OA
ATOM     19  H   UNL     1      13.931  32.396   7.551  1.00  0.00     0.293 HD
ENDBRANCH   6  18
BRANCH  17  20
ATOM     20  O   UNL     1      12.263  37.997   6.374  1.00  0.00    -0.507 OA
ATOM     21  H   UNL     1      12.599  38.947   6.295  1.00  0.00     0.293 HD
ENDBRANCH  17  20
BRANCH  15  22
ATOM     22  O   UNL     1       7.916  39.176   4.695  1.00  0.00    -0.508 OA
ATOM     23  H   UNL     1       7.031  39.275   5.178  1.00  0.00     0.293 HD
ENDBRANCH  15  22
TORSDOF 3
ENDMDL
MODEL 3
REMARK VINA RESULT:    -5.185      7.459      8.933
REMARK INTER + INTRA:          -5.640
REMARK INTER:                  -5.640
REMARK INTRA:                   0.000
REMARK UNBOUND:                 0.000
REMARK SMILES Cc1cc(O)c2c(c1)C(=O)c1cc(O)cc(O)c1C2=O
REMARK SMILES IDX 1 1 2 2 8 3 7 4 6 5 4 6 3 7 19 8 20 9 18 10 11 11 9 12 10 13
REMARK SMILES IDX 12 14 13 15 15 16 16 17 5 18 17 20 14 22
REMARK H PARENT 5 19 17 21 14 23
REMARK Flexibility Score: inf
ROOT
ATOM      1  C   UNL     1      15.822  28.756   3.835  1.00  0.00     0.044 C 
ATOM      2  C   UNL     1      14.619  27.937   4.202  1.00  0.00    -0.047 A 
ATOM      3  C   UNL     1      13.505  28.544   4.792  1.00  0.00     0.016 A 
ATOM      4  C   UNL     1      12.387  27.781   5.170  1.00  0.00     0.038 A 
ATOM      5  C   UNL     1      12.393  26.384   4.974  1.00  0.00     0.076 A 
ATOM      6  C   UNL     1      13.525  25.771   4.390  1.00  0.00     0.127 A 
ATOM      7  C   UNL     1      14.629  26.549   4.017  1.00  0.00     0.050 A 
ATOM      8  C   UNL     1      11.219  25.586   5.417  1.00  0.00     0.201 C 
ATOM      9  O   UNL     1      11.341  24.343   5.585  1.00  0.00    -0.288 OA
ATOM     10  C   UNL     1       9.941  26.266   5.769  1.00  0.00     0.076 A 
ATOM     11  C   UNL     1       9.968  27.658   6.023  1.00  0.00     0.041 A 
ATOM     12  C   UNL     1      11.207  28.434   5.779  1.00  0.00     0.194 C 
ATOM     13  O   UNL     1      11.249  29.662   6.074  1.00  0.00    -0.289 OA
ATOM     14  C   UNL     1       8.815  28.305   6.499  1.00  0.00     0.059 A 
ATOM     15  C   UNL     1       7.636  27.592   6.709  1.00  0.00     0.120 A 
ATOM     16  C   UNL     1       7.588  26.229   6.415  1.00  0.00     0.093 A 
ATOM     17  C   UNL     1       8.712  25.565   5.913  1.00  0.00     0.131 A 
ENDROOT
BRANCH   6  18
ATOM     18  O   UNL     1      13.557  24.394   4.171  1.00  0.00    -0.507 OA
ATOM     19  H   UNL     1      12.912  23.939   3.536  1.00  0.00     0.293 HD
ENDBRANCH   6  18
BRANCH  17  20
ATOM     20  O   UNL     1       8.550  24.228   5.544  1.00  0.00    -0.507 OA
ATOM     21  H   UNL     1       9.301  23.647   5.196  1.00  0.00     0.293 HD
ENDBRANCH  17  20
BRANCH  15  22
ATOM     22  O   UNL     1       6.511  28.253   7.198  1.00  0.00    -0.508 OA
ATOM     23  H   UNL     1       5.681  28.377   6.631  1.00  0.00     0.293 HD
ENDBRANCH  15  22
TORSDOF 3
ENDMDL
MODEL 4
REMARK VINA RESULT:    -5.180      1.599      6.741
REMARK INTER + INTRA:          -5.634
REMARK INTER:                  -5.634
REMARK INTRA:                   0.000
REMARK UNBOUND:                 0.000
REMARK SMILES Cc1cc(O)c2c(c1)C(=O)c1cc(O)cc(O)c1C2=O
REMARK SMILES IDX 1 1 2 2 8 3 7 4 6 5 4 6 3 7 19 8 20 9 18 10 11 11 9 12 10 13
REMARK SMILES IDX 12 14 13 15 15 16 16 17 5 18 17 20 14 22
REMARK H PARENT 5 19 17 21 14 23
REMARK Flexibility Score: inf
ROOT
ATOM      1  C   UNL     1       5.458  32.857   3.575  1.00  0.00     0.044 C 
ATOM      2  C   UNL     1       6.622  33.683   4.040  1.00  0.00    -0.047 A 
ATOM      3  C   UNL     1       7.718  33.072   4.657  1.00  0.00     0.016 A 
ATOM      4  C   UNL     1       8.798  33.840   5.126  1.00  0.00     0.038 A 
ATOM      5  C   UNL     1       8.770  35.244   4.993  1.00  0.00     0.076 A 
ATOM      6  C   UNL     1       7.655  35.860   4.381  1.00  0.00     0.127 A 
ATOM      7  C   UNL     1       6.590  35.077   3.916  1.00  0.00     0.050 A 
ATOM      8  C   UNL     1       9.903  36.044   5.530  1.00  0.00     0.201 C 
ATOM      9  O   UNL     1       9.744  37.276   5.749  1.00  0.00    -0.288 OA
ATOM     10  C   UNL     1      11.176  35.375   5.916  1.00  0.00     0.076 A 
ATOM     11  C   UNL     1      11.168  33.973   6.106  1.00  0.00     0.041 A 
ATOM     12  C   UNL     1       9.961  33.183   5.764  1.00  0.00     0.194 C 
ATOM     13  O   UNL     1       9.932  31.943   6.001  1.00  0.00    -0.289 OA
ATOM     14  C   UNL     1      12.311  33.328   6.611  1.00  0.00     0.059 A 
ATOM     15  C   UNL     1      13.461  34.054   6.912  1.00  0.00     0.120 A 
ATOM     16  C   UNL     1      13.493  35.431   6.682  1.00  0.00     0.093 A 
ATOM     17  C   UNL     1      12.380  36.094   6.155  1.00  0.00     0.131 A 
ENDROOT
BRANCH   6  18
ATOM     18  O   UNL     1       7.604  37.245   4.222  1.00  0.00    -0.507 OA
ATOM     19  H   UNL     1       7.698  37.683   3.313  1.00  0.00     0.293 HD
ENDBRANCH   6  18
BRANCH  17  20
ATOM     20  O   UNL     1      12.530  37.450   5.854  1.00  0.00    -0.507 OA
ATOM     21  H   UNL     1      12.086  38.192   6.377  1.00  0.00     0.293 HD
ENDBRANCH  17  20
BRANCH  15  22
ATOM     22  O   UNL     1      14.575  33.394   7.428  1.00  0.00    -0.508 OA
ATOM     23  H   UNL     1      14.614  32.383   7.482  1.00  0.00     0.293 HD
ENDBRANCH  15  22
TORSDOF 3
ENDMDL
MODEL 5
REMARK VINA RESULT:    -5.174      2.605      4.763
REMARK INTER + INTRA:          -5.628
REMARK INTER:                  -5.628
REMARK INTRA:                   0.000
REMARK UNBOUND:                 0.000
REMARK SMILES Cc1cc(O)c2c(c1)C(=O)c1cc(O)cc(O)c1C2=O
REMARK SMILES IDX 1 1 2 2 8 3 7 4 6 5 4 6 3 7 19 8 20 9 18 10 11 11 9 12 10 13
REMARK SMILES IDX 12 14 13 15 15 16 16 17 5 18 17 20 14 22
REMARK H PARENT 5 19 17 21 14 23
REMARK Flexibility Score: inf
ROOT
ATOM      1  C   UNL     1      13.319  41.125   7.690  1.00  0.00     0.044 C 
ATOM      2  C   UNL     1      12.180  40.344   7.102  1.00  0.00    -0.047 A 
ATOM      3  C   UNL     1      12.331  38.982   6.819  1.00  0.00     0.016 A 
ATOM      4  C   UNL     1      11.282  38.250   6.237  1.00  0.00     0.038 A 
ATOM      5  C   UNL     1      10.070  38.895   5.915  1.00  0.00     0.076 A 
ATOM      6  C   UNL     1       9.925  40.274   6.191  1.00  0.00     0.127 A 
ATOM      7  C   UNL     1      10.981  40.987   6.774  1.00  0.00     0.050 A 
ATOM      8  C   UNL     1       8.985  38.114   5.263  1.00  0.00     0.201 C 
ATOM      9  O   UNL     1       8.065  38.721   4.652  1.00  0.00    -0.288 OA
ATOM     10  C   UNL     1       9.047  36.626   5.234  1.00  0.00     0.076 A 
ATOM     11  C   UNL     1      10.288  36.000   5.499  1.00  0.00     0.041 A 
ATOM     12  C   UNL     1      11.445  36.806   5.955  1.00  0.00     0.194 C 
ATOM     13  O   UNL     1      12.570  36.255   6.122  1.00  0.00    -0.289 OA
ATOM     14  C   UNL     1      10.420  34.610   5.337  1.00  0.00     0.059 A 
ATOM     15  C   UNL     1       9.333  33.837   4.933  1.00  0.00     0.120 A 
ATOM     16  C   UNL     1       8.093  34.440   4.716  1.00  0.00     0.093 A 
ATOM     17  C   UNL     1       7.927  35.817   4.897  1.00  0.00     0.131 A 
ENDROOT
BRANCH   6  18
ATOM     18  O   UNL     1       8.734  40.938   5.896  1.00  0.00    -0.507 OA
ATOM     19  H   UNL     1       8.416  41.068   4.943  1.00  0.00     0.293 HD
ENDBRANCH   6  18
BRANCH  17  20
ATOM     20  O   UNL     1       6.633  36.325   4.765  1.00  0.00    -0.507 OA
ATOM     21  H   UNL     1       6.343  36.936   4.014  1.00  0.00     0.293 HD
ENDBRANCH  17  20
BRANCH  15  22
ATOM     22  O   UNL     1       9.493  32.462   4.762  1.00  0.00    -0.508 OA
ATOM     23  H   UNL     1       8.697  31.848   4.633  1.00  0.00     0.293 HD
ENDBRANCH  15  22
TORSDOF 3
ENDMDL
MODEL 6
REMARK VINA RESULT:    -5.152      8.899     11.737
REMARK INTER + INTRA:          -5.604
REMARK INTER:                  -5.604
REMARK INTRA:                   0.000
REMARK UNBOUND:                 0.000
REMARK SMILES Cc1cc(O)c2c(c1)C(=O)c1cc(O)cc(O)c1C2=O
REMARK SMILES IDX 1 1 2 2 8 3 7 4 6 5 4 6 3 7 19 8 20 9 18 10 11 11 9 12 10 13
REMARK SMILES IDX 12 14 13 15 15 16 16 17 5 18 17 20 14 22
REMARK H PARENT 5 19 17 21 14 23
REMARK Flexibility Score: inf
ROOT
ATOM      1  C   UNL     1       4.871  24.626   7.367  1.00  0.00     0.044 C 
ATOM      2  C   UNL     1       6.301  24.512   6.926  1.00  0.00    -0.047 A 
ATOM      3  C   UNL     1       7.056  25.663   6.677  1.00  0.00     0.016 A 
ATOM      4  C   UNL     1       8.386  25.567   6.232  1.00  0.00     0.038 A 
ATOM      5  C   UNL     1       8.962  24.298   6.014  1.00  0.00     0.076 A 
ATOM      6  C   UNL     1       8.193  23.137   6.254  1.00  0.00     0.127 A 
ATOM      7  C   UNL     1       6.870  23.253   6.700  1.00  0.00     0.050 A 
ATOM      8  C   UNL     1      10.357  24.215   5.504  1.00  0.00     0.201 C 
ATOM      9  O   UNL     1      10.760  23.147   4.970  1.00  0.00    -0.288 OA
ATOM     10  C   UNL     1      11.233  25.420   5.521  1.00  0.00     0.076 A 
ATOM     11  C   UNL     1      10.628  26.689   5.679  1.00  0.00     0.041 A 
ATOM     12  C   UNL     1       9.182  26.790   5.986  1.00  0.00     0.194 C 
ATOM     13  O   UNL     1       8.631  27.925   6.056  1.00  0.00    -0.289 OA
ATOM     14  C   UNL     1      11.404  27.855   5.554  1.00  0.00     0.059 A 
ATOM     15  C   UNL     1      12.770  27.774   5.291  1.00  0.00     0.120 A 
ATOM     16  C   UNL     1      13.383  26.525   5.182  1.00  0.00     0.093 A 
ATOM     17  C   UNL     1      12.641  25.348   5.330  1.00  0.00     0.131 A 
ENDROOT
BRANCH   6  18
ATOM     18  O   UNL     1       8.738  21.868   6.060  1.00  0.00    -0.507 OA
ATOM     19  H   UNL     1       9.713  21.737   5.816  1.00  0.00     0.293 HD
ENDBRANCH   6  18
BRANCH  17  20
ATOM     20  O   UNL     1      13.347  24.143   5.313  1.00  0.00    -0.507 OA
ATOM     21  H   UNL     1      14.202  23.987   5.830  1.00  0.00     0.293 HD
ENDBRANCH  17  20
BRANCH  15  22
ATOM     22  O   UNL     1      13.514  28.944   5.153  1.00  0.00    -0.508 OA
ATOM     23  H   UNL     1      13.589  29.616   5.908  1.00  0.00     0.293 HD
ENDBRANCH  15  22
TORSDOF 3
ENDMDL
MODEL 7
REMARK VINA RESULT:    -5.144      1.822      6.461
REMARK INTER + INTRA:          -5.595
REMARK INTER:                  -5.595
REMARK INTRA:                   0.000
REMARK UNBOUND:                 0.000
REMARK SMILES Cc1cc(O)c2c(c1)C(=O)c1cc(O)cc(O)c1C2=O
REMARK SMILES IDX 1 1 2 2 8 3 7 4 6 5 4 6 3 7 19 8 20 9 18 10 11 11 9 12 10 13
REMARK SMILES IDX 12 14 13 15 15 16 16 17 5 18 17 20 14 22
REMARK H PARENT 5 19 17 21 14 23
REMARK Flexibility Score: inf
ROOT
ATOM      1  C   UNL     1       8.737  35.311   5.424  1.00  0.00     0.044 C 
ATOM      2  C   UNL     1      10.174  35.685   5.646  1.00  0.00    -0.047 A 
ATOM      3  C   UNL     1      11.120  34.700   5.951  1.00  0.00     0.016 A 
ATOM      4  C   UNL     1      12.461  35.044   6.193  1.00  0.00     0.038 A 
ATOM      5  C   UNL     1      12.857  36.398   6.151  1.00  0.00     0.076 A 
ATOM      6  C   UNL     1      11.896  37.392   5.856  1.00  0.00     0.127 A 
ATOM      7  C   UNL     1      10.565  37.029   5.613  1.00  0.00     0.050 A 
ATOM      8  C   UNL     1      14.271  36.748   6.450  1.00  0.00     0.201 C 
ATOM      9  O   UNL     1      14.563  37.932   6.769  1.00  0.00    -0.288 OA
ATOM     10  C   UNL     1      15.314  35.685   6.484  1.00  0.00     0.076 A 
ATOM     11  C   UNL     1      14.897  34.337   6.590  1.00  0.00     0.041 A 
ATOM     12  C   UNL     1      13.458  33.994   6.500  1.00  0.00     0.194 C 
ATOM     13  O   UNL     1      13.084  32.800   6.665  1.00  0.00    -0.289 OA
ATOM     14  C   UNL     1      15.852  33.321   6.772  1.00  0.00     0.059 A 
ATOM     15  C   UNL     1      17.210  33.626   6.834  1.00  0.00     0.120 A 
ATOM     16  C   UNL     1      17.633  34.948   6.682  1.00  0.00     0.093 A 
ATOM     17  C   UNL     1      16.707  35.975   6.471  1.00  0.00     0.131 A 
ENDROOT
BRANCH   6  18
ATOM     18  O   UNL     1      12.258  38.737   5.793  1.00  0.00    -0.507 OA
ATOM     19  H   UNL     1      12.083  39.374   6.561  1.00  0.00     0.293 HD
ENDBRANCH   6  18
BRANCH  17  20
ATOM     20  O   UNL     1      17.217  37.251   6.222  1.00  0.00    -0.507 OA
ATOM     21  H   UNL     1      16.684  38.102   6.343  1.00  0.00     0.293 HD
ENDBRANCH  17  20
BRANCH  15  22
ATOM     22  O   UNL     1      18.136  32.604   7.033  1.00  0.00    -0.508 OA
ATOM     23  H   UNL     1      17.843  31.657   7.246  1.00  0.00     0.293 HD
ENDBRANCH  15  22
TORSDOF 3
ENDMDL
MODEL 8
REMARK VINA RESULT:    -5.143      1.688      5.192
REMARK INTER + INTRA:          -5.594
REMARK INTER:                  -5.594
REMARK INTRA:                   0.000
REMARK UNBOUND:                 0.000
REMARK SMILES Cc1cc(O)c2c(c1)C(=O)c1cc(O)cc(O)c1C2=O
REMARK SMILES IDX 1 1 2 2 8 3 7 4 6 5 4 6 3 7 19 8 20 9 18 10 11 11 9 12 10 13
REMARK SMILES IDX 12 14 13 15 15 16 16 17 5 18 17 20 14 22
REMARK H PARENT 5 19 17 21 14 23
REMARK Flexibility Score: inf
ROOT
ATOM      1  C   UNL     1       9.212  41.125   5.812  1.00  0.00     0.044 C 
ATOM      2  C   UNL     1       9.415  39.639   5.757  1.00  0.00    -0.047 A 
ATOM      3  C   UNL     1      10.674  39.089   6.019  1.00  0.00     0.016 A 
ATOM      4  C   UNL     1      10.882  37.701   5.937  1.00  0.00     0.038 A 
ATOM      5  C   UNL     1       9.818  36.853   5.567  1.00  0.00     0.076 A 
ATOM      6  C   UNL     1       8.550  37.413   5.289  1.00  0.00     0.127 A 
ATOM      7  C   UNL     1       8.361  38.798   5.380  1.00  0.00     0.050 A 
ATOM      8  C   UNL     1      10.066  35.391   5.446  1.00  0.00     0.201 C 
ATOM      9  O   UNL     1       9.263  34.678   4.786  1.00  0.00    -0.288 OA
ATOM     10  C   UNL     1      11.312  34.795   6.001  1.00  0.00     0.076 A 
ATOM     11  C   UNL     1      12.392  35.657   6.308  1.00  0.00     0.041 A 
ATOM     12  C   UNL     1      12.214  37.126   6.232  1.00  0.00     0.194 C 
ATOM     13  O   UNL     1      13.198  37.891   6.437  1.00  0.00    -0.289 OA
ATOM     14  C   UNL     1      13.631  35.117   6.695  1.00  0.00     0.059 A 
ATOM     15  C   UNL     1      13.804  33.739   6.795  1.00  0.00     0.120 A 
ATOM     16  C   UNL     1      12.731  32.883   6.541  1.00  0.00     0.093 A 
ATOM     17  C   UNL     1      11.479  33.394   6.182  1.00  0.00     0.131 A 
ENDROOT
BRANCH   6  18
ATOM     18  O   UNL     1       7.475  36.599   4.933  1.00  0.00    -0.507 OA
ATOM     19  H   UNL     1       7.149  35.850   5.533  1.00  0.00     0.293 HD
ENDBRANCH   6  18
BRANCH  17  20
ATOM     20  O   UNL     1      10.432  32.479   6.050  1.00  0.00    -0.507 OA
ATOM     21  H   UNL     1       9.946  32.303   5.182  1.00  0.00     0.293 HD
ENDBRANCH  17  20
BRANCH  15  22
ATOM     22  O   UNL     1      15.048  33.227   7.164  1.00  0.00    -0.508 OA
ATOM     23  H   UNL     1      15.906  33.575   6.754  1.00  0.00     0.293 HD
ENDBRANCH  15  22
TORSDOF 3
ENDMDL
MODEL 9
REMARK VINA RESULT:    -5.080      1.108      3.378
REMARK INTER + INTRA:          -5.526
REMARK INTER:                  -5.526
REMARK INTRA:                   0.000
REMARK UNBOUND:                 0.000
REMARK SMILES Cc1cc(O)c2c(c1)C(=O)c1cc(O)cc(O)c1C2=O
REMARK SMILES IDX 1 1 2 2 8 3 7 4 6 5 4 6 3 7 19 8 20 9 18 10 11 11 9 12 10 13
REMARK SMILES IDX 12 14 13 15 15 16 16 17 5 18 17 20 14 22
REMARK H PARENT 5 19 17 21 14 23
REMARK Flexibility Score: inf
ROOT
ATOM      1  C   UNL     1      16.635  37.325   7.351  1.00  0.00     0.044 C 
ATOM      2  C   UNL     1      15.186  37.313   6.957  1.00  0.00    -0.047 A 
ATOM      3  C   UNL     1      14.532  36.101   6.713  1.00  0.00     0.016 A 
ATOM      4  C   UNL     1      13.185  36.081   6.311  1.00  0.00     0.038 A 
ATOM      5  C   UNL     1      12.489  37.294   6.131  1.00  0.00     0.076 A 
ATOM      6  C   UNL     1      13.156  38.518   6.365  1.00  0.00     0.127 A 
ATOM      7  C   UNL     1      14.498  38.517   6.769  1.00  0.00     0.050 A 
ATOM      8  C   UNL     1      11.077  37.256   5.666  1.00  0.00     0.201 C 
ATOM      9  O   UNL     1      10.561  38.289   5.162  1.00  0.00    -0.288 OA
ATOM     10  C   UNL     1      10.315  35.976   5.691  1.00  0.00     0.076 A 
ATOM     11  C   UNL     1      11.038  34.765   5.810  1.00  0.00     0.041 A 
ATOM     12  C   UNL     1      12.497  34.793   6.070  1.00  0.00     0.194 C 
ATOM     13  O   UNL     1      13.150  33.713   6.105  1.00  0.00    -0.289 OA
ATOM     14  C   UNL     1      10.368  33.535   5.690  1.00  0.00     0.059 A 
ATOM     15  C   UNL     1       8.993  33.494   5.470  1.00  0.00     0.120 A 
ATOM     16  C   UNL     1       8.265  34.683   5.400  1.00  0.00     0.093 A 
ATOM     17  C   UNL     1       8.901  35.921   5.544  1.00  0.00     0.131 A 
ENDROOT
BRANCH   6  18
ATOM     18  O   UNL     1      12.492  39.733   6.209  1.00  0.00    -0.507 OA
ATOM     19  H   UNL     1      12.974  40.572   5.908  1.00  0.00     0.293 HD
ENDBRANCH   6  18
BRANCH  17  20
ATOM     20  O   UNL     1       8.088  37.056   5.569  1.00  0.00    -0.507 OA
ATOM     21  H   UNL     1       7.646  37.411   6.406  1.00  0.00     0.293 HD
ENDBRANCH  17  20
BRANCH  15  22
ATOM     22  O   UNL     1       8.354  32.262   5.337  1.00  0.00    -0.508 OA
ATOM     23  H   UNL     1       8.420  31.551   6.057  1.00  0.00     0.293 HD
ENDBRANCH  15  22
TORSDOF 3
ENDMDL
