MODEL 1
REMARK VINA RESULT:    -3.792      0.000      0.000
REMARK INTER + INTRA:          -6.714
REMARK INTER:                  -5.787
REMARK INTRA:                  -0.928
REMARK UNBOUND:                -0.928
REMARK SMILES CCCCCCCCCCC(=O)[O-]
REMARK SMILES IDX 7 1 8 2 9 3 10 4 11 5 12 6 13 7 6 8 5 9 4 10 3 11 2 12 1 13
REMARK H PARENT
REMARK Flexibility Score: inf
ROOT
ATOM      1  C   UNL     1       6.603 -17.428  23.826  1.00  0.00     0.000 C 
ENDROOT
BRANCH   1   2
ATOM      2  C   UNL     1       7.420 -18.567  24.459  1.00  0.00     0.000 C 
BRANCH   2   3
ATOM      3  C   UNL     1       6.886 -19.962  24.084  1.00  0.00     0.006 C 
BRANCH   3   4
ATOM      4  C   UNL     1       6.144 -20.011  22.739  1.00  0.00     0.053 C 
BRANCH   4   5
ATOM      5  C   UNL     1       7.063 -20.343  21.604  1.00  0.00     0.041 C 
ATOM      6  O   UNL     1       7.408 -19.451  20.786  1.00  0.00    -0.550 OA
ATOM      7  O   UNL     1       7.511 -21.647  21.430  1.00  0.00    -0.550 OA
ENDBRANCH   4   5
ENDBRANCH   3   4
ENDBRANCH   2   3
ENDBRANCH   1   2
BRANCH   1   8
ATOM      8  C   UNL     1       7.463 -16.501  22.952  1.00  0.00     0.000 C 
BRANCH   8   9
ATOM      9  C   UNL     1       7.455 -15.047  23.448  1.00  0.00    -0.000 C 
BRANCH   9  10
ATOM     10  C   UNL     1       8.524 -14.830  24.528  1.00  0.00    -0.000 C 
BRANCH  10  11
ATOM     11  C   UNL     1       9.955 -14.923  23.973  1.00  0.00    -0.000 C 
BRANCH  11  12
ATOM     12  C   UNL     1      10.737 -16.112  24.550  1.00  0.00    -0.003 C 
ATOM     13  C   UNL     1      10.206 -16.503  25.927  1.00  0.00     0.004 C 
ENDBRANCH  11  12
ENDBRANCH  10  11
ENDBRANCH   9  10
ENDBRANCH   8   9
ENDBRANCH   1   8
TORSDOF 9
ENDMDL
MODEL 2
REMARK VINA RESULT:    -3.779      2.737      5.475
REMARK INTER + INTRA:          -6.695
REMARK INTER:                  -5.678
REMARK INTRA:                  -1.018
REMARK UNBOUND:                -0.928
REMARK SMILES CCCCCCCCCCC(=O)[O-]
REMARK SMILES IDX 7 1 8 2 9 3 10 4 11 5 12 6 13 7 6 8 5 9 4 10 3 11 2 12 1 13
REMARK H PARENT
REMARK Flexibility Score: inf
ROOT
ATOM      1  C   UNL     1       6.615 -17.346  23.637  1.00  0.00     0.000 C 
ENDROOT
BRANCH   1   2
ATOM      2  C   UNL     1       7.525 -16.432  22.798  1.00  0.00     0.000 C 
BRANCH   2   3
ATOM      3  C   UNL     1       7.534 -14.977  23.301  1.00  0.00     0.006 C 
BRANCH   3   4
ATOM      4  C   UNL     1       8.391 -14.750  24.556  1.00  0.00     0.053 C 
BRANCH   4   5
ATOM      5  C   UNL     1       9.832 -15.081  24.318  1.00  0.00     0.041 C 
ATOM      6  O   UNL     1      10.494 -14.448  23.455  1.00  0.00    -0.550 OA
ATOM      7  O   UNL     1      10.434 -16.115  25.025  1.00  0.00    -0.550 OA
ENDBRANCH   4   5
ENDBRANCH   3   4
ENDBRANCH   2   3
ENDBRANCH   1   2
BRANCH   1   8
ATOM      8  C   UNL     1       7.402 -18.421  24.402  1.00  0.00     0.000 C 
BRANCH   8   9
ATOM      9  C   UNL     1       6.870 -19.838  24.145  1.00  0.00    -0.000 C 
BRANCH   9  10
ATOM     10  C   UNL     1       6.113 -19.906  22.811  1.00  0.00    -0.000 C 
BRANCH  10  11
ATOM     11  C   UNL     1       6.951 -20.531  21.684  1.00  0.00    -0.000 C 
BRANCH  11  12
ATOM     12  C   UNL     1       7.393 -19.501  20.635  1.00  0.00    -0.003 C 
ATOM     13  C   UNL     1       8.892 -19.227  20.731  1.00  0.00     0.004 C 
ENDBRANCH  11  12
ENDBRANCH  10  11
ENDBRANCH   9  10
ENDBRANCH   8   9
ENDBRANCH   1   8
TORSDOF 9
ENDMDL
MODEL 3
REMARK VINA RESULT:    -3.774      3.003      5.291
REMARK INTER + INTRA:          -6.688
REMARK INTER:                  -5.577
REMARK INTRA:                  -1.110
REMARK UNBOUND:                -0.928
REMARK SMILES CCCCCCCCCCC(=O)[O-]
REMARK SMILES IDX 7 1 8 2 9 3 10 4 11 5 12 6 13 7 6 8 5 9 4 10 3 11 2 12 1 13
REMARK H PARENT
REMARK Flexibility Score: inf
ROOT
ATOM      1  C   UNL     1       7.310 -18.493  24.540  1.00  0.00     0.000 C 
ENDROOT
BRANCH   1   2
ATOM      2  C   UNL     1       6.490 -17.391  23.847  1.00  0.00     0.000 C 
BRANCH   2   3
ATOM      3  C   UNL     1       7.356 -16.465  22.974  1.00  0.00     0.006 C 
BRANCH   3   4
ATOM      4  C   UNL     1       7.489 -15.032  23.514  1.00  0.00     0.053 C 
BRANCH   4   5
ATOM      5  C   UNL     1       8.721 -14.859  24.347  1.00  0.00     0.041 C 
ATOM      6  O   UNL     1       8.675 -15.040  25.592  1.00  0.00    -0.550 OA
ATOM      7  O   UNL     1       9.914 -14.465  23.753  1.00  0.00    -0.550 OA
ENDBRANCH   4   5
ENDBRANCH   3   4
ENDBRANCH   2   3
ENDBRANCH   1   2
BRANCH   1   8
ATOM      8  C   UNL     1       6.843 -19.905  24.154  1.00  0.00     0.000 C 
BRANCH   8   9
ATOM      9  C   UNL     1       6.103 -19.937  22.809  1.00  0.00    -0.000 C 
BRANCH   9  10
ATOM     10  C   UNL     1       6.954 -20.623  21.731  1.00  0.00    -0.000 C 
BRANCH  10  11
ATOM     11  C   UNL     1       7.766 -19.624  20.891  1.00  0.00    -0.000 C 
BRANCH  11  12
ATOM     12  C   UNL     1       9.276 -19.893  20.949  1.00  0.00    -0.003 C 
ATOM     13  C   UNL     1       9.950 -19.019  22.004  1.00  0.00     0.004 C 
ENDBRANCH  11  12
ENDBRANCH  10  11
ENDBRANCH   9  10
ENDBRANCH   8   9
ENDBRANCH   1   8
TORSDOF 9
ENDMDL
MODEL 4
REMARK VINA RESULT:    -3.766      2.043      2.761
REMARK INTER + INTRA:          -6.675
REMARK INTER:                  -5.583
REMARK INTRA:                  -1.091
REMARK UNBOUND:                -0.928
REMARK SMILES CCCCCCCCCCC(=O)[O-]
REMARK SMILES IDX 7 1 8 2 9 3 10 4 11 5 12 6 13 7 6 8 5 9 4 10 3 11 2 12 1 13
REMARK H PARENT
REMARK Flexibility Score: inf
ROOT
ATOM      1  C   UNL     1       6.942 -15.810  22.372  1.00  0.00     0.000 C 
ENDROOT
BRANCH   1   2
ATOM      2  C   UNL     1       6.517 -16.840  23.432  1.00  0.00     0.000 C 
BRANCH   2   3
ATOM      3  C   UNL     1       6.862 -18.285  23.029  1.00  0.00     0.006 C 
BRANCH   3   4
ATOM      4  C   UNL     1       7.813 -19.001  24.002  1.00  0.00     0.053 C 
BRANCH   4   5
ATOM      5  C   UNL     1       7.083 -19.583  25.172  1.00  0.00     0.041 C 
ATOM      6  O   UNL     1       6.561 -20.726  25.090  1.00  0.00    -0.550 OA
ATOM      7  O   UNL     1       6.948 -18.848  26.344  1.00  0.00    -0.550 OA
ENDBRANCH   4   5
ENDBRANCH   3   4
ENDBRANCH   2   3
ENDBRANCH   1   2
BRANCH   1   8
ATOM      8  C   UNL     1       7.429 -14.491  22.993  1.00  0.00     0.000 C 
BRANCH   8   9
ATOM      9  C   UNL     1       8.334 -14.711  24.215  1.00  0.00    -0.000 C 
BRANCH   9  10
ATOM     10  C   UNL     1       9.806 -14.818  23.795  1.00  0.00    -0.000 C 
BRANCH  10  11
ATOM     11  C   UNL     1      10.557 -15.931  24.543  1.00  0.00    -0.000 C 
BRANCH  11  12
ATOM     12  C   UNL     1       9.785 -16.446  25.767  1.00  0.00    -0.003 C 
ATOM     13  C   UNL     1      10.425 -17.714  26.326  1.00  0.00     0.004 C 
ENDBRANCH  11  12
ENDBRANCH  10  11
ENDBRANCH   9  10
ENDBRANCH   8   9
ENDBRANCH   1   8
TORSDOF 9
ENDMDL
MODEL 5
REMARK VINA RESULT:    -3.742      2.439      5.301
REMARK INTER + INTRA:          -6.639
REMARK INTER:                  -5.769
REMARK INTRA:                  -0.870
REMARK UNBOUND:                -0.928
REMARK SMILES CCCCCCCCCCC(=O)[O-]
REMARK SMILES IDX 7 1 8 2 9 3 10 4 11 5 12 6 13 7 6 8 5 9 4 10 3 11 2 12 1 13
REMARK H PARENT
REMARK Flexibility Score: inf
ROOT
ATOM      1  C   UNL     1       7.325 -16.369  22.797  1.00  0.00     0.000 C 
ENDROOT
BRANCH   1   2
ATOM      2  C   UNL     1       7.535 -14.888  23.155  1.00  0.00     0.000 C 
BRANCH   2   3
ATOM      3  C   UNL     1       8.437 -14.696  24.387  1.00  0.00     0.006 C 
BRANCH   3   4
ATOM      4  C   UNL     1       9.925 -14.982  24.130  1.00  0.00     0.053 C 
BRANCH   4   5
ATOM      5  C   UNL     1      10.380 -16.235  24.813  1.00  0.00     0.041 C 
ATOM      6  O   UNL     1      10.485 -16.272  26.067  1.00  0.00    -0.550 OA
ATOM      7  O   UNL     1      10.721 -17.353  24.061  1.00  0.00    -0.550 OA
ENDBRANCH   4   5
ENDBRANCH   3   4
ENDBRANCH   2   3
ENDBRANCH   1   2
BRANCH   1   8
ATOM      8  C   UNL     1       6.292 -17.055  23.704  1.00  0.00     0.000 C 
BRANCH   8   9
ATOM      9  C   UNL     1       6.943 -17.924  24.791  1.00  0.00    -0.000 C 
BRANCH   9  10
ATOM     10  C   UNL     1       7.440 -19.253  24.206  1.00  0.00    -0.000 C 
BRANCH  10  11
ATOM     11  C   UNL     1       6.414 -19.909  23.268  1.00  0.00    -0.000 C 
BRANCH  11  12
ATOM     12  C   UNL     1       7.064 -20.548  22.033  1.00  0.00    -0.003 C 
ATOM     13  C   UNL     1       7.201 -19.536  20.899  1.00  0.00     0.004 C 
ENDBRANCH  11  12
ENDBRANCH  10  11
ENDBRANCH   9  10
ENDBRANCH   8   9
ENDBRANCH   1   8
TORSDOF 9
ENDMDL
MODEL 6
REMARK VINA RESULT:    -3.718      3.051      4.790
REMARK INTER + INTRA:          -6.602
REMARK INTER:                  -5.383
REMARK INTRA:                  -1.219
REMARK UNBOUND:                -0.928
REMARK SMILES CCCCCCCCCCC(=O)[O-]
REMARK SMILES IDX 7 1 8 2 9 3 10 4 11 5 12 6 13 7 6 8 5 9 4 10 3 11 2 12 1 13
REMARK H PARENT
REMARK Flexibility Score: inf
ROOT
ATOM      1  C   UNL     1      10.106 -14.986  23.739  1.00  0.00     0.000 C 
ENDROOT
BRANCH   1   2
ATOM      2  C   UNL     1      10.916 -16.072  24.469  1.00  0.00     0.000 C 
BRANCH   2   3
ATOM      3  C   UNL     1      10.313 -16.445  25.835  1.00  0.00     0.006 C 
BRANCH   3   4
ATOM      4  C   UNL     1       9.869 -17.912  25.948  1.00  0.00     0.053 C 
BRANCH   4   5
ATOM      5  C   UNL     1      10.972 -18.795  26.445  1.00  0.00     0.041 C 
ATOM      6  O   UNL     1      11.010 -19.142  27.654  1.00  0.00    -0.550 OA
ATOM      7  O   UNL     1      11.978 -19.206  25.579  1.00  0.00    -0.550 OA
ENDBRANCH   4   5
ENDBRANCH   3   4
ENDBRANCH   2   3
ENDBRANCH   1   2
BRANCH   1   8
ATOM      8  C   UNL     1       8.736 -14.736  24.388  1.00  0.00     0.000 C 
BRANCH   8   9
ATOM      9  C   UNL     1       7.583 -14.790  23.375  1.00  0.00    -0.000 C 
BRANCH   9  10
ATOM     10  C   UNL     1       6.875 -16.151  23.422  1.00  0.00    -0.000 C 
BRANCH  10  11
ATOM     11  C   UNL     1       7.372 -17.116  22.333  1.00  0.00    -0.000 C 
BRANCH  11  12
ATOM     12  C   UNL     1       7.917 -18.430  22.912  1.00  0.00    -0.003 C 
ATOM     13  C   UNL     1       9.302 -18.744  22.353  1.00  0.00     0.004 C 
ENDBRANCH  11  12
ENDBRANCH  10  11
ENDBRANCH   9  10
ENDBRANCH   8   9
ENDBRANCH   1   8
TORSDOF 9
ENDMDL
MODEL 7
REMARK VINA RESULT:    -3.710      1.338      3.028
REMARK INTER + INTRA:          -6.589
REMARK INTER:                  -5.344
REMARK INTRA:                  -1.245
REMARK UNBOUND:                -0.928
REMARK SMILES CCCCCCCCCCC(=O)[O-]
REMARK SMILES IDX 7 1 8 2 9 3 10 4 11 5 12 6 13 7 6 8 5 9 4 10 3 11 2 12 1 13
REMARK H PARENT
REMARK Flexibility Score: inf
ROOT
ATOM      1  C   UNL     1       8.290 -15.004  24.377  1.00  0.00     0.000 C 
ENDROOT
BRANCH   1   2
ATOM      2  C   UNL     1       7.383 -15.071  23.136  1.00  0.00     0.000 C 
BRANCH   2   3
ATOM      3  C   UNL     1       6.830 -16.485  22.880  1.00  0.00     0.006 C 
BRANCH   3   4
ATOM      4  C   UNL     1       7.716 -17.354  21.973  1.00  0.00     0.053 C 
BRANCH   4   5
ATOM      5  C   UNL     1       7.153 -18.729  21.792  1.00  0.00     0.041 C 
ATOM      6  O   UNL     1       7.346 -19.357  20.718  1.00  0.00    -0.550 OA
ATOM      7  O   UNL     1       6.385 -19.305  22.797  1.00  0.00    -0.550 OA
ENDBRANCH   4   5
ENDBRANCH   3   4
ENDBRANCH   2   3
ENDBRANCH   1   2
BRANCH   1   8
ATOM      8  C   UNL     1       9.768 -14.791  24.016  1.00  0.00     0.000 C 
BRANCH   8   9
ATOM      9  C   UNL     1      10.661 -15.955  24.471  1.00  0.00    -0.000 C 
BRANCH   9  10
ATOM     10  C   UNL     1      10.281 -16.417  25.885  1.00  0.00    -0.000 C 
BRANCH  10  11
ATOM     11  C   UNL     1      10.223 -17.948  26.013  1.00  0.00    -0.000 C 
BRANCH  11  12
ATOM     12  C   UNL     1       9.082 -18.567  25.193  1.00  0.00    -0.003 C 
ATOM     13  C   UNL     1       7.744 -18.414  25.911  1.00  0.00     0.004 C 
ENDBRANCH  11  12
ENDBRANCH  10  11
ENDBRANCH   9  10
ENDBRANCH   8   9
ENDBRANCH   1   8
TORSDOF 9
ENDMDL
MODEL 8
REMARK VINA RESULT:    -3.665      2.682      3.516
REMARK INTER + INTRA:          -6.521
REMARK INTER:                  -5.073
REMARK INTRA:                  -1.448
REMARK UNBOUND:                -0.928
REMARK SMILES CCCCCCCCCCC(=O)[O-]
REMARK SMILES IDX 7 1 8 2 9 3 10 4 11 5 12 6 13 7 6 8 5 9 4 10 3 11 2 12 1 13
REMARK H PARENT
REMARK Flexibility Score: inf
ROOT
ATOM      1  C   UNL     1       8.458 -18.810  24.312  1.00  0.00     0.000 C 
ENDROOT
BRANCH   1   2
ATOM      2  C   UNL     1       8.613 -18.634  22.792  1.00  0.00     0.000 C 
BRANCH   2   3
ATOM      3  C   UNL     1       7.431 -17.880  22.156  1.00  0.00     0.006 C 
BRANCH   3   4
ATOM      4  C   UNL     1       7.809 -16.530  21.526  1.00  0.00     0.053 C 
BRANCH   4   5
ATOM      5  C   UNL     1       6.749 -15.494  21.744  1.00  0.00     0.041 C 
ATOM      6  O   UNL     1       6.219 -15.358  22.877  1.00  0.00    -0.550 OA
ATOM      7  O   UNL     1       6.322 -14.702  20.685  1.00  0.00    -0.550 OA
ENDBRANCH   4   5
ENDBRANCH   3   4
ENDBRANCH   2   3
ENDBRANCH   1   2
BRANCH   1   8
ATOM      8  C   UNL     1       7.132 -18.240  24.840  1.00  0.00     0.000 C 
BRANCH   8   9
ATOM      9  C   UNL     1       7.337 -17.059  25.800  1.00  0.00    -0.000 C 
BRANCH   9  10
ATOM     10  C   UNL     1       8.767 -16.508  25.695  1.00  0.00    -0.000 C 
BRANCH  10  11
ATOM     11  C   UNL     1       8.810 -15.065  25.168  1.00  0.00    -0.000 C 
BRANCH  11  12
ATOM     12  C   UNL     1       9.863 -14.868  24.068  1.00  0.00    -0.003 C 
ATOM     13  C   UNL     1      10.955 -15.931  24.157  1.00  0.00     0.004 C 
ENDBRANCH  11  12
ENDBRANCH  10  11
ENDBRANCH   9  10
ENDBRANCH   8   9
ENDBRANCH   1   8
TORSDOF 9
ENDMDL
MODEL 9
REMARK VINA RESULT:    -3.647      3.017      5.124
REMARK INTER + INTRA:          -6.493
REMARK INTER:                  -5.513
REMARK INTRA:                  -0.981
REMARK UNBOUND:                -0.928
REMARK SMILES CCCCCCCCCCC(=O)[O-]
REMARK SMILES IDX 7 1 8 2 9 3 10 4 11 5 12 6 13 7 6 8 5 9 4 10 3 11 2 12 1 13
REMARK H PARENT
REMARK Flexibility Score: inf
ROOT
ATOM      1  C   UNL     1       7.784 -18.403  25.884  1.00  0.00     0.000 C 
ENDROOT
BRANCH   1   2
ATOM      2  C   UNL     1       9.321 -18.431  25.842  1.00  0.00     0.000 C 
BRANCH   2   3
ATOM      3  C   UNL     1       9.944 -17.024  25.898  1.00  0.00     0.006 C 
BRANCH   3   4
ATOM      4  C   UNL     1      10.929 -16.725  24.757  1.00  0.00     0.053 C 
BRANCH   4   5
ATOM      5  C   UNL     1      10.611 -15.435  24.067  1.00  0.00     0.041 C 
ATOM      6  O   UNL     1       9.590 -14.775  24.393  1.00  0.00    -0.550 OA
ATOM      7  O   UNL     1      11.425 -14.977  23.038  1.00  0.00    -0.550 OA
ENDBRANCH   4   5
ENDBRANCH   3   4
ENDBRANCH   2   3
ENDBRANCH   1   2
BRANCH   1   8
ATOM      8  C   UNL     1       7.200 -17.119  25.276  1.00  0.00     0.000 C 
BRANCH   8   9
ATOM      9  C   UNL     1       6.348 -17.390  24.027  1.00  0.00    -0.000 C 
BRANCH   9  10
ATOM     10  C   UNL     1       7.185 -17.241  22.749  1.00  0.00    -0.000 C 
BRANCH  10  11
ATOM     11  C   UNL     1       7.826 -18.565  22.302  1.00  0.00    -0.000 C 
BRANCH  11  12
ATOM     12  C   UNL     1       6.886 -19.767  22.481  1.00  0.00    -0.003 C 
ATOM     13  C   UNL     1       7.126 -20.817  21.400  1.00  0.00     0.004 C 
ENDBRANCH  11  12
ENDBRANCH  10  11
ENDBRANCH   9  10
ENDBRANCH   8   9
ENDBRANCH   1   8
TORSDOF 9
ENDMDL
