MODEL 1
REMARK VINA RESULT:    -5.508      0.000      0.000
REMARK INTER + INTRA:          -6.955
REMARK INTER:                  -6.796
REMARK INTRA:                  -0.159
REMARK UNBOUND:                -0.159
REMARK SMILES CCOC(=O)c1ccc(O)c(O)c1
REMARK SMILES IDX 4 1 5 2 3 3 2 4 1 5 6 6 13 7 7 8 11 9 8 10 9 11 12 12 10 14
REMARK H PARENT 12 13 10 15
REMARK Flexibility Score: inf
ROOT
ATOM      1  C   UNL     1     -33.269  11.519 -31.994  1.00  0.00     0.338 C 
ATOM      2  O   UNL     1     -34.374  12.126 -31.922  1.00  0.00    -0.246 OA
ENDROOT
BRANCH   1   3
ATOM      3  O   UNL     1     -32.412  11.487 -30.886  1.00  0.00    -0.462 OA
BRANCH   3   4
ATOM      4  C   UNL     1     -32.021  12.650 -30.160  1.00  0.00     0.230 C 
ATOM      5  C   UNL     1     -32.604  12.627 -28.752  1.00  0.00     0.049 C 
ENDBRANCH   3   4
ENDBRANCH   1   3
BRANCH   1   6
ATOM      6  C   UNL     1     -32.880  10.833 -33.246  1.00  0.00     0.064 A 
ATOM      7  C   UNL     1     -33.303  11.323 -34.495  1.00  0.00     0.065 A 
ATOM      8  C   UNL     1     -32.077   9.679 -33.202  1.00  0.00     0.020 A 
ATOM      9  C   UNL     1     -32.931  10.669 -35.679  1.00  0.00     0.158 A 
ATOM     10  C   UNL     1     -31.707   9.029 -34.382  1.00  0.00     0.051 A 
ATOM     11  C   UNL     1     -32.132   9.522 -35.622  1.00  0.00     0.157 A 
BRANCH   9  12
ATOM     12  O   UNL     1     -33.352  11.157 -36.916  1.00  0.00    -0.504 OA
ATOM     13  H   UNL     1     -33.026  12.047 -37.274  1.00  0.00     0.293 HD
ENDBRANCH   9  12
BRANCH  11  14
ATOM     14  O   UNL     1     -31.764   8.875 -36.802  1.00  0.00    -0.504 OA
ATOM     15  H   UNL     1     -32.172   9.128 -37.694  1.00  0.00     0.293 HD
ENDBRANCH  11  14
ENDBRANCH   1   6
TORSDOF 5
ENDMDL
MODEL 2
REMARK VINA RESULT:    -5.492      1.735      5.323
REMARK INTER + INTRA:          -6.936
REMARK INTER:                  -6.739
REMARK INTRA:                  -0.196
REMARK UNBOUND:                -0.159
REMARK SMILES CCOC(=O)c1ccc(O)c(O)c1
REMARK SMILES IDX 4 1 5 2 3 3 2 4 1 5 6 6 13 7 7 8 11 9 8 10 9 11 12 12 10 14
REMARK H PARENT 12 13 10 15
REMARK Flexibility Score: inf
ROOT
ATOM      1  C   UNL     1     -33.522  11.163 -36.233  1.00  0.00     0.338 C 
ATOM      2  O   UNL     1     -33.985  12.279 -36.598  1.00  0.00    -0.246 OA
ENDROOT
BRANCH   1   3
ATOM      3  O   UNL     1     -33.224  10.180 -37.186  1.00  0.00    -0.462 OA
BRANCH   3   4
ATOM      4  C   UNL     1     -34.132   9.146 -37.561  1.00  0.00     0.230 C 
ATOM      5  C   UNL     1     -35.199   9.683 -38.508  1.00  0.00     0.049 C 
ENDBRANCH   3   4
ENDBRANCH   1   3
BRANCH   1   6
ATOM      6  C   UNL     1     -33.285  10.892 -34.798  1.00  0.00     0.064 A 
ATOM      7  C   UNL     1     -34.017  11.572 -33.808  1.00  0.00     0.065 A 
ATOM      8  C   UNL     1     -32.321   9.946 -34.404  1.00  0.00     0.020 A 
ATOM      9  C   UNL     1     -33.790  11.311 -32.448  1.00  0.00     0.158 A 
ATOM     10  C   UNL     1     -32.095   9.688 -33.050  1.00  0.00     0.051 A 
ATOM     11  C   UNL     1     -32.828  10.368 -32.070  1.00  0.00     0.157 A 
BRANCH   9  12
ATOM     12  O   UNL     1     -34.518  11.987 -31.469  1.00  0.00    -0.504 OA
ATOM     13  H   UNL     1     -34.077  12.330 -30.623  1.00  0.00     0.293 HD
ENDBRANCH   9  12
BRANCH  11  14
ATOM     14  O   UNL     1     -32.604  10.112 -30.717  1.00  0.00    -0.504 OA
ATOM     15  H   UNL     1     -33.173   9.450 -30.202  1.00  0.00     0.293 HD
ENDBRANCH  11  14
ENDBRANCH   1   6
TORSDOF 5
ENDMDL
MODEL 3
REMARK VINA RESULT:    -5.450      1.506      5.113
REMARK INTER + INTRA:          -6.884
REMARK INTER:                  -6.607
REMARK INTRA:                  -0.277
REMARK UNBOUND:                -0.159
REMARK SMILES CCOC(=O)c1ccc(O)c(O)c1
REMARK SMILES IDX 4 1 5 2 3 3 2 4 1 5 6 6 13 7 7 8 11 9 8 10 9 11 12 12 10 14
REMARK H PARENT 12 13 10 15
REMARK Flexibility Score: inf
ROOT
ATOM      1  C   UNL     1     -33.169   9.526 -35.737  1.00  0.00     0.338 C 
ATOM      2  O   UNL     1     -32.257   8.892 -36.337  1.00  0.00    -0.246 OA
ENDROOT
BRANCH   1   3
ATOM      3  O   UNL     1     -34.360   9.843 -36.403  1.00  0.00    -0.462 OA
BRANCH   3   4
ATOM      4  C   UNL     1     -34.432  10.754 -37.497  1.00  0.00     0.230 C 
ATOM      5  C   UNL     1     -34.475  12.193 -36.998  1.00  0.00     0.049 C 
ENDBRANCH   3   4
ENDBRANCH   1   3
BRANCH   1   6
ATOM      6  C   UNL     1     -32.985   9.932 -34.326  1.00  0.00     0.064 A 
ATOM      7  C   UNL     1     -33.947  10.727 -33.676  1.00  0.00     0.065 A 
ATOM      8  C   UNL     1     -31.844   9.523 -33.613  1.00  0.00     0.020 A 
ATOM      9  C   UNL     1     -33.769  11.108 -32.337  1.00  0.00     0.158 A 
ATOM     10  C   UNL     1     -31.668   9.904 -32.280  1.00  0.00     0.051 A 
ATOM     11  C   UNL     1     -32.628  10.696 -31.639  1.00  0.00     0.157 A 
BRANCH   9  12
ATOM     12  O   UNL     1     -34.723  11.897 -31.696  1.00  0.00    -0.504 OA
ATOM     13  H   UNL     1     -35.700  11.871 -31.964  1.00  0.00     0.293 HD
ENDBRANCH   9  12
BRANCH  11  14
ATOM     14  O   UNL     1     -32.455  11.077 -30.309  1.00  0.00    -0.504 OA
ATOM     15  H   UNL     1     -32.844  10.534 -29.548  1.00  0.00     0.293 HD
ENDBRANCH  11  14
ENDBRANCH   1   6
TORSDOF 5
ENDMDL
MODEL 4
REMARK VINA RESULT:    -5.228      1.967      2.843
REMARK INTER + INTRA:          -6.609
REMARK INTER:                  -6.474
REMARK INTRA:                  -0.136
REMARK UNBOUND:                -0.159
REMARK SMILES CCOC(=O)c1ccc(O)c(O)c1
REMARK SMILES IDX 4 1 5 2 3 3 2 4 1 5 6 6 13 7 7 8 11 9 8 10 9 11 12 12 10 14
REMARK H PARENT 12 13 10 15
REMARK Flexibility Score: inf
ROOT
ATOM      1  C   UNL     1     -32.575  10.147 -33.778  1.00  0.00     0.338 C 
ATOM      2  O   UNL     1     -31.570   9.389 -33.686  1.00  0.00    -0.246 OA
ENDROOT
BRANCH   1   3
ATOM      3  O   UNL     1     -33.008  10.878 -32.664  1.00  0.00    -0.462 OA
BRANCH   3   4
ATOM      4  C   UNL     1     -32.432  10.751 -31.366  1.00  0.00     0.230 C 
ATOM      5  C   UNL     1     -32.416  12.095 -30.649  1.00  0.00     0.049 C 
ENDBRANCH   3   4
ENDBRANCH   1   3
BRANCH   1   6
ATOM      6  C   UNL     1     -33.295  10.272 -35.065  1.00  0.00     0.064 A 
ATOM      7  C   UNL     1     -33.658  11.536 -35.565  1.00  0.00     0.065 A 
ATOM      8  C   UNL     1     -33.623   9.124 -35.808  1.00  0.00     0.020 A 
ATOM      9  C   UNL     1     -34.340  11.649 -36.786  1.00  0.00     0.158 A 
ATOM     10  C   UNL     1     -34.302   9.238 -37.024  1.00  0.00     0.051 A 
ATOM     11  C   UNL     1     -34.662  10.500 -37.516  1.00  0.00     0.157 A 
BRANCH   9  12
ATOM     12  O   UNL     1     -34.699  12.903 -37.279  1.00  0.00    -0.504 OA
ATOM     13  H   UNL     1     -35.266  13.003 -38.113  1.00  0.00     0.293 HD
ENDBRANCH   9  12
BRANCH  11  14
ATOM     14  O   UNL     1     -35.340  10.617 -38.729  1.00  0.00    -0.504 OA
ATOM     15  H   UNL     1     -34.849  10.595 -39.614  1.00  0.00     0.293 HD
ENDBRANCH  11  14
ENDBRANCH   1   6
TORSDOF 5
ENDMDL
MODEL 5
REMARK VINA RESULT:    -5.014      2.468      5.668
REMARK INTER + INTRA:          -6.345
REMARK INTER:                  -6.192
REMARK INTRA:                  -0.153
REMARK UNBOUND:                -0.159
REMARK SMILES CCOC(=O)c1ccc(O)c(O)c1
REMARK SMILES IDX 4 1 5 2 3 3 2 4 1 5 6 6 13 7 7 8 11 9 8 10 9 11 12 12 10 14
REMARK H PARENT 12 13 10 15
REMARK Flexibility Score: inf
ROOT
ATOM      1  C   UNL     1     -34.429  11.259 -37.237  1.00  0.00     0.338 C 
ATOM      2  O   UNL     1     -34.634  12.494 -37.398  1.00  0.00    -0.246 OA
ENDROOT
BRANCH   1   3
ATOM      3  O   UNL     1     -34.962  10.333 -38.144  1.00  0.00    -0.462 OA
BRANCH   3   4
ATOM      4  C   UNL     1     -35.717  10.705 -39.295  1.00  0.00     0.230 C 
ATOM      5  C   UNL     1     -37.159  10.225 -39.172  1.00  0.00     0.049 C 
ENDBRANCH   3   4
ENDBRANCH   1   3
BRANCH   1   6
ATOM      6  C   UNL     1     -33.617  10.785 -36.094  1.00  0.00     0.064 A 
ATOM      7  C   UNL     1     -33.722  11.402 -34.834  1.00  0.00     0.065 A 
ATOM      8  C   UNL     1     -32.730   9.705 -36.253  1.00  0.00     0.020 A 
ATOM      9  C   UNL     1     -32.951  10.948 -33.753  1.00  0.00     0.158 A 
ATOM     10  C   UNL     1     -31.963   9.254 -35.176  1.00  0.00     0.051 A 
ATOM     11  C   UNL     1     -32.071   9.873 -33.924  1.00  0.00     0.157 A 
BRANCH   9  12
ATOM     12  O   UNL     1     -33.056  11.562 -32.505  1.00  0.00    -0.504 OA
ATOM     13  H   UNL     1     -33.214  12.558 -32.416  1.00  0.00     0.293 HD
ENDBRANCH   9  12
BRANCH  11  14
ATOM     14  O   UNL     1     -31.307   9.426 -32.847  1.00  0.00    -0.504 OA
ATOM     15  H   UNL     1     -31.157  10.002 -32.028  1.00  0.00     0.293 HD
ENDBRANCH  11  14
ENDBRANCH   1   6
TORSDOF 5
ENDMDL
MODEL 6
REMARK VINA RESULT:    -4.121     16.440     17.909
REMARK INTER + INTRA:          -5.244
REMARK INTER:                  -5.071
REMARK INTRA:                  -0.173
REMARK UNBOUND:                -0.159
REMARK SMILES CCOC(=O)c1ccc(O)c(O)c1
REMARK SMILES IDX 4 1 5 2 3 3 2 4 1 5 6 6 13 7 7 8 11 9 8 10 9 11 12 12 10 14
REMARK H PARENT 12 13 10 15
REMARK Flexibility Score: inf
ROOT
ATOM      1  C   UNL     1     -24.468  24.750 -30.975  1.00  0.00     0.338 C 
ATOM      2  O   UNL     1     -25.665  24.782 -30.574  1.00  0.00    -0.246 OA
ENDROOT
BRANCH   1   3
ATOM      3  O   UNL     1     -23.564  23.836 -30.415  1.00  0.00    -0.462 OA
BRANCH   3   4
ATOM      4  C   UNL     1     -22.825  24.091 -29.223  1.00  0.00     0.230 C 
ATOM      5  C   UNL     1     -23.186  23.082 -28.140  1.00  0.00     0.049 C 
ENDBRANCH   3   4
ENDBRANCH   1   3
BRANCH   1   6
ATOM      6  C   UNL     1     -24.018  25.671 -32.041  1.00  0.00     0.064 A 
ATOM      7  C   UNL     1     -23.573  26.969 -31.729  1.00  0.00     0.065 A 
ATOM      8  C   UNL     1     -24.026  25.258 -33.386  1.00  0.00     0.020 A 
ATOM      9  C   UNL     1     -23.146  27.839 -32.743  1.00  0.00     0.158 A 
ATOM     10  C   UNL     1     -23.601  26.125 -34.395  1.00  0.00     0.051 A 
ATOM     11  C   UNL     1     -23.160  27.417 -34.077  1.00  0.00     0.157 A 
BRANCH   9  12
ATOM     12  O   UNL     1     -22.706  29.125 -32.431  1.00  0.00    -0.504 OA
ATOM     13  H   UNL     1     -22.838  29.900 -33.070  1.00  0.00     0.293 HD
ENDBRANCH   9  12
BRANCH  11  14
ATOM     14  O   UNL     1     -22.735  28.284 -35.083  1.00  0.00    -0.504 OA
ATOM     15  H   UNL     1     -22.576  29.268 -34.901  1.00  0.00     0.293 HD
ENDBRANCH  11  14
ENDBRANCH   1   6
TORSDOF 5
ENDMDL
MODEL 7
REMARK VINA RESULT:    -4.040     17.551     19.200
REMARK INTER + INTRA:          -5.144
REMARK INTER:                  -4.959
REMARK INTRA:                  -0.185
REMARK UNBOUND:                -0.159
REMARK SMILES CCOC(=O)c1ccc(O)c(O)c1
REMARK SMILES IDX 4 1 5 2 3 3 2 4 1 5 6 6 13 7 7 8 11 9 8 10 9 11 12 12 10 14
REMARK H PARENT 12 13 10 15
REMARK Flexibility Score: inf
ROOT
ATOM      1  C   UNL     1     -22.941  27.665 -34.843  1.00  0.00     0.338 C 
ATOM      2  O   UNL     1     -21.972  27.186 -35.495  1.00  0.00    -0.246 OA
ENDROOT
BRANCH   1   3
ATOM      3  O   UNL     1     -23.598  28.814 -35.304  1.00  0.00    -0.462 OA
BRANCH   3   4
ATOM      4  C   UNL     1     -23.793  29.109 -36.685  1.00  0.00     0.230 C 
ATOM      5  C   UNL     1     -25.212  28.757 -37.116  1.00  0.00     0.049 C 
ENDBRANCH   3   4
ENDBRANCH   1   3
BRANCH   1   6
ATOM      6  C   UNL     1     -23.392  27.011 -33.594  1.00  0.00     0.064 A 
ATOM      7  C   UNL     1     -23.286  27.674 -32.358  1.00  0.00     0.065 A 
ATOM      8  C   UNL     1     -23.935  25.714 -33.629  1.00  0.00     0.020 A 
ATOM      9  C   UNL     1     -23.715  27.050 -31.177  1.00  0.00     0.158 A 
ATOM     10  C   UNL     1     -24.361  25.094 -32.452  1.00  0.00     0.051 A 
ATOM     11  C   UNL     1     -24.253  25.759 -31.224  1.00  0.00     0.157 A 
BRANCH   9  12
ATOM     12  O   UNL     1     -23.609  27.709 -29.952  1.00  0.00    -0.504 OA
ATOM     13  H   UNL     1     -24.321  28.356 -29.635  1.00  0.00     0.293 HD
ENDBRANCH   9  12
BRANCH  11  14
ATOM     14  O   UNL     1     -24.678  25.143 -30.048  1.00  0.00    -0.504 OA
ATOM     15  H   UNL     1     -24.380  24.207 -29.802  1.00  0.00     0.293 HD
ENDBRANCH  11  14
ENDBRANCH   1   6
TORSDOF 5
ENDMDL
MODEL 8
REMARK VINA RESULT:    -3.973     16.019     18.003
REMARK INTER + INTRA:          -5.062
REMARK INTER:                  -4.926
REMARK INTRA:                  -0.136
REMARK UNBOUND:                -0.159
REMARK SMILES CCOC(=O)c1ccc(O)c(O)c1
REMARK SMILES IDX 4 1 5 2 3 3 2 4 1 5 6 6 13 7 7 8 11 9 8 10 9 11 12 12 10 14
REMARK H PARENT 12 13 10 15
REMARK Flexibility Score: inf
ROOT
ATOM      1  C   UNL     1     -24.969  24.885 -31.957  1.00  0.00     0.338 C 
ATOM      2  O   UNL     1     -24.985  25.018 -33.212  1.00  0.00    -0.246 OA
ENDROOT
BRANCH   1   3
ATOM      3  O   UNL     1     -25.915  24.066 -31.325  1.00  0.00    -0.462 OA
BRANCH   3   4
ATOM      4  C   UNL     1     -27.262  23.930 -31.772  1.00  0.00     0.230 C 
ATOM      5  C   UNL     1     -27.441  22.639 -32.562  1.00  0.00     0.049 C 
ENDBRANCH   3   4
ENDBRANCH   1   3
BRANCH   1   6
ATOM      6  C   UNL     1     -23.948  25.587 -31.149  1.00  0.00     0.064 A 
ATOM      7  C   UNL     1     -23.732  26.968 -31.307  1.00  0.00     0.065 A 
ATOM      8  C   UNL     1     -23.179  24.880 -30.208  1.00  0.00     0.020 A 
ATOM      9  C   UNL     1     -22.763  27.630 -30.538  1.00  0.00     0.158 A 
ATOM     10  C   UNL     1     -22.214  25.540 -29.443  1.00  0.00     0.051 A 
ATOM     11  C   UNL     1     -22.004  26.915 -29.605  1.00  0.00     0.157 A 
BRANCH   9  12
ATOM     12  O   UNL     1     -22.551  28.999 -30.697  1.00  0.00    -0.504 OA
ATOM     13  H   UNL     1     -23.272  29.677 -30.477  1.00  0.00     0.293 HD
ENDBRANCH   9  12
BRANCH  11  14
ATOM     14  O   UNL     1     -21.041  27.577 -28.843  1.00  0.00    -0.504 OA
ATOM     15  H   UNL     1     -20.774  27.246 -27.924  1.00  0.00     0.293 HD
ENDBRANCH  11  14
ENDBRANCH   1   6
TORSDOF 5
ENDMDL
MODEL 9
REMARK VINA RESULT:    -3.863     16.474     18.479
REMARK INTER + INTRA:          -4.926
REMARK INTER:                  -4.745
REMARK INTRA:                  -0.181
REMARK UNBOUND:                -0.159
REMARK SMILES CCOC(=O)c1ccc(O)c(O)c1
REMARK SMILES IDX 4 1 5 2 3 3 2 4 1 5 6 6 13 7 7 8 11 9 8 10 9 11 12 12 10 14
REMARK H PARENT 12 13 10 15
REMARK Flexibility Score: inf
ROOT
ATOM      1  C   UNL     1     -22.343  24.113 -29.527  1.00  0.00     0.338 C 
ATOM      2  O   UNL     1     -21.105  23.873 -29.470  1.00  0.00    -0.246 OA
ENDROOT
BRANCH   1   3
ATOM      3  O   UNL     1     -23.266  23.146 -29.105  1.00  0.00    -0.462 OA
BRANCH   3   4
ATOM      4  C   UNL     1     -23.130  22.402 -27.897  1.00  0.00     0.230 C 
ATOM      5  C   UNL     1     -24.243  22.754 -26.918  1.00  0.00     0.049 C 
ENDBRANCH   3   4
ENDBRANCH   1   3
BRANCH   1   6
ATOM      6  C   UNL     1     -22.824  25.417 -30.033  1.00  0.00     0.064 A 
ATOM      7  C   UNL     1     -22.185  26.613 -29.656  1.00  0.00     0.065 A 
ATOM      8  C   UNL     1     -23.928  25.479 -30.902  1.00  0.00     0.020 A 
ATOM      9  C   UNL     1     -22.643  27.848 -30.140  1.00  0.00     0.158 A 
ATOM     10  C   UNL     1     -24.384  26.709 -31.381  1.00  0.00     0.051 A 
ATOM     11  C   UNL     1     -23.744  27.896 -31.003  1.00  0.00     0.157 A 
BRANCH   9  12
ATOM     12  O   UNL     1     -22.008  29.032 -29.764  1.00  0.00    -0.504 OA
ATOM     13  H   UNL     1     -21.302  29.048 -29.039  1.00  0.00     0.293 HD
ENDBRANCH   9  12
BRANCH  11  14
ATOM     14  O   UNL     1     -24.197  29.125 -31.480  1.00  0.00    -0.504 OA
ATOM     15  H   UNL     1     -24.193  29.343 -32.469  1.00  0.00     0.293 HD
ENDBRANCH  11  14
ENDBRANCH   1   6
TORSDOF 5
ENDMDL
