MODEL 1
REMARK VINA RESULT:    -5.438      0.000      0.000
REMARK INTER + INTRA:          -5.790
REMARK INTER:                  -5.756
REMARK INTRA:                  -0.033
REMARK UNBOUND:                -0.033
REMARK SMILES COc1ccc2ccc(=O)oc2c1
REMARK SMILES IDX 3 1 13 2 12 3 6 4 5 5 4 6 7 7 8 8 9 9 10 10 11 11 2 12 1 13
REMARK H PARENT
REMARK Flexibility Score: inf
ROOT
ATOM      1  C   UNL     1     -11.762 -19.300  -6.368  1.00  0.00     0.122 A 
ATOM      2  C   UNL     1     -10.704 -20.158  -6.008  1.00  0.00     0.094 A 
ATOM      3  C   UNL     1      -9.401 -19.892  -6.444  1.00  0.00     0.142 A 
ATOM      4  C   UNL     1      -9.146 -18.761  -7.249  1.00  0.00     0.018 A 
ATOM      5  C   UNL     1     -10.197 -17.909  -7.608  1.00  0.00     0.016 A 
ATOM      6  C   UNL     1     -11.496 -18.180  -7.167  1.00  0.00     0.047 A 
ATOM      7  C   UNL     1      -7.833 -18.524  -7.669  1.00  0.00     0.019 A 
ATOM      8  C   UNL     1      -6.822 -19.404  -7.285  1.00  0.00     0.094 A 
ATOM      9  C   UNL     1      -7.149 -20.504  -6.486  1.00  0.00     0.336 A 
ATOM     10  O   UNL     1      -6.250 -21.311  -6.129  1.00  0.00    -0.246 OA
ATOM     11  O   UNL     1      -8.406 -20.707  -6.100  1.00  0.00    -0.423 OA
ENDROOT
BRANCH   1  12
ATOM     12  O   UNL     1     -13.084 -19.523  -5.956  1.00  0.00    -0.497 OA
ATOM     13  C   UNL     1     -14.088 -20.126  -6.766  1.00  0.00     0.278 C 
ENDBRANCH   1  12
TORSDOF 1
ENDMDL
MODEL 2
REMARK VINA RESULT:    -5.430     12.910     14.651
REMARK INTER + INTRA:          -5.781
REMARK INTER:                  -5.748
REMARK INTRA:                  -0.033
REMARK UNBOUND:                -0.033
REMARK SMILES COc1ccc2ccc(=O)oc2c1
REMARK SMILES IDX 3 1 13 2 12 3 6 4 5 5 4 6 7 7 8 8 9 9 10 10 11 11 2 12 1 13
REMARK H PARENT
REMARK Flexibility Score: inf
ROOT
ATOM      1  C   UNL     1     -13.308  -9.641 -15.113  1.00  0.00     0.122 A 
ATOM      2  C   UNL     1     -14.016 -10.336 -16.113  1.00  0.00     0.094 A 
ATOM      3  C   UNL     1     -15.385 -10.588 -15.962  1.00  0.00     0.142 A 
ATOM      4  C   UNL     1     -16.057 -10.145 -14.802  1.00  0.00     0.018 A 
ATOM      5  C   UNL     1     -15.353  -9.455 -13.809  1.00  0.00     0.016 A 
ATOM      6  C   UNL     1     -13.986  -9.205 -13.967  1.00  0.00     0.047 A 
ATOM      7  C   UNL     1     -17.425 -10.413 -14.682  1.00  0.00     0.019 A 
ATOM      8  C   UNL     1     -18.080 -11.104 -15.700  1.00  0.00     0.094 A 
ATOM      9  C   UNL     1     -17.348 -11.513 -16.820  1.00  0.00     0.336 A 
ATOM     10  O   UNL     1     -17.922 -12.139 -17.750  1.00  0.00    -0.246 OA
ATOM     11  O   UNL     1     -16.048 -11.245 -16.910  1.00  0.00    -0.423 OA
ENDROOT
BRANCH   1  12
ATOM     12  O   UNL     1     -11.937  -9.364 -15.218  1.00  0.00    -0.497 OA
ATOM     13  C   UNL     1     -10.905 -10.219 -14.737  1.00  0.00     0.278 C 
ENDBRANCH   1  12
TORSDOF 1
ENDMDL
MODEL 3
REMARK VINA RESULT:    -5.375      1.315      4.718
REMARK INTER + INTRA:          -5.723
REMARK INTER:                  -5.689
REMARK INTRA:                  -0.034
REMARK UNBOUND:                -0.033
REMARK SMILES COc1ccc2ccc(=O)oc2c1
REMARK SMILES IDX 3 1 13 2 12 3 6 4 5 5 4 6 7 7 8 8 9 9 10 10 11 11 2 12 1 13
REMARK H PARENT
REMARK Flexibility Score: inf
ROOT
ATOM      1  C   UNL     1      -7.732 -19.652  -6.794  1.00  0.00     0.122 A 
ATOM      2  C   UNL     1      -8.730 -20.416  -6.158  1.00  0.00     0.094 A 
ATOM      3  C   UNL     1     -10.066 -20.000  -6.194  1.00  0.00     0.142 A 
ATOM      4  C   UNL     1     -10.414 -18.811  -6.870  1.00  0.00     0.018 A 
ATOM      5  C   UNL     1      -9.422 -18.052  -7.502  1.00  0.00     0.016 A 
ATOM      6  C   UNL     1      -8.090 -18.474  -7.463  1.00  0.00     0.047 A 
ATOM      7  C   UNL     1     -11.758 -18.423  -6.887  1.00  0.00     0.019 A 
ATOM      8  C   UNL     1     -12.707 -19.214  -6.242  1.00  0.00     0.094 A 
ATOM      9  C   UNL     1     -12.288 -20.380  -5.592  1.00  0.00     0.336 A 
ATOM     10  O   UNL     1     -13.131 -21.108  -5.003  1.00  0.00    -0.246 OA
ATOM     11  O   UNL     1     -11.004 -20.726  -5.590  1.00  0.00    -0.423 OA
ENDROOT
BRANCH   1  12
ATOM     12  O   UNL     1      -6.380 -20.026  -6.786  1.00  0.00    -0.497 OA
ATOM     13  C   UNL     1      -5.588 -20.156  -5.610  1.00  0.00     0.278 C 
ENDBRANCH   1  12
TORSDOF 1
ENDMDL
MODEL 4
REMARK VINA RESULT:    -5.267      1.730      5.386
REMARK INTER + INTRA:          -5.609
REMARK INTER:                  -5.573
REMARK INTRA:                  -0.036
REMARK UNBOUND:                -0.033
REMARK SMILES COc1ccc2ccc(=O)oc2c1
REMARK SMILES IDX 3 1 13 2 12 3 6 4 5 5 4 6 7 7 8 8 9 9 10 10 11 11 2 12 1 13
REMARK H PARENT
REMARK Flexibility Score: inf
ROOT
ATOM      1  C   UNL     1      -9.316 -20.106  -6.843  1.00  0.00     0.122 A 
ATOM      2  C   UNL     1     -10.249 -20.050  -7.898  1.00  0.00     0.094 A 
ATOM      3  C   UNL     1     -11.612 -20.241  -7.644  1.00  0.00     0.142 A 
ATOM      4  C   UNL     1     -12.053 -20.492  -6.327  1.00  0.00     0.018 A 
ATOM      5  C   UNL     1     -11.127 -20.547  -5.280  1.00  0.00     0.016 A 
ATOM      6  C   UNL     1      -9.767 -20.354  -5.540  1.00  0.00     0.047 A 
ATOM      7  C   UNL     1     -13.422 -20.679  -6.108  1.00  0.00     0.019 A 
ATOM      8  C   UNL     1     -14.304 -20.614  -7.185  1.00  0.00     0.094 A 
ATOM      9  C   UNL     1     -13.794 -20.362  -8.463  1.00  0.00     0.336 A 
ATOM     10  O   UNL     1     -14.575 -20.300  -9.450  1.00  0.00    -0.246 OA
ATOM     11  O   UNL     1     -12.488 -20.188  -8.645  1.00  0.00    -0.423 OA
ENDROOT
BRANCH   1  12
ATOM     12  O   UNL     1      -7.940 -19.921  -7.046  1.00  0.00    -0.497 OA
ATOM     13  C   UNL     1      -7.376 -18.864  -7.814  1.00  0.00     0.278 C 
ENDBRANCH   1  12
TORSDOF 1
ENDMDL
MODEL 5
REMARK VINA RESULT:    -5.241      2.028      3.083
REMARK INTER + INTRA:          -5.581
REMARK INTER:                  -5.541
REMARK INTRA:                  -0.040
REMARK UNBOUND:                -0.033
REMARK SMILES COc1ccc2ccc(=O)oc2c1
REMARK SMILES IDX 3 1 13 2 12 3 6 4 5 5 4 6 7 7 8 8 9 9 10 10 11 11 2 12 1 13
REMARK H PARENT
REMARK Flexibility Score: inf
ROOT
ATOM      1  C   UNL     1     -13.858 -20.315  -7.824  1.00  0.00     0.122 A 
ATOM      2  C   UNL     1     -12.572 -20.222  -8.392  1.00  0.00     0.094 A 
ATOM      3  C   UNL     1     -11.436 -20.261  -7.576  1.00  0.00     0.142 A 
ATOM      4  C   UNL     1     -11.579 -20.393  -6.178  1.00  0.00     0.018 A 
ATOM      5  C   UNL     1     -12.857 -20.485  -5.613  1.00  0.00     0.016 A 
ATOM      6  C   UNL     1     -13.987 -20.446  -6.435  1.00  0.00     0.047 A 
ATOM      7  C   UNL     1     -10.424 -20.428  -5.390  1.00  0.00     0.019 A 
ATOM      8  C   UNL     1      -9.175 -20.333  -6.001  1.00  0.00     0.094 A 
ATOM      9  C   UNL     1      -9.110 -20.203  -7.393  1.00  0.00     0.336 A 
ATOM     10  O   UNL     1      -7.991 -20.115  -7.964  1.00  0.00    -0.246 OA
ATOM     11  O   UNL     1     -10.224 -20.172  -8.119  1.00  0.00    -0.423 OA
ENDROOT
BRANCH   1  12
ATOM     12  O   UNL     1     -15.026 -20.281  -8.599  1.00  0.00    -0.497 OA
ATOM     13  C   UNL     1     -16.346 -20.342  -8.068  1.00  0.00     0.278 C 
ENDBRANCH   1  12
TORSDOF 1
ENDMDL
MODEL 6
REMARK VINA RESULT:    -5.144      2.940      4.282
REMARK INTER + INTRA:          -5.478
REMARK INTER:                  -5.440
REMARK INTRA:                  -0.038
REMARK UNBOUND:                -0.033
REMARK SMILES COc1ccc2ccc(=O)oc2c1
REMARK SMILES IDX 3 1 13 2 12 3 6 4 5 5 4 6 7 7 8 8 9 9 10 10 11 11 2 12 1 13
REMARK H PARENT
REMARK Flexibility Score: inf
ROOT
ATOM      1  C   UNL     1     -12.706 -21.610  -9.132  1.00  0.00     0.122 A 
ATOM      2  C   UNL     1     -11.582 -20.764  -9.048  1.00  0.00     0.094 A 
ATOM      3  C   UNL     1     -11.505 -19.792  -8.044  1.00  0.00     0.142 A 
ATOM      4  C   UNL     1     -12.558 -19.659  -7.113  1.00  0.00     0.018 A 
ATOM      5  C   UNL     1     -13.675 -20.499  -7.197  1.00  0.00     0.016 A 
ATOM      6  C   UNL     1     -13.744 -21.468  -8.203  1.00  0.00     0.047 A 
ATOM      7  C   UNL     1     -12.451 -18.677  -6.122  1.00  0.00     0.019 A 
ATOM      8  C   UNL     1     -11.318 -17.866  -6.081  1.00  0.00     0.094 A 
ATOM      9  C   UNL     1     -10.315 -18.056  -7.037  1.00  0.00     0.336 A 
ATOM     10  O   UNL     1      -9.283 -17.332  -7.017  1.00  0.00    -0.246 OA
ATOM     11  O   UNL     1     -10.441 -18.996  -7.969  1.00  0.00    -0.423 OA
ENDROOT
BRANCH   1  12
ATOM     12  O   UNL     1     -12.829 -22.598 -10.120  1.00  0.00    -0.497 OA
ATOM     13  C   UNL     1     -11.744 -23.107 -10.889  1.00  0.00     0.278 C 
ENDBRANCH   1  12
TORSDOF 1
ENDMDL
MODEL 7
REMARK VINA RESULT:    -4.995     13.750     14.820
REMARK INTER + INTRA:          -5.320
REMARK INTER:                  -5.286
REMARK INTRA:                  -0.035
REMARK UNBOUND:                -0.033
REMARK SMILES COc1ccc2ccc(=O)oc2c1
REMARK SMILES IDX 3 1 13 2 12 3 6 4 5 5 4 6 7 7 8 8 9 9 10 10 11 11 2 12 1 13
REMARK H PARENT
REMARK Flexibility Score: inf
ROOT
ATOM      1  C   UNL     1     -12.591  -9.611 -16.319  1.00  0.00     0.122 A 
ATOM      2  C   UNL     1     -13.767 -10.169 -16.858  1.00  0.00     0.094 A 
ATOM      3  C   UNL     1     -14.934 -10.234 -16.089  1.00  0.00     0.142 A 
ATOM      4  C   UNL     1     -14.932  -9.739 -14.767  1.00  0.00     0.018 A 
ATOM      5  C   UNL     1     -13.764  -9.185 -14.231  1.00  0.00     0.016 A 
ATOM      6  C   UNL     1     -12.602  -9.122 -15.006  1.00  0.00     0.047 A 
ATOM      7  C   UNL     1     -16.115  -9.819 -14.024  1.00  0.00     0.019 A 
ATOM      8  C   UNL     1     -17.252 -10.381 -14.603  1.00  0.00     0.094 A 
ATOM      9  C   UNL     1     -17.178 -10.851 -15.919  1.00  0.00     0.336 A 
ATOM     10  O   UNL     1     -18.194 -11.362 -16.460  1.00  0.00    -0.246 OA
ATOM     11  O   UNL     1     -16.041 -10.763 -16.604  1.00  0.00    -0.423 OA
ENDROOT
BRANCH   1  12
ATOM     12  O   UNL     1     -11.397  -9.523 -17.050  1.00  0.00    -0.497 OA
ATOM     13  C   UNL     1     -10.119  -9.907 -16.552  1.00  0.00     0.278 C 
ENDBRANCH   1  12
TORSDOF 1
ENDMDL
MODEL 8
REMARK VINA RESULT:    -4.987      1.490      2.208
REMARK INTER + INTRA:          -5.312
REMARK INTER:                  -5.278
REMARK INTRA:                  -0.033
REMARK UNBOUND:                -0.033
REMARK SMILES COc1ccc2ccc(=O)oc2c1
REMARK SMILES IDX 3 1 13 2 12 3 6 4 5 5 4 6 7 7 8 8 9 9 10 10 11 11 2 12 1 13
REMARK H PARENT
REMARK Flexibility Score: inf
ROOT
ATOM      1  C   UNL     1     -11.887 -19.563  -6.384  1.00  0.00     0.122 A 
ATOM      2  C   UNL     1     -10.943 -18.970  -7.244  1.00  0.00     0.094 A 
ATOM      3  C   UNL     1      -9.585 -19.287  -7.126  1.00  0.00     0.142 A 
ATOM      4  C   UNL     1      -9.161 -20.205  -6.141  1.00  0.00     0.018 A 
ATOM      5  C   UNL     1     -10.100 -20.795  -5.287  1.00  0.00     0.016 A 
ATOM      6  C   UNL     1     -11.455 -20.474  -5.411  1.00  0.00     0.047 A 
ATOM      7  C   UNL     1      -7.797 -20.501  -6.049  1.00  0.00     0.019 A 
ATOM      8  C   UNL     1      -6.902 -19.887  -6.924  1.00  0.00     0.094 A 
ATOM      9  C   UNL     1      -7.394 -18.987  -7.875  1.00  0.00     0.336 A 
ATOM     10  O   UNL     1      -6.602 -18.421  -8.674  1.00  0.00    -0.246 OA
ATOM     11  O   UNL     1      -8.697 -18.723  -7.941  1.00  0.00    -0.423 OA
ENDROOT
BRANCH   1  12
ATOM     12  O   UNL     1     -13.259 -19.277  -6.463  1.00  0.00    -0.497 OA
ATOM     13  C   UNL     1     -14.217 -20.109  -7.109  1.00  0.00     0.278 C 
ENDBRANCH   1  12
TORSDOF 1
ENDMDL
MODEL 9
REMARK VINA RESULT:    -4.936     13.031     14.494
REMARK INTER + INTRA:          -5.258
REMARK INTER:                  -5.223
REMARK INTRA:                  -0.035
REMARK UNBOUND:                -0.033
REMARK SMILES COc1ccc2ccc(=O)oc2c1
REMARK SMILES IDX 3 1 13 2 12 3 6 4 5 5 4 6 7 7 8 8 9 9 10 10 11 11 2 12 1 13
REMARK H PARENT
REMARK Flexibility Score: inf
ROOT
ATOM      1  C   UNL     1     -12.706  -9.601 -16.799  1.00  0.00     0.122 A 
ATOM      2  C   UNL     1     -13.093  -9.664 -15.446  1.00  0.00     0.094 A 
ATOM      3  C   UNL     1     -14.391 -10.056 -15.102  1.00  0.00     0.142 A 
ATOM      4  C   UNL     1     -15.316 -10.389 -16.114  1.00  0.00     0.018 A 
ATOM      5  C   UNL     1     -14.932 -10.327 -17.459  1.00  0.00     0.016 A 
ATOM      6  C   UNL     1     -13.632  -9.935 -17.795  1.00  0.00     0.047 A 
ATOM      7  C   UNL     1     -16.606 -10.777 -15.737  1.00  0.00     0.019 A 
ATOM      8  C   UNL     1     -16.940 -10.823 -14.384  1.00  0.00     0.094 A 
ATOM      9  C   UNL     1     -15.971 -10.479 -13.436  1.00  0.00     0.336 A 
ATOM     10  O   UNL     1     -16.252 -10.514 -12.209  1.00  0.00    -0.246 OA
ATOM     11  O   UNL     1     -14.751 -10.113 -13.821  1.00  0.00    -0.423 OA
ENDROOT
BRANCH   1  12
ATOM     12  O   UNL     1     -11.416  -9.214 -17.195  1.00  0.00    -0.497 OA
ATOM     13  C   UNL     1     -10.214  -9.780 -16.683  1.00  0.00     0.278 C 
ENDBRANCH   1  12
TORSDOF 1
ENDMDL
