MODEL 1
REMARK VINA RESULT:    -5.883      0.000      0.000
REMARK INTER + INTRA:          -7.415
REMARK INTER:                  -7.086
REMARK INTRA:                  -0.328
REMARK UNBOUND:                -0.328
REMARK SMILES Oc1cc(O)c2c(c1)O[C@H](c1ccc(O)c(O)c1)[C@@H](O)C2
REMARK SMILES IDX 21 1 19 2 10 3 9 4 7 5 8 6 2 7 3 8 4 9 6 10 20 11 11 13
REMARK SMILES IDX 18 14 12 15 16 16 13 17 14 18 17 19 15 21 5 23 1 25
REMARK H PARENT 20 12 17 20 15 22 5 24 1 26
REMARK Flexibility Score: inf
ROOT
ATOM      1  C   UNL     1       9.283  -8.256  -8.646  1.00  0.00     0.079 C 
ATOM      2  C   UNL     1      10.054  -7.425  -9.690  1.00  0.00     0.164 C 
ATOM      3  C   UNL     1      11.112  -6.545  -8.997  1.00  0.00     0.232 C 
ATOM      4  O   UNL     1      10.482  -5.717  -8.019  1.00  0.00    -0.482 OA
ATOM      5  C   UNL     1       9.433  -6.176  -7.214  1.00  0.00     0.131 A 
ATOM      6  C   UNL     1       8.995  -5.378  -6.154  1.00  0.00     0.093 A 
ATOM      7  C   UNL     1       7.958  -5.815  -5.324  1.00  0.00     0.122 A 
ATOM      8  C   UNL     1       7.365  -7.059  -5.550  1.00  0.00     0.092 A 
ATOM      9  C   UNL     1       7.790  -7.872  -6.607  1.00  0.00     0.126 A 
ATOM     10  C   UNL     1       8.810  -7.416  -7.477  1.00  0.00     0.039 A 
ENDROOT
BRANCH   2  11
ATOM     11  O   UNL     1      10.635  -8.264 -10.657  1.00  0.00    -0.389 OA
ATOM     12  H   UNL     1      10.267  -8.004 -11.542  1.00  0.00     0.211 HD
ENDBRANCH   2  11
BRANCH   3  13
ATOM     13  C   UNL     1      11.844  -5.683  -9.998  1.00  0.00    -0.001 A 
ATOM     14  C   UNL     1      13.249  -5.690 -10.044  1.00  0.00     0.057 A 
ATOM     15  C   UNL     1      11.133  -4.903 -10.925  1.00  0.00     0.012 A 
ATOM     16  C   UNL     1      13.934  -4.914 -10.989  1.00  0.00     0.157 A 
ATOM     17  C   UNL     1      11.814  -4.129 -11.868  1.00  0.00     0.050 A 
ATOM     18  C   UNL     1      13.212  -4.128 -11.904  1.00  0.00     0.157 A 
BRANCH  16  19
ATOM     19  O   UNL     1      15.328  -4.922 -11.025  1.00  0.00    -0.504 OA
ATOM     20  H   UNL     1      15.838  -5.444 -11.728  1.00  0.00     0.293 HD
ENDBRANCH  16  19
BRANCH  18  21
ATOM     21  O   UNL     1      13.864  -3.345 -12.856  1.00  0.00    -0.504 OA
ATOM     22  H   UNL     1      14.250  -3.740 -13.705  1.00  0.00     0.293 HD
ENDBRANCH  18  21
ENDBRANCH   3  13
BRANCH   9  23
ATOM     23  O   UNL     1       7.190  -9.124  -6.754  1.00  0.00    -0.507 OA
ATOM     24  H   UNL     1       6.345  -9.396  -6.270  1.00  0.00     0.293 HD
ENDBRANCH   9  23
BRANCH   7  25
ATOM     25  O   UNL     1       7.515  -5.024  -4.265  1.00  0.00    -0.508 OA
ATOM     26  H   UNL     1       6.528  -4.863  -4.101  1.00  0.00     0.293 HD
ENDBRANCH   7  25
TORSDOF 6
ENDMDL
MODEL 2
REMARK VINA RESULT:    -5.846      1.447      6.869
REMARK INTER + INTRA:          -7.371
REMARK INTER:                  -7.578
REMARK INTRA:                   0.207
REMARK UNBOUND:                -0.328
REMARK SMILES Oc1cc(O)c2c(c1)O[C@H](c1ccc(O)c(O)c1)[C@@H](O)C2
REMARK SMILES IDX 21 1 19 2 10 3 9 4 7 5 8 6 2 7 3 8 4 9 6 10 20 11 11 13
REMARK SMILES IDX 18 14 12 15 16 16 13 17 14 18 17 19 15 21 5 23 1 25
REMARK H PARENT 20 12 17 20 15 22 5 24 1 26
REMARK Flexibility Score: inf
ROOT
ATOM      1  C   UNL     1       9.314  -8.056 -10.438  1.00  0.00     0.079 C 
ATOM      2  C   UNL     1       8.815  -8.120  -8.981  1.00  0.00     0.164 C 
ATOM      3  C   UNL     1       8.899  -6.728  -8.326  1.00  0.00     0.232 C 
ATOM      4  O   UNL     1      10.238  -6.239  -8.408  1.00  0.00    -0.482 OA
ATOM      5  C   UNL     1      11.041  -6.444  -9.535  1.00  0.00     0.131 A 
ATOM      6  C   UNL     1      12.266  -5.777  -9.623  1.00  0.00     0.093 A 
ATOM      7  C   UNL     1      13.085  -5.951 -10.744  1.00  0.00     0.122 A 
ATOM      8  C   UNL     1      12.671  -6.785 -11.783  1.00  0.00     0.092 A 
ATOM      9  C   UNL     1      11.447  -7.461 -11.714  1.00  0.00     0.126 A 
ATOM     10  C   UNL     1      10.634  -7.324 -10.562  1.00  0.00     0.039 A 
ENDROOT
BRANCH   2  11
ATOM     11  O   UNL     1       7.507  -8.636  -8.929  1.00  0.00    -0.389 OA
ATOM     12  H   UNL     1       6.918  -7.924  -8.567  1.00  0.00     0.211 HD
ENDBRANCH   2  11
BRANCH   3  13
ATOM     13  C   UNL     1       8.464  -6.779  -6.880  1.00  0.00    -0.001 A 
ATOM     14  C   UNL     1       8.341  -5.594  -6.136  1.00  0.00     0.057 A 
ATOM     15  C   UNL     1       8.130  -8.004  -6.277  1.00  0.00     0.012 A 
ATOM     16  C   UNL     1       7.910  -5.631  -4.802  1.00  0.00     0.157 A 
ATOM     17  C   UNL     1       7.701  -8.043  -4.948  1.00  0.00     0.050 A 
ATOM     18  C   UNL     1       7.591  -6.863  -4.205  1.00  0.00     0.157 A 
BRANCH  16  19
ATOM     19  O   UNL     1       7.796  -4.450  -4.069  1.00  0.00    -0.504 OA
ATOM     20  H   UNL     1       8.323  -3.620  -4.315  1.00  0.00     0.293 HD
ENDBRANCH  16  19
BRANCH  18  21
ATOM     21  O   UNL     1       7.160  -6.934  -2.881  1.00  0.00    -0.504 OA
ATOM     22  H   UNL     1       7.277  -6.161  -2.235  1.00  0.00     0.293 HD
ENDBRANCH  18  21
ENDBRANCH   3  13
BRANCH   9  23
ATOM     23  O   UNL     1      11.067  -8.245 -12.805  1.00  0.00    -0.507 OA
ATOM     24  H   UNL     1      11.684  -8.462 -13.575  1.00  0.00     0.293 HD
ENDBRANCH   9  23
BRANCH   7  25
ATOM     25  O   UNL     1      14.308  -5.290 -10.837  1.00  0.00    -0.508 OA
ATOM     26  H   UNL     1      14.750  -5.118 -11.734  1.00  0.00     0.293 HD
ENDBRANCH   7  25
TORSDOF 6
ENDMDL
MODEL 3
REMARK VINA RESULT:    -5.816      1.951      6.668
REMARK INTER + INTRA:          -7.334
REMARK INTER:                  -7.110
REMARK INTRA:                  -0.224
REMARK UNBOUND:                -0.328
REMARK SMILES Oc1cc(O)c2c(c1)O[C@H](c1ccc(O)c(O)c1)[C@@H](O)C2
REMARK SMILES IDX 21 1 19 2 10 3 9 4 7 5 8 6 2 7 3 8 4 9 6 10 20 11 11 13
REMARK SMILES IDX 18 14 12 15 16 16 13 17 14 18 17 19 15 21 5 23 1 25
REMARK H PARENT 20 12 17 20 15 22 5 24 1 26
REMARK Flexibility Score: inf
ROOT
ATOM      1  C   UNL     1      11.654  -8.611 -11.064  1.00  0.00     0.079 C 
ATOM      2  C   UNL     1      10.842  -8.225  -9.812  1.00  0.00     0.164 C 
ATOM      3  C   UNL     1      10.338  -6.774  -9.928  1.00  0.00     0.232 C 
ATOM      4  O   UNL     1      11.446  -5.897 -10.134  1.00  0.00    -0.482 OA
ATOM      5  C   UNL     1      12.534  -6.243 -10.943  1.00  0.00     0.131 A 
ATOM      6  C   UNL     1      13.485  -5.267 -11.251  1.00  0.00     0.093 A 
ATOM      7  C   UNL     1      14.577  -5.579 -12.068  1.00  0.00     0.122 A 
ATOM      8  C   UNL     1      14.709  -6.869 -12.587  1.00  0.00     0.092 A 
ATOM      9  C   UNL     1      13.766  -7.859 -12.291  1.00  0.00     0.126 A 
ATOM     10  C   UNL     1      12.683  -7.562 -11.428  1.00  0.00     0.039 A 
ENDROOT
BRANCH   2  11
ATOM     11  O   UNL     1       9.778  -9.125  -9.616  1.00  0.00    -0.389 OA
ATOM     12  H   UNL     1       9.413  -9.357 -10.510  1.00  0.00     0.211 HD
ENDBRANCH   2  11
BRANCH   3  13
ATOM     13  C   UNL     1       9.584  -6.357  -8.688  1.00  0.00    -0.001 A 
ATOM     14  C   UNL     1      10.257  -5.725  -7.629  1.00  0.00     0.057 A 
ATOM     15  C   UNL     1       8.194  -6.551  -8.598  1.00  0.00     0.012 A 
ATOM     16  C   UNL     1       9.557  -5.310  -6.487  1.00  0.00     0.157 A 
ATOM     17  C   UNL     1       7.496  -6.138  -7.460  1.00  0.00     0.050 A 
ATOM     18  C   UNL     1       8.170  -5.520  -6.402  1.00  0.00     0.157 A 
BRANCH  16  19
ATOM     19  O   UNL     1      10.234  -4.688  -5.438  1.00  0.00    -0.504 OA
ATOM     20  H   UNL     1      11.152  -4.999  -5.141  1.00  0.00     0.293 HD
ENDBRANCH  16  19
BRANCH  18  21
ATOM     21  O   UNL     1       7.446  -5.120  -5.280  1.00  0.00    -0.504 OA
ATOM     22  H   UNL     1       7.568  -4.206  -4.859  1.00  0.00     0.293 HD
ENDBRANCH  18  21
ENDBRANCH   3  13
BRANCH   9  23
ATOM     23  O   UNL     1      13.928  -9.117 -12.876  1.00  0.00    -0.507 OA
ATOM     24  H   UNL     1      13.194  -9.594 -13.380  1.00  0.00     0.293 HD
ENDBRANCH   9  23
BRANCH   7  25
ATOM     25  O   UNL     1      15.530  -4.611 -12.379  1.00  0.00    -0.508 OA
ATOM     26  H   UNL     1      16.178  -4.262 -11.681  1.00  0.00     0.293 HD
ENDBRANCH   7  25
TORSDOF 6
ENDMDL
MODEL 4
REMARK VINA RESULT:    -5.709      8.566     14.147
REMARK INTER + INTRA:          -7.205
REMARK INTER:                  -6.845
REMARK INTRA:                  -0.360
REMARK UNBOUND:                -0.328
REMARK SMILES Oc1cc(O)c2c(c1)O[C@H](c1ccc(O)c(O)c1)[C@@H](O)C2
REMARK SMILES IDX 21 1 19 2 10 3 9 4 7 5 8 6 2 7 3 8 4 9 6 10 20 11 11 13
REMARK SMILES IDX 18 14 12 15 16 16 13 17 14 18 17 19 15 21 5 23 1 25
REMARK H PARENT 20 12 17 20 15 22 5 24 1 26
REMARK Flexibility Score: inf
ROOT
ATOM      1  C   UNL     1      20.376   0.890 -16.069  1.00  0.00     0.079 C 
ATOM      2  C   UNL     1      19.014   0.836 -15.349  1.00  0.00     0.164 C 
ATOM      3  C   UNL     1      18.333  -0.524 -15.598  1.00  0.00     0.232 C 
ATOM      4  O   UNL     1      18.201  -0.745 -17.002  1.00  0.00    -0.482 OA
ATOM      5  C   UNL     1      19.195  -0.373 -17.914  1.00  0.00     0.131 A 
ATOM      6  C   UNL     1      19.083  -0.790 -19.243  1.00  0.00     0.093 A 
ATOM      7  C   UNL     1      20.067  -0.446 -20.176  1.00  0.00     0.122 A 
ATOM      8  C   UNL     1      21.170   0.309 -19.774  1.00  0.00     0.092 A 
ATOM      9  C   UNL     1      21.300   0.736 -18.447  1.00  0.00     0.126 A 
ATOM     10  C   UNL     1      20.285   0.428 -17.509  1.00  0.00     0.039 A 
ENDROOT
BRANCH   2  11
ATOM     11  O   UNL     1      19.171   1.089 -13.975  1.00  0.00    -0.389 OA
ATOM     12  H   UNL     1      19.831   1.824 -13.878  1.00  0.00     0.211 HD
ENDBRANCH   2  11
BRANCH   3  13
ATOM     13  C   UNL     1      16.972  -0.580 -14.944  1.00  0.00    -0.001 A 
ATOM     14  C   UNL     1      16.691  -1.559 -13.976  1.00  0.00     0.057 A 
ATOM     15  C   UNL     1      15.989   0.374 -15.258  1.00  0.00     0.012 A 
ATOM     16  C   UNL     1      15.440  -1.598 -13.345  1.00  0.00     0.157 A 
ATOM     17  C   UNL     1      14.741   0.336 -14.630  1.00  0.00     0.050 A 
ATOM     18  C   UNL     1      14.460  -0.647 -13.676  1.00  0.00     0.157 A 
BRANCH  16  19
ATOM     19  O   UNL     1      15.168  -2.576 -12.389  1.00  0.00    -0.504 OA
ATOM     20  H   UNL     1      15.878  -3.234 -12.086  1.00  0.00     0.293 HD
ENDBRANCH  16  19
BRANCH  18  21
ATOM     21  O   UNL     1      13.206  -0.660 -13.066  1.00  0.00    -0.504 OA
ATOM     22  H   UNL     1      12.972  -0.033 -12.305  1.00  0.00     0.293 HD
ENDBRANCH  18  21
ENDBRANCH   3  13
BRANCH   9  23
ATOM     23  O   UNL     1      22.448   1.449 -18.096  1.00  0.00    -0.507 OA
ATOM     24  H   UNL     1      22.838   2.189 -18.663  1.00  0.00     0.293 HD
ENDBRANCH   9  23
BRANCH   7  25
ATOM     25  O   UNL     1      19.962  -0.857 -21.503  1.00  0.00    -0.508 OA
ATOM     26  H   UNL     1      19.926  -1.839 -21.752  1.00  0.00     0.293 HD
ENDBRANCH   7  25
TORSDOF 6
ENDMDL
MODEL 5
REMARK VINA RESULT:    -5.656      8.913     12.582
REMARK INTER + INTRA:          -7.142
REMARK INTER:                  -7.089
REMARK INTRA:                  -0.053
REMARK UNBOUND:                -0.328
REMARK SMILES Oc1cc(O)c2c(c1)O[C@H](c1ccc(O)c(O)c1)[C@@H](O)C2
REMARK SMILES IDX 21 1 19 2 10 3 9 4 7 5 8 6 2 7 3 8 4 9 6 10 20 11 11 13
REMARK SMILES IDX 18 14 12 15 16 16 13 17 14 18 17 19 15 21 5 23 1 25
REMARK H PARENT 20 12 17 20 15 22 5 24 1 26
REMARK Flexibility Score: inf
ROOT
ATOM      1  C   UNL     1      17.597  -0.630 -14.587  1.00  0.00     0.079 C 
ATOM      2  C   UNL     1      18.521  -0.125 -15.712  1.00  0.00     0.164 C 
ATOM      3  C   UNL     1      18.229  -0.881 -17.022  1.00  0.00     0.232 C 
ATOM      4  O   UNL     1      18.372  -2.286 -16.808  1.00  0.00    -0.482 OA
ATOM      5  C   UNL     1      17.954  -2.908 -15.626  1.00  0.00     0.131 A 
ATOM      6  C   UNL     1      17.949  -4.304 -15.562  1.00  0.00     0.093 A 
ATOM      7  C   UNL     1      17.525  -4.955 -14.399  1.00  0.00     0.122 A 
ATOM      8  C   UNL     1      17.094  -4.207 -13.302  1.00  0.00     0.092 A 
ATOM      9  C   UNL     1      17.091  -2.808 -13.348  1.00  0.00     0.126 A 
ATOM     10  C   UNL     1      17.562  -2.142 -14.506  1.00  0.00     0.039 A 
ENDROOT
BRANCH   2  11
ATOM     11  O   UNL     1      18.383   1.265 -15.878  1.00  0.00    -0.389 OA
ATOM     12  H   UNL     1      19.294   1.651 -15.953  1.00  0.00     0.211 HD
ENDBRANCH   2  11
BRANCH   3  13
ATOM     13  C   UNL     1      19.160  -0.438 -18.126  1.00  0.00    -0.001 A 
ATOM     14  C   UNL     1      20.406   0.133 -17.815  1.00  0.00     0.057 A 
ATOM     15  C   UNL     1      18.815  -0.637 -19.474  1.00  0.00     0.012 A 
ATOM     16  C   UNL     1      21.286   0.520 -18.835  1.00  0.00     0.157 A 
ATOM     17  C   UNL     1      19.692  -0.251 -20.492  1.00  0.00     0.050 A 
ATOM     18  C   UNL     1      20.926   0.329 -20.179  1.00  0.00     0.157 A 
BRANCH  16  19
ATOM     19  O   UNL     1      22.518   1.091 -18.517  1.00  0.00    -0.504 OA
ATOM     20  H   UNL     1      22.813   1.974 -18.918  1.00  0.00     0.293 HD
ENDBRANCH  16  19
BRANCH  18  21
ATOM     21  O   UNL     1      21.780   0.703 -21.216  1.00  0.00    -0.504 OA
ATOM     22  H   UNL     1      21.469   0.744 -22.180  1.00  0.00     0.293 HD
ENDBRANCH  18  21
ENDBRANCH   3  13
BRANCH   9  23
ATOM     23  O   UNL     1      16.607  -2.116 -12.236  1.00  0.00    -0.507 OA
ATOM     24  H   UNL     1      15.626  -2.065 -11.997  1.00  0.00     0.293 HD
ENDBRANCH   9  23
BRANCH   7  25
ATOM     25  O   UNL     1      17.518  -6.347 -14.328  1.00  0.00    -0.508 OA
ATOM     26  H   UNL     1      18.328  -6.895 -14.596  1.00  0.00     0.293 HD
ENDBRANCH   7  25
TORSDOF 6
ENDMDL
MODEL 6
REMARK VINA RESULT:    -5.630      8.652     13.883
REMARK INTER + INTRA:          -7.111
REMARK INTER:                  -6.735
REMARK INTRA:                  -0.376
REMARK UNBOUND:                -0.328
REMARK SMILES Oc1cc(O)c2c(c1)O[C@H](c1ccc(O)c(O)c1)[C@@H](O)C2
REMARK SMILES IDX 21 1 19 2 10 3 9 4 7 5 8 6 2 7 3 8 4 9 6 10 20 11 11 13
REMARK SMILES IDX 18 14 12 15 16 16 13 17 14 18 17 19 15 21 5 23 1 25
REMARK H PARENT 20 12 17 20 15 22 5 24 1 26
REMARK Flexibility Score: inf
ROOT
ATOM      1  C   UNL     1      19.889   0.998 -15.555  1.00  0.00     0.079 C 
ATOM      2  C   UNL     1      18.454   1.056 -14.994  1.00  0.00     0.164 C 
ATOM      3  C   UNL     1      17.738  -0.289 -15.219  1.00  0.00     0.232 C 
ATOM      4  O   UNL     1      17.752  -0.613 -16.610  1.00  0.00    -0.482 OA
ATOM      5  C   UNL     1      18.858  -0.355 -17.427  1.00  0.00     0.131 A 
ATOM      6  C   UNL     1      18.874  -0.869 -18.726  1.00  0.00     0.093 A 
ATOM      7  C   UNL     1      19.971  -0.639 -19.562  1.00  0.00     0.122 A 
ATOM      8  C   UNL     1      21.059   0.099 -19.093  1.00  0.00     0.092 A 
ATOM      9  C   UNL     1      21.062   0.621 -17.794  1.00  0.00     0.126 A 
ATOM     10  C   UNL     1      19.935   0.430 -16.958  1.00  0.00     0.039 A 
ENDROOT
BRANCH   2  11
ATOM     11  O   UNL     1      18.470   1.409 -13.632  1.00  0.00    -0.389 OA
ATOM     12  H   UNL     1      18.510   0.569 -13.104  1.00  0.00     0.211 HD
ENDBRANCH   2  11
BRANCH   3  13
ATOM     13  C   UNL     1      16.312  -0.237 -14.723  1.00  0.00    -0.001 A 
ATOM     14  C   UNL     1      15.366   0.574 -15.372  1.00  0.00     0.057 A 
ATOM     15  C   UNL     1      15.902  -1.035 -13.642  1.00  0.00     0.012 A 
ATOM     16  C   UNL     1      14.034   0.605 -14.935  1.00  0.00     0.157 A 
ATOM     17  C   UNL     1      14.575  -1.005 -13.204  1.00  0.00     0.050 A 
ATOM     18  C   UNL     1      13.639  -0.187 -13.844  1.00  0.00     0.157 A 
BRANCH  16  19
ATOM     19  O   UNL     1      13.104   1.418 -15.582  1.00  0.00    -0.504 OA
ATOM     20  H   UNL     1      12.395   1.030 -16.194  1.00  0.00     0.293 HD
ENDBRANCH  16  19
BRANCH  18  21
ATOM     21  O   UNL     1      12.322  -0.178 -13.385  1.00  0.00    -0.504 OA
ATOM     22  H   UNL     1      11.756   0.663 -13.390  1.00  0.00     0.293 HD
ENDBRANCH  18  21
ENDBRANCH   3  13
BRANCH   9  23
ATOM     23  O   UNL     1      22.198   1.311 -17.366  1.00  0.00    -0.507 OA
ATOM     24  H   UNL     1      22.342   2.299 -17.527  1.00  0.00     0.293 HD
ENDBRANCH   9  23
BRANCH   7  25
ATOM     25  O   UNL     1      19.994  -1.148 -20.860  1.00  0.00    -0.508 OA
ATOM     26  H   UNL     1      19.515  -0.680 -21.621  1.00  0.00     0.293 HD
ENDBRANCH   7  25
TORSDOF 6
ENDMDL
MODEL 7
REMARK VINA RESULT:    -5.575      1.351      2.024
REMARK INTER + INTRA:          -7.044
REMARK INTER:                  -6.668
REMARK INTRA:                  -0.376
REMARK UNBOUND:                -0.328
REMARK SMILES Oc1cc(O)c2c(c1)O[C@H](c1ccc(O)c(O)c1)[C@@H](O)C2
REMARK SMILES IDX 21 1 19 2 10 3 9 4 7 5 8 6 2 7 3 8 4 9 6 10 20 11 11 13
REMARK SMILES IDX 18 14 12 15 16 16 13 17 14 18 17 19 15 21 5 23 1 25
REMARK H PARENT 20 12 17 20 15 22 5 24 1 26
REMARK Flexibility Score: inf
ROOT
ATOM      1  C   UNL     1       9.726  -7.950 -10.337  1.00  0.00     0.079 C 
ATOM      2  C   UNL     1      10.617  -6.981 -11.140  1.00  0.00     0.164 C 
ATOM      3  C   UNL     1      11.721  -6.399 -10.236  1.00  0.00     0.232 C 
ATOM      4  O   UNL     1      11.129  -5.761  -9.104  1.00  0.00    -0.482 OA
ATOM      5  C   UNL     1      10.006  -6.286  -8.453  1.00  0.00     0.131 A 
ATOM      6  C   UNL     1       9.598  -5.716  -7.244  1.00  0.00     0.093 A 
ATOM      7  C   UNL     1       8.488  -6.227  -6.563  1.00  0.00     0.122 A 
ATOM      8  C   UNL     1       7.793  -7.317  -7.088  1.00  0.00     0.092 A 
ATOM      9  C   UNL     1       8.187  -7.901  -8.297  1.00  0.00     0.126 A 
ATOM     10  C   UNL     1       9.282  -7.361  -9.014  1.00  0.00     0.039 A 
ENDROOT
BRANCH   2  11
ATOM     11  O   UNL     1      11.160  -7.627 -12.265  1.00  0.00    -0.389 OA
ATOM     12  H   UNL     1      12.141  -7.696 -12.128  1.00  0.00     0.211 HD
ENDBRANCH   2  11
BRANCH   3  13
ATOM     13  C   UNL     1      12.575  -5.406 -10.989  1.00  0.00    -0.001 A 
ATOM     14  C   UNL     1      12.004  -4.231 -11.507  1.00  0.00     0.057 A 
ATOM     15  C   UNL     1      13.956  -5.619 -11.139  1.00  0.00     0.012 A 
ATOM     16  C   UNL     1      12.795  -3.292 -12.183  1.00  0.00     0.157 A 
ATOM     17  C   UNL     1      14.746  -4.685 -11.813  1.00  0.00     0.050 A 
ATOM     18  C   UNL     1      14.173  -3.522 -12.337  1.00  0.00     0.157 A 
BRANCH  16  19
ATOM     19  O   UNL     1      12.220  -2.131 -12.698  1.00  0.00    -0.504 OA
ATOM     20  H   UNL     1      11.990  -2.044 -13.682  1.00  0.00     0.293 HD
ENDBRANCH  16  19
BRANCH  18  21
ATOM     21  O   UNL     1      14.988  -2.607 -13.004  1.00  0.00    -0.504 OA
ATOM     22  H   UNL     1      15.051  -2.581 -14.016  1.00  0.00     0.293 HD
ENDBRANCH  18  21
ENDBRANCH   3  13
BRANCH   9  23
ATOM     23  O   UNL     1       7.479  -9.018  -8.749  1.00  0.00    -0.507 OA
ATOM     24  H   UNL     1       7.822  -9.640  -9.467  1.00  0.00     0.293 HD
ENDBRANCH   9  23
BRANCH   7  25
ATOM     25  O   UNL     1       8.075  -5.663  -5.357  1.00  0.00    -0.508 OA
ATOM     26  H   UNL     1       8.036  -6.208  -4.503  1.00  0.00     0.293 HD
ENDBRANCH   7  25
TORSDOF 6
ENDMDL
MODEL 8
REMARK VINA RESULT:    -5.536      8.043     11.466
REMARK INTER + INTRA:          -6.997
REMARK INTER:                  -6.647
REMARK INTRA:                  -0.350
REMARK UNBOUND:                -0.328
REMARK SMILES Oc1cc(O)c2c(c1)O[C@H](c1ccc(O)c(O)c1)[C@@H](O)C2
REMARK SMILES IDX 21 1 19 2 10 3 9 4 7 5 8 6 2 7 3 8 4 9 6 10 20 11 11 13
REMARK SMILES IDX 18 14 12 15 16 16 13 17 14 18 17 19 15 21 5 23 1 25
REMARK H PARENT 20 12 17 20 15 22 5 24 1 26
REMARK Flexibility Score: inf
ROOT
ATOM      1  C   UNL     1      19.931  -3.147  -6.164  1.00  0.00     0.079 C 
ATOM      2  C   UNL     1      18.769  -2.303  -6.720  1.00  0.00     0.164 C 
ATOM      3  C   UNL     1      18.826  -2.264  -8.260  1.00  0.00     0.232 C 
ATOM      4  O   UNL     1      20.095  -1.764  -8.681  1.00  0.00    -0.482 OA
ATOM      5  C   UNL     1      21.285  -2.097  -8.024  1.00  0.00     0.131 A 
ATOM      6  C   UNL     1      22.502  -1.727  -8.602  1.00  0.00     0.093 A 
ATOM      7  C   UNL     1      23.709  -2.057  -7.976  1.00  0.00     0.122 A 
ATOM      8  C   UNL     1      23.697  -2.767  -6.774  1.00  0.00     0.092 A 
ATOM      9  C   UNL     1      22.487  -3.146  -6.180  1.00  0.00     0.126 A 
ATOM     10  C   UNL     1      21.262  -2.777  -6.786  1.00  0.00     0.039 A 
ENDROOT
BRANCH   2  11
ATOM     11  O   UNL     1      17.535  -2.799  -6.263  1.00  0.00    -0.389 OA
ATOM     12  H   UNL     1      17.477  -2.611  -5.290  1.00  0.00     0.211 HD
ENDBRANCH   2  11
BRANCH   3  13
ATOM     13  C   UNL     1      17.725  -1.398  -8.824  1.00  0.00    -0.001 A 
ATOM     14  C   UNL     1      16.808  -1.930  -9.746  1.00  0.00     0.057 A 
ATOM     15  C   UNL     1      17.574  -0.067  -8.399  1.00  0.00     0.012 A 
ATOM     16  C   UNL     1      15.767  -1.140 -10.253  1.00  0.00     0.157 A 
ATOM     17  C   UNL     1      16.537   0.723  -8.904  1.00  0.00     0.050 A 
ATOM     18  C   UNL     1      15.633   0.194  -9.830  1.00  0.00     0.157 A 
BRANCH  16  19
ATOM     19  O   UNL     1      14.864  -1.674 -11.172  1.00  0.00    -0.504 OA
ATOM     20  H   UNL     1      13.900  -1.362 -11.212  1.00  0.00     0.293 HD
ENDBRANCH  16  19
BRANCH  18  21
ATOM     21  O   UNL     1      14.608   1.006 -10.316  1.00  0.00    -0.504 OA
ATOM     22  H   UNL     1      14.791   1.914 -10.727  1.00  0.00     0.293 HD
ENDBRANCH  18  21
ENDBRANCH   3  13
BRANCH   9  23
ATOM     23  O   UNL     1      22.540  -3.894  -5.002  1.00  0.00    -0.507 OA
ATOM     24  H   UNL     1      23.097  -3.631  -4.201  1.00  0.00     0.293 HD
ENDBRANCH   9  23
BRANCH   7  25
ATOM     25  O   UNL     1      24.927  -1.691  -8.546  1.00  0.00    -0.508 OA
ATOM     26  H   UNL     1      25.025  -1.557  -9.546  1.00  0.00     0.293 HD
ENDBRANCH   7  25
TORSDOF 6
ENDMDL
MODEL 9
REMARK VINA RESULT:    -5.461      7.290      9.848
REMARK INTER + INTRA:          -6.907
REMARK INTER:                  -6.756
REMARK INTRA:                  -0.150
REMARK UNBOUND:                -0.328
REMARK SMILES Oc1cc(O)c2c(c1)O[C@H](c1ccc(O)c(O)c1)[C@@H](O)C2
REMARK SMILES IDX 21 1 19 2 10 3 9 4 7 5 8 6 2 7 3 8 4 9 6 10 20 11 11 13
REMARK SMILES IDX 18 14 12 15 16 16 13 17 14 18 17 19 15 21 5 23 1 25
REMARK H PARENT 20 12 17 20 15 22 5 24 1 26
REMARK Flexibility Score: inf
ROOT
ATOM      1  C   UNL     1      16.016  -0.791  -9.966  1.00  0.00     0.079 C 
ATOM      2  C   UNL     1      17.036  -1.087  -8.849  1.00  0.00     0.164 C 
ATOM      3  C   UNL     1      18.331  -1.668  -9.448  1.00  0.00     0.232 C 
ATOM      4  O   UNL     1      18.025  -2.836 -10.212  1.00  0.00    -0.482 OA
ATOM      5  C   UNL     1      16.877  -2.930 -11.006  1.00  0.00     0.131 A 
ATOM      6  C   UNL     1      16.740  -4.020 -11.869  1.00  0.00     0.093 A 
ATOM      7  C   UNL     1      15.610  -4.136 -12.685  1.00  0.00     0.122 A 
ATOM      8  C   UNL     1      14.620  -3.152 -12.644  1.00  0.00     0.092 A 
ATOM      9  C   UNL     1      14.740  -2.052 -11.786  1.00  0.00     0.126 A 
ATOM     10  C   UNL     1      15.860  -1.953 -10.926  1.00  0.00     0.039 A 
ENDROOT
BRANCH   2  11
ATOM     11  O   UNL     1      17.293   0.072  -8.094  1.00  0.00    -0.389 OA
ATOM     12  H   UNL     1      17.293  -0.187  -7.136  1.00  0.00     0.211 HD
ENDBRANCH   2  11
BRANCH   3  13
ATOM     13  C   UNL     1      19.325  -2.015  -8.365  1.00  0.00    -0.001 A 
ATOM     14  C   UNL     1      18.877  -2.436  -7.101  1.00  0.00     0.057 A 
ATOM     15  C   UNL     1      20.706  -1.970  -8.622  1.00  0.00     0.012 A 
ATOM     16  C   UNL     1      19.794  -2.787  -6.101  1.00  0.00     0.157 A 
ATOM     17  C   UNL     1      21.622  -2.319  -7.625  1.00  0.00     0.050 A 
ATOM     18  C   UNL     1      21.173  -2.725  -6.365  1.00  0.00     0.157 A 
BRANCH  16  19
ATOM     19  O   UNL     1      19.341  -3.198  -4.848  1.00  0.00    -0.504 OA
ATOM     20  H   UNL     1      18.521  -3.785  -4.747  1.00  0.00     0.293 HD
ENDBRANCH  16  19
BRANCH  18  21
ATOM     21  O   UNL     1      22.111  -3.067  -5.390  1.00  0.00    -0.504 OA
ATOM     22  H   UNL     1      22.383  -4.028  -5.220  1.00  0.00     0.293 HD
ENDBRANCH  18  21
ENDBRANCH   3  13
BRANCH   9  23
ATOM     23  O   UNL     1      13.740  -1.078 -11.823  1.00  0.00    -0.507 OA
ATOM     24  H   UNL     1      13.844  -0.159 -11.416  1.00  0.00     0.293 HD
ENDBRANCH   9  23
BRANCH   7  25
ATOM     25  O   UNL     1      15.466  -5.221 -13.549  1.00  0.00    -0.508 OA
ATOM     26  H   UNL     1      15.542  -5.112 -14.553  1.00  0.00     0.293 HD
ENDBRANCH   7  25
TORSDOF 6
ENDMDL
