MODEL 1
REMARK VINA RESULT:     3.824      0.000      0.000
REMARK INTER + INTRA:           3.783
REMARK INTER:                   4.048
REMARK INTRA:                  -0.265
REMARK UNBOUND:                -0.265
REMARK SMILES CC1=CC[C@H]2[C@@H]3[C@@H](C(C)C)CC[C@@]2(C)[C@H]13
REMARK SMILES IDX 1 1 2 2 3 3 4 4 5 5 6 6 15 7 13 8 12 9 11 10 7 11 14 12 8 13
REMARK SMILES IDX 9 14 10 15
REMARK H PARENT
REMARK Flexibility Score: inf
ROOT
ATOM      1  C   UNL     1     -11.914  -2.742  15.579  1.00  0.00     0.039 C 
ATOM      2  C   UNL     1     -13.294  -3.070  16.066  1.00  0.00    -0.073 C 
ATOM      3  C   UNL     1     -13.947  -4.181  15.637  1.00  0.00    -0.027 C 
ATOM      4  C   UNL     1     -15.362  -4.453  16.156  1.00  0.00     0.031 C 
ATOM      5  C   UNL     1     -15.793  -3.346  17.171  1.00  0.00     0.003 C 
ATOM      6  C   UNL     1     -14.617  -3.132  18.154  1.00  0.00     0.004 C 
ATOM      7  C   UNL     1     -14.019  -2.183  17.082  1.00  0.00     0.024 C 
ATOM      8  C   UNL     1     -15.479  -1.927  16.634  1.00  0.00    -0.022 C 
ATOM      9  C   UNL     1     -16.159  -0.871  17.558  1.00  0.00     0.008 C 
ATOM     10  C   UNL     1     -15.642  -0.938  19.020  1.00  0.00     0.005 C 
ATOM     11  C   UNL     1     -15.122  -2.358  19.408  1.00  0.00    -0.005 C 
ATOM     12  C   UNL     1     -15.759  -1.621  15.144  1.00  0.00     0.012 C 
ENDROOT
BRANCH  11  13
ATOM     13  C   UNL     1     -14.080  -2.365  20.566  1.00  0.00    -0.014 C 
ATOM     14  C   UNL     1     -14.762  -2.370  21.942  1.00  0.00     0.007 C 
ATOM     15  C   UNL     1     -13.041  -1.233  20.488  1.00  0.00     0.007 C 
ENDBRANCH  11  13
TORSDOF 1
ENDMDL
MODEL 2
REMARK VINA RESULT:     6.383      1.352      4.565
REMARK INTER + INTRA:           6.492
REMARK INTER:                   6.706
REMARK INTRA:                  -0.214
REMARK UNBOUND:                -0.265
REMARK SMILES CC1=CC[C@H]2[C@@H]3[C@@H](C(C)C)CC[C@@]2(C)[C@H]13
REMARK SMILES IDX 1 1 2 2 3 3 4 4 5 5 6 6 15 7 13 8 12 9 11 10 7 11 14 12 8 13
REMARK SMILES IDX 9 14 10 15
REMARK H PARENT
REMARK Flexibility Score: inf
ROOT
ATOM      1  C   UNL     1     -15.746  -3.047  20.453  1.00  0.00     0.039 C 
ATOM      2  C   UNL     1     -15.106  -2.625  19.164  1.00  0.00    -0.073 C 
ATOM      3  C   UNL     1     -13.901  -1.999  19.148  1.00  0.00    -0.027 C 
ATOM      4  C   UNL     1     -13.306  -1.575  17.801  1.00  0.00     0.031 C 
ATOM      5  C   UNL     1     -14.246  -2.006  16.630  1.00  0.00     0.003 C 
ATOM      6  C   UNL     1     -14.665  -3.474  16.884  1.00  0.00     0.004 C 
ATOM      7  C   UNL     1     -15.768  -2.899  17.812  1.00  0.00     0.024 C 
ATOM      8  C   UNL     1     -15.722  -1.634  16.919  1.00  0.00    -0.022 C 
ATOM      9  C   UNL     1     -16.563  -1.848  15.623  1.00  0.00     0.008 C 
ATOM     10  C   UNL     1     -16.544  -3.321  15.135  1.00  0.00     0.005 C 
ATOM     11  C   UNL     1     -15.253  -4.081  15.576  1.00  0.00    -0.005 C 
ATOM     12  C   UNL     1     -16.028  -0.259  17.558  1.00  0.00     0.012 C 
ENDROOT
BRANCH  11  13
ATOM     13  C   UNL     1     -15.418  -5.628  15.664  1.00  0.00    -0.014 C 
ATOM     14  C   UNL     1     -14.131  -6.359  15.258  1.00  0.00     0.007 C 
ATOM     15  C   UNL     1     -16.618  -6.180  14.875  1.00  0.00     0.007 C 
ENDBRANCH  11  13
TORSDOF 1
ENDMDL
MODEL 3
REMARK VINA RESULT:     6.729      1.981      3.315
REMARK INTER + INTRA:           6.858
REMARK INTER:                   7.173
REMARK INTRA:                  -0.315
REMARK UNBOUND:                -0.265
REMARK SMILES CC1=CC[C@H]2[C@@H]3[C@@H](C(C)C)CC[C@@]2(C)[C@H]13
REMARK SMILES IDX 1 1 2 2 3 3 4 4 5 5 6 6 15 7 13 8 12 9 11 10 7 11 14 12 8 13
REMARK SMILES IDX 9 14 10 15
REMARK H PARENT
REMARK Flexibility Score: inf
ROOT
ATOM      1  C   UNL     1     -12.121  -1.643  14.879  1.00  0.00     0.039 C 
ATOM      2  C   UNL     1     -13.110  -2.207  15.855  1.00  0.00    -0.073 C 
ATOM      3  C   UNL     1     -12.703  -2.913  16.941  1.00  0.00    -0.027 C 
ATOM      4  C   UNL     1     -13.761  -3.481  17.893  1.00  0.00     0.031 C 
ATOM      5  C   UNL     1     -15.194  -3.080  17.416  1.00  0.00     0.003 C 
ATOM      6  C   UNL     1     -15.166  -1.571  17.073  1.00  0.00     0.004 C 
ATOM      7  C   UNL     1     -14.616  -1.995  15.685  1.00  0.00     0.024 C 
ATOM      8  C   UNL     1     -15.379  -3.326  15.898  1.00  0.00    -0.022 C 
ATOM      9  C   UNL     1     -16.887  -3.158  15.536  1.00  0.00     0.008 C 
ATOM     10  C   UNL     1     -17.418  -1.732  15.842  1.00  0.00     0.005 C 
ATOM     11  C   UNL     1     -16.624  -1.030  16.988  1.00  0.00    -0.005 C 
ATOM     12  C   UNL     1     -14.803  -4.622  15.282  1.00  0.00     0.012 C 
ENDROOT
BRANCH  11  13
ATOM     13  C   UNL     1     -16.675   0.527  16.943  1.00  0.00    -0.014 C 
ATOM     14  C   UNL     1     -15.369   1.151  17.454  1.00  0.00     0.007 C 
ATOM     15  C   UNL     1     -17.882   1.140  17.674  1.00  0.00     0.007 C 
ENDBRANCH  11  13
TORSDOF 1
ENDMDL
