MODEL 1
REMARK VINA RESULT:    -5.191      0.000      0.000
REMARK INTER + INTRA:          -5.788
REMARK INTER:                  -5.646
REMARK INTRA:                  -0.142
REMARK UNBOUND:                -0.142
REMARK SMILES CC1=CC[C@@H](C(C)(C)O)CC1
REMARK SMILES IDX 6 1 7 2 8 3 5 4 1 5 2 6 3 7 11 8 4 9 10 10 9 11
REMARK H PARENT 9 12
REMARK Flexibility Score: inf
ROOT
ATOM      1  C   UNL     1     112.840 120.265 122.145  1.00  0.00     0.062 C 
ATOM      2  C   UNL     1     111.374 120.201 121.660  1.00  0.00     0.042 C 
ATOM      3  C   UNL     1     113.479 121.558 121.598  1.00  0.00     0.042 C 
ENDROOT
BRANCH   1   4
ATOM      4  C   UNL     1     112.920 120.183 123.713  1.00  0.00     0.024 C 
ATOM      5  C   UNL     1     113.182 118.919 127.826  1.00  0.00     0.039 C 
ATOM      6  C   UNL     1     113.282 118.996 126.327  1.00  0.00    -0.077 C 
ATOM      7  C   UNL     1     114.281 119.681 125.750  1.00  0.00    -0.028 C 
ATOM      8  C   UNL     1     112.254 118.336 125.438  1.00  0.00     0.031 C 
ATOM      9  C   UNL     1     114.325 119.799 124.252  1.00  0.00     0.034 C 
ATOM     10  C   UNL     1     111.781 119.299 124.331  1.00  0.00     0.011 C 
ENDBRANCH   1   4
BRANCH   1  11
ATOM     11  O   UNL     1     113.539 119.178 121.582  1.00  0.00    -0.390 OA
ATOM     12  H   UNL     1     112.885 118.608 121.099  1.00  0.00     0.211 HD
ENDBRANCH   1  11
TORSDOF 2
ENDMDL
MODEL 2
REMARK VINA RESULT:    -5.115     15.908     16.818
REMARK INTER + INTRA:          -5.706
REMARK INTER:                  -5.556
REMARK INTRA:                  -0.150
REMARK UNBOUND:                -0.142
REMARK SMILES CC1=CC[C@@H](C(C)(C)O)CC1
REMARK SMILES IDX 6 1 7 2 8 3 5 4 1 5 2 6 3 7 11 8 4 9 10 10 9 11
REMARK H PARENT 9 12
REMARK Flexibility Score: inf
ROOT
ATOM      1  C   UNL     1     127.087 121.252 115.066  1.00  0.00     0.062 C 
ATOM      2  C   UNL     1     127.396 122.764 115.151  1.00  0.00     0.042 C 
ATOM      3  C   UNL     1     127.135 120.663 116.491  1.00  0.00     0.042 C 
ENDROOT
BRANCH   1   4
ATOM      4  C   UNL     1     125.701 120.998 114.367  1.00  0.00     0.024 C 
ATOM      5  C   UNL     1     122.417 120.657 111.597  1.00  0.00     0.039 C 
ATOM      6  C   UNL     1     123.786 120.738 112.214  1.00  0.00    -0.077 C 
ATOM      7  C   UNL     1     124.350 119.647 112.755  1.00  0.00    -0.028 C 
ATOM      8  C   UNL     1     124.545 122.044 112.269  1.00  0.00     0.031 C 
ATOM      9  C   UNL     1     125.691 119.765 113.424  1.00  0.00     0.034 C 
ATOM     10  C   UNL     1     125.129 122.284 113.675  1.00  0.00     0.011 C 
ENDBRANCH   1   4
BRANCH   1  11
ATOM     11  O   UNL     1     128.110 120.634 114.319  1.00  0.00    -0.390 OA
ATOM     12  H   UNL     1     127.915 119.661 114.276  1.00  0.00     0.211 HD
ENDBRANCH   1  11
TORSDOF 2
ENDMDL
MODEL 3
REMARK VINA RESULT:    -5.109     15.709     17.137
REMARK INTER + INTRA:          -5.699
REMARK INTER:                  -5.491
REMARK INTRA:                  -0.208
REMARK UNBOUND:                -0.142
REMARK SMILES CC1=CC[C@@H](C(C)(C)O)CC1
REMARK SMILES IDX 6 1 7 2 8 3 5 4 1 5 2 6 3 7 11 8 4 9 10 10 9 11
REMARK H PARENT 9 12
REMARK Flexibility Score: inf
ROOT
ATOM      1  C   UNL     1     127.568 119.830 113.869  1.00  0.00     0.062 C 
ATOM      2  C   UNL     1     127.768 120.990 114.870  1.00  0.00     0.042 C 
ATOM      3  C   UNL     1     127.510 118.508 114.661  1.00  0.00     0.042 C 
ENDROOT
BRANCH   1   4
ATOM      4  C   UNL     1     126.278 120.054 112.997  1.00  0.00     0.024 C 
ATOM      5  C   UNL     1     122.265 120.663 111.549  1.00  0.00     0.039 C 
ATOM      6  C   UNL     1     123.505 120.623 112.398  1.00  0.00    -0.077 C 
ATOM      7  C   UNL     1     124.435 121.585 112.283  1.00  0.00    -0.028 C 
ATOM      8  C   UNL     1     123.753 119.495 113.373  1.00  0.00     0.031 C 
ATOM      9  C   UNL     1     125.697 121.491 113.094  1.00  0.00     0.034 C 
ATOM     10  C   UNL     1     125.188 118.951 113.235  1.00  0.00     0.011 C 
ENDBRANCH   1   4
BRANCH   1  11
ATOM     11  O   UNL     1     128.698 119.771 113.029  1.00  0.00    -0.390 OA
ATOM     12  H   UNL     1     129.345 119.131 113.427  1.00  0.00     0.211 HD
ENDBRANCH   1  11
TORSDOF 2
ENDMDL
MODEL 4
REMARK VINA RESULT:    -4.960      0.976      1.405
REMARK INTER + INTRA:          -5.537
REMARK INTER:                  -5.329
REMARK INTRA:                  -0.208
REMARK UNBOUND:                -0.142
REMARK SMILES CC1=CC[C@@H](C(C)(C)O)CC1
REMARK SMILES IDX 6 1 7 2 8 3 5 4 1 5 2 6 3 7 11 8 4 9 10 10 9 11
REMARK H PARENT 9 12
REMARK Flexibility Score: inf
ROOT
ATOM      1  C   UNL     1     112.753 120.568 122.240  1.00  0.00     0.062 C 
ATOM      2  C   UNL     1     113.904 119.856 121.496  1.00  0.00     0.042 C 
ATOM      3  C   UNL     1     111.414 120.027 121.699  1.00  0.00     0.042 C 
ENDROOT
BRANCH   1   4
ATOM      4  C   UNL     1     112.883 120.377 123.796  1.00  0.00     0.024 C 
ATOM      5  C   UNL     1     113.235 118.829 127.802  1.00  0.00     0.039 C 
ATOM      6  C   UNL     1     113.285 119.002 126.310  1.00  0.00    -0.077 C 
ATOM      7  C   UNL     1     114.292 119.683 125.741  1.00  0.00    -0.028 C 
ATOM      8  C   UNL     1     112.198 118.447 125.419  1.00  0.00     0.031 C 
ATOM      9  C   UNL     1     114.288 119.900 124.254  1.00  0.00     0.034 C 
ATOM     10  C   UNL     1     111.730 119.501 124.396  1.00  0.00     0.011 C 
ENDBRANCH   1   4
BRANCH   1  11
ATOM     11  O   UNL     1     112.809 121.942 121.930  1.00  0.00    -0.390 OA
ATOM     12  H   UNL     1     111.924 122.214 121.572  1.00  0.00     0.211 HD
ENDBRANCH   1  11
TORSDOF 2
ENDMDL
MODEL 5
REMARK VINA RESULT:    -4.899     14.279     16.008
REMARK INTER + INTRA:          -5.471
REMARK INTER:                  -5.318
REMARK INTRA:                  -0.153
REMARK UNBOUND:                -0.142
REMARK SMILES CC1=CC[C@@H](C(C)(C)O)CC1
REMARK SMILES IDX 6 1 7 2 8 3 5 4 1 5 2 6 3 7 11 8 4 9 10 10 9 11
REMARK H PARENT 9 12
REMARK Flexibility Score: inf
ROOT
ATOM      1  C   UNL     1     123.018 119.665 112.560  1.00  0.00     0.062 C 
ATOM      2  C   UNL     1     121.869 119.034 113.378  1.00  0.00     0.042 C 
ATOM      3  C   UNL     1     122.404 120.608 111.505  1.00  0.00     0.042 C 
ENDROOT
BRANCH   1   4
ATOM      4  C   UNL     1     124.036 120.410 113.499  1.00  0.00     0.024 C 
ATOM      5  C   UNL     1     127.535 122.075 115.386  1.00  0.00     0.039 C 
ATOM      6  C   UNL     1     126.559 121.509 114.391  1.00  0.00    -0.077 C 
ATOM      7  C   UNL     1     125.639 122.302 113.821  1.00  0.00    -0.028 C 
ATOM      8  C   UNL     1     126.568 120.041 114.033  1.00  0.00     0.031 C 
ATOM      9  C   UNL     1     124.632 121.702 112.879  1.00  0.00     0.034 C 
ATOM     10  C   UNL     1     125.142 119.456 114.070  1.00  0.00     0.011 C 
ENDBRANCH   1   4
BRANCH   1  11
ATOM     11  O   UNL     1     123.686 118.635 111.868  1.00  0.00    -0.390 OA
ATOM     12  H   UNL     1     123.008 118.115 111.361  1.00  0.00     0.211 HD
ENDBRANCH   1  11
TORSDOF 2
ENDMDL
MODEL 6
REMARK VINA RESULT:    -4.877      2.078      3.023
REMARK INTER + INTRA:          -5.447
REMARK INTER:                  -5.241
REMARK INTRA:                  -0.206
REMARK UNBOUND:                -0.142
REMARK SMILES CC1=CC[C@@H](C(C)(C)O)CC1
REMARK SMILES IDX 6 1 7 2 8 3 5 4 1 5 2 6 3 7 11 8 4 9 10 10 9 11
REMARK H PARENT 9 12
REMARK Flexibility Score: inf
ROOT
ATOM      1  C   UNL     1     112.599 119.890 124.701  1.00  0.00     0.062 C 
ATOM      2  C   UNL     1     113.275 120.139 123.334  1.00  0.00     0.042 C 
ATOM      3  C   UNL     1     111.697 118.645 124.580  1.00  0.00     0.042 C 
ENDROOT
BRANCH   1   4
ATOM      4  C   UNL     1     113.672 119.734 125.841  1.00  0.00     0.024 C 
ATOM      5  C   UNL     1     116.565 118.287 128.688  1.00  0.00     0.039 C 
ATOM      6  C   UNL     1     115.675 118.450 127.488  1.00  0.00    -0.077 C 
ATOM      7  C   UNL     1     116.041 119.255 126.478  1.00  0.00    -0.028 C 
ATOM      8  C   UNL     1     114.341 117.745 127.398  1.00  0.00     0.031 C 
ATOM      9  C   UNL     1     115.107 119.455 125.318  1.00  0.00     0.034 C 
ATOM     10  C   UNL     1     113.232 118.716 126.950  1.00  0.00     0.011 C 
ENDBRANCH   1   4
BRANCH   1  11
ATOM     11  O   UNL     1     111.766 120.990 124.989  1.00  0.00    -0.390 OA
ATOM     12  H   UNL     1     112.340 121.794 125.087  1.00  0.00     0.211 HD
ENDBRANCH   1  11
TORSDOF 2
ENDMDL
MODEL 7
REMARK VINA RESULT:    -4.750     13.906     15.900
REMARK INTER + INTRA:          -5.308
REMARK INTER:                  -5.101
REMARK INTRA:                  -0.207
REMARK UNBOUND:                -0.142
REMARK SMILES CC1=CC[C@@H](C(C)(C)O)CC1
REMARK SMILES IDX 6 1 7 2 8 3 5 4 1 5 2 6 3 7 11 8 4 9 10 10 9 11
REMARK H PARENT 9 12
REMARK Flexibility Score: inf
ROOT
ATOM      1  C   UNL     1     125.883 120.762 112.669  1.00  0.00     0.062 C 
ATOM      2  C   UNL     1     125.496 122.257 112.723  1.00  0.00     0.042 C 
ATOM      3  C   UNL     1     126.861 120.469 113.825  1.00  0.00     0.042 C 
ENDROOT
BRANCH   1   4
ATOM      4  C   UNL     1     124.606 119.846 112.728  1.00  0.00     0.024 C 
ATOM      5  C   UNL     1     120.812 118.017 113.643  1.00  0.00     0.039 C 
ATOM      6  C   UNL     1     121.944 118.993 113.474  1.00  0.00    -0.077 C 
ATOM      7  C   UNL     1     122.160 119.579 112.286  1.00  0.00    -0.028 C 
ATOM      8  C   UNL     1     122.879 119.315 114.616  1.00  0.00     0.031 C 
ATOM      9  C   UNL     1     123.336 120.501 112.122  1.00  0.00     0.034 C 
ATOM     10  C   UNL     1     124.350 119.258 114.159  1.00  0.00     0.011 C 
ENDBRANCH   1   4
BRANCH   1  11
ATOM     11  O   UNL     1     126.573 120.528 111.462  1.00  0.00    -0.390 OA
ATOM     12  H   UNL     1     126.440 121.317 110.873  1.00  0.00     0.211 HD
ENDBRANCH   1  11
TORSDOF 2
ENDMDL
MODEL 8
REMARK VINA RESULT:    -4.408      2.148      4.922
REMARK INTER + INTRA:          -4.936
REMARK INTER:                  -4.787
REMARK INTRA:                  -0.149
REMARK UNBOUND:                -0.142
REMARK SMILES CC1=CC[C@@H](C(C)(C)O)CC1
REMARK SMILES IDX 6 1 7 2 8 3 5 4 1 5 2 6 3 7 11 8 4 9 10 10 9 11
REMARK H PARENT 9 12
REMARK Flexibility Score: inf
ROOT
ATOM      1  C   UNL     1     112.989 120.438 124.179  1.00  0.00     0.062 C 
ATOM      2  C   UNL     1     111.970 119.513 123.477  1.00  0.00     0.042 C 
ATOM      3  C   UNL     1     113.889 119.574 125.086  1.00  0.00     0.042 C 
ENDROOT
BRANCH   1   4
ATOM      4  C   UNL     1     113.823 121.259 123.127  1.00  0.00     0.024 C 
ATOM      5  C   UNL     1     115.181 123.989 120.082  1.00  0.00     0.039 C 
ATOM      6  C   UNL     1     114.421 123.334 121.201  1.00  0.00    -0.077 C 
ATOM      7  C   UNL     1     114.855 123.438 122.467  1.00  0.00    -0.028 C 
ATOM      8  C   UNL     1     113.175 122.521 120.932  1.00  0.00     0.031 C 
ATOM      9  C   UNL     1     114.116 122.720 123.561  1.00  0.00     0.034 C 
ATOM     10  C   UNL     1     113.222 121.174 121.681  1.00  0.00     0.011 C 
ENDBRANCH   1   4
BRANCH   1  11
ATOM     11  O   UNL     1     112.279 121.327 125.010  1.00  0.00    -0.390 OA
ATOM     12  H   UNL     1     112.877 122.090 125.228  1.00  0.00     0.211 HD
ENDBRANCH   1  11
TORSDOF 2
ENDMDL
MODEL 9
REMARK VINA RESULT:    -4.404      3.366      5.376
REMARK INTER + INTRA:          -4.932
REMARK INTER:                  -4.769
REMARK INTRA:                  -0.163
REMARK UNBOUND:                -0.142
REMARK SMILES CC1=CC[C@@H](C(C)(C)O)CC1
REMARK SMILES IDX 6 1 7 2 8 3 5 4 1 5 2 6 3 7 11 8 4 9 10 10 9 11
REMARK H PARENT 9 12
REMARK Flexibility Score: inf
ROOT
ATOM      1  C   UNL     1     116.796 118.366 127.812  1.00  0.00     0.062 C 
ATOM      2  C   UNL     1     117.706 117.128 127.644  1.00  0.00     0.042 C 
ATOM      3  C   UNL     1     117.661 119.633 127.655  1.00  0.00     0.042 C 
ENDROOT
BRANCH   1   4
ATOM      4  C   UNL     1     115.605 118.332 126.785  1.00  0.00     0.024 C 
ATOM      5  C   UNL     1     111.931 118.966 124.623  1.00  0.00     0.039 C 
ATOM      6  C   UNL     1     113.133 119.132 125.510  1.00  0.00    -0.077 C 
ATOM      7  C   UNL     1     114.315 119.496 124.987  1.00  0.00    -0.028 C 
ATOM      8  C   UNL     1     113.055 118.867 126.996  1.00  0.00     0.031 C 
ATOM      9  C   UNL     1     115.519 119.592 125.882  1.00  0.00     0.034 C 
ATOM     10  C   UNL     1     114.232 117.989 127.463  1.00  0.00     0.011 C 
ENDBRANCH   1   4
BRANCH   1  11
ATOM     11  O   UNL     1     116.284 118.363 129.125  1.00  0.00    -0.390 OA
ATOM     12  H   UNL     1     116.353 119.286 129.485  1.00  0.00     0.211 HD
ENDBRANCH   1  11
TORSDOF 2
ENDMDL
