MODEL 1
REMARK VINA RESULT:    -9.308      0.000      0.000
REMARK INTER + INTRA:         -13.007
REMARK INTER:                 -12.301
REMARK INTRA:                  -0.706
REMARK UNBOUND:                -0.706
REMARK SMILES C=C(CC[C@@H](C)[C@H]1CC[C@]2(C)[C@@H]3CC[C@@H]4C(C)(C)[C@@H](O)CC[C@@]45C[C@@]35CC[C@@]12C)C(C)C
REMARK SMILES IDX 4 1 3 2 2 3 1 4 30 5 31 6 32 7 5 8 6 9 7 10 8 11 28 12 9 13
REMARK SMILES IDX 10 14 27 15 29 16 11 17 12 18 26 19 25 20 13 21 23 22 24 23
REMARK SMILES IDX 14 24 15 25 22 26 16 27 21 28 19 29 17 30 18 31 20 32
REMARK H PARENT 20 33
REMARK Flexibility Score: inf
ROOT
ATOM      1  C   UNL     1      -6.722  27.835  48.612  1.00  0.00     0.008 C 
ENDROOT
BRANCH   1   2
ATOM      2  C   UNL     1      -7.502  27.486  47.325  1.00  0.00     0.031 C 
BRANCH   2   3
ATOM      3  C   UNL     1      -8.485  28.556  46.844  1.00  0.00    -0.075 C 
ATOM      4  C   UNL     1      -8.149  29.861  46.825  1.00  0.00     0.008 C 
BRANCH   3   5
ATOM      5  C   UNL     1      -9.957  28.204  46.633  1.00  0.00     0.008 C 
ATOM      6  C   UNL     1     -10.743  29.450  46.204  1.00  0.00     0.012 C 
ATOM      7  C   UNL     1     -10.616  27.546  47.855  1.00  0.00     0.012 C 
ENDBRANCH   3   5
ENDBRANCH   2   3
ENDBRANCH   1   2
BRANCH   1   8
ATOM      8  C   UNL     1      -5.231  28.185  48.308  1.00  0.00    -0.010 C 
ATOM      9  C   UNL     1      -4.985  29.664  48.712  1.00  0.00     0.008 C 
BRANCH   8  10
ATOM     10  C   UNL     1      -4.236  27.208  49.042  1.00  0.00    -0.002 C 
ATOM     11  C   UNL     1      -4.586  26.943  50.538  1.00  0.00     0.005 C 
ATOM     12  C   UNL     1      -3.995  25.762  48.439  1.00  0.00    -0.024 C 
ATOM     13  C   UNL     1      -4.464  25.434  50.789  1.00  0.00     0.008 C 
ATOM     14  C   UNL     1      -4.766  24.810  49.424  1.00  0.00    -0.024 C 
ATOM     15  C   UNL     1      -4.463  25.448  46.996  1.00  0.00     0.008 C 
ATOM     16  C   UNL     1      -2.440  25.578  48.449  1.00  0.00     0.012 C 
ATOM     17  C   UNL     1      -6.330  24.875  49.245  1.00  0.00     0.012 C 
ATOM     18  C   UNL     1      -4.394  23.302  49.241  1.00  0.00     0.002 C 
ATOM     19  C   UNL     1      -4.200  23.971  46.604  1.00  0.00     0.008 C 
ATOM     20  C   UNL     1      -4.468  22.903  47.725  1.00  0.00    -0.020 C 
ATOM     21  C   UNL     1      -3.109  22.785  49.960  1.00  0.00     0.005 C 
ATOM     22  C   UNL     1      -4.092  21.425  47.443  1.00  0.00    -0.020 C 
ATOM     23  C   UNL     1      -5.547  21.870  47.339  1.00  0.00     0.015 C 
ATOM     24  C   UNL     1      -2.585  21.424  49.437  1.00  0.00     0.005 C 
ATOM     25  C   UNL     1      -3.686  20.616  48.712  1.00  0.00     0.004 C 
ATOM     26  C   UNL     1      -3.286  21.196  46.142  1.00  0.00     0.010 C 
ATOM     27  C   UNL     1      -3.335  19.120  48.368  1.00  0.00    -0.006 C 
ATOM     28  C   UNL     1      -3.010  19.717  45.890  1.00  0.00     0.033 C 
ATOM     29  C   UNL     1      -2.394  19.041  47.123  1.00  0.00     0.120 C 
ATOM     30  C   UNL     1      -4.663  18.355  48.100  1.00  0.00     0.014 C 
ATOM     31  C   UNL     1      -2.652  18.417  49.568  1.00  0.00     0.014 C 
BRANCH  29  32
ATOM     32  O   UNL     1      -2.104  17.704  46.796  1.00  0.00    -0.393 OA
ATOM     33  H   UNL     1      -1.157  17.673  46.495  1.00  0.00     0.210 HD
ENDBRANCH  29  32
ENDBRANCH   8  10
ENDBRANCH   1   8
TORSDOF 6
ENDMDL
MODEL 2
REMARK VINA RESULT:    -8.445      1.346      2.360
REMARK INTER + INTRA:         -11.867
REMARK INTER:                 -10.585
REMARK INTRA:                  -1.282
REMARK UNBOUND:                -0.706
REMARK SMILES C=C(CC[C@@H](C)[C@H]1CC[C@]2(C)[C@@H]3CC[C@@H]4C(C)(C)[C@@H](O)CC[C@@]45C[C@@]35CC[C@@]12C)C(C)C
REMARK SMILES IDX 4 1 3 2 2 3 1 4 30 5 31 6 32 7 5 8 6 9 7 10 8 11 28 12 9 13
REMARK SMILES IDX 10 14 27 15 29 16 11 17 12 18 26 19 25 20 13 21 23 22 24 23
REMARK SMILES IDX 14 24 15 25 22 26 16 27 21 28 19 29 17 30 18 31 20 32
REMARK H PARENT 20 33
REMARK Flexibility Score: inf
ROOT
ATOM      1  C   UNL     1      -5.042  28.504  48.559  1.00  0.00     0.008 C 
ENDROOT
BRANCH   1   2
ATOM      2  C   UNL     1      -5.501  28.877  47.132  1.00  0.00     0.031 C 
BRANCH   2   3
ATOM      3  C   UNL     1      -6.869  28.328  46.719  1.00  0.00    -0.075 C 
ATOM      4  C   UNL     1      -6.981  27.278  45.882  1.00  0.00     0.008 C 
BRANCH   3   5
ATOM      5  C   UNL     1      -8.138  29.123  47.027  1.00  0.00     0.008 C 
ATOM      6  C   UNL     1      -9.378  28.250  46.795  1.00  0.00     0.012 C 
ATOM      7  C   UNL     1      -8.250  30.437  46.238  1.00  0.00     0.012 C 
ENDBRANCH   3   5
ENDBRANCH   2   3
ENDBRANCH   1   2
BRANCH   1   8
ATOM      8  C   UNL     1      -3.842  27.506  48.540  1.00  0.00    -0.010 C 
ATOM      9  C   UNL     1      -2.619  28.200  49.197  1.00  0.00     0.008 C 
BRANCH   8  10
ATOM     10  C   UNL     1      -4.195  26.148  49.257  1.00  0.00    -0.002 C 
ATOM     11  C   UNL     1      -5.700  25.751  49.173  1.00  0.00     0.005 C 
ATOM     12  C   UNL     1      -3.423  24.830  48.829  1.00  0.00    -0.024 C 
ATOM     13  C   UNL     1      -5.774  24.264  48.802  1.00  0.00     0.008 C 
ATOM     14  C   UNL     1      -4.489  24.020  48.007  1.00  0.00    -0.024 C 
ATOM     15  C   UNL     1      -2.135  24.942  47.976  1.00  0.00     0.008 C 
ATOM     16  C   UNL     1      -3.002  24.157  50.179  1.00  0.00     0.012 C 
ATOM     17  C   UNL     1      -4.739  24.615  46.569  1.00  0.00     0.012 C 
ATOM     18  C   UNL     1      -4.080  22.529  47.768  1.00  0.00     0.002 C 
ATOM     19  C   UNL     1      -1.557  23.553  47.604  1.00  0.00     0.008 C 
ATOM     20  C   UNL     1      -2.609  22.448  47.226  1.00  0.00    -0.020 C 
ATOM     21  C   UNL     1      -4.382  21.509  48.909  1.00  0.00     0.005 C 
ATOM     22  C   UNL     1      -2.107  21.001  46.980  1.00  0.00    -0.020 C 
ATOM     23  C   UNL     1      -2.434  21.902  45.794  1.00  0.00     0.015 C 
ATOM     24  C   UNL     1      -3.619  20.166  48.786  1.00  0.00     0.005 C 
ATOM     25  C   UNL     1      -3.145  19.895  47.340  1.00  0.00     0.004 C 
ATOM     26  C   UNL     1      -0.624  20.757  47.345  1.00  0.00     0.010 C 
ATOM     27  C   UNL     1      -2.588  18.451  47.051  1.00  0.00    -0.006 C 
ATOM     28  C   UNL     1      -0.177  19.337  47.015  1.00  0.00     0.033 C 
ATOM     29  C   UNL     1      -1.135  18.293  47.605  1.00  0.00     0.120 C 
ATOM     30  C   UNL     1      -2.617  18.214  45.514  1.00  0.00     0.014 C 
ATOM     31  C   UNL     1      -3.495  17.367  47.685  1.00  0.00     0.014 C 
BRANCH  29  32
ATOM     32  O   UNL     1      -0.625  17.014  47.321  1.00  0.00    -0.393 OA
ATOM     33  H   UNL     1      -1.054  16.705  46.479  1.00  0.00     0.210 HD
ENDBRANCH  29  32
ENDBRANCH   8  10
ENDBRANCH   1   8
TORSDOF 6
ENDMDL
MODEL 3
REMARK VINA RESULT:    -8.369      1.897      3.089
REMARK INTER + INTRA:         -11.767
REMARK INTER:                 -10.329
REMARK INTRA:                  -1.437
REMARK UNBOUND:                -0.706
REMARK SMILES C=C(CC[C@@H](C)[C@H]1CC[C@]2(C)[C@@H]3CC[C@@H]4C(C)(C)[C@@H](O)CC[C@@]45C[C@@]35CC[C@@]12C)C(C)C
REMARK SMILES IDX 4 1 3 2 2 3 1 4 30 5 31 6 32 7 5 8 6 9 7 10 8 11 28 12 9 13
REMARK SMILES IDX 10 14 27 15 29 16 11 17 12 18 26 19 25 20 13 21 23 22 24 23
REMARK SMILES IDX 14 24 15 25 22 26 16 27 21 28 19 29 17 30 18 31 20 32
REMARK H PARENT 20 33
REMARK Flexibility Score: inf
ROOT
ATOM      1  C   UNL     1      -5.776  29.234  48.872  1.00  0.00     0.008 C 
ENDROOT
BRANCH   1   2
ATOM      2  C   UNL     1      -5.204  30.601  48.434  1.00  0.00     0.031 C 
BRANCH   2   3
ATOM      3  C   UNL     1      -4.526  31.413  49.540  1.00  0.00    -0.075 C 
ATOM      4  C   UNL     1      -5.078  32.546  50.018  1.00  0.00     0.008 C 
BRANCH   3   5
ATOM      5  C   UNL     1      -3.081  31.112  49.935  1.00  0.00     0.008 C 
ATOM      6  C   UNL     1      -2.319  30.518  48.743  1.00  0.00     0.012 C 
ATOM      7  C   UNL     1      -2.954  30.199  51.164  1.00  0.00     0.012 C 
ENDBRANCH   3   5
ENDBRANCH   2   3
ENDBRANCH   1   2
BRANCH   1   8
ATOM      8  C   UNL     1      -5.267  28.074  47.960  1.00  0.00    -0.010 C 
ATOM      9  C   UNL     1      -4.659  28.695  46.674  1.00  0.00     0.008 C 
BRANCH   8  10
ATOM     10  C   UNL     1      -4.230  27.151  48.706  1.00  0.00    -0.002 C 
ATOM     11  C   UNL     1      -4.509  26.976  50.230  1.00  0.00     0.005 C 
ATOM     12  C   UNL     1      -4.003  25.672  48.183  1.00  0.00    -0.024 C 
ATOM     13  C   UNL     1      -4.361  25.487  50.568  1.00  0.00     0.008 C 
ATOM     14  C   UNL     1      -4.718  24.778  49.259  1.00  0.00    -0.024 C 
ATOM     15  C   UNL     1      -4.533  25.266  46.785  1.00  0.00     0.008 C 
ATOM     16  C   UNL     1      -2.446  25.500  48.132  1.00  0.00     0.012 C 
ATOM     17  C   UNL     1      -6.289  24.820  49.148  1.00  0.00     0.012 C 
ATOM     18  C   UNL     1      -4.340  23.263  49.152  1.00  0.00     0.002 C 
ATOM     19  C   UNL     1      -4.273  23.770  46.473  1.00  0.00     0.008 C 
ATOM     20  C   UNL     1      -4.479  22.771  47.668  1.00  0.00    -0.020 C 
ATOM     21  C   UNL     1      -3.019  22.801  49.842  1.00  0.00     0.005 C 
ATOM     22  C   UNL     1      -4.102  21.281  47.461  1.00  0.00    -0.020 C 
ATOM     23  C   UNL     1      -5.564  21.708  47.397  1.00  0.00     0.015 C 
ATOM     24  C   UNL     1      -2.506  21.414  49.379  1.00  0.00     0.005 C 
ATOM     25  C   UNL     1      -3.631  20.555  48.757  1.00  0.00     0.004 C 
ATOM     26  C   UNL     1      -3.354  20.977  46.141  1.00  0.00     0.010 C 
ATOM     27  C   UNL     1      -3.281  19.043  48.489  1.00  0.00    -0.006 C 
ATOM     28  C   UNL     1      -3.075  19.488  45.968  1.00  0.00     0.033 C 
ATOM     29  C   UNL     1      -2.396  18.893  47.210  1.00  0.00     0.120 C 
ATOM     30  C   UNL     1      -4.612  18.254  48.331  1.00  0.00     0.014 C 
ATOM     31  C   UNL     1      -2.537  18.421  49.698  1.00  0.00     0.014 C 
BRANCH  29  32
ATOM     32  O   UNL     1      -2.109  17.541  46.952  1.00  0.00    -0.393 OA
ATOM     33  H   UNL     1      -1.394  17.266  47.586  1.00  0.00     0.210 HD
ENDBRANCH  29  32
ENDBRANCH   8  10
ENDBRANCH   1   8
TORSDOF 6
ENDMDL
MODEL 4
REMARK VINA RESULT:    -8.344      1.634      2.493
REMARK INTER + INTRA:         -11.733
REMARK INTER:                 -10.874
REMARK INTRA:                  -0.859
REMARK UNBOUND:                -0.706
REMARK SMILES C=C(CC[C@@H](C)[C@H]1CC[C@]2(C)[C@@H]3CC[C@@H]4C(C)(C)[C@@H](O)CC[C@@]45C[C@@]35CC[C@@]12C)C(C)C
REMARK SMILES IDX 4 1 3 2 2 3 1 4 30 5 31 6 32 7 5 8 6 9 7 10 8 11 28 12 9 13
REMARK SMILES IDX 10 14 27 15 29 16 11 17 12 18 26 19 25 20 13 21 23 22 24 23
REMARK SMILES IDX 14 24 15 25 22 26 16 27 21 28 19 29 17 30 18 31 20 32
REMARK H PARENT 20 33
REMARK Flexibility Score: inf
ROOT
ATOM      1  C   UNL     1      -5.852  29.076  48.860  1.00  0.00     0.008 C 
ENDROOT
BRANCH   1   2
ATOM      2  C   UNL     1      -5.228  30.463  48.588  1.00  0.00     0.031 C 
BRANCH   2   3
ATOM      3  C   UNL     1      -6.223  31.573  48.241  1.00  0.00    -0.075 C 
ATOM      4  C   UNL     1      -7.223  31.370  47.361  1.00  0.00     0.008 C 
BRANCH   3   5
ATOM      5  C   UNL     1      -5.946  33.013  48.673  1.00  0.00     0.008 C 
ATOM      6  C   UNL     1      -5.177  33.028  50.001  1.00  0.00     0.012 C 
ATOM      7  C   UNL     1      -7.209  33.882  48.773  1.00  0.00     0.012 C 
ENDBRANCH   3   5
ENDBRANCH   2   3
ENDBRANCH   1   2
BRANCH   1   8
ATOM      8  C   UNL     1      -5.251  27.977  47.927  1.00  0.00    -0.010 C 
ATOM      9  C   UNL     1      -4.596  28.678  46.707  1.00  0.00     0.008 C 
BRANCH   8  10
ATOM     10  C   UNL     1      -4.225  27.056  48.689  1.00  0.00    -0.002 C 
ATOM     11  C   UNL     1      -4.523  26.886  50.210  1.00  0.00     0.005 C 
ATOM     12  C   UNL     1      -3.993  25.575  48.173  1.00  0.00    -0.024 C 
ATOM     13  C   UNL     1      -4.381  25.398  50.554  1.00  0.00     0.008 C 
ATOM     14  C   UNL     1      -4.723  24.685  49.243  1.00  0.00    -0.024 C 
ATOM     15  C   UNL     1      -4.506  25.165  46.770  1.00  0.00     0.008 C 
ATOM     16  C   UNL     1      -2.436  25.401  48.143  1.00  0.00     0.012 C 
ATOM     17  C   UNL     1      -6.292  24.728  49.112  1.00  0.00     0.012 C 
ATOM     18  C   UNL     1      -4.345  23.170  49.145  1.00  0.00     0.002 C 
ATOM     19  C   UNL     1      -4.244  23.668  46.466  1.00  0.00     0.008 C 
ATOM     20  C   UNL     1      -4.466  22.673  47.661  1.00  0.00    -0.020 C 
ATOM     21  C   UNL     1      -3.033  22.708  49.853  1.00  0.00     0.005 C 
ATOM     22  C   UNL     1      -4.087  21.182  47.463  1.00  0.00    -0.020 C 
ATOM     23  C   UNL     1      -5.548  21.611  47.379  1.00  0.00     0.015 C 
ATOM     24  C   UNL     1      -2.516  21.320  49.401  1.00  0.00     0.005 C 
ATOM     25  C   UNL     1      -3.633  20.459  48.767  1.00  0.00     0.004 C 
ATOM     26  C   UNL     1      -3.323  20.874  46.154  1.00  0.00     0.010 C 
ATOM     27  C   UNL     1      -3.282  18.946  48.509  1.00  0.00    -0.006 C 
ATOM     28  C   UNL     1      -3.044  19.383  45.989  1.00  0.00     0.033 C 
ATOM     29  C   UNL     1      -2.381  18.792  47.241  1.00  0.00     0.120 C 
ATOM     30  C   UNL     1      -4.612  18.158  48.336  1.00  0.00     0.014 C 
ATOM     31  C   UNL     1      -2.553  18.327  49.728  1.00  0.00     0.014 C 
BRANCH  29  32
ATOM     32  O   UNL     1      -2.092  17.439  46.991  1.00  0.00    -0.393 OA
ATOM     33  H   UNL     1      -2.787  17.099  46.367  1.00  0.00     0.210 HD
ENDBRANCH  29  32
ENDBRANCH   8  10
ENDBRANCH   1   8
TORSDOF 6
ENDMDL
MODEL 5
REMARK VINA RESULT:    -8.268      2.838      8.631
REMARK INTER + INTRA:         -11.633
REMARK INTER:                 -10.215
REMARK INTRA:                  -1.418
REMARK UNBOUND:                -0.706
REMARK SMILES C=C(CC[C@@H](C)[C@H]1CC[C@]2(C)[C@@H]3CC[C@@H]4C(C)(C)[C@@H](O)CC[C@@]45C[C@@]35CC[C@@]12C)C(C)C
REMARK SMILES IDX 4 1 3 2 2 3 1 4 30 5 31 6 32 7 5 8 6 9 7 10 8 11 28 12 9 13
REMARK SMILES IDX 10 14 27 15 29 16 11 17 12 18 26 19 25 20 13 21 23 22 24 23
REMARK SMILES IDX 14 24 15 25 22 26 16 27 21 28 19 29 17 30 18 31 20 32
REMARK H PARENT 20 33
REMARK Flexibility Score: inf
ROOT
ATOM      1  C   UNL     1      -0.438  18.787  47.035  1.00  0.00     0.008 C 
ENDROOT
BRANCH   1   2
ATOM      2  C   UNL     1      -0.999  17.958  48.212  1.00  0.00     0.031 C 
BRANCH   2   3
ATOM      3  C   UNL     1      -2.301  17.208  47.923  1.00  0.00    -0.075 C 
ATOM      4  C   UNL     1      -2.451  15.909  48.251  1.00  0.00     0.008 C 
BRANCH   3   5
ATOM      5  C   UNL     1      -3.359  17.832  47.014  1.00  0.00     0.008 C 
ATOM      6  C   UNL     1      -4.664  18.050  47.792  1.00  0.00     0.012 C 
ATOM      7  C   UNL     1      -3.625  17.028  45.732  1.00  0.00     0.012 C 
ENDBRANCH   3   5
ENDBRANCH   2   3
ENDBRANCH   1   2
BRANCH   1   8
ATOM      8  C   UNL     1      -0.243  20.287  47.424  1.00  0.00    -0.010 C 
ATOM      9  C   UNL     1       1.266  20.629  47.308  1.00  0.00     0.008 C 
BRANCH   8  10
ATOM     10  C   UNL     1      -1.126  21.243  46.537  1.00  0.00    -0.002 C 
ATOM     11  C   UNL     1      -2.366  20.555  45.890  1.00  0.00     0.005 C 
ATOM     12  C   UNL     1      -1.713  22.567  47.183  1.00  0.00    -0.024 C 
ATOM     13  C   UNL     1      -3.574  21.482  46.085  1.00  0.00     0.008 C 
ATOM     14  C   UNL     1      -3.241  22.252  47.366  1.00  0.00    -0.024 C 
ATOM     15  C   UNL     1      -1.155  23.066  48.540  1.00  0.00     0.008 C 
ATOM     16  C   UNL     1      -1.406  23.693  46.138  1.00  0.00     0.012 C 
ATOM     17  C   UNL     1      -3.528  21.267  48.562  1.00  0.00     0.012 C 
ATOM     18  C   UNL     1      -4.101  23.524  47.666  1.00  0.00     0.002 C 
ATOM     19  C   UNL     1      -1.890  24.335  49.043  1.00  0.00     0.008 C 
ATOM     20  C   UNL     1      -3.445  24.364  48.819  1.00  0.00    -0.020 C 
ATOM     21  C   UNL     1      -4.561  24.386  46.449  1.00  0.00     0.005 C 
ATOM     22  C   UNL     1      -4.220  25.661  49.171  1.00  0.00    -0.020 C 
ATOM     23  C   UNL     1      -4.250  24.476  50.130  1.00  0.00     0.015 C 
ATOM     24  C   UNL     1      -5.055  25.806  46.821  1.00  0.00     0.005 C 
ATOM     25  C   UNL     1      -5.490  25.904  48.302  1.00  0.00     0.004 C 
ATOM     26  C   UNL     1      -3.328  26.877  49.516  1.00  0.00     0.010 C 
ATOM     27  C   UNL     1      -6.245  27.221  48.718  1.00  0.00    -0.006 C 
ATOM     28  C   UNL     1      -4.150  28.097  49.920  1.00  0.00     0.033 C 
ATOM     29  C   UNL     1      -5.242  28.408  48.887  1.00  0.00     0.120 C 
ATOM     30  C   UNL     1      -7.003  26.951  50.049  1.00  0.00     0.014 C 
ATOM     31  C   UNL     1      -7.315  27.607  47.666  1.00  0.00     0.014 C 
BRANCH  29  32
ATOM     32  O   UNL     1      -5.910  29.578  49.288  1.00  0.00    -0.393 OA
ATOM     33  H   UNL     1      -5.230  30.300  49.351  1.00  0.00     0.210 HD
ENDBRANCH  29  32
ENDBRANCH   8  10
ENDBRANCH   1   8
TORSDOF 6
ENDMDL
MODEL 6
REMARK VINA RESULT:    -8.261      2.957      8.940
REMARK INTER + INTRA:         -11.624
REMARK INTER:                 -10.418
REMARK INTRA:                  -1.205
REMARK UNBOUND:                -0.706
REMARK SMILES C=C(CC[C@@H](C)[C@H]1CC[C@]2(C)[C@@H]3CC[C@@H]4C(C)(C)[C@@H](O)CC[C@@]45C[C@@]35CC[C@@]12C)C(C)C
REMARK SMILES IDX 4 1 3 2 2 3 1 4 30 5 31 6 32 7 5 8 6 9 7 10 8 11 28 12 9 13
REMARK SMILES IDX 10 14 27 15 29 16 11 17 12 18 26 19 25 20 13 21 23 22 24 23
REMARK SMILES IDX 14 24 15 25 22 26 16 27 21 28 19 29 17 30 18 31 20 32
REMARK H PARENT 20 33
REMARK Flexibility Score: inf
ROOT
ATOM      1  C   UNL     1      -2.138  19.671  47.113  1.00  0.00     0.008 C 
ENDROOT
BRANCH   1   2
ATOM      2  C   UNL     1      -2.881  19.111  45.879  1.00  0.00     0.031 C 
BRANCH   2   3
ATOM      3  C   UNL     1      -2.552  17.661  45.518  1.00  0.00    -0.075 C 
ATOM      4  C   UNL     1      -3.416  16.897  44.821  1.00  0.00     0.008 C 
BRANCH   3   5
ATOM      5  C   UNL     1      -1.361  16.960  46.171  1.00  0.00     0.008 C 
ATOM      6  C   UNL     1      -0.581  16.155  45.124  1.00  0.00     0.012 C 
ATOM      7  C   UNL     1      -1.746  16.066  47.361  1.00  0.00     0.012 C 
ENDBRANCH   3   5
ENDBRANCH   2   3
ENDBRANCH   1   2
BRANCH   1   8
ATOM      8  C   UNL     1      -3.127  20.074  48.251  1.00  0.00    -0.010 C 
ATOM      9  C   UNL     1      -3.226  18.894  49.254  1.00  0.00     0.008 C 
BRANCH   8  10
ATOM     10  C   UNL     1      -2.689  21.409  48.965  1.00  0.00    -0.002 C 
ATOM     11  C   UNL     1      -1.223  21.846  48.663  1.00  0.00     0.005 C 
ATOM     12  C   UNL     1      -3.542  22.724  48.724  1.00  0.00    -0.024 C 
ATOM     13  C   UNL     1      -1.235  23.348  48.353  1.00  0.00     0.008 C 
ATOM     14  C   UNL     1      -2.634  23.594  47.782  1.00  0.00    -0.024 C 
ATOM     15  C   UNL     1      -4.947  22.617  48.080  1.00  0.00     0.008 C 
ATOM     16  C   UNL     1      -3.756  23.329  50.153  1.00  0.00     0.012 C 
ATOM     17  C   UNL     1      -2.604  23.067  46.297  1.00  0.00     0.012 C 
ATOM     18  C   UNL     1      -3.101  25.083  47.679  1.00  0.00     0.002 C 
ATOM     19  C   UNL     1      -5.600  24.006  47.868  1.00  0.00     0.008 C 
ATOM     20  C   UNL     1      -4.641  25.151  47.380  1.00  0.00    -0.020 C 
ATOM     21  C   UNL     1      -2.640  26.062  48.803  1.00  0.00     0.005 C 
ATOM     22  C   UNL     1      -5.200  26.595  47.282  1.00  0.00    -0.020 C 
ATOM     23  C   UNL     1      -5.050  25.753  46.019  1.00  0.00     0.015 C 
ATOM     24  C   UNL     1      -3.436  27.389  48.864  1.00  0.00     0.005 C 
ATOM     25  C   UNL     1      -4.139  27.709  47.524  1.00  0.00     0.004 C 
ATOM     26  C   UNL     1      -6.611  26.787  47.887  1.00  0.00     0.010 C 
ATOM     27  C   UNL     1      -4.759  29.151  47.392  1.00  0.00    -0.006 C 
ATOM     28  C   UNL     1      -7.130  28.208  47.696  1.00  0.00     0.033 C 
ATOM     29  C   UNL     1      -6.108  29.250  48.175  1.00  0.00     0.120 C 
ATOM     30  C   UNL     1      -4.978  29.453  45.882  1.00  0.00     0.014 C 
ATOM     31  C   UNL     1      -3.782  30.229  47.925  1.00  0.00     0.014 C 
BRANCH  29  32
ATOM     32  O   UNL     1      -6.679  30.527  48.034  1.00  0.00    -0.393 OA
ATOM     33  H   UNL     1      -7.148  30.736  48.885  1.00  0.00     0.210 HD
ENDBRANCH  29  32
ENDBRANCH   8  10
ENDBRANCH   1   8
TORSDOF 6
ENDMDL
MODEL 7
REMARK VINA RESULT:    -7.781      2.383      3.703
REMARK INTER + INTRA:         -10.989
REMARK INTER:                  -9.261
REMARK INTRA:                  -1.727
REMARK UNBOUND:                -0.706
REMARK SMILES C=C(CC[C@@H](C)[C@H]1CC[C@]2(C)[C@@H]3CC[C@@H]4C(C)(C)[C@@H](O)CC[C@@]45C[C@@]35CC[C@@]12C)C(C)C
REMARK SMILES IDX 4 1 3 2 2 3 1 4 30 5 31 6 32 7 5 8 6 9 7 10 8 11 28 12 9 13
REMARK SMILES IDX 10 14 27 15 29 16 11 17 12 18 26 19 25 20 13 21 23 22 24 23
REMARK SMILES IDX 14 24 15 25 22 26 16 27 21 28 19 29 17 30 18 31 20 32
REMARK H PARENT 20 33
REMARK Flexibility Score: inf
ROOT
ATOM      1  C   UNL     1      -4.840  28.043  47.477  1.00  0.00     0.008 C 
ENDROOT
BRANCH   1   2
ATOM      2  C   UNL     1      -4.460  28.081  45.980  1.00  0.00     0.031 C 
BRANCH   2   3
ATOM      3  C   UNL     1      -3.235  28.931  45.635  1.00  0.00    -0.075 C 
ATOM      4  C   UNL     1      -3.299  30.277  45.609  1.00  0.00     0.008 C 
BRANCH   3   5
ATOM      5  C   UNL     1      -1.987  28.273  45.049  1.00  0.00     0.008 C 
ATOM      6  C   UNL     1      -1.559  28.999  43.766  1.00  0.00     0.012 C 
ATOM      7  C   UNL     1      -2.146  26.767  44.788  1.00  0.00     0.012 C 
ENDBRANCH   3   5
ENDBRANCH   2   3
ENDBRANCH   1   2
BRANCH   1   8
ATOM      8  C   UNL     1      -3.664  27.520  48.360  1.00  0.00    -0.010 C 
ATOM      9  C   UNL     1      -3.252  28.648  49.343  1.00  0.00     0.008 C 
BRANCH   8  10
ATOM     10  C   UNL     1      -4.046  26.195  49.122  1.00  0.00    -0.002 C 
ATOM     11  C   UNL     1      -5.561  25.832  49.056  1.00  0.00     0.005 C 
ATOM     12  C   UNL     1      -3.308  24.846  48.736  1.00  0.00    -0.024 C 
ATOM     13  C   UNL     1      -5.672  24.336  48.735  1.00  0.00     0.008 C 
ATOM     14  C   UNL     1      -4.396  24.035  47.944  1.00  0.00    -0.024 C 
ATOM     15  C   UNL     1      -2.021  24.899  47.875  1.00  0.00     0.008 C 
ATOM     16  C   UNL     1      -2.898  24.208  50.106  1.00  0.00     0.012 C 
ATOM     17  C   UNL     1      -4.638  24.588  46.488  1.00  0.00     0.012 C 
ATOM     18  C   UNL     1      -4.024  22.528  47.753  1.00  0.00     0.002 C 
ATOM     19  C   UNL     1      -1.478  23.484  47.548  1.00  0.00     0.008 C 
ATOM     20  C   UNL     1      -2.557  22.394  47.210  1.00  0.00    -0.020 C 
ATOM     21  C   UNL     1      -4.346  21.553  48.929  1.00  0.00     0.005 C 
ATOM     22  C   UNL     1      -2.091  20.928  47.011  1.00  0.00    -0.020 C 
ATOM     23  C   UNL     1      -2.401  21.796  45.796  1.00  0.00     0.015 C 
ATOM     24  C   UNL     1      -3.616  20.189  48.848  1.00  0.00     0.005 C 
ATOM     25  C   UNL     1      -3.154  19.860  47.409  1.00  0.00     0.004 C 
ATOM     26  C   UNL     1      -0.613  20.660  47.379  1.00  0.00     0.010 C 
ATOM     27  C   UNL     1      -2.633  18.393  47.167  1.00  0.00    -0.006 C 
ATOM     28  C   UNL     1      -0.201  19.219  47.094  1.00  0.00     0.033 C 
ATOM     29  C   UNL     1      -1.182  18.219  47.722  1.00  0.00     0.120 C 
ATOM     30  C   UNL     1      -2.673  18.107  45.638  1.00  0.00     0.014 C 
ATOM     31  C   UNL     1      -3.563  17.353  47.839  1.00  0.00     0.014 C 
BRANCH  29  32
ATOM     32  O   UNL     1      -0.704  16.919  47.478  1.00  0.00    -0.393 OA
ATOM     33  H   UNL     1       0.098  16.788  48.051  1.00  0.00     0.210 HD
ENDBRANCH  29  32
ENDBRANCH   8  10
ENDBRANCH   1   8
TORSDOF 6
ENDMDL
MODEL 8
REMARK VINA RESULT:    -7.778      3.194      8.987
REMARK INTER + INTRA:         -10.985
REMARK INTER:                 -10.727
REMARK INTRA:                  -0.257
REMARK UNBOUND:                -0.706
REMARK SMILES C=C(CC[C@@H](C)[C@H]1CC[C@]2(C)[C@@H]3CC[C@@H]4C(C)(C)[C@@H](O)CC[C@@]45C[C@@]35CC[C@@]12C)C(C)C
REMARK SMILES IDX 4 1 3 2 2 3 1 4 30 5 31 6 32 7 5 8 6 9 7 10 8 11 28 12 9 13
REMARK SMILES IDX 10 14 27 15 29 16 11 17 12 18 26 19 25 20 13 21 23 22 24 23
REMARK SMILES IDX 14 24 15 25 22 26 16 27 21 28 19 29 17 30 18 31 20 32
REMARK H PARENT 20 33
REMARK Flexibility Score: inf
ROOT
ATOM      1  C   UNL     1      -3.270  19.841  48.866  1.00  0.00     0.008 C 
ENDROOT
BRANCH   1   2
ATOM      2  C   UNL     1      -4.071  18.698  48.204  1.00  0.00     0.031 C 
BRANCH   2   3
ATOM      3  C   UNL     1      -3.272  17.428  47.902  1.00  0.00    -0.075 C 
ATOM      4  C   UNL     1      -2.737  16.683  48.889  1.00  0.00     0.008 C 
BRANCH   3   5
ATOM      5  C   UNL     1      -2.829  17.124  46.471  1.00  0.00     0.008 C 
ATOM      6  C   UNL     1      -1.392  16.585  46.465  1.00  0.00     0.012 C 
ATOM      7  C   UNL     1      -2.960  18.321  45.516  1.00  0.00     0.012 C 
ENDBRANCH   3   5
ENDBRANCH   2   3
ENDBRANCH   1   2
BRANCH   1   8
ATOM      8  C   UNL     1      -3.686  21.239  48.307  1.00  0.00    -0.010 C 
ATOM      9  C   UNL     1      -5.113  21.119  47.707  1.00  0.00     0.008 C 
BRANCH   8  10
ATOM     10  C   UNL     1      -3.612  22.359  49.412  1.00  0.00    -0.002 C 
ATOM     11  C   UNL     1      -2.172  22.654  49.931  1.00  0.00     0.005 C 
ATOM     12  C   UNL     1      -4.209  23.793  49.094  1.00  0.00    -0.024 C 
ATOM     13  C   UNL     1      -1.994  24.177  49.985  1.00  0.00     0.008 C 
ATOM     14  C   UNL     1      -2.938  24.695  48.896  1.00  0.00    -0.024 C 
ATOM     15  C   UNL     1      -5.132  23.980  47.863  1.00  0.00     0.008 C 
ATOM     16  C   UNL     1      -5.070  24.157  50.351  1.00  0.00     0.012 C 
ATOM     17  C   UNL     1      -2.210  24.440  47.522  1.00  0.00     0.012 C 
ATOM     18  C   UNL     1      -3.259  26.226  48.912  1.00  0.00     0.002 C 
ATOM     19  C   UNL     1      -5.566  25.457  47.677  1.00  0.00     0.008 C 
ATOM     20  C   UNL     1      -4.462  26.539  47.953  1.00  0.00    -0.020 C 
ATOM     21  C   UNL     1      -3.372  26.923  50.304  1.00  0.00     0.005 C 
ATOM     22  C   UNL     1      -4.868  28.036  47.921  1.00  0.00    -0.020 C 
ATOM     23  C   UNL     1      -4.149  27.420  46.726  1.00  0.00     0.015 C 
ATOM     24  C   UNL     1      -4.065  28.308  50.272  1.00  0.00     0.005 C 
ATOM     25  C   UNL     1      -4.026  28.947  48.864  1.00  0.00     0.004 C 
ATOM     26  C   UNL     1      -6.390  28.294  47.824  1.00  0.00     0.010 C 
ATOM     27  C   UNL     1      -4.469  30.456  48.774  1.00  0.00    -0.006 C 
ATOM     28  C   UNL     1      -6.716  29.781  47.727  1.00  0.00     0.033 C 
ATOM     29  C   UNL     1      -6.025  30.584  48.839  1.00  0.00     0.120 C 
ATOM     30  C   UNL     1      -3.925  31.046  47.442  1.00  0.00     0.014 C 
ATOM     31  C   UNL     1      -3.842  31.290  49.919  1.00  0.00     0.014 C 
BRANCH  29  32
ATOM     32  O   UNL     1      -6.424  31.927  48.728  1.00  0.00    -0.393 OA
ATOM     33  H   UNL     1      -5.755  32.387  48.155  1.00  0.00     0.210 HD
ENDBRANCH  29  32
ENDBRANCH   8  10
ENDBRANCH   1   8
TORSDOF 6
ENDMDL
MODEL 9
REMARK VINA RESULT:    -7.769      4.024      9.217
REMARK INTER + INTRA:         -10.973
REMARK INTER:                  -9.112
REMARK INTRA:                  -1.861
REMARK UNBOUND:                -0.706
REMARK SMILES C=C(CC[C@@H](C)[C@H]1CC[C@]2(C)[C@@H]3CC[C@@H]4C(C)(C)[C@@H](O)CC[C@@]45C[C@@]35CC[C@@]12C)C(C)C
REMARK SMILES IDX 4 1 3 2 2 3 1 4 30 5 31 6 32 7 5 8 6 9 7 10 8 11 28 12 9 13
REMARK SMILES IDX 10 14 27 15 29 16 11 17 12 18 26 19 25 20 13 21 23 22 24 23
REMARK SMILES IDX 14 24 15 25 22 26 16 27 21 28 19 29 17 30 18 31 20 32
REMARK H PARENT 20 33
REMARK Flexibility Score: inf
ROOT
ATOM      1  C   UNL     1      -4.124  23.406  50.402  1.00  0.00     0.008 C 
ENDROOT
BRANCH   1   2
ATOM      2  C   UNL     1      -3.989  24.122  51.765  1.00  0.00     0.031 C 
BRANCH   2   3
ATOM      3  C   UNL     1      -2.570  24.559  52.138  1.00  0.00    -0.075 C 
ATOM      4  C   UNL     1      -1.554  23.676  52.193  1.00  0.00     0.008 C 
BRANCH   3   5
ATOM      5  C   UNL     1      -2.326  25.951  52.721  1.00  0.00     0.008 C 
ATOM      6  C   UNL     1      -3.547  26.407  53.531  1.00  0.00     0.012 C 
ATOM      7  C   UNL     1      -1.955  27.006  51.667  1.00  0.00     0.012 C 
ENDBRANCH   3   5
ENDBRANCH   2   3
ENDBRANCH   1   2
BRANCH   1   8
ATOM      8  C   UNL     1      -3.617  24.300  49.226  1.00  0.00    -0.010 C 
ATOM      9  C   UNL     1      -2.655  23.454  48.350  1.00  0.00     0.008 C 
BRANCH   8  10
ATOM     10  C   UNL     1      -4.809  24.888  48.380  1.00  0.00    -0.002 C 
ATOM     11  C   UNL     1      -6.215  24.682  49.022  1.00  0.00     0.005 C 
ATOM     12  C   UNL     1      -4.786  26.423  47.984  1.00  0.00    -0.024 C 
ATOM     13  C   UNL     1      -6.979  26.008  48.917  1.00  0.00     0.008 C 
ATOM     14  C   UNL     1      -5.874  27.068  48.916  1.00  0.00    -0.024 C 
ATOM     15  C   UNL     1      -3.474  27.232  48.138  1.00  0.00     0.008 C 
ATOM     16  C   UNL     1      -5.146  26.449  46.459  1.00  0.00     0.012 C 
ATOM     17  C   UNL     1      -5.397  27.211  50.411  1.00  0.00     0.012 C 
ATOM     18  C   UNL     1      -6.284  28.513  48.477  1.00  0.00     0.002 C 
ATOM     19  C   UNL     1      -3.660  28.725  47.762  1.00  0.00     0.008 C 
ATOM     20  C   UNL     1      -5.006  29.389  48.228  1.00  0.00    -0.020 C 
ATOM     21  C   UNL     1      -7.360  28.645  47.355  1.00  0.00     0.005 C 
ATOM     22  C   UNL     1      -5.315  30.837  47.765  1.00  0.00    -0.020 C 
ATOM     23  C   UNL     1      -4.799  30.587  49.178  1.00  0.00     0.015 C 
ATOM     24  C   UNL     1      -7.434  30.048  46.701  1.00  0.00     0.005 C 
ATOM     25  C   UNL     1      -6.834  31.147  47.609  1.00  0.00     0.004 C 
ATOM     26  C   UNL     1      -4.342  31.402  46.704  1.00  0.00     0.010 C 
ATOM     27  C   UNL     1      -7.088  32.634  47.157  1.00  0.00    -0.006 C 
ATOM     28  C   UNL     1      -4.660  32.850  46.346  1.00  0.00     0.033 C 
ATOM     29  C   UNL     1      -6.140  33.027  45.978  1.00  0.00     0.120 C 
ATOM     30  C   UNL     1      -6.853  33.564  48.382  1.00  0.00     0.014 C 
ATOM     31  C   UNL     1      -8.559  32.840  46.717  1.00  0.00     0.014 C 
BRANCH  29  32
ATOM     32  O   UNL     1      -6.343  34.365  45.594  1.00  0.00    -0.393 OA
ATOM     33  H   UNL     1      -6.160  34.931  46.390  1.00  0.00     0.210 HD
ENDBRANCH  29  32
ENDBRANCH   8  10
ENDBRANCH   1   8
TORSDOF 6
ENDMDL
