MODEL 1
REMARK VINA RESULT:    -4.408      0.000      0.000
REMARK INTER + INTRA:          -5.936
REMARK INTER:                  -6.211
REMARK INTRA:                   0.276
REMARK UNBOUND:                 0.276
REMARK SMILES CC1=CCC(=C(C)C)C(=O)CC(C)=CCC1
REMARK SMILES IDX 12 1 14 2 13 3 15 4 16 5 2 6 1 7 3 8 11 10 9 11 10 12 5 13
REMARK SMILES IDX 6 14 7 15 8 16 4 17
REMARK H PARENT
REMARK Flexibility Score: 60.00
ROOT
ATOM      1  C   UNL     1      31.758  42.125  85.231  1.00  0.00    -0.070 C 
ATOM      2  C   UNL     1      31.881  40.838  85.625  1.00  0.00    -0.027 C 
ATOM      3  C   UNL     1      30.648  42.946  85.838  1.00  0.00     0.039 C 
ENDROOT
BRANCH   2   4
ATOM      4  C   UNL     1      32.863  39.833  85.064  1.00  0.00     0.032 C 
BRANCH   4   5
ATOM      5  C   UNL     1      34.209  39.753  85.815  1.00  0.00     0.034 C 
BRANCH   5   6
ATOM      6  C   UNL     1      35.412  39.904  84.903  1.00  0.00    -0.077 C 
ATOM      7  C   UNL     1      35.876  38.685  84.146  1.00  0.00     0.039 C 
ATOM      8  C   UNL     1      36.138  41.043  84.777  1.00  0.00    -0.023 CG0
ATOM      9  G   UNL     1      35.852  42.384  85.421  1.00  0.00     0.000 G0
ENDBRANCH   5   6
ENDBRANCH   4   5
ENDBRANCH   2   4
BRANCH   1  10
ATOM     10  C   UNL     1      32.615  42.749  84.149  1.00  0.00     0.111 C 
BRANCH  10  11
ATOM     11  C   UNL     1      33.694  43.624  84.729  1.00  0.00     0.163 C 
ATOM     12  O   UNL     1      33.344  44.632  85.401  1.00  0.00    -0.294 OA
BRANCH  11  13
ATOM     13  C   UNL     1      35.146  43.374  84.486  1.00  0.00    -0.002 C 
ATOM     14  C   UNL     1      35.781  43.928  83.409  1.00  0.00    -0.069 C 
ATOM     15  C   UNL     1      37.206  43.569  83.047  1.00  0.00     0.039 C 
ATOM     16  C   UNL     1      35.083  44.932  82.519  1.00  0.00     0.039 C 
BRANCH  13  17
ATOM     17  C   UNL     1      35.853  42.410  85.427  1.00  0.00     0.066 CG0
ATOM     18  G   UNL     1      36.142  41.075  84.771  1.00  0.00     0.000 G0
ENDBRANCH  13  17
ENDBRANCH  11  13
ENDBRANCH  10  11
ENDBRANCH   1  10
TORSDOF 0
ENDMDL
MODEL 2
REMARK VINA RESULT:    -4.385      1.988      3.388
REMARK INTER + INTRA:          -5.903
REMARK INTER:                  -6.210
REMARK INTRA:                   0.306
REMARK UNBOUND:                 0.276
REMARK SMILES CC1=CCC(=C(C)C)C(=O)CC(C)=CCC1
REMARK SMILES IDX 12 1 14 2 13 3 15 4 16 5 2 6 1 7 3 8 11 10 9 11 10 12 5 13
REMARK SMILES IDX 6 14 7 15 8 16 4 17
REMARK H PARENT
REMARK Flexibility Score: 60.00
ROOT
ATOM      1  C   UNL     1      34.011  40.203  85.104  1.00  0.00    -0.070 C 
ATOM      2  C   UNL     1      34.724  40.294  86.249  1.00  0.00    -0.027 C 
ATOM      3  C   UNL     1      32.508  40.127  85.212  1.00  0.00     0.039 C 
ENDROOT
BRANCH   2   4
ATOM      4  C   UNL     1      36.233  40.282  86.353  1.00  0.00     0.032 C 
BRANCH   4   5
ATOM      5  C   UNL     1      36.959  41.182  85.330  1.00  0.00     0.034 C 
BRANCH   5   6
ATOM      6  C   UNL     1      36.700  42.662  85.546  1.00  0.00    -0.077 C 
ATOM      7  C   UNL     1      37.021  43.240  86.901  1.00  0.00     0.039 C 
ATOM      8  C   UNL     1      36.136  43.481  84.624  1.00  0.00    -0.023 CG0
ATOM      9  G   UNL     1      35.750  43.129  83.202  1.00  0.00     0.000 G0
ENDBRANCH   5   6
ENDBRANCH   4   5
ENDBRANCH   2   4
BRANCH   1  10
ATOM     10  C   UNL     1      34.648  40.079  83.735  1.00  0.00     0.111 C 
BRANCH  10  11
ATOM     11  C   UNL     1      34.156  41.147  82.794  1.00  0.00     0.163 C 
ATOM     12  O   UNL     1      33.638  40.784  81.703  1.00  0.00    -0.294 OA
BRANCH  11  13
ATOM     13  C   UNL     1      34.315  42.604  83.081  1.00  0.00    -0.002 C 
ATOM     14  C   UNL     1      33.225  43.425  83.157  1.00  0.00    -0.069 C 
ATOM     15  C   UNL     1      33.361  44.926  83.287  1.00  0.00     0.039 C 
ATOM     16  C   UNL     1      31.820  42.868  83.111  1.00  0.00     0.039 C 
BRANCH  13  17
ATOM     17  C   UNL     1      35.735  43.140  83.187  1.00  0.00     0.066 CG0
ATOM     18  G   UNL     1      36.119  43.472  84.615  1.00  0.00     0.000 G0
ENDBRANCH  13  17
ENDBRANCH  11  13
ENDBRANCH  10  11
ENDBRANCH   1  10
TORSDOF 0
ENDMDL
MODEL 3
REMARK VINA RESULT:    -4.371      1.666      3.678
REMARK INTER + INTRA:          -5.884
REMARK INTER:                  -6.398
REMARK INTRA:                   0.514
REMARK UNBOUND:                 0.276
REMARK SMILES CC1=CCC(=C(C)C)C(=O)CC(C)=CCC1
REMARK SMILES IDX 12 1 14 2 13 3 15 4 16 5 2 6 1 7 3 8 11 10 9 11 10 12 5 13
REMARK SMILES IDX 6 14 7 15 8 16 4 17
REMARK H PARENT
REMARK Flexibility Score: 60.00
ROOT
ATOM      1  C   UNL     1      34.317  39.927  84.714  1.00  0.00    -0.070 C 
ATOM      2  C   UNL     1      33.013  40.132  84.419  1.00  0.00    -0.027 C 
ATOM      3  C   UNL     1      35.190  39.301  83.654  1.00  0.00     0.039 C 
ENDROOT
BRANCH   2   4
ATOM      4  C   UNL     1      31.964  40.654  85.375  1.00  0.00     0.032 C 
BRANCH   4   5
ATOM      5  C   UNL     1      31.686  42.169  85.268  1.00  0.00     0.034 C 
BRANCH   5   6
ATOM      6  C   UNL     1      32.502  42.996  86.244  1.00  0.00    -0.077 C 
ATOM      7  C   UNL     1      31.885  43.307  87.585  1.00  0.00     0.039 C 
ATOM      8  C   UNL     1      33.716  43.532  85.965  1.00  0.00    -0.023 CG0
ATOM      9  G   UNL     1      34.531  43.340  84.701  1.00  0.00     0.000 G0
ENDBRANCH   5   6
ENDBRANCH   4   5
ENDBRANCH   2   4
BRANCH   1  10
ATOM     10  C   UNL     1      34.916  40.207  86.076  1.00  0.00     0.111 C 
BRANCH  10  11
ATOM     11  C   UNL     1      35.694  41.497  86.088  1.00  0.00     0.163 C 
ATOM     12  O   UNL     1      36.285  41.824  87.153  1.00  0.00    -0.294 OA
BRANCH  11  13
ATOM     13  C   UNL     1      35.737  42.418  84.913  1.00  0.00    -0.002 C 
ATOM     14  C   UNL     1      36.850  42.492  84.123  1.00  0.00    -0.069 C 
ATOM     15  C   UNL     1      36.986  43.524  83.025  1.00  0.00     0.039 C 
ATOM     16  C   UNL     1      38.010  41.539  84.311  1.00  0.00     0.039 C 
BRANCH  13  17
ATOM     17  C   UNL     1      34.537  43.326  84.698  1.00  0.00     0.066 CG0
ATOM     18  G   UNL     1      33.735  43.532  85.967  1.00  0.00     0.000 G0
ENDBRANCH  13  17
ENDBRANCH  11  13
ENDBRANCH  10  11
ENDBRANCH   1  10
TORSDOF 0
ENDMDL
MODEL 4
REMARK VINA RESULT:    -4.320      1.583      3.562
REMARK INTER + INTRA:          -5.812
REMARK INTER:                  -6.394
REMARK INTRA:                   0.582
REMARK UNBOUND:                 0.276
REMARK SMILES CC1=CCC(=C(C)C)C(=O)CC(C)=CCC1
REMARK SMILES IDX 12 1 14 2 13 3 15 4 16 5 2 6 1 7 3 8 11 10 9 11 10 12 5 13
REMARK SMILES IDX 6 14 7 15 8 16 4 17
REMARK H PARENT
REMARK Flexibility Score: 60.00
ROOT
ATOM      1  C   UNL     1      34.814  39.949  84.363  1.00  0.00    -0.070 C 
ATOM      2  C   UNL     1      33.715  39.750  85.125  1.00  0.00    -0.027 C 
ATOM      3  C   UNL     1      36.097  39.278  84.785  1.00  0.00     0.039 C 
ENDROOT
BRANCH   2   4
ATOM      4  C   UNL     1      32.369  40.410  84.924  1.00  0.00     0.032 C 
BRANCH   4   5
ATOM      5  C   UNL     1      31.888  41.274  86.108  1.00  0.00     0.034 C 
BRANCH   5   6
ATOM      6  C   UNL     1      32.033  42.764  85.858  1.00  0.00    -0.077 C 
ATOM      7  C   UNL     1      30.781  43.550  85.558  1.00  0.00     0.039 C 
ATOM      8  C   UNL     1      33.219  43.421  85.819  1.00  0.00    -0.023 CG0
ATOM      9  G   UNL     1      34.592  42.847  86.104  1.00  0.00     0.000 G0
ENDBRANCH   5   6
ENDBRANCH   4   5
ENDBRANCH   2   4
BRANCH   1  10
ATOM     10  C   UNL     1      34.840  40.882  83.170  1.00  0.00     0.111 C 
BRANCH  10  11
ATOM     11  C   UNL     1      34.824  42.327  83.593  1.00  0.00     0.163 C 
ATOM     12  O   UNL     1      34.288  43.166  82.819  1.00  0.00    -0.294 OA
BRANCH  11  13
ATOM     13  C   UNL     1      35.467  42.801  84.855  1.00  0.00    -0.002 C 
ATOM     14  C   UNL     1      36.803  43.086  84.894  1.00  0.00    -0.069 C 
ATOM     15  C   UNL     1      37.514  43.414  86.189  1.00  0.00     0.039 C 
ATOM     16  C   UNL     1      37.643  43.085  83.636  1.00  0.00     0.039 C 
BRANCH  13  17
ATOM     17  C   UNL     1      34.596  42.858  86.100  1.00  0.00     0.066 CG0
ATOM     18  G   UNL     1      33.226  43.439  85.818  1.00  0.00     0.000 G0
ENDBRANCH  13  17
ENDBRANCH  11  13
ENDBRANCH  10  11
ENDBRANCH   1  10
TORSDOF 0
ENDMDL
MODEL 5
REMARK VINA RESULT:    -4.318      2.399      4.665
REMARK INTER + INTRA:          -5.809
REMARK INTER:                  -6.288
REMARK INTRA:                   0.479
REMARK UNBOUND:                 0.276
REMARK SMILES CC1=CCC(=C(C)C)C(=O)CC(C)=CCC1
REMARK SMILES IDX 12 1 14 2 13 3 15 4 16 5 2 6 1 7 3 8 11 10 9 11 10 12 5 13
REMARK SMILES IDX 6 14 7 15 8 16 4 17
REMARK H PARENT
REMARK Flexibility Score: 60.00
ROOT
ATOM      1  C   UNL     1      33.067  41.907  82.978  1.00  0.00    -0.070 C 
ATOM      2  C   UNL     1      32.756  43.220  82.902  1.00  0.00    -0.027 C 
ATOM      3  C   UNL     1      34.360  41.450  82.351  1.00  0.00     0.039 C 
ENDROOT
BRANCH   2   4
ATOM      4  C   UNL     1      31.468  43.852  83.381  1.00  0.00     0.032 C 
BRANCH   4   5
ATOM      5  C   UNL     1      31.552  44.525  84.767  1.00  0.00     0.034 C 
BRANCH   5   6
ATOM      6  C   UNL     1      31.093  43.623  85.898  1.00  0.00    -0.077 C 
ATOM      7  C   UNL     1      29.645  43.702  86.314  1.00  0.00     0.039 C 
ATOM      8  C   UNL     1      31.911  42.805  86.605  1.00  0.00    -0.023 CG0
ATOM      9  G   UNL     1      33.385  42.551  86.358  1.00  0.00     0.000 G0
ENDBRANCH   5   6
ENDBRANCH   4   5
ENDBRANCH   2   4
BRANCH   1  10
ATOM     10  C   UNL     1      32.142  40.867  83.576  1.00  0.00     0.111 C 
BRANCH  10  11
ATOM     11  C   UNL     1      32.513  40.545  85.000  1.00  0.00     0.163 C 
ATOM     12  O   UNL     1      31.788  39.729  85.631  1.00  0.00    -0.294 OA
BRANCH  11  13
ATOM     13  C   UNL     1      33.660  41.199  85.697  1.00  0.00    -0.002 C 
ATOM     14  C   UNL     1      34.871  40.572  85.791  1.00  0.00    -0.069 C 
ATOM     15  C   UNL     1      36.001  41.135  86.624  1.00  0.00     0.039 C 
ATOM     16  C   UNL     1      35.140  39.273  85.064  1.00  0.00     0.039 C 
BRANCH  13  17
ATOM     17  C   UNL     1      33.392  42.536  86.372  1.00  0.00     0.066 CG0
ATOM     18  G   UNL     1      31.913  42.788  86.583  1.00  0.00     0.000 G0
ENDBRANCH  13  17
ENDBRANCH  11  13
ENDBRANCH  10  11
ENDBRANCH   1  10
TORSDOF 0
ENDMDL
MODEL 6
REMARK VINA RESULT:    -4.256      2.425      4.441
REMARK INTER + INTRA:          -5.723
REMARK INTER:                  -5.856
REMARK INTRA:                   0.133
REMARK UNBOUND:                 0.276
REMARK SMILES CC1=CCC(=C(C)C)C(=O)CC(C)=CCC1
REMARK SMILES IDX 12 1 14 2 13 3 15 4 16 5 2 6 1 7 3 8 11 10 9 11 10 12 5 13
REMARK SMILES IDX 6 14 7 15 8 16 4 17
REMARK H PARENT
REMARK Flexibility Score: 60.00
ROOT
ATOM      1  C   UNL     1      35.634  40.353  83.961  1.00  0.00    -0.070 C 
ATOM      2  C   UNL     1      34.649  40.201  83.048  1.00  0.00    -0.027 C 
ATOM      3  C   UNL     1      36.469  39.145  84.305  1.00  0.00     0.039 C 
ENDROOT
BRANCH   2   4
ATOM      4  C   UNL     1      33.648  41.262  82.645  1.00  0.00     0.032 C 
BRANCH   4   5
ATOM      5  C   UNL     1      32.416  41.374  83.567  1.00  0.00     0.034 C 
BRANCH   5   6
ATOM      6  C   UNL     1      32.104  42.802  83.976  1.00  0.00    -0.077 C 
ATOM      7  C   UNL     1      31.553  43.729  82.921  1.00  0.00     0.039 C 
ATOM      8  C   UNL     1      32.352  43.317  85.205  1.00  0.00    -0.023 CG0
ATOM      9  G   UNL     1      32.880  42.577  86.417  1.00  0.00     0.000 G0
ENDBRANCH   5   6
ENDBRANCH   4   5
ENDBRANCH   2   4
BRANCH   1  10
ATOM     10  C   UNL     1      35.875  41.642  84.718  1.00  0.00     0.111 C 
BRANCH  10  11
ATOM     11  C   UNL     1      35.244  41.612  86.085  1.00  0.00     0.163 C 
ATOM     12  O   UNL     1      35.413  40.583  86.794  1.00  0.00    -0.294 OA
BRANCH  11  13
ATOM     13  C   UNL     1      34.384  42.721  86.596  1.00  0.00    -0.002 C 
ATOM     14  C   UNL     1      34.933  43.781  87.262  1.00  0.00    -0.069 C 
ATOM     15  C   UNL     1      34.078  44.838  87.928  1.00  0.00     0.039 C 
ATOM     16  C   UNL     1      36.432  43.950  87.367  1.00  0.00     0.039 C 
BRANCH  13  17
ATOM     17  C   UNL     1      32.880  42.569  86.427  1.00  0.00     0.066 CG0
ATOM     18  G   UNL     1      32.357  43.323  85.221  1.00  0.00     0.000 G0
ENDBRANCH  13  17
ENDBRANCH  11  13
ENDBRANCH  10  11
ENDBRANCH   1  10
TORSDOF 0
ENDMDL
MODEL 7
REMARK VINA RESULT:    -4.189      2.167      4.019
REMARK INTER + INTRA:          -5.628
REMARK INTER:                  -6.146
REMARK INTRA:                   0.518
REMARK UNBOUND:                 0.276
REMARK SMILES CC1=CCC(=C(C)C)C(=O)CC(C)=CCC1
REMARK SMILES IDX 12 1 14 2 13 3 15 4 16 5 2 6 1 7 3 8 11 10 9 11 10 12 5 13
REMARK SMILES IDX 6 14 7 15 8 16 4 17
REMARK H PARENT
REMARK Flexibility Score: 60.00
ROOT
ATOM      1  C   UNL     1      33.655  40.501  83.493  1.00  0.00    -0.070 C 
ATOM      2  C   UNL     1      34.633  40.093  84.333  1.00  0.00    -0.027 C 
ATOM      3  C   UNL     1      34.005  40.677  82.037  1.00  0.00     0.039 C 
ENDROOT
BRANCH   2   4
ATOM      4  C   UNL     1      34.506  39.952  85.834  1.00  0.00     0.032 C 
BRANCH   4   5
ATOM      5  C   UNL     1      35.524  40.776  86.651  1.00  0.00     0.034 C 
BRANCH   5   6
ATOM      6  C   UNL     1      35.388  42.273  86.439  1.00  0.00    -0.077 C 
ATOM      7  C   UNL     1      36.643  43.055  86.142  1.00  0.00     0.039 C 
ATOM      8  C   UNL     1      34.227  42.961  86.569  1.00  0.00    -0.023 CG0
ATOM      9  G   UNL     1      32.851  42.388  86.843  1.00  0.00     0.000 G0
ENDBRANCH   5   6
ENDBRANCH   4   5
ENDBRANCH   2   4
BRANCH   1  10
ATOM     10  C   UNL     1      32.263  40.876  83.957  1.00  0.00     0.111 C 
BRANCH  10  11
ATOM     11  C   UNL     1      32.180  42.327  84.352  1.00  0.00     0.163 C 
ATOM     12  O   UNL     1      32.455  43.196  83.480  1.00  0.00    -0.294 OA
BRANCH  11  13
ATOM     13  C   UNL     1      31.846  42.763  85.740  1.00  0.00    -0.002 C 
ATOM     14  C   UNL     1      30.737  43.523  85.987  1.00  0.00    -0.069 C 
ATOM     15  C   UNL     1      30.458  44.112  87.353  1.00  0.00     0.039 C 
ATOM     16  C   UNL     1      29.730  43.816  84.898  1.00  0.00     0.039 C 
BRANCH  13  17
ATOM     17  C   UNL     1      32.838  42.407  86.838  1.00  0.00     0.066 CG0
ATOM     18  G   UNL     1      34.222  42.960  86.565  1.00  0.00     0.000 G0
ENDBRANCH  13  17
ENDBRANCH  11  13
ENDBRANCH  10  11
ENDBRANCH   1  10
TORSDOF 0
ENDMDL
MODEL 8
REMARK VINA RESULT:    -4.170      1.823      4.531
REMARK INTER + INTRA:          -5.600
REMARK INTER:                  -5.919
REMARK INTRA:                   0.319
REMARK UNBOUND:                 0.276
REMARK SMILES CC1=CCC(=C(C)C)C(=O)CC(C)=CCC1
REMARK SMILES IDX 12 1 14 2 13 3 15 4 16 5 2 6 1 7 3 8 11 10 9 11 10 12 5 13
REMARK SMILES IDX 6 14 7 15 8 16 4 17
REMARK H PARENT
REMARK Flexibility Score: 60.00
ROOT
ATOM      1  C   UNL     1      35.860  40.685  84.107  1.00  0.00    -0.070 C 
ATOM      2  C   UNL     1      37.008  41.236  84.563  1.00  0.00    -0.027 C 
ATOM      3  C   UNL     1      35.430  39.364  84.694  1.00  0.00     0.039 C 
ENDROOT
BRANCH   2   4
ATOM      4  C   UNL     1      37.652  42.498  84.034  1.00  0.00     0.032 C 
BRANCH   4   5
ATOM      5  C   UNL     1      36.935  43.806  84.431  1.00  0.00     0.034 C 
BRANCH   5   6
ATOM      6  C   UNL     1      36.266  43.732  85.791  1.00  0.00    -0.077 C 
ATOM      7  C   UNL     1      37.152  43.736  87.011  1.00  0.00     0.039 C 
ATOM      8  C   UNL     1      34.930  43.592  85.979  1.00  0.00    -0.023 CG0
ATOM      9  G   UNL     1      33.853  43.582  84.913  1.00  0.00     0.000 G0
ENDBRANCH   5   6
ENDBRANCH   4   5
ENDBRANCH   2   4
BRANCH   1  10
ATOM     10  C   UNL     1      35.043  41.280  82.979  1.00  0.00     0.111 C 
BRANCH  10  11
ATOM     11  C   UNL     1      33.617  41.527  83.395  1.00  0.00     0.163 C 
ATOM     12  O   UNL     1      32.699  41.196  82.596  1.00  0.00    -0.294 OA
BRANCH  11  13
ATOM     13  C   UNL     1      33.262  42.200  84.681  1.00  0.00    -0.002 C 
ATOM     14  C   UNL     1      32.386  41.619  85.555  1.00  0.00    -0.069 C 
ATOM     15  C   UNL     1      31.886  42.343  86.786  1.00  0.00     0.039 C 
ATOM     16  C   UNL     1      31.869  40.216  85.331  1.00  0.00     0.039 C 
BRANCH  13  17
ATOM     17  C   UNL     1      33.840  43.586  84.922  1.00  0.00     0.066 CG0
ATOM     18  G   UNL     1      34.930  43.580  85.975  1.00  0.00     0.000 G0
ENDBRANCH  13  17
ENDBRANCH  11  13
ENDBRANCH  10  11
ENDBRANCH   1  10
TORSDOF 0
ENDMDL
MODEL 9
REMARK VINA RESULT:    -4.073      1.957      3.942
REMARK INTER + INTRA:          -5.465
REMARK INTER:                  -5.937
REMARK INTRA:                   0.472
REMARK UNBOUND:                 0.276
REMARK SMILES CC1=CCC(=C(C)C)C(=O)CC(C)=CCC1
REMARK SMILES IDX 12 1 14 2 13 3 15 4 16 5 2 6 1 7 3 8 11 10 9 11 10 12 5 13
REMARK SMILES IDX 6 14 7 15 8 16 4 17
REMARK H PARENT
REMARK Flexibility Score: 60.00
ROOT
ATOM      1  C   UNL     1      34.584  40.057  85.134  1.00  0.00    -0.070 C 
ATOM      2  C   UNL     1      33.271  39.741  85.073  1.00  0.00    -0.027 C 
ATOM      3  C   UNL     1      35.584  38.994  84.754  1.00  0.00     0.039 C 
ENDROOT
BRANCH   2   4
ATOM      4  C   UNL     1      32.128  40.633  85.503  1.00  0.00     0.032 C 
BRANCH   4   5
ATOM      5  C   UNL     1      31.444  41.408  84.357  1.00  0.00     0.034 C 
BRANCH   5   6
ATOM      6  C   UNL     1      31.444  42.911  84.568  1.00  0.00    -0.077 C 
ATOM      7  C   UNL     1      30.280  43.516  85.311  1.00  0.00     0.039 C 
ATOM      8  C   UNL     1      32.386  43.752  84.072  1.00  0.00    -0.023 CG0
ATOM      9  G   UNL     1      33.644  43.373  83.317  1.00  0.00     0.000 G0
ENDBRANCH   5   6
ENDBRANCH   4   5
ENDBRANCH   2   4
BRANCH   1  10
ATOM     10  C   UNL     1      35.097  41.385  85.652  1.00  0.00     0.111 C 
BRANCH  10  11
ATOM     11  C   UNL     1      35.592  42.264  84.534  1.00  0.00     0.163 C 
ATOM     12  O   UNL     1      36.663  41.939  83.953  1.00  0.00    -0.294 OA
BRANCH  11  13
ATOM     13  C   UNL     1      34.898  43.525  84.137  1.00  0.00    -0.002 C 
ATOM     14  C   UNL     1      35.341  44.739  84.585  1.00  0.00    -0.069 C 
ATOM     15  C   UNL     1      34.570  46.016  84.333  1.00  0.00     0.039 C 
ATOM     16  C   UNL     1      36.632  44.863  85.363  1.00  0.00     0.039 C 
BRANCH  13  17
ATOM     17  C   UNL     1      33.635  43.390  83.301  1.00  0.00     0.066 CG0
ATOM     18  G   UNL     1      32.388  43.764  84.077  1.00  0.00     0.000 G0
ENDBRANCH  13  17
ENDBRANCH  11  13
ENDBRANCH  10  11
ENDBRANCH   1  10
TORSDOF 0
ENDMDL
