MODEL 1
REMARK VINA RESULT:    -5.192      0.000      0.000
REMARK INTER + INTRA:          -5.842
REMARK INTER:                  -5.799
REMARK INTRA:                  -0.043
REMARK UNBOUND:                -0.043
REMARK SMILES O=C([O-])c1ccc(O)c(O)c1
REMARK SMILES IDX 4 1 11 2 5 3 9 4 6 5 7 6 2 7 1 8 3 9 10 10 8 12
REMARK H PARENT 10 11 8 13
REMARK Flexibility Score: inf
ROOT
ATOM      1  C   UNL     1     -10.783 -19.785  -6.724  1.00  0.00     0.001 A 
ATOM      2  C   UNL     1     -11.514 -20.359  -5.668  1.00  0.00     0.060 A 
ATOM      3  C   UNL     1     -11.478 -19.256  -7.826  1.00  0.00     0.014 A 
ATOM      4  C   UNL     1     -12.915 -20.404  -5.713  1.00  0.00     0.158 A 
ATOM      5  C   UNL     1     -12.874 -19.301  -7.870  1.00  0.00     0.051 A 
ATOM      6  C   UNL     1     -13.596 -19.874  -6.816  1.00  0.00     0.157 A 
ENDROOT
BRANCH   1   7
ATOM      7  C   UNL     1      -9.304 -19.740  -6.672  1.00  0.00     0.072 C 
ATOM      8  O   UNL     1      -8.666 -20.522  -5.920  1.00  0.00    -0.545 OA
ATOM      9  O   UNL     1      -8.600 -18.831  -7.454  1.00  0.00    -0.545 OA
ENDBRANCH   1   7
BRANCH   4  10
ATOM     10  O   UNL     1     -13.637 -20.973  -4.666  1.00  0.00    -0.504 OA
ATOM     11  H   UNL     1     -14.308 -20.433  -4.129  1.00  0.00     0.293 HD
ENDBRANCH   4  10
BRANCH   6  12
ATOM     12  O   UNL     1     -14.988 -19.920  -6.856  1.00  0.00    -0.504 OA
ATOM     13  H   UNL     1     -15.544 -19.076  -6.917  1.00  0.00     0.293 HD
ENDBRANCH   6  12
TORSDOF 3
ENDMDL
MODEL 2
REMARK VINA RESULT:    -5.062     13.198     13.899
REMARK INTER + INTRA:          -5.697
REMARK INTER:                  -5.661
REMARK INTRA:                  -0.036
REMARK UNBOUND:                -0.043
REMARK SMILES O=C([O-])c1ccc(O)c(O)c1
REMARK SMILES IDX 4 1 11 2 5 3 9 4 6 5 7 6 2 7 1 8 3 9 10 10 8 12
REMARK H PARENT 10 11 8 13
REMARK Flexibility Score: inf
ROOT
ATOM      1  C   UNL     1     -15.305 -10.423 -15.644  1.00  0.00     0.001 A 
ATOM      2  C   UNL     1     -16.199 -10.968 -16.583  1.00  0.00     0.060 A 
ATOM      3  C   UNL     1     -15.790 -10.049 -14.378  1.00  0.00     0.014 A 
ATOM      4  C   UNL     1     -17.555 -11.135 -16.263  1.00  0.00     0.158 A 
ATOM      5  C   UNL     1     -17.140 -10.216 -14.060  1.00  0.00     0.051 A 
ATOM      6  C   UNL     1     -18.026 -10.759 -14.998  1.00  0.00     0.157 A 
ENDROOT
BRANCH   1   7
ATOM      7  C   UNL     1     -13.876 -10.248 -15.986  1.00  0.00     0.072 C 
ATOM      8  O   UNL     1     -13.514  -9.340 -16.779  1.00  0.00    -0.545 OA
ATOM      9  O   UNL     1     -12.913 -11.087 -15.437  1.00  0.00    -0.545 OA
ENDBRANCH   1   7
BRANCH   4  10
ATOM     10  O   UNL     1     -18.439 -11.675 -17.195  1.00  0.00    -0.504 OA
ATOM     11  H   UNL     1     -18.754 -12.638 -17.132  1.00  0.00     0.293 HD
ENDBRANCH   4  10
BRANCH   6  12
ATOM     12  O   UNL     1     -19.373 -10.927 -14.685  1.00  0.00    -0.504 OA
ATOM     13  H   UNL     1     -19.712 -11.774 -14.243  1.00  0.00     0.293 HD
ENDBRANCH   6  12
TORSDOF 3
ENDMDL
MODEL 3
REMARK VINA RESULT:    -5.050     12.514     13.889
REMARK INTER + INTRA:          -5.684
REMARK INTER:                  -5.644
REMARK INTRA:                  -0.040
REMARK UNBOUND:                -0.043
REMARK SMILES O=C([O-])c1ccc(O)c(O)c1
REMARK SMILES IDX 4 1 11 2 5 3 9 4 6 5 7 6 2 7 1 8 3 9 10 10 8 12
REMARK H PARENT 10 11 8 13
REMARK Flexibility Score: inf
ROOT
ATOM      1  C   UNL     1     -16.490 -10.720 -15.574  1.00  0.00     0.001 A 
ATOM      2  C   UNL     1     -16.600 -10.739 -14.172  1.00  0.00     0.060 A 
ATOM      3  C   UNL     1     -15.381 -10.087 -16.164  1.00  0.00     0.014 A 
ATOM      4  C   UNL     1     -15.618 -10.135 -13.373  1.00  0.00     0.158 A 
ATOM      5  C   UNL     1     -14.403  -9.486 -15.366  1.00  0.00     0.051 A 
ATOM      6  C   UNL     1     -14.518  -9.508 -13.971  1.00  0.00     0.157 A 
ENDROOT
BRANCH   1   7
ATOM      7  C   UNL     1     -17.528 -11.358 -16.415  1.00  0.00     0.072 C 
ATOM      8  O   UNL     1     -18.750 -11.188 -16.162  1.00  0.00    -0.545 OA
ATOM      9  O   UNL     1     -17.168 -12.155 -17.495  1.00  0.00    -0.545 OA
ENDBRANCH   1   7
BRANCH   4  10
ATOM     10  O   UNL     1     -15.729 -10.156 -11.984  1.00  0.00    -0.504 OA
ATOM     11  H   UNL     1     -15.991 -10.999 -11.485  1.00  0.00     0.293 HD
ENDBRANCH   4  10
BRANCH   6  12
ATOM     12  O   UNL     1     -13.545  -8.911 -13.172  1.00  0.00    -0.504 OA
ATOM     13  H   UNL     1     -13.793  -8.288 -12.412  1.00  0.00     0.293 HD
ENDBRANCH   6  12
TORSDOF 3
ENDMDL
MODEL 4
REMARK VINA RESULT:    -5.050      2.884      3.613
REMARK INTER + INTRA:          -5.683
REMARK INTER:                  -5.644
REMARK INTRA:                  -0.039
REMARK UNBOUND:                -0.043
REMARK SMILES O=C([O-])c1ccc(O)c(O)c1
REMARK SMILES IDX 4 1 11 2 5 3 9 4 6 5 7 6 2 7 1 8 3 9 10 10 8 12
REMARK H PARENT 10 11 8 13
REMARK Flexibility Score: inf
ROOT
ATOM      1  C   UNL     1     -12.318 -21.130  -8.972  1.00  0.00     0.001 A 
ATOM      2  C   UNL     1     -13.538 -20.943  -8.297  1.00  0.00     0.060 A 
ATOM      3  C   UNL     1     -11.181 -20.428  -8.534  1.00  0.00     0.014 A 
ATOM      4  C   UNL     1     -13.620 -20.069  -7.204  1.00  0.00     0.158 A 
ATOM      5  C   UNL     1     -11.264 -19.557  -7.444  1.00  0.00     0.051 A 
ATOM      6  C   UNL     1     -12.481 -19.375  -6.776  1.00  0.00     0.157 A 
ENDROOT
BRANCH   1   7
ATOM      7  C   UNL     1     -12.236 -22.054 -10.126  1.00  0.00     0.072 C 
ATOM      8  O   UNL     1     -12.724 -23.212 -10.055  1.00  0.00    -0.545 OA
ATOM      9  O   UNL     1     -11.616 -21.654 -11.305  1.00  0.00    -0.545 OA
ENDBRANCH   1   7
BRANCH   4  10
ATOM     10  O   UNL     1     -14.830 -19.885  -6.536  1.00  0.00    -0.504 OA
ATOM     11  H   UNL     1     -15.558 -20.592  -6.553  1.00  0.00     0.293 HD
ENDBRANCH   4  10
BRANCH   6  12
ATOM     12  O   UNL     1     -12.568 -18.508  -5.688  1.00  0.00    -0.504 OA
ATOM     13  H   UNL     1     -13.371 -17.904  -5.556  1.00  0.00     0.293 HD
ENDBRANCH   6  12
TORSDOF 3
ENDMDL
MODEL 5
REMARK VINA RESULT:    -5.002      8.469      8.882
REMARK INTER + INTRA:          -5.630
REMARK INTER:                  -5.591
REMARK INTRA:                  -0.038
REMARK UNBOUND:                -0.043
REMARK SMILES O=C([O-])c1ccc(O)c(O)c1
REMARK SMILES IDX 4 1 11 2 5 3 9 4 6 5 7 6 2 7 1 8 3 9 10 10 8 12
REMARK H PARENT 10 11 8 13
REMARK Flexibility Score: inf
ROOT
ATOM      1  C   UNL     1      -9.786 -25.696 -12.999  1.00  0.00     0.001 A 
ATOM      2  C   UNL     1     -10.296 -24.402 -12.789  1.00  0.00     0.060 A 
ATOM      3  C   UNL     1     -10.534 -26.608 -13.765  1.00  0.00     0.014 A 
ATOM      4  C   UNL     1     -11.532 -24.026 -13.334  1.00  0.00     0.158 A 
ATOM      5  C   UNL     1     -11.766 -26.232 -14.309  1.00  0.00     0.051 A 
ATOM      6  C   UNL     1     -12.268 -24.943 -14.096  1.00  0.00     0.157 A 
ENDROOT
BRANCH   1   7
ATOM      7  C   UNL     1      -8.482 -26.090 -12.421  1.00  0.00     0.072 C 
ATOM      8  O   UNL     1      -7.561 -26.530 -13.159  1.00  0.00    -0.545 OA
ATOM      9  O   UNL     1      -8.255 -25.978 -11.054  1.00  0.00    -0.545 OA
ENDBRANCH   1   7
BRANCH   4  10
ATOM     10  O   UNL     1     -12.034 -22.743 -13.125  1.00  0.00    -0.504 OA
ATOM     11  H   UNL     1     -11.925 -22.270 -12.234  1.00  0.00     0.293 HD
ENDBRANCH   4  10
BRANCH   6  12
ATOM     12  O   UNL     1     -13.495 -24.564 -14.637  1.00  0.00    -0.504 OA
ATOM     13  H   UNL     1     -14.172 -25.251 -14.946  1.00  0.00     0.293 HD
ENDBRANCH   6  12
TORSDOF 3
ENDMDL
MODEL 6
REMARK VINA RESULT:    -4.984      1.586      2.433
REMARK INTER + INTRA:          -5.610
REMARK INTER:                  -5.566
REMARK INTRA:                  -0.044
REMARK UNBOUND:                -0.043
REMARK SMILES O=C([O-])c1ccc(O)c(O)c1
REMARK SMILES IDX 4 1 11 2 5 3 9 4 6 5 7 6 2 7 1 8 3 9 10 10 8 12
REMARK H PARENT 10 11 8 13
REMARK Flexibility Score: inf
ROOT
ATOM      1  C   UNL     1      -9.484 -19.834  -6.453  1.00  0.00     0.001 A 
ATOM      2  C   UNL     1     -10.210 -18.827  -7.115  1.00  0.00     0.060 A 
ATOM      3  C   UNL     1     -10.158 -20.684  -5.558  1.00  0.00     0.014 A 
ATOM      4  C   UNL     1     -11.584 -18.671  -6.884  1.00  0.00     0.158 A 
ATOM      5  C   UNL     1     -11.528 -20.527  -5.329  1.00  0.00     0.051 A 
ATOM      6  C   UNL     1     -12.245 -19.523  -5.990  1.00  0.00     0.157 A 
ENDROOT
BRANCH   1   7
ATOM      7  C   UNL     1      -8.034 -19.996  -6.699  1.00  0.00     0.072 C 
ATOM      8  O   UNL     1      -7.442 -21.055  -6.364  1.00  0.00    -0.545 OA
ATOM      9  O   UNL     1      -7.305 -18.978  -7.303  1.00  0.00    -0.545 OA
ENDBRANCH   1   7
BRANCH   4  10
ATOM     10  O   UNL     1     -12.301 -17.672  -7.541  1.00  0.00    -0.504 OA
ATOM     11  H   UNL     1     -12.489 -17.721  -8.537  1.00  0.00     0.293 HD
ENDBRANCH   4  10
BRANCH   6  12
ATOM     12  O   UNL     1     -13.611 -19.364  -5.765  1.00  0.00    -0.504 OA
ATOM     13  H   UNL     1     -13.961 -18.950  -4.909  1.00  0.00     0.293 HD
ENDBRANCH   6  12
TORSDOF 3
ENDMDL
MODEL 7
REMARK VINA RESULT:    -4.929      1.369      4.148
REMARK INTER + INTRA:          -5.549
REMARK INTER:                  -5.506
REMARK INTRA:                  -0.043
REMARK UNBOUND:                -0.043
REMARK SMILES O=C([O-])c1ccc(O)c(O)c1
REMARK SMILES IDX 4 1 11 2 5 3 9 4 6 5 7 6 2 7 1 8 3 9 10 10 8 12
REMARK H PARENT 10 11 8 13
REMARK Flexibility Score: inf
ROOT
ATOM      1  C   UNL     1     -13.197 -20.386  -7.470  1.00  0.00     0.001 A 
ATOM      2  C   UNL     1     -13.167 -20.736  -6.108  1.00  0.00     0.060 A 
ATOM      3  C   UNL     1     -11.995 -20.035  -8.110  1.00  0.00     0.014 A 
ATOM      4  C   UNL     1     -11.957 -20.734  -5.398  1.00  0.00     0.158 A 
ATOM      5  C   UNL     1     -10.790 -20.033  -7.402  1.00  0.00     0.051 A 
ATOM      6  C   UNL     1     -10.767 -20.382  -6.046  1.00  0.00     0.157 A 
ENDROOT
BRANCH   1   7
ATOM      7  C   UNL     1     -14.475 -20.389  -8.215  1.00  0.00     0.072 C 
ATOM      8  O   UNL     1     -14.485 -20.508  -9.469  1.00  0.00    -0.545 OA
ATOM      9  O   UNL     1     -15.684 -20.260  -7.540  1.00  0.00    -0.545 OA
ENDBRANCH   1   7
BRANCH   4  10
ATOM     10  O   UNL     1     -11.931 -21.081  -4.048  1.00  0.00    -0.504 OA
ATOM     11  H   UNL     1     -11.353 -21.842  -3.707  1.00  0.00     0.293 HD
ENDBRANCH   4  10
BRANCH   6  12
ATOM     12  O   UNL     1      -9.568 -20.382  -5.336  1.00  0.00    -0.504 OA
ATOM     13  H   UNL     1      -8.872 -21.106  -5.473  1.00  0.00     0.293 HD
ENDBRANCH   6  12
TORSDOF 3
ENDMDL
MODEL 8
REMARK VINA RESULT:    -4.923     13.746     13.997
REMARK INTER + INTRA:          -5.542
REMARK INTER:                  -5.505
REMARK INTRA:                  -0.037
REMARK UNBOUND:                -0.043
REMARK SMILES O=C([O-])c1ccc(O)c(O)c1
REMARK SMILES IDX 4 1 11 2 5 3 9 4 6 5 7 6 2 7 1 8 3 9 10 10 8 12
REMARK H PARENT 10 11 8 13
REMARK Flexibility Score: inf
ROOT
ATOM      1  C   UNL     1     -14.676  -9.640 -15.630  1.00  0.00     0.001 A 
ATOM      2  C   UNL     1     -15.312  -9.027 -14.536  1.00  0.00     0.060 A 
ATOM      3  C   UNL     1     -15.373 -10.616 -16.366  1.00  0.00     0.014 A 
ATOM      4  C   UNL     1     -16.622  -9.383 -14.182  1.00  0.00     0.158 A 
ATOM      5  C   UNL     1     -16.678 -10.970 -16.012  1.00  0.00     0.051 A 
ATOM      6  C   UNL     1     -17.306 -10.356 -14.922  1.00  0.00     0.157 A 
ENDROOT
BRANCH   1   7
ATOM      7  C   UNL     1     -13.294  -9.262 -16.000  1.00  0.00     0.072 C 
ATOM      8  O   UNL     1     -13.054  -8.722 -17.112  1.00  0.00    -0.545 OA
ATOM      9  O   UNL     1     -12.241  -9.498 -15.123  1.00  0.00    -0.545 OA
ENDBRANCH   1   7
BRANCH   4  10
ATOM     10  O   UNL     1     -17.250  -8.774 -13.097  1.00  0.00    -0.504 OA
ATOM     11  H   UNL     1     -16.785  -8.060 -12.547  1.00  0.00     0.293 HD
ENDBRANCH   4  10
BRANCH   6  12
ATOM     12  O   UNL     1     -18.608 -10.706 -14.567  1.00  0.00    -0.504 OA
ATOM     13  H   UNL     1     -18.914 -10.691 -13.601  1.00  0.00     0.293 HD
ENDBRANCH   6  12
TORSDOF 3
ENDMDL
