MODEL 1
REMARK VINA RESULT:    -7.405      0.000      0.000
REMARK INTER + INTRA:         -11.463
REMARK INTER:                 -10.002
REMARK INTRA:                  -1.461
REMARK UNBOUND:                -1.461
REMARK SMILES O=c1c(-c2ccc(O)cc2)coc2c([C@H]3O[C@@H](CO)[C@H](O)[C@@H](O)[C@@H]3O)c(O)ccc12
REMARK SMILES IDX 3 1 11 2 12 3 13 4 30 5 2 6 1 7 29 8 28 9 26 10 14 11 4 12
REMARK SMILES IDX 5 13 6 14 7 15 10 16 9 17 8 18 15 20 24 21 16 22 22 23 17 24
REMARK SMILES IDX 20 25 25 26 23 28 18 30 19 31 21 33 27 35
REMARK H PARENT 8 19 25 27 23 29 19 32 21 34 27 36
REMARK Flexibility Score: inf
ROOT
ATOM      1  C   UNL     1      17.575  18.588  10.398  1.00  0.00     0.065 A 
ATOM      2  C   UNL     1      17.575  18.005  11.688  1.00  0.00     0.208 A 
ATOM      3  O   UNL     1      18.057  16.781  11.874  1.00  0.00    -0.463 OA
ATOM      4  C   UNL     1      18.614  16.064  10.879  1.00  0.00     0.147 A 
ATOM      5  C   UNL     1      18.754  16.615   9.591  1.00  0.00     0.066 A 
ATOM      6  C   UNL     1      18.101  17.820   9.326  1.00  0.00     0.200 A 
ATOM      7  O   UNL     1      17.900  18.170   8.122  1.00  0.00    -0.288 OA
ATOM      8  C   UNL     1      19.504  15.917   8.632  1.00  0.00     0.020 A 
ATOM      9  C   UNL     1      20.291  14.823   9.032  1.00  0.00     0.047 A 
ATOM     10  C   UNL     1      20.127  14.297  10.313  1.00  0.00     0.125 A 
ATOM     11  C   UNL     1      19.045  14.739  11.120  1.00  0.00     0.069 A 
ENDROOT
BRANCH   1  12
ATOM     12  C   UNL     1      16.948  19.908  10.157  1.00  0.00    -0.011 A 
ATOM     13  C   UNL     1      17.757  21.052  10.077  1.00  0.00     0.013 A 
ATOM     14  C   UNL     1      17.220  22.260   9.630  1.00  0.00     0.047 A 
ATOM     15  C   UNL     1      15.864  22.369   9.343  1.00  0.00     0.115 A 
ATOM     16  C   UNL     1      15.560  20.031   9.963  1.00  0.00     0.013 A 
ATOM     17  C   UNL     1      15.023  21.264   9.549  1.00  0.00     0.047 A 
BRANCH  15  18
ATOM     18  O   UNL     1      15.349  23.583   8.865  1.00  0.00    -0.508 OA
ATOM     19  H   UNL     1      15.005  24.300   9.486  1.00  0.00     0.293 HD
ENDBRANCH  15  18
ENDBRANCH   1  12
BRANCH  11  20
ATOM     20  C   UNL     1      17.954  13.669  11.405  1.00  0.00     0.188 C 
ATOM     21  C   UNL     1      17.716  13.318  12.888  1.00  0.00     0.179 C 
ATOM     22  O   UNL     1      18.294  12.476  10.709  1.00  0.00    -0.362 OA
ATOM     23  C   UNL     1      16.543  12.319  13.039  1.00  0.00     0.177 C 
ATOM     24  C   UNL     1      17.307  11.460  10.709  1.00  0.00     0.176 C 
ATOM     25  C   UNL     1      16.106  11.663  11.688  1.00  0.00     0.177 C 
BRANCH  21  26
ATOM     26  O   UNL     1      17.406  14.463  13.636  1.00  0.00    -0.387 OA
ATOM     27  H   UNL     1      18.270  14.875  13.894  1.00  0.00     0.211 HD
ENDBRANCH  21  26
BRANCH  23  28
ATOM     28  O   UNL     1      16.860  11.412  14.078  1.00  0.00    -0.387 OA
ATOM     29  H   UNL     1      16.293  11.595  14.879  1.00  0.00     0.211 HD
ENDBRANCH  23  28
BRANCH  24  30
ATOM     30  C   UNL     1      18.044  10.140  10.964  1.00  0.00     0.191 C 
BRANCH  30  31
ATOM     31  O   UNL     1      19.422  10.332  11.073  1.00  0.00    -0.394 OA
ATOM     32  H   UNL     1      19.848   9.566  10.600  1.00  0.00     0.210 HD
ENDBRANCH  30  31
ENDBRANCH  24  30
BRANCH  25  33
ATOM     33  O   UNL     1      15.085  12.468  11.131  1.00  0.00    -0.388 OA
ATOM     34  H   UNL     1      15.457  13.201  10.593  1.00  0.00     0.211 HD
ENDBRANCH  25  33
ENDBRANCH  11  20
BRANCH  10  35
ATOM     35  O   UNL     1      20.971  13.279  10.754  1.00  0.00    -0.507 OA
ATOM     36  H   UNL     1      21.287  12.543  10.137  1.00  0.00     0.293 HD
ENDBRANCH  10  35
TORSDOF 9
ENDMDL
MODEL 2
REMARK VINA RESULT:    -7.381      3.388      4.404
REMARK INTER + INTRA:         -11.431
REMARK INTER:                 -11.073
REMARK INTRA:                  -0.358
REMARK UNBOUND:                -1.461
REMARK SMILES O=c1c(-c2ccc(O)cc2)coc2c([C@H]3O[C@@H](CO)[C@H](O)[C@@H](O)[C@@H]3O)c(O)ccc12
REMARK SMILES IDX 3 1 11 2 12 3 13 4 30 5 2 6 1 7 29 8 28 9 26 10 14 11 4 12
REMARK SMILES IDX 5 13 6 14 7 15 10 16 9 17 8 18 15 20 24 21 16 22 22 23 17 24
REMARK SMILES IDX 20 25 25 26 23 28 18 30 19 31 21 33 27 35
REMARK H PARENT 8 19 25 27 23 29 19 32 21 34 27 36
REMARK Flexibility Score: inf
ROOT
ATOM      1  C   UNL     1      17.866  16.582  14.806  1.00  0.00     0.065 A 
ATOM      2  C   UNL     1      17.895  15.251  15.289  1.00  0.00     0.208 A 
ATOM      3  O   UNL     1      18.217  14.248  14.480  1.00  0.00    -0.463 OA
ATOM      4  C   UNL     1      18.583  14.441  13.197  1.00  0.00     0.147 A 
ATOM      5  C   UNL     1      18.686  15.743  12.672  1.00  0.00     0.066 A 
ATOM      6  C   UNL     1      18.186  16.795  13.440  1.00  0.00     0.200 A 
ATOM      7  O   UNL     1      17.933  17.908  12.884  1.00  0.00    -0.288 OA
ATOM      8  C   UNL     1      19.247  15.916  11.397  1.00  0.00     0.020 A 
ATOM      9  C   UNL     1      19.907  14.840  10.779  1.00  0.00     0.047 A 
ATOM     10  C   UNL     1      19.782  13.561  11.322  1.00  0.00     0.125 A 
ATOM     11  C   UNL     1      18.845  13.330  12.364  1.00  0.00     0.069 A 
ENDROOT
BRANCH   1  12
ATOM     12  C   UNL     1      17.408  17.696  15.668  1.00  0.00    -0.011 A 
ATOM     13  C   UNL     1      17.525  17.581  17.062  1.00  0.00     0.013 A 
ATOM     14  C   UNL     1      17.314  18.695  17.876  1.00  0.00     0.047 A 
ATOM     15  C   UNL     1      16.904  19.905  17.329  1.00  0.00     0.115 A 
ATOM     16  C   UNL     1      16.902  18.885  15.114  1.00  0.00     0.013 A 
ATOM     17  C   UNL     1      16.657  19.991  15.949  1.00  0.00     0.047 A 
BRANCH  15  18
ATOM     18  O   UNL     1      16.728  21.022  18.159  1.00  0.00    -0.508 OA
ATOM     19  H   UNL     1      15.933  21.111  18.775  1.00  0.00     0.293 HD
ENDBRANCH  15  18
ENDBRANCH   1  12
BRANCH  11  20
ATOM     20  C   UNL     1      17.644  12.419  11.981  1.00  0.00     0.188 C 
ATOM     21  C   UNL     1      17.251  11.344  13.015  1.00  0.00     0.179 C 
ATOM     22  O   UNL     1      17.939  11.772  10.748  1.00  0.00    -0.362 OA
ATOM     23  C   UNL     1      15.986  10.575  12.558  1.00  0.00     0.177 C 
ATOM     24  C   UNL     1      16.871  11.050  10.162  1.00  0.00     0.176 C 
ATOM     25  C   UNL     1      15.612  10.826  11.060  1.00  0.00     0.177 C 
BRANCH  21  26
ATOM     26  O   UNL     1      16.977  11.918  14.264  1.00  0.00    -0.387 OA
ATOM     27  H   UNL     1      16.244  11.386  14.666  1.00  0.00     0.211 HD
ENDBRANCH  21  26
BRANCH  23  28
ATOM     28  O   UNL     1      16.133   9.217  12.927  1.00  0.00    -0.387 OA
ATOM     29  H   UNL     1      15.607   9.026  13.753  1.00  0.00     0.211 HD
ENDBRANCH  23  28
BRANCH  24  30
ATOM     30  C   UNL     1      17.466   9.729   9.659  1.00  0.00     0.191 C 
BRANCH  30  31
ATOM     31  O   UNL     1      18.790   9.573  10.070  1.00  0.00    -0.394 OA
ATOM     32  H   UNL     1      19.126  10.487  10.282  1.00  0.00     0.210 HD
ENDBRANCH  30  31
ENDBRANCH  24  30
BRANCH  25  33
ATOM     33  O   UNL     1      14.716  11.919  11.019  1.00  0.00    -0.388 OA
ATOM     34  H   UNL     1      15.170  12.747  10.747  1.00  0.00     0.211 HD
ENDBRANCH  25  33
ENDBRANCH  11  20
BRANCH  10  35
ATOM     35  O   UNL     1      20.511  12.506  10.777  1.00  0.00    -0.507 OA
ATOM     36  H   UNL     1      20.997  12.592   9.894  1.00  0.00     0.293 HD
ENDBRANCH  10  35
TORSDOF 9
ENDMDL
MODEL 3
REMARK VINA RESULT:    -7.337      2.387      3.147
REMARK INTER + INTRA:         -11.371
REMARK INTER:                  -9.897
REMARK INTRA:                  -1.473
REMARK UNBOUND:                -1.461
REMARK SMILES O=c1c(-c2ccc(O)cc2)coc2c([C@H]3O[C@@H](CO)[C@H](O)[C@@H](O)[C@@H]3O)c(O)ccc12
REMARK SMILES IDX 3 1 11 2 12 3 13 4 30 5 2 6 1 7 29 8 28 9 26 10 14 11 4 12
REMARK SMILES IDX 5 13 6 14 7 15 10 16 9 17 8 18 15 20 24 21 16 22 22 23 17 24
REMARK SMILES IDX 20 25 25 26 23 28 18 30 19 31 21 33 27 35
REMARK H PARENT 8 19 25 27 23 29 19 32 21 34 27 36
REMARK Flexibility Score: inf
ROOT
ATOM      1  C   UNL     1      20.224  19.575   9.530  1.00  0.00     0.065 A 
ATOM      2  C   UNL     1      20.790  19.145  10.754  1.00  0.00     0.208 A 
ATOM      3  O   UNL     1      20.726  17.867  11.114  1.00  0.00    -0.463 OA
ATOM      4  C   UNL     1      20.184  16.919  10.324  1.00  0.00     0.147 A 
ATOM      5  C   UNL     1      19.700  17.246   9.044  1.00  0.00     0.066 A 
ATOM      6  C   UNL     1      19.592  18.598   8.715  1.00  0.00     0.200 A 
ATOM      7  O   UNL     1      18.851  18.949   7.746  1.00  0.00    -0.288 OA
ATOM      8  C   UNL     1      19.315  16.210   8.179  1.00  0.00     0.020 A 
ATOM      9  C   UNL     1      19.642  14.882   8.503  1.00  0.00     0.047 A 
ATOM     10  C   UNL     1      20.116  14.589   9.782  1.00  0.00     0.125 A 
ATOM     11  C   UNL     1      20.080  15.589  10.790  1.00  0.00     0.069 A 
ENDROOT
BRANCH   1  12
ATOM     12  C   UNL     1      20.196  21.010   9.165  1.00  0.00    -0.011 A 
ATOM     13  C   UNL     1      21.167  21.518   8.289  1.00  0.00     0.013 A 
ATOM     14  C   UNL     1      21.029  22.801   7.757  1.00  0.00     0.047 A 
ATOM     15  C   UNL     1      19.979  23.622   8.153  1.00  0.00     0.115 A 
ATOM     16  C   UNL     1      19.186  21.864   9.645  1.00  0.00     0.013 A 
ATOM     17  C   UNL     1      19.078  23.169   9.130  1.00  0.00     0.047 A 
BRANCH  15  18
ATOM     18  O   UNL     1      19.839  24.896   7.584  1.00  0.00    -0.508 OA
ATOM     19  H   UNL     1      19.598  25.024   6.612  1.00  0.00     0.293 HD
ENDBRANCH  15  18
ENDBRANCH   1  12
BRANCH  11  20
ATOM     20  C   UNL     1      19.092  15.311  11.959  1.00  0.00     0.188 C 
ATOM     21  C   UNL     1      19.721  15.170  13.360  1.00  0.00     0.179 C 
ATOM     22  O   UNL     1      18.367  14.123  11.668  1.00  0.00    -0.362 OA
ATOM     23  C   UNL     1      18.626  14.995  14.441  1.00  0.00     0.177 C 
ATOM     24  C   UNL     1      17.291  13.829  12.542  1.00  0.00     0.176 C 
ATOM     25  C   UNL     1      17.213  14.678  13.852  1.00  0.00     0.177 C 
BRANCH  21  26
ATOM     26  O   UNL     1      20.478  16.302  13.692  1.00  0.00    -0.387 OA
ATOM     27  H   UNL     1      21.401  16.129  13.373  1.00  0.00     0.211 HD
ENDBRANCH  21  26
BRANCH  23  28
ATOM     28  O   UNL     1      19.099  14.078  15.410  1.00  0.00    -0.387 OA
ATOM     29  H   UNL     1      19.660  14.551  16.086  1.00  0.00     0.211 HD
ENDBRANCH  23  28
BRANCH  24  30
ATOM     30  C   UNL     1      17.367  12.325  12.833  1.00  0.00     0.191 C 
BRANCH  30  31
ATOM     31  O   UNL     1      17.158  12.052  14.185  1.00  0.00    -0.394 OA
ATOM     32  H   UNL     1      16.358  11.459  14.229  1.00  0.00     0.210 HD
ENDBRANCH  30  31
ENDBRANCH  24  30
BRANCH  25  33
ATOM     33  O   UNL     1      16.543  15.909  13.659  1.00  0.00    -0.388 OA
ATOM     34  H   UNL     1      15.584  15.832  13.860  1.00  0.00     0.211 HD
ENDBRANCH  25  33
ENDBRANCH  11  20
BRANCH  10  35
ATOM     35  O   UNL     1      20.537  13.294  10.082  1.00  0.00    -0.507 OA
ATOM     36  H   UNL     1      21.103  12.754   9.440  1.00  0.00     0.293 HD
ENDBRANCH  10  35
TORSDOF 9
ENDMDL
MODEL 4
REMARK VINA RESULT:    -7.319      3.505      8.321
REMARK INTER + INTRA:         -11.347
REMARK INTER:                 -10.522
REMARK INTRA:                  -0.825
REMARK UNBOUND:                -1.461
REMARK SMILES O=c1c(-c2ccc(O)cc2)coc2c([C@H]3O[C@@H](CO)[C@H](O)[C@@H](O)[C@@H]3O)c(O)ccc12
REMARK SMILES IDX 3 1 11 2 12 3 13 4 30 5 2 6 1 7 29 8 28 9 26 10 14 11 4 12
REMARK SMILES IDX 5 13 6 14 7 15 10 16 9 17 8 18 15 20 24 21 16 22 22 23 17 24
REMARK SMILES IDX 20 25 25 26 23 28 18 30 19 31 21 33 27 35
REMARK H PARENT 8 19 25 27 23 29 19 32 21 34 27 36
REMARK Flexibility Score: inf
ROOT
ATOM      1  C   UNL     1      17.648  13.318  12.393  1.00  0.00     0.065 A 
ATOM      2  C   UNL     1      16.420  13.630  13.025  1.00  0.00     0.208 A 
ATOM      3  O   UNL     1      16.156  14.876  13.405  1.00  0.00    -0.463 OA
ATOM      4  C   UNL     1      16.997  15.901  13.163  1.00  0.00     0.147 A 
ATOM      5  C   UNL     1      18.188  15.693  12.441  1.00  0.00     0.066 A 
ATOM      6  C   UNL     1      18.573  14.376  12.189  1.00  0.00     0.200 A 
ATOM      7  O   UNL     1      19.776  14.127  11.870  1.00  0.00    -0.288 OA
ATOM      8  C   UNL     1      18.944  16.807  12.047  1.00  0.00     0.020 A 
ATOM      9  C   UNL     1      18.391  18.094  12.160  1.00  0.00     0.047 A 
ATOM     10  C   UNL     1      17.212  18.268  12.885  1.00  0.00     0.125 A 
ATOM     11  C   UNL     1      16.695  17.191  13.653  1.00  0.00     0.069 A 
ENDROOT
BRANCH   1  12
ATOM     12  C   UNL     1      17.999  11.919  12.059  1.00  0.00    -0.011 A 
ATOM     13  C   UNL     1      17.316  10.867  12.689  1.00  0.00     0.013 A 
ATOM     14  C   UNL     1      17.469   9.558  12.231  1.00  0.00     0.047 A 
ATOM     15  C   UNL     1      18.361   9.267  11.205  1.00  0.00     0.115 A 
ATOM     16  C   UNL     1      18.973  11.624  11.088  1.00  0.00     0.013 A 
ATOM     17  C   UNL     1      19.146  10.295  10.660  1.00  0.00     0.047 A 
BRANCH  15  18
ATOM     18  O   UNL     1      18.478   7.950  10.736  1.00  0.00    -0.508 OA
ATOM     19  H   UNL     1      17.709   7.296  10.780  1.00  0.00     0.293 HD
ENDBRANCH  15  18
ENDBRANCH   1  12
BRANCH  11  20
ATOM     20  C   UNL     1      16.734  17.402  15.194  1.00  0.00     0.188 C 
ATOM     21  C   UNL     1      15.380  17.303  15.927  1.00  0.00     0.179 C 
ATOM     22  O   UNL     1      17.300  18.679  15.464  1.00  0.00    -0.362 OA
ATOM     23  C   UNL     1      15.571  17.433  17.458  1.00  0.00     0.177 C 
ATOM     24  C   UNL     1      17.581  18.952  16.825  1.00  0.00     0.176 C 
ATOM     25  C   UNL     1      16.989  17.950  17.868  1.00  0.00     0.177 C 
BRANCH  21  26
ATOM     26  O   UNL     1      14.756  16.073  15.673  1.00  0.00    -0.387 OA
ATOM     27  H   UNL     1      15.265  15.643  14.939  1.00  0.00     0.211 HD
ENDBRANCH  21  26
BRANCH  23  28
ATOM     28  O   UNL     1      14.482  18.170  17.982  1.00  0.00    -0.387 OA
ATOM     29  H   UNL     1      13.623  17.701  17.786  1.00  0.00     0.211 HD
ENDBRANCH  23  28
BRANCH  24  30
ATOM     30  C   UNL     1      17.121  20.392  17.082  1.00  0.00     0.191 C 
BRANCH  30  31
ATOM     31  O   UNL     1      16.205  20.819  16.120  1.00  0.00    -0.394 OA
ATOM     32  H   UNL     1      15.895  21.720  16.411  1.00  0.00     0.210 HD
ENDBRANCH  30  31
ENDBRANCH  24  30
BRANCH  25  33
ATOM     33  O   UNL     1      17.817  16.821  18.063  1.00  0.00    -0.388 OA
ATOM     34  H   UNL     1      18.133  16.762  18.992  1.00  0.00     0.211 HD
ENDBRANCH  25  33
ENDBRANCH  11  20
BRANCH  10  35
ATOM     35  O   UNL     1      16.602  19.521  12.920  1.00  0.00    -0.507 OA
ATOM     36  H   UNL     1      15.994  19.799  13.679  1.00  0.00     0.293 HD
ENDBRANCH  10  35
TORSDOF 9
ENDMDL
MODEL 5
REMARK VINA RESULT:    -7.136      3.972      8.503
REMARK INTER + INTRA:         -11.099
REMARK INTER:                  -9.876
REMARK INTRA:                  -1.224
REMARK UNBOUND:                -1.461
REMARK SMILES O=c1c(-c2ccc(O)cc2)coc2c([C@H]3O[C@@H](CO)[C@H](O)[C@@H](O)[C@@H]3O)c(O)ccc12
REMARK SMILES IDX 3 1 11 2 12 3 13 4 30 5 2 6 1 7 29 8 28 9 26 10 14 11 4 12
REMARK SMILES IDX 5 13 6 14 7 15 10 16 9 17 8 18 15 20 24 21 16 22 22 23 17 24
REMARK SMILES IDX 20 25 25 26 23 28 18 30 19 31 21 33 27 35
REMARK H PARENT 8 19 25 27 23 29 19 32 21 34 27 36
REMARK Flexibility Score: inf
ROOT
ATOM      1  C   UNL     1      16.822  18.371  13.560  1.00  0.00     0.065 A 
ATOM      2  C   UNL     1      16.150  19.447  12.931  1.00  0.00     0.208 A 
ATOM      3  O   UNL     1      16.578  19.919  11.765  1.00  0.00    -0.463 OA
ATOM      4  C   UNL     1      17.618  19.375  11.101  1.00  0.00     0.147 A 
ATOM      5  C   UNL     1      18.270  18.233  11.606  1.00  0.00     0.066 A 
ATOM      6  C   UNL     1      17.958  17.829  12.905  1.00  0.00     0.200 A 
ATOM      7  O   UNL     1      18.749  17.050  13.523  1.00  0.00    -0.288 OA
ATOM      8  C   UNL     1      19.220  17.585  10.803  1.00  0.00     0.020 A 
ATOM      9  C   UNL     1      19.328  17.929   9.444  1.00  0.00     0.047 A 
ATOM     10  C   UNL     1      18.673  19.068   8.975  1.00  0.00     0.125 A 
ATOM     11  C   UNL     1      18.073  19.963   9.900  1.00  0.00     0.069 A 
ENDROOT
BRANCH   1  12
ATOM     12  C   UNL     1      16.419  17.904  14.907  1.00  0.00    -0.011 A 
ATOM     13  C   UNL     1      17.074  18.415  16.038  1.00  0.00     0.013 A 
ATOM     14  C   UNL     1      16.567  18.166  17.314  1.00  0.00     0.047 A 
ATOM     15  C   UNL     1      15.462  17.340  17.487  1.00  0.00     0.115 A 
ATOM     16  C   UNL     1      15.362  16.993  15.076  1.00  0.00     0.013 A 
ATOM     17  C   UNL     1      14.882  16.718  16.370  1.00  0.00     0.047 A 
BRANCH  15  18
ATOM     18  O   UNL     1      14.947  17.126  18.774  1.00  0.00    -0.508 OA
ATOM     19  H   UNL     1      14.801  17.885  19.425  1.00  0.00     0.293 HD
ENDBRANCH  15  18
ENDBRANCH   1  12
BRANCH  11  20
ATOM     20  C   UNL     1      18.747  21.362   9.995  1.00  0.00     0.188 C 
ATOM     21  C   UNL     1      18.114  22.480   9.141  1.00  0.00     0.179 C 
ATOM     22  O   UNL     1      20.115  21.234   9.628  1.00  0.00    -0.362 OA
ATOM     23  C   UNL     1      18.814  23.837   9.401  1.00  0.00     0.177 C 
ATOM     24  C   UNL     1      20.919  22.380   9.841  1.00  0.00     0.176 C 
ATOM     25  C   UNL     1      20.161  23.703  10.184  1.00  0.00     0.177 C 
BRANCH  21  26
ATOM     26  O   UNL     1      16.752  22.634   9.435  1.00  0.00    -0.387 OA
ATOM     27  H   UNL     1      16.431  21.752   9.756  1.00  0.00     0.211 HD
ENDBRANCH  21  26
BRANCH  23  28
ATOM     28  O   UNL     1      18.892  24.540   8.175  1.00  0.00    -0.387 OA
ATOM     29  H   UNL     1      19.773  25.003   8.100  1.00  0.00     0.211 HD
ENDBRANCH  23  28
BRANCH  24  30
ATOM     30  C   UNL     1      21.804  22.526   8.597  1.00  0.00     0.191 C 
BRANCH  30  31
ATOM     31  O   UNL     1      21.072  22.352   7.423  1.00  0.00    -0.394 OA
ATOM     32  H   UNL     1      20.412  21.630   7.610  1.00  0.00     0.210 HD
ENDBRANCH  30  31
ENDBRANCH  24  30
BRANCH  25  33
ATOM     33  O   UNL     1      19.869  23.818  11.562  1.00  0.00    -0.388 OA
ATOM     34  H   UNL     1      20.568  23.402  12.115  1.00  0.00     0.211 HD
ENDBRANCH  25  33
ENDBRANCH  11  20
BRANCH  10  35
ATOM     35  O   UNL     1      18.691  19.362   7.613  1.00  0.00    -0.507 OA
ATOM     36  H   UNL     1      18.567  18.646   6.910  1.00  0.00     0.293 HD
ENDBRANCH  10  35
TORSDOF 9
ENDMDL
MODEL 6
REMARK VINA RESULT:    -7.119      2.487      3.531
REMARK INTER + INTRA:         -11.078
REMARK INTER:                  -9.896
REMARK INTRA:                  -1.182
REMARK UNBOUND:                -1.461
REMARK SMILES O=c1c(-c2ccc(O)cc2)coc2c([C@H]3O[C@@H](CO)[C@H](O)[C@@H](O)[C@@H]3O)c(O)ccc12
REMARK SMILES IDX 3 1 11 2 12 3 13 4 30 5 2 6 1 7 29 8 28 9 26 10 14 11 4 12
REMARK SMILES IDX 5 13 6 14 7 15 10 16 9 17 8 18 15 20 24 21 16 22 22 23 17 24
REMARK SMILES IDX 20 25 25 26 23 28 18 30 19 31 21 33 27 35
REMARK H PARENT 8 19 25 27 23 29 19 32 21 34 27 36
REMARK Flexibility Score: inf
ROOT
ATOM      1  C   UNL     1      18.671  17.459  10.438  1.00  0.00     0.065 A 
ATOM      2  C   UNL     1      17.344  16.975  10.331  1.00  0.00     0.208 A 
ATOM      3  O   UNL     1      16.945  15.938  11.059  1.00  0.00    -0.463 OA
ATOM      4  C   UNL     1      17.744  15.338  11.964  1.00  0.00     0.147 A 
ATOM      5  C   UNL     1      19.040  15.829  12.210  1.00  0.00     0.066 A 
ATOM      6  C   UNL     1      19.544  16.797  11.340  1.00  0.00     0.200 A 
ATOM      7  O   UNL     1      20.796  17.007  11.298  1.00  0.00    -0.288 OA
ATOM      8  C   UNL     1      19.772  15.301  13.285  1.00  0.00     0.020 A 
ATOM      9  C   UNL     1      19.125  14.485  14.228  1.00  0.00     0.047 A 
ATOM     10  C   UNL     1      17.842  14.010  13.953  1.00  0.00     0.125 A 
ATOM     11  C   UNL     1      17.288  14.194  12.659  1.00  0.00     0.069 A 
ENDROOT
BRANCH   1  12
ATOM     12  C   UNL     1      19.159  18.545   9.558  1.00  0.00    -0.011 A 
ATOM     13  C   UNL     1      18.836  19.877   9.863  1.00  0.00     0.013 A 
ATOM     14  C   UNL     1      19.466  20.923   9.186  1.00  0.00     0.047 A 
ATOM     15  C   UNL     1      20.353  20.662   8.148  1.00  0.00     0.115 A 
ATOM     16  C   UNL     1      19.979  18.272   8.449  1.00  0.00     0.013 A 
ATOM     17  C   UNL     1      20.580  19.335   7.750  1.00  0.00     0.047 A 
BRANCH  15  18
ATOM     18  O   UNL     1      21.000  21.725   7.502  1.00  0.00    -0.508 OA
ATOM     19  H   UNL     1      20.517  22.578   7.260  1.00  0.00     0.293 HD
ENDBRANCH  15  18
ENDBRANCH   1  12
BRANCH  11  20
ATOM     20  C   UNL     1      17.083  12.889  11.838  1.00  0.00     0.188 C 
ATOM     21  C   UNL     1      15.622  12.511  11.519  1.00  0.00     0.179 C 
ATOM     22  O   UNL     1      17.685  11.810  12.542  1.00  0.00    -0.362 OA
ATOM     23  C   UNL     1      15.562  11.252  10.618  1.00  0.00     0.177 C 
ATOM     24  C   UNL     1      17.752  10.580  11.842  1.00  0.00     0.176 C 
ATOM     25  C   UNL     1      16.924  10.491  10.520  1.00  0.00     0.177 C 
BRANCH  21  26
ATOM     26  O   UNL     1      14.963  13.552  10.850  1.00  0.00    -0.387 OA
ATOM     27  H   UNL     1      14.761  13.219   9.938  1.00  0.00     0.211 HD
ENDBRANCH  21  26
BRANCH  23  28
ATOM     28  O   UNL     1      14.455  10.467  11.022  1.00  0.00    -0.387 OA
ATOM     29  H   UNL     1      14.457   9.595  10.537  1.00  0.00     0.211 HD
ENDBRANCH  23  28
BRANCH  24  30
ATOM     30  C   UNL     1      17.360   9.489  12.845  1.00  0.00     0.191 C 
BRANCH  30  31
ATOM     31  O   UNL     1      18.375   8.544  13.000  1.00  0.00    -0.394 OA
ATOM     32  H   UNL     1      19.219   9.059  13.122  1.00  0.00     0.210 HD
ENDBRANCH  30  31
ENDBRANCH  24  30
BRANCH  25  33
ATOM     33  O   UNL     1      17.625  11.008   9.406  1.00  0.00    -0.388 OA
ATOM     34  H   UNL     1      17.341  11.925   9.196  1.00  0.00     0.211 HD
ENDBRANCH  25  33
ENDBRANCH  11  20
BRANCH  10  35
ATOM     35  O   UNL     1      17.153  13.284  14.923  1.00  0.00    -0.507 OA
ATOM     36  H   UNL     1      16.541  13.732  15.592  1.00  0.00     0.293 HD
ENDBRANCH  10  35
TORSDOF 9
ENDMDL
MODEL 7
REMARK VINA RESULT:    -7.115      3.632      5.152
REMARK INTER + INTRA:         -11.072
REMARK INTER:                 -10.034
REMARK INTRA:                  -1.038
REMARK UNBOUND:                -1.461
REMARK SMILES O=c1c(-c2ccc(O)cc2)coc2c([C@H]3O[C@@H](CO)[C@H](O)[C@@H](O)[C@@H]3O)c(O)ccc12
REMARK SMILES IDX 3 1 11 2 12 3 13 4 30 5 2 6 1 7 29 8 28 9 26 10 14 11 4 12
REMARK SMILES IDX 5 13 6 14 7 15 10 16 9 17 8 18 15 20 24 21 16 22 22 23 17 24
REMARK SMILES IDX 20 25 25 26 23 28 18 30 19 31 21 33 27 35
REMARK H PARENT 8 19 25 27 23 29 19 32 21 34 27 36
REMARK Flexibility Score: inf
ROOT
ATOM      1  C   UNL     1      16.942  15.346  14.456  1.00  0.00     0.065 A 
ATOM      2  C   UNL     1      17.402  14.064  14.844  1.00  0.00     0.208 A 
ATOM      3  O   UNL     1      18.106  13.317  14.000  1.00  0.00    -0.463 OA
ATOM      4  C   UNL     1      18.466  13.751  12.776  1.00  0.00     0.147 A 
ATOM      5  C   UNL     1      18.144  15.056  12.357  1.00  0.00     0.066 A 
ATOM      6  C   UNL     1      17.258  15.791  13.145  1.00  0.00     0.200 A 
ATOM      7  O   UNL     1      16.670  16.801  12.648  1.00  0.00    -0.288 OA
ATOM      8  C   UNL     1      18.692  15.537  11.158  1.00  0.00     0.020 A 
ATOM      9  C   UNL     1      19.725  14.818  10.532  1.00  0.00     0.047 A 
ATOM     10  C   UNL     1      20.018  13.526  10.968  1.00  0.00     0.125 A 
ATOM     11  C   UNL     1      19.154  12.886  11.896  1.00  0.00     0.069 A 
ENDROOT
BRANCH   1  12
ATOM     12  C   UNL     1      16.069  16.144  15.346  1.00  0.00    -0.011 A 
ATOM     13  C   UNL     1      14.705  15.827  15.440  1.00  0.00     0.013 A 
ATOM     14  C   UNL     1      13.917  16.412  16.432  1.00  0.00     0.047 A 
ATOM     15  C   UNL     1      14.447  17.377  17.281  1.00  0.00     0.115 A 
ATOM     16  C   UNL     1      16.590  17.186  16.135  1.00  0.00     0.013 A 
ATOM     17  C   UNL     1      15.775  17.795  17.107  1.00  0.00     0.047 A 
BRANCH  15  18
ATOM     18  O   UNL     1      13.647  17.930  18.292  1.00  0.00    -0.508 OA
ATOM     19  H   UNL     1      14.017  18.576  18.974  1.00  0.00     0.293 HD
ENDBRANCH  15  18
ENDBRANCH   1  12
BRANCH  11  20
ATOM     20  C   UNL     1      18.375  11.662  11.334  1.00  0.00     0.188 C 
ATOM     21  C   UNL     1      16.928  11.933  10.874  1.00  0.00     0.179 C 
ATOM     22  O   UNL     1      18.349  10.644  12.328  1.00  0.00    -0.362 OA
ATOM     23  C   UNL     1      16.301  10.662  10.248  1.00  0.00     0.177 C 
ATOM     24  C   UNL     1      17.839   9.391  11.911  1.00  0.00     0.176 C 
ATOM     25  C   UNL     1      17.125   9.362  10.521  1.00  0.00     0.177 C 
BRANCH  21  26
ATOM     26  O   UNL     1      16.884  12.953   9.913  1.00  0.00    -0.387 OA
ATOM     27  H   UNL     1      16.019  12.856   9.436  1.00  0.00     0.211 HD
ENDBRANCH  21  26
BRANCH  23  28
ATOM     28  O   UNL     1      14.937  10.606  10.624  1.00  0.00    -0.387 OA
ATOM     29  H   UNL     1      14.390  11.180  10.019  1.00  0.00     0.211 HD
ENDBRANCH  23  28
BRANCH  24  30
ATOM     30  C   UNL     1      16.927   8.896  13.040  1.00  0.00     0.191 C 
BRANCH  30  31
ATOM     31  O   UNL     1      16.425   9.956  13.796  1.00  0.00    -0.394 OA
ATOM     32  H   UNL     1      15.453   9.776  13.918  1.00  0.00     0.210 HD
ENDBRANCH  30  31
ENDBRANCH  24  30
BRANCH  25  33
ATOM     33  O   UNL     1      18.033   9.197   9.450  1.00  0.00    -0.388 OA
ATOM     34  H   UNL     1      17.668   9.553   8.609  1.00  0.00     0.211 HD
ENDBRANCH  25  33
ENDBRANCH  11  20
BRANCH  10  35
ATOM     35  O   UNL     1      21.104  12.844  10.423  1.00  0.00    -0.507 OA
ATOM     36  H   UNL     1      21.993  12.784  10.902  1.00  0.00     0.293 HD
ENDBRANCH  10  35
TORSDOF 9
ENDMDL
MODEL 8
REMARK VINA RESULT:    -7.103      5.239      8.496
REMARK INTER + INTRA:         -11.055
REMARK INTER:                 -10.395
REMARK INTRA:                  -0.660
REMARK UNBOUND:                -1.461
REMARK SMILES O=c1c(-c2ccc(O)cc2)coc2c([C@H]3O[C@@H](CO)[C@H](O)[C@@H](O)[C@@H]3O)c(O)ccc12
REMARK SMILES IDX 3 1 11 2 12 3 13 4 30 5 2 6 1 7 29 8 28 9 26 10 14 11 4 12
REMARK SMILES IDX 5 13 6 14 7 15 10 16 9 17 8 18 15 20 24 21 16 22 22 23 17 24
REMARK SMILES IDX 20 25 25 26 23 28 18 30 19 31 21 33 27 35
REMARK H PARENT 8 19 25 27 23 29 19 32 21 34 27 36
REMARK Flexibility Score: inf
ROOT
ATOM      1  C   UNL     1      16.954  15.151  13.892  1.00  0.00     0.065 A 
ATOM      2  C   UNL     1      15.748  15.813  13.560  1.00  0.00     0.208 A 
ATOM      3  O   UNL     1      15.261  16.763  14.351  1.00  0.00    -0.463 OA
ATOM      4  C   UNL     1      15.903  17.182  15.459  1.00  0.00     0.147 A 
ATOM      5  C   UNL     1      17.162  16.652  15.800  1.00  0.00     0.066 A 
ATOM      6  C   UNL     1      17.610  15.536  15.091  1.00  0.00     0.200 A 
ATOM      7  O   UNL     1      18.540  14.821  15.576  1.00  0.00    -0.288 OA
ATOM      8  C   UNL     1      17.884  17.241  16.850  1.00  0.00     0.020 A 
ATOM      9  C   UNL     1      17.461  18.475  17.373  1.00  0.00     0.047 A 
ATOM     10  C   UNL     1      16.206  18.971  17.020  1.00  0.00     0.125 A 
ATOM     11  C   UNL     1      15.302  18.146  16.300  1.00  0.00     0.069 A 
ENDROOT
BRANCH   1  12
ATOM     12  C   UNL     1      17.454  14.021  13.076  1.00  0.00    -0.011 A 
ATOM     13  C   UNL     1      18.455  14.250  12.120  1.00  0.00     0.013 A 
ATOM     14  C   UNL     1      19.096  13.174  11.505  1.00  0.00     0.047 A 
ATOM     15  C   UNL     1      18.694  11.868  11.764  1.00  0.00     0.115 A 
ATOM     16  C   UNL     1      16.976  12.713  13.273  1.00  0.00     0.013 A 
ATOM     17  C   UNL     1      17.604  11.638  12.618  1.00  0.00     0.047 A 
BRANCH  15  18
ATOM     18  O   UNL     1      19.371  10.799  11.160  1.00  0.00    -0.508 OA
ATOM     19  H   UNL     1      19.628  10.811  10.184  1.00  0.00     0.293 HD
ENDBRANCH  15  18
ENDBRANCH   1  12
BRANCH  11  20
ATOM     20  C   UNL     1      14.029  17.721  17.087  1.00  0.00     0.188 C 
ATOM     21  C   UNL     1      14.205  16.559  18.086  1.00  0.00     0.179 C 
ATOM     22  O   UNL     1      13.016  17.364  16.154  1.00  0.00    -0.362 OA
ATOM     23  C   UNL     1      12.895  16.301  18.870  1.00  0.00     0.177 C 
ATOM     24  C   UNL     1      11.731  17.131  16.701  1.00  0.00     0.176 C 
ATOM     25  C   UNL     1      11.651  17.024  18.258  1.00  0.00     0.177 C 
BRANCH  21  26
ATOM     26  O   UNL     1      15.217  16.839  19.016  1.00  0.00    -0.387 OA
ATOM     27  H   UNL     1      14.921  17.639  19.522  1.00  0.00     0.211 HD
ENDBRANCH  21  26
BRANCH  23  28
ATOM     28  O   UNL     1      12.755  14.905  19.057  1.00  0.00    -0.387 OA
ATOM     29  H   UNL     1      13.334  14.412  18.411  1.00  0.00     0.211 HD
ENDBRANCH  23  28
BRANCH  24  30
ATOM     30  C   UNL     1      11.185  15.877  16.007  1.00  0.00     0.191 C 
BRANCH  30  31
ATOM     31  O   UNL     1      11.880  15.598  14.830  1.00  0.00    -0.394 OA
ATOM     32  H   UNL     1      12.543  14.890  15.059  1.00  0.00     0.210 HD
ENDBRANCH  30  31
ENDBRANCH  24  30
BRANCH  25  33
ATOM     33  O   UNL     1      11.539  18.288  18.882  1.00  0.00    -0.388 OA
ATOM     34  H   UNL     1      11.202  18.969  18.259  1.00  0.00     0.211 HD
ENDBRANCH  25  33
ENDBRANCH  11  20
BRANCH  10  35
ATOM     35  O   UNL     1      15.819  20.238  17.453  1.00  0.00    -0.507 OA
ATOM     36  H   UNL     1      14.912  20.408  17.867  1.00  0.00     0.293 HD
ENDBRANCH  10  35
TORSDOF 9
ENDMDL
MODEL 9
REMARK VINA RESULT:    -6.975      2.260      4.473
REMARK INTER + INTRA:         -10.883
REMARK INTER:                  -9.962
REMARK INTRA:                  -0.920
REMARK UNBOUND:                -1.461
REMARK SMILES O=c1c(-c2ccc(O)cc2)coc2c([C@H]3O[C@@H](CO)[C@H](O)[C@@H](O)[C@@H]3O)c(O)ccc12
REMARK SMILES IDX 3 1 11 2 12 3 13 4 30 5 2 6 1 7 29 8 28 9 26 10 14 11 4 12
REMARK SMILES IDX 5 13 6 14 7 15 10 16 9 17 8 18 15 20 24 21 16 22 22 23 17 24
REMARK SMILES IDX 20 25 25 26 23 28 18 30 19 31 21 33 27 35
REMARK H PARENT 8 19 25 27 23 29 19 32 21 34 27 36
REMARK Flexibility Score: inf
ROOT
ATOM      1  C   UNL     1      17.894  21.009   9.715  1.00  0.00     0.065 A 
ATOM      2  C   UNL     1      18.159  19.920   8.850  1.00  0.00     0.208 A 
ATOM      3  O   UNL     1      17.804  18.686   9.192  1.00  0.00    -0.463 OA
ATOM      4  C   UNL     1      17.134  18.415  10.330  1.00  0.00     0.147 A 
ATOM      5  C   UNL     1      16.736  19.456  11.191  1.00  0.00     0.066 A 
ATOM      6  C   UNL     1      17.247  20.731  10.948  1.00  0.00     0.200 A 
ATOM      7  O   UNL     1      17.212  21.604  11.869  1.00  0.00    -0.288 OA
ATOM      8  C   UNL     1      15.884  19.158  12.265  1.00  0.00     0.020 A 
ATOM      9  C   UNL     1      15.256  17.902  12.322  1.00  0.00     0.047 A 
ATOM     10  C   UNL     1      15.676  16.890  11.459  1.00  0.00     0.125 A 
ATOM     11  C   UNL     1      16.846  17.075  10.676  1.00  0.00     0.069 A 
ENDROOT
BRANCH   1  12
ATOM     12  C   UNL     1      18.376  22.372   9.394  1.00  0.00    -0.011 A 
ATOM     13  C   UNL     1      19.742  22.579   9.142  1.00  0.00     0.013 A 
ATOM     14  C   UNL     1      20.181  23.797   8.621  1.00  0.00     0.047 A 
ATOM     15  C   UNL     1      19.291  24.846   8.426  1.00  0.00     0.115 A 
ATOM     16  C   UNL     1      17.485  23.455   9.291  1.00  0.00     0.013 A 
ATOM     17  C   UNL     1      17.947  24.690   8.800  1.00  0.00     0.047 A 
BRANCH  15  18
ATOM     18  O   UNL     1      19.745  26.052   7.871  1.00  0.00    -0.508 OA
ATOM     19  H   UNL     1      20.018  26.836   8.446  1.00  0.00     0.293 HD
ENDBRANCH  15  18
ENDBRANCH   1  12
BRANCH  11  20
ATOM     20  C   UNL     1      18.043  16.156  11.052  1.00  0.00     0.188 C 
ATOM     21  C   UNL     1      18.149  14.827  10.276  1.00  0.00     0.179 C 
ATOM     22  O   UNL     1      17.972  15.862  12.442  1.00  0.00    -0.362 OA
ATOM     23  C   UNL     1      19.431  14.056  10.674  1.00  0.00     0.177 C 
ATOM     24  C   UNL     1      19.093  15.190  12.987  1.00  0.00     0.176 C 
ATOM     25  C   UNL     1      20.122  14.617  11.960  1.00  0.00     0.177 C 
BRANCH  21  26
ATOM     26  O   UNL     1      18.191  15.050   8.893  1.00  0.00    -0.387 OA
ATOM     27  H   UNL     1      18.693  14.291   8.499  1.00  0.00     0.211 HD
ENDBRANCH  21  26
BRANCH  23  28
ATOM     28  O   UNL     1      19.130  12.673  10.702  1.00  0.00    -0.387 OA
ATOM     29  H   UNL     1      19.900  12.146  10.348  1.00  0.00     0.211 HD
ENDBRANCH  23  28
BRANCH  24  30
ATOM     30  C   UNL     1      18.537  14.102  13.914  1.00  0.00     0.191 C 
BRANCH  30  31
ATOM     31  O   UNL     1      19.166  14.117  15.160  1.00  0.00    -0.394 OA
ATOM     32  H   UNL     1      19.109  13.187  15.512  1.00  0.00     0.210 HD
ENDBRANCH  30  31
ENDBRANCH  24  30
BRANCH  25  33
ATOM     33  O   UNL     1      21.071  15.582  11.550  1.00  0.00    -0.388 OA
ATOM     34  H   UNL     1      21.166  16.300  12.215  1.00  0.00     0.211 HD
ENDBRANCH  25  33
ENDBRANCH  11  20
BRANCH  10  35
ATOM     35  O   UNL     1      14.994  15.674  11.438  1.00  0.00    -0.507 OA
ATOM     36  H   UNL     1      14.067  15.587  11.043  1.00  0.00     0.293 HD
ENDBRANCH  10  35
TORSDOF 9
ENDMDL
