MODEL 1
REMARK VINA RESULT:     1.127      0.000      0.000
REMARK INTER + INTRA:           1.039
REMARK INTER:                   1.324
REMARK INTRA:                  -0.285
REMARK UNBOUND:                -0.285
REMARK SMILES O=c1cc(-c2ccc(O)c(O)c2)oc2cc(O)cc(O)c12
REMARK SMILES IDX 4 1 3 2 2 3 1 4 21 5 19 6 18 7 16 8 15 9 14 10 13 11 5 12
REMARK SMILES IDX 6 13 7 14 8 15 12 16 10 17 9 18 11 20 20 22 17 24
REMARK H PARENT 9 19 11 21 20 23 17 25
REMARK Flexibility Score: inf
ROOT
ATOM      1  C   UNL     1     -37.307 -35.458 -33.925  1.00  0.00     0.138 A 
ATOM      2  C   UNL     1     -35.907 -35.393 -33.968  1.00  0.00     0.100 A 
ATOM      3  C   UNL     1     -35.249 -35.519 -35.191  1.00  0.00     0.197 A 
ATOM      4  O   UNL     1     -33.996 -35.394 -35.207  1.00  0.00    -0.289 OA
ATOM      5  C   UNL     1     -35.995 -35.744 -36.373  1.00  0.00     0.107 A 
ATOM      6  C   UNL     1     -35.428 -35.927 -37.669  1.00  0.00     0.134 A 
ATOM      7  C   UNL     1     -36.270 -36.026 -38.783  1.00  0.00     0.093 A 
ATOM      8  C   UNL     1     -37.657 -36.008 -38.642  1.00  0.00     0.123 A 
ATOM      9  C   UNL     1     -38.223 -35.882 -37.373  1.00  0.00     0.094 A 
ATOM     10  C   UNL     1     -37.410 -35.747 -36.245  1.00  0.00     0.146 A 
ATOM     11  O   UNL     1     -37.986 -35.615 -35.055  1.00  0.00    -0.456 OA
ENDROOT
BRANCH   1  12
ATOM     12  C   UNL     1     -38.059 -35.331 -32.650  1.00  0.00     0.021 A 
ATOM     13  C   UNL     1     -39.341 -34.752 -32.603  1.00  0.00     0.016 A 
ATOM     14  C   UNL     1     -40.022 -34.637 -31.388  1.00  0.00     0.051 A 
ATOM     15  C   UNL     1     -39.433 -35.090 -30.201  1.00  0.00     0.157 A 
ATOM     16  C   UNL     1     -37.469 -35.771 -31.452  1.00  0.00     0.062 A 
ATOM     17  C   UNL     1     -38.149 -35.657 -30.234  1.00  0.00     0.158 A 
BRANCH  15  18
ATOM     18  O   UNL     1     -40.116 -34.974 -28.991  1.00  0.00    -0.504 OA
ATOM     19  H   UNL     1     -40.812 -35.653 -28.707  1.00  0.00     0.293 HD
ENDBRANCH  15  18
BRANCH  17  20
ATOM     20  O   UNL     1     -37.533 -36.114 -29.069  1.00  0.00    -0.504 OA
ATOM     21  H   UNL     1     -37.705 -37.040 -28.697  1.00  0.00     0.293 HD
ENDBRANCH  17  20
ENDBRANCH   1  12
BRANCH   6  22
ATOM     22  O   UNL     1     -34.056 -36.046 -37.913  1.00  0.00    -0.507 OA
ATOM     23  H   UNL     1     -33.554 -36.918 -37.971  1.00  0.00     0.293 HD
ENDBRANCH   6  22
BRANCH   8  24
ATOM     24  O   UNL     1     -38.466 -36.123 -39.771  1.00  0.00    -0.508 OA
ATOM     25  H   UNL     1     -38.297 -35.570 -40.602  1.00  0.00     0.293 HD
ENDBRANCH   8  24
TORSDOF 5
ENDMDL
MODEL 2
REMARK VINA RESULT:     2.625      1.163      2.720
REMARK INTER + INTRA:           2.800
REMARK INTER:                   3.104
REMARK INTRA:                  -0.304
REMARK UNBOUND:                -0.285
REMARK SMILES O=c1cc(-c2ccc(O)c(O)c2)oc2cc(O)cc(O)c12
REMARK SMILES IDX 4 1 3 2 2 3 1 4 21 5 19 6 18 7 16 8 15 9 14 10 13 11 5 12
REMARK SMILES IDX 6 13 7 14 8 15 12 16 10 17 9 18 11 20 20 22 17 24
REMARK H PARENT 9 19 11 21 20 23 17 25
REMARK Flexibility Score: inf
ROOT
ATOM      1  C   UNL     1     -38.181 -35.517 -34.849  1.00  0.00     0.138 A 
ATOM      2  C   UNL     1     -39.182 -35.701 -35.812  1.00  0.00     0.100 A 
ATOM      3  C   UNL     1     -38.828 -35.901 -37.146  1.00  0.00     0.197 A 
ATOM      4  O   UNL     1     -39.746 -36.125 -37.978  1.00  0.00    -0.289 OA
ATOM      5  C   UNL     1     -37.463 -35.886 -37.522  1.00  0.00     0.107 A 
ATOM      6  C   UNL     1     -36.987 -36.040 -38.858  1.00  0.00     0.134 A 
ATOM      7  C   UNL     1     -35.610 -36.125 -39.093  1.00  0.00     0.093 A 
ATOM      8  C   UNL     1     -34.691 -36.002 -38.052  1.00  0.00     0.123 A 
ATOM      9  C   UNL     1     -35.144 -35.798 -36.748  1.00  0.00     0.094 A 
ATOM     10  C   UNL     1     -36.513 -35.743 -36.475  1.00  0.00     0.146 A 
ATOM     11  O   UNL     1     -36.906 -35.562 -35.219  1.00  0.00    -0.456 OA
ENDROOT
BRANCH   1  12
ATOM     12  C   UNL     1     -38.502 -35.298 -33.415  1.00  0.00     0.021 A 
ATOM     13  C   UNL     1     -39.640 -34.572 -33.015  1.00  0.00     0.016 A 
ATOM     14  C   UNL     1     -39.912 -34.374 -31.658  1.00  0.00     0.051 A 
ATOM     15  C   UNL     1     -39.051 -34.888 -30.681  1.00  0.00     0.157 A 
ATOM     16  C   UNL     1     -37.636 -35.800 -32.428  1.00  0.00     0.062 A 
ATOM     17  C   UNL     1     -37.907 -35.603 -31.068  1.00  0.00     0.158 A 
BRANCH  15  18
ATOM     18  O   UNL     1     -39.327 -34.688 -29.329  1.00  0.00    -0.504 OA
ATOM     19  H   UNL     1     -39.141 -35.404 -28.638  1.00  0.00     0.293 HD
ENDBRANCH  15  18
BRANCH  17  20
ATOM     20  O   UNL     1     -37.028 -36.124 -30.120  1.00  0.00    -0.504 OA
ATOM     21  H   UNL     1     -36.911 -37.121 -29.986  1.00  0.00     0.293 HD
ENDBRANCH  17  20
ENDBRANCH   1  12
BRANCH   6  22
ATOM     22  O   UNL     1     -37.816 -36.087 -39.983  1.00  0.00    -0.507 OA
ATOM     23  H   UNL     1     -38.581 -35.455 -40.162  1.00  0.00     0.293 HD
ENDBRANCH   6  22
BRANCH   8  24
ATOM     24  O   UNL     1     -33.326 -36.076 -38.325  1.00  0.00    -0.508 OA
ATOM     25  H   UNL     1     -32.964 -36.685 -39.049  1.00  0.00     0.293 HD
ENDBRANCH   8  24
TORSDOF 5
ENDMDL
