MODEL 1
REMARK VINA RESULT:    -4.010      0.000      0.000
REMARK INTER + INTRA:          -5.502
REMARK INTER:                  -5.182
REMARK INTRA:                  -0.321
REMARK UNBOUND:                -0.321
REMARK SMILES CCCCCCC(=O)[O-]
REMARK SMILES IDX 5 1 6 2 7 3 8 4 9 5 4 6 3 7 2 8 1 9
REMARK H PARENT
REMARK Flexibility Score: inf
ROOT
ATOM      1  C   UNL     1     -11.307 -26.471 -35.100  1.00  0.00     0.006 C 
ENDROOT
BRANCH   1   2
ATOM      2  C   UNL     1     -12.178 -25.315 -34.600  1.00  0.00     0.053 C 
BRANCH   2   3
ATOM      3  C   UNL     1     -12.733 -24.539 -35.752  1.00  0.00     0.041 C 
ATOM      4  O   UNL     1     -13.370 -25.128 -36.664  1.00  0.00    -0.550 OA
ATOM      5  O   UNL     1     -12.590 -23.158 -35.793  1.00  0.00    -0.550 OA
ENDBRANCH   2   3
ENDBRANCH   1   2
BRANCH   1   6
ATOM      6  C   UNL     1     -11.840 -27.819 -34.599  1.00  0.00     0.000 C 
BRANCH   6   7
ATOM      7  C   UNL     1     -13.127 -27.633 -33.781  1.00  0.00    -0.000 C 
BRANCH   7   8
ATOM      8  C   UNL     1     -13.022 -28.235 -32.372  1.00  0.00    -0.003 C 
ATOM      9  C   UNL     1     -11.678 -27.948 -31.705  1.00  0.00     0.004 C 
ENDBRANCH   7   8
ENDBRANCH   6   7
ENDBRANCH   1   6
TORSDOF 5
ENDMDL
MODEL 2
REMARK VINA RESULT:    -4.004      3.283      4.681
REMARK INTER + INTRA:          -5.495
REMARK INTER:                  -5.177
REMARK INTRA:                  -0.319
REMARK UNBOUND:                -0.321
REMARK SMILES CCCCCCC(=O)[O-]
REMARK SMILES IDX 5 1 6 2 7 3 8 4 9 5 4 6 3 7 2 8 1 9
REMARK H PARENT
REMARK Flexibility Score: inf
ROOT
ATOM      1  C   UNL     1     -11.909 -28.459 -34.022  1.00  0.00     0.006 C 
ENDROOT
BRANCH   1   2
ATOM      2  C   UNL     1     -12.965 -27.995 -33.016  1.00  0.00     0.053 C 
BRANCH   2   3
ATOM      3  C   UNL     1     -12.572 -28.384 -31.626  1.00  0.00     0.041 C 
ATOM      4  O   UNL     1     -13.345 -29.085 -30.921  1.00  0.00    -0.550 OA
ATOM      5  O   UNL     1     -11.331 -28.013 -31.125  1.00  0.00    -0.550 OA
ENDBRANCH   2   3
ENDBRANCH   1   2
BRANCH   1   6
ATOM      6  C   UNL     1     -11.568 -27.343 -35.017  1.00  0.00     0.000 C 
BRANCH   6   7
ATOM      7  C   UNL     1     -11.562 -25.972 -34.325  1.00  0.00    -0.000 C 
BRANCH   7   8
ATOM      8  C   UNL     1     -12.316 -24.902 -35.129  1.00  0.00    -0.003 C 
ATOM      9  C   UNL     1     -13.188 -25.498 -36.234  1.00  0.00     0.004 C 
ENDBRANCH   7   8
ENDBRANCH   6   7
ENDBRANCH   1   6
TORSDOF 5
ENDMDL
MODEL 3
REMARK VINA RESULT:    -3.966      1.174      1.773
REMARK INTER + INTRA:          -5.445
REMARK INTER:                  -5.234
REMARK INTRA:                  -0.212
REMARK UNBOUND:                -0.321
REMARK SMILES CCCCCCC(=O)[O-]
REMARK SMILES IDX 5 1 6 2 7 3 8 4 9 5 4 6 3 7 2 8 1 9
REMARK H PARENT
REMARK Flexibility Score: inf
ROOT
ATOM      1  C   UNL     1     -11.967 -27.899 -35.092  1.00  0.00     0.006 C 
ENDROOT
BRANCH   1   2
ATOM      2  C   UNL     1     -12.193 -26.387 -35.022  1.00  0.00     0.053 C 
BRANCH   2   3
ATOM      3  C   UNL     1     -13.376 -25.994 -35.849  1.00  0.00     0.041 C 
ATOM      4  O   UNL     1     -13.337 -24.954 -36.558  1.00  0.00    -0.550 OA
ATOM      5  O   UNL     1     -14.504 -26.804 -35.878  1.00  0.00    -0.550 OA
ENDBRANCH   2   3
ENDBRANCH   1   2
BRANCH   1   6
ATOM      6  C   UNL     1     -11.875 -28.508 -33.688  1.00  0.00     0.000 C 
BRANCH   6   7
ATOM      7  C   UNL     1     -13.014 -27.999 -32.792  1.00  0.00    -0.000 C 
BRANCH   7   8
ATOM      8  C   UNL     1     -13.011 -28.654 -31.402  1.00  0.00    -0.003 C 
ATOM      9  C   UNL     1     -11.763 -28.310 -30.589  1.00  0.00     0.004 C 
ENDBRANCH   7   8
ENDBRANCH   6   7
ENDBRANCH   1   6
TORSDOF 5
ENDMDL
MODEL 4
REMARK VINA RESULT:    -3.918      3.215      4.763
REMARK INTER + INTRA:          -5.384
REMARK INTER:                  -5.146
REMARK INTRA:                  -0.239
REMARK UNBOUND:                -0.321
REMARK SMILES CCCCCCC(=O)[O-]
REMARK SMILES IDX 5 1 6 2 7 3 8 4 9 5 4 6 3 7 2 8 1 9
REMARK H PARENT
REMARK Flexibility Score: inf
ROOT
ATOM      1  C   UNL     1     -13.792 -27.517 -33.655  1.00  0.00     0.006 C 
ENDROOT
BRANCH   1   2
ATOM      2  C   UNL     1     -12.733 -26.900 -32.738  1.00  0.00     0.053 C 
BRANCH   2   3
ATOM      3  C   UNL     1     -12.206 -27.922 -31.782  1.00  0.00     0.041 C 
ATOM      4  O   UNL     1     -11.015 -27.859 -31.378  1.00  0.00    -0.550 OA
ATOM      5  O   UNL     1     -13.045 -28.917 -31.296  1.00  0.00    -0.550 OA
ENDBRANCH   2   3
ENDBRANCH   1   2
BRANCH   1   6
ATOM      6  C   UNL     1     -13.344 -27.476 -35.121  1.00  0.00     0.000 C 
BRANCH   6   7
ATOM      7  C   UNL     1     -12.402 -26.289 -35.375  1.00  0.00    -0.000 C 
BRANCH   7   8
ATOM      8  C   UNL     1     -13.051 -25.195 -36.236  1.00  0.00    -0.003 C 
ATOM      9  C   UNL     1     -12.706 -23.785 -35.759  1.00  0.00     0.004 C 
ENDBRANCH   7   8
ENDBRANCH   6   7
ENDBRANCH   1   6
TORSDOF 5
ENDMDL
MODEL 5
REMARK VINA RESULT:    -3.822      3.275      4.703
REMARK INTER + INTRA:          -5.260
REMARK INTER:                  -5.042
REMARK INTRA:                  -0.218
REMARK UNBOUND:                -0.321
REMARK SMILES CCCCCCC(=O)[O-]
REMARK SMILES IDX 5 1 6 2 7 3 8 4 9 5 4 6 3 7 2 8 1 9
REMARK H PARENT
REMARK Flexibility Score: inf
ROOT
ATOM      1  C   UNL     1     -13.364 -27.076 -32.993  1.00  0.00     0.006 C 
ENDROOT
BRANCH   1   2
ATOM      2  C   UNL     1     -12.970 -28.255 -32.098  1.00  0.00     0.053 C 
BRANCH   2   3
ATOM      3  C   UNL     1     -11.726 -27.938 -31.331  1.00  0.00     0.041 C 
ATOM      4  O   UNL     1     -11.427 -28.603 -30.305  1.00  0.00    -0.550 OA
ATOM      5  O   UNL     1     -10.869 -26.940 -31.777  1.00  0.00    -0.550 OA
ENDBRANCH   2   3
ENDBRANCH   1   2
BRANCH   1   6
ATOM      6  C   UNL     1     -14.119 -27.557 -34.237  1.00  0.00     0.000 C 
BRANCH   6   7
ATOM      7  C   UNL     1     -13.479 -27.002 -35.519  1.00  0.00    -0.000 C 
BRANCH   7   8
ATOM      8  C   UNL     1     -12.408 -25.939 -35.231  1.00  0.00    -0.003 C 
ATOM      9  C   UNL     1     -12.697 -24.607 -35.921  1.00  0.00     0.004 C 
ENDBRANCH   7   8
ENDBRANCH   6   7
ENDBRANCH   1   6
TORSDOF 5
ENDMDL
MODEL 6
REMARK VINA RESULT:    -3.809      3.315      4.183
REMARK INTER + INTRA:          -5.243
REMARK INTER:                  -4.936
REMARK INTRA:                  -0.306
REMARK UNBOUND:                -0.321
REMARK SMILES CCCCCCC(=O)[O-]
REMARK SMILES IDX 5 1 6 2 7 3 8 4 9 5 4 6 3 7 2 8 1 9
REMARK H PARENT
REMARK Flexibility Score: inf
ROOT
ATOM      1  C   UNL     1     -11.851 -25.864 -33.498  1.00  0.00     0.006 C 
ENDROOT
BRANCH   1   2
ATOM      2  C   UNL     1     -10.936 -26.018 -32.281  1.00  0.00     0.053 C 
BRANCH   2   3
ATOM      3  C   UNL     1     -11.509 -27.005 -31.314  1.00  0.00     0.041 C 
ATOM      4  O   UNL     1     -12.748 -27.025 -31.088  1.00  0.00    -0.550 OA
ATOM      5  O   UNL     1     -10.683 -27.938 -30.701  1.00  0.00    -0.550 OA
ENDBRANCH   2   3
ENDBRANCH   1   2
BRANCH   1   6
ATOM      6  C   UNL     1     -11.255 -26.558 -34.728  1.00  0.00     0.000 C 
BRANCH   6   7
ATOM      7  C   UNL     1     -12.039 -27.832 -35.075  1.00  0.00    -0.000 C 
BRANCH   7   8
ATOM      8  C   UNL     1     -13.444 -27.847 -34.455  1.00  0.00    -0.003 C 
ATOM      9  C   UNL     1     -14.540 -27.508 -35.465  1.00  0.00     0.004 C 
ENDBRANCH   7   8
ENDBRANCH   6   7
ENDBRANCH   1   6
TORSDOF 5
ENDMDL
MODEL 7
REMARK VINA RESULT:    -3.783      3.400      4.372
REMARK INTER + INTRA:          -5.209
REMARK INTER:                  -4.946
REMARK INTRA:                  -0.264
REMARK UNBOUND:                -0.321
REMARK SMILES CCCCCCC(=O)[O-]
REMARK SMILES IDX 5 1 6 2 7 3 8 4 9 5 4 6 3 7 2 8 1 9
REMARK H PARENT
REMARK Flexibility Score: inf
ROOT
ATOM      1  C   UNL     1     -12.928 -26.626 -32.182  1.00  0.00     0.006 C 
ENDROOT
BRANCH   1   2
ATOM      2  C   UNL     1     -11.554 -26.077 -32.577  1.00  0.00     0.053 C 
BRANCH   2   3
ATOM      3  C   UNL     1     -10.544 -26.379 -31.516  1.00  0.00     0.041 C 
ATOM      4  O   UNL     1      -9.643 -25.544 -31.242  1.00  0.00    -0.550 OA
ATOM      5  O   UNL     1     -10.627 -27.562 -30.793  1.00  0.00    -0.550 OA
ENDBRANCH   2   3
ENDBRANCH   1   2
BRANCH   1   6
ATOM      6  C   UNL     1     -13.286 -27.864 -33.013  1.00  0.00     0.000 C 
BRANCH   6   7
ATOM      7  C   UNL     1     -12.345 -28.009 -34.219  1.00  0.00    -0.000 C 
BRANCH   7   8
ATOM      8  C   UNL     1     -13.071 -27.821 -35.559  1.00  0.00    -0.003 C 
ATOM      9  C   UNL     1     -14.556 -27.501 -35.388  1.00  0.00     0.004 C 
ENDBRANCH   7   8
ENDBRANCH   6   7
ENDBRANCH   1   6
TORSDOF 5
ENDMDL
MODEL 8
REMARK VINA RESULT:    -3.779      3.231      4.286
REMARK INTER + INTRA:          -5.204
REMARK INTER:                  -4.780
REMARK INTRA:                  -0.424
REMARK UNBOUND:                -0.321
REMARK SMILES CCCCCCC(=O)[O-]
REMARK SMILES IDX 5 1 6 2 7 3 8 4 9 5 4 6 3 7 2 8 1 9
REMARK H PARENT
REMARK Flexibility Score: inf
ROOT
ATOM      1  C   UNL     1     -11.500 -25.539 -32.699  1.00  0.00     0.006 C 
ENDROOT
BRANCH   1   2
ATOM      2  C   UNL     1     -12.496 -26.226 -31.761  1.00  0.00     0.053 C 
BRANCH   2   3
ATOM      3  C   UNL     1     -12.061 -27.627 -31.469  1.00  0.00     0.041 C 
ATOM      4  O   UNL     1     -12.839 -28.592 -31.691  1.00  0.00    -0.550 OA
ATOM      5  O   UNL     1     -10.777 -27.873 -30.999  1.00  0.00    -0.550 OA
ENDBRANCH   2   3
ENDBRANCH   1   2
BRANCH   1   6
ATOM      6  C   UNL     1     -12.023 -25.521 -34.140  1.00  0.00     0.000 C 
BRANCH   6   7
ATOM      7  C   UNL     1     -11.207 -26.468 -35.033  1.00  0.00    -0.000 C 
BRANCH   7   8
ATOM      8  C   UNL     1     -11.805 -27.882 -35.096  1.00  0.00    -0.003 C 
ATOM      9  C   UNL     1     -13.332 -27.875 -35.156  1.00  0.00     0.004 C 
ENDBRANCH   7   8
ENDBRANCH   6   7
ENDBRANCH   1   6
TORSDOF 5
ENDMDL
MODEL 9
REMARK VINA RESULT:    -3.724      1.644      2.359
REMARK INTER + INTRA:          -5.133
REMARK INTER:                  -4.723
REMARK INTRA:                  -0.410
REMARK UNBOUND:                -0.321
REMARK SMILES CCCCCCC(=O)[O-]
REMARK SMILES IDX 5 1 6 2 7 3 8 4 9 5 4 6 3 7 2 8 1 9
REMARK H PARENT
REMARK Flexibility Score: inf
ROOT
ATOM      1  C   UNL     1     -13.754 -27.492 -33.944  1.00  0.00     0.006 C 
ENDROOT
BRANCH   1   2
ATOM      2  C   UNL     1     -13.445 -27.435 -35.442  1.00  0.00     0.053 C 
BRANCH   2   3
ATOM      3  C   UNL     1     -12.748 -26.156 -35.785  1.00  0.00     0.041 C 
ATOM      4  O   UNL     1     -13.394 -25.195 -36.279  1.00  0.00    -0.550 OA
ATOM      5  O   UNL     1     -11.394 -26.008 -35.515  1.00  0.00    -0.550 OA
ENDBRANCH   2   3
ENDBRANCH   1   2
BRANCH   1   6
ATOM      6  C   UNL     1     -12.656 -28.245 -33.183  1.00  0.00     0.000 C 
BRANCH   6   7
ATOM      7  C   UNL     1     -11.988 -27.337 -32.140  1.00  0.00    -0.000 C 
BRANCH   7   8
ATOM      8  C   UNL     1     -12.677 -25.970 -32.020  1.00  0.00    -0.003 C 
ATOM      9  C   UNL     1     -11.721 -24.802 -32.261  1.00  0.00     0.004 C 
ENDBRANCH   7   8
ENDBRANCH   6   7
ENDBRANCH   1   6
TORSDOF 5
ENDMDL
