MODEL 1
REMARK VINA RESULT:    -4.261      0.000      0.000
REMARK INTER + INTRA:          -5.393
REMARK INTER:                  -5.257
REMARK INTRA:                  -0.136
REMARK UNBOUND:                -0.136
REMARK SMILES CCCCCC(=O)[O-]
REMARK SMILES IDX 4 1 5 2 6 3 7 4 8 5 3 6 2 7 1 8
REMARK H PARENT
REMARK Flexibility Score: inf
ROOT
ATOM      1  C   UNL     1     -17.751  34.787  81.348  1.00  0.00     0.006 C 
ENDROOT
BRANCH   1   2
ATOM      2  C   UNL     1     -16.503  35.497  81.889  1.00  0.00     0.053 C 
BRANCH   2   3
ATOM      3  C   UNL     1     -16.803  36.271  83.136  1.00  0.00     0.041 C 
ATOM      4  O   UNL     1     -16.914  35.676  84.240  1.00  0.00    -0.550 OA
ATOM      5  O   UNL     1     -16.927  37.653  83.083  1.00  0.00    -0.550 OA
ENDBRANCH   2   3
ENDBRANCH   1   2
BRANCH   1   6
ATOM      6  C   UNL     1     -18.115  35.253  79.927  1.00  0.00     0.000 C 
BRANCH   6   7
ATOM      7  C   UNL     1     -18.607  36.707  79.891  1.00  0.00    -0.003 C 
ATOM      8  C   UNL     1     -18.595  37.301  78.482  1.00  0.00     0.004 C 
ENDBRANCH   6   7
ENDBRANCH   1   6
TORSDOF 4
ENDMDL
MODEL 2
REMARK VINA RESULT:    -4.219      1.162      1.543
REMARK INTER + INTRA:          -5.342
REMARK INTER:                  -5.189
REMARK INTRA:                  -0.153
REMARK UNBOUND:                -0.136
REMARK SMILES CCCCCC(=O)[O-]
REMARK SMILES IDX 4 1 5 2 6 3 7 4 8 5 3 6 2 7 1 8
REMARK H PARENT
REMARK Flexibility Score: inf
ROOT
ATOM      1  C   UNL     1     -17.008  35.801  81.119  1.00  0.00     0.006 C 
ENDROOT
BRANCH   1   2
ATOM      2  C   UNL     1     -17.256  37.051  81.974  1.00  0.00     0.053 C 
BRANCH   2   3
ATOM      3  C   UNL     1     -17.996  36.721  83.234  1.00  0.00     0.041 C 
ATOM      4  O   UNL     1     -19.168  37.146  83.412  1.00  0.00    -0.550 OA
ATOM      5  O   UNL     1     -17.401  35.918  84.199  1.00  0.00    -0.550 OA
ENDBRANCH   2   3
ENDBRANCH   1   2
BRANCH   1   6
ATOM      6  C   UNL     1     -18.054  35.645  80.000  1.00  0.00     0.000 C 
BRANCH   6   7
ATOM      7  C   UNL     1     -18.796  36.956  79.701  1.00  0.00    -0.003 C 
ATOM      8  C   UNL     1     -18.713  37.360  78.229  1.00  0.00     0.004 C 
ENDBRANCH   6   7
ENDBRANCH   1   6
TORSDOF 4
ENDMDL
MODEL 3
REMARK VINA RESULT:    -3.969      2.167      3.699
REMARK INTER + INTRA:          -5.034
REMARK INTER:                  -4.885
REMARK INTRA:                  -0.149
REMARK UNBOUND:                -0.136
REMARK SMILES CCCCCC(=O)[O-]
REMARK SMILES IDX 4 1 5 2 6 3 7 4 8 5 3 6 2 7 1 8
REMARK H PARENT
REMARK Flexibility Score: inf
ROOT
ATOM      1  C   UNL     1     -18.059  34.687  81.306  1.00  0.00     0.006 C 
ENDROOT
BRANCH   1   2
ATOM      2  C   UNL     1     -17.929  35.143  79.847  1.00  0.00     0.053 C 
BRANCH   2   3
ATOM      3  C   UNL     1     -18.206  36.607  79.696  1.00  0.00     0.041 C 
ATOM      4  O   UNL     1     -17.265  37.441  79.766  1.00  0.00    -0.550 OA
ATOM      5  O   UNL     1     -19.499  37.048  79.447  1.00  0.00    -0.550 OA
ENDBRANCH   2   3
ENDBRANCH   1   2
BRANCH   1   6
ATOM      6  C   UNL     1     -16.855  35.122  82.160  1.00  0.00     0.000 C 
BRANCH   6   7
ATOM      7  C   UNL     1     -17.263  35.997  83.353  1.00  0.00    -0.003 C 
ATOM      8  C   UNL     1     -16.901  37.469  83.159  1.00  0.00     0.004 C 
ENDBRANCH   6   7
ENDBRANCH   1   6
TORSDOF 4
ENDMDL
MODEL 4
REMARK VINA RESULT:    -3.893      2.416      4.127
REMARK INTER + INTRA:          -4.940
REMARK INTER:                  -4.738
REMARK INTRA:                  -0.202
REMARK UNBOUND:                -0.136
REMARK SMILES CCCCCC(=O)[O-]
REMARK SMILES IDX 4 1 5 2 6 3 7 4 8 5 3 6 2 7 1 8
REMARK H PARENT
REMARK Flexibility Score: inf
ROOT
ATOM      1  C   UNL     1     -17.231  37.206  80.844  1.00  0.00     0.006 C 
ENDROOT
BRANCH   1   2
ATOM      2  C   UNL     1     -18.417  36.436  80.250  1.00  0.00     0.053 C 
BRANCH   2   3
ATOM      3  C   UNL     1     -18.150  34.963  80.196  1.00  0.00     0.041 C 
ATOM      4  O   UNL     1     -17.705  34.437  79.143  1.00  0.00    -0.550 OA
ATOM      5  O   UNL     1     -18.363  34.177  81.321  1.00  0.00    -0.550 OA
ENDBRANCH   2   3
ENDBRANCH   1   2
BRANCH   1   6
ATOM      6  C   UNL     1     -17.333  37.341  82.374  1.00  0.00     0.000 C 
BRANCH   6   7
ATOM      7  C   UNL     1     -16.244  36.549  83.110  1.00  0.00    -0.003 C 
ATOM      8  C   UNL     1     -16.815  35.571  84.137  1.00  0.00     0.004 C 
ENDBRANCH   6   7
ENDBRANCH   1   6
TORSDOF 4
ENDMDL
MODEL 5
REMARK VINA RESULT:    -3.883      2.544      3.847
REMARK INTER + INTRA:          -4.927
REMARK INTER:                  -4.759
REMARK INTRA:                  -0.168
REMARK UNBOUND:                -0.136
REMARK SMILES CCCCCC(=O)[O-]
REMARK SMILES IDX 4 1 5 2 6 3 7 4 8 5 3 6 2 7 1 8
REMARK H PARENT
REMARK Flexibility Score: inf
ROOT
ATOM      1  C   UNL     1     -16.578  35.899  81.872  1.00  0.00     0.006 C 
ENDROOT
BRANCH   1   2
ATOM      2  C   UNL     1     -17.249  36.896  80.919  1.00  0.00     0.053 C 
BRANCH   2   3
ATOM      3  C   UNL     1     -18.280  36.232  80.058  1.00  0.00     0.041 C 
ATOM      4  O   UNL     1     -18.378  34.976  80.041  1.00  0.00    -0.550 OA
ATOM      5  O   UNL     1     -19.153  37.001  79.299  1.00  0.00    -0.550 OA
ENDBRANCH   2   3
ENDBRANCH   1   2
BRANCH   1   6
ATOM      6  C   UNL     1     -17.193  35.939  83.282  1.00  0.00     0.000 C 
BRANCH   6   7
ATOM      7  C   UNL     1     -17.663  37.345  83.680  1.00  0.00    -0.003 C 
ATOM      8  C   UNL     1     -19.123  37.375  84.133  1.00  0.00     0.004 C 
ENDBRANCH   6   7
ENDBRANCH   1   6
TORSDOF 4
ENDMDL
MODEL 6
REMARK VINA RESULT:    -3.780     14.816     15.471
REMARK INTER + INTRA:          -4.800
REMARK INTER:                  -4.659
REMARK INTRA:                  -0.141
REMARK UNBOUND:                -0.136
REMARK SMILES CCCCCC(=O)[O-]
REMARK SMILES IDX 4 1 5 2 6 3 7 4 8 5 3 6 2 7 1 8
REMARK H PARENT
REMARK Flexibility Score: inf
ROOT
ATOM      1  C   UNL     1     -27.405  45.404  90.636  1.00  0.00     0.006 C 
ENDROOT
BRANCH   1   2
ATOM      2  C   UNL     1     -27.087  43.948  91.001  1.00  0.00     0.053 C 
BRANCH   2   3
ATOM      3  C   UNL     1     -28.183  43.019  90.574  1.00  0.00     0.041 C 
ATOM      4  O   UNL     1     -29.101  42.709  91.379  1.00  0.00    -0.550 OA
ATOM      5  O   UNL     1     -28.207  42.521  89.278  1.00  0.00    -0.550 OA
ENDBRANCH   2   3
ENDBRANCH   1   2
BRANCH   1   6
ATOM      6  C   UNL     1     -26.276  46.056  89.817  1.00  0.00     0.000 C 
BRANCH   6   7
ATOM      7  C   UNL     1     -25.851  45.202  88.614  1.00  0.00    -0.003 C 
ATOM      8  C   UNL     1     -25.837  45.990  87.304  1.00  0.00     0.004 C 
ENDBRANCH   6   7
ENDBRANCH   1   6
TORSDOF 4
ENDMDL
MODEL 7
REMARK VINA RESULT:    -3.735      1.969      2.753
REMARK INTER + INTRA:          -4.745
REMARK INTER:                  -4.603
REMARK INTRA:                  -0.142
REMARK UNBOUND:                -0.136
REMARK SMILES CCCCCC(=O)[O-]
REMARK SMILES IDX 4 1 5 2 6 3 7 4 8 5 3 6 2 7 1 8
REMARK H PARENT
REMARK Flexibility Score: inf
ROOT
ATOM      1  C   UNL     1     -16.515  36.613  83.079  1.00  0.00     0.006 C 
ENDROOT
BRANCH   1   2
ATOM      2  C   UNL     1     -17.516  36.264  84.188  1.00  0.00     0.053 C 
BRANCH   2   3
ATOM      3  C   UNL     1     -18.772  37.073  84.076  1.00  0.00     0.041 C 
ATOM      4  O   UNL     1     -19.394  37.131  82.983  1.00  0.00    -0.550 OA
ATOM      5  O   UNL     1     -19.272  37.738  85.188  1.00  0.00    -0.550 OA
ENDBRANCH   2   3
ENDBRANCH   1   2
BRANCH   1   6
ATOM      6  C   UNL     1     -16.420  35.508  82.012  1.00  0.00     0.000 C 
BRANCH   6   7
ATOM      7  C   UNL     1     -17.157  35.875  80.716  1.00  0.00    -0.003 C 
ATOM      8  C   UNL     1     -17.893  34.687  80.097  1.00  0.00     0.004 C 
ENDBRANCH   6   7
ENDBRANCH   1   6
TORSDOF 4
ENDMDL
MODEL 8
REMARK VINA RESULT:    -3.687      1.707      2.494
REMARK INTER + INTRA:          -4.686
REMARK INTER:                  -4.617
REMARK INTRA:                  -0.068
REMARK UNBOUND:                -0.136
REMARK SMILES CCCCCC(=O)[O-]
REMARK SMILES IDX 4 1 5 2 6 3 7 4 8 5 3 6 2 7 1 8
REMARK H PARENT
REMARK Flexibility Score: inf
ROOT
ATOM      1  C   UNL     1     -17.961  37.157  79.417  1.00  0.00     0.006 C 
ENDROOT
BRANCH   1   2
ATOM      2  C   UNL     1     -18.136  35.784  80.077  1.00  0.00     0.053 C 
BRANCH   2   3
ATOM      3  C   UNL     1     -17.458  35.720  81.412  1.00  0.00     0.041 C 
ATOM      4  O   UNL     1     -17.185  34.606  81.932  1.00  0.00    -0.550 OA
ATOM      5  O   UNL     1     -17.098  36.891  82.065  1.00  0.00    -0.550 OA
ENDBRANCH   2   3
ENDBRANCH   1   2
BRANCH   1   6
ATOM      6  C   UNL     1     -19.027  37.424  78.340  1.00  0.00     0.000 C 
BRANCH   6   7
ATOM      7  C   UNL     1     -20.393  37.787  78.940  1.00  0.00    -0.003 C 
ATOM      8  C   UNL     1     -21.359  38.365  77.906  1.00  0.00     0.004 C 
ENDBRANCH   6   7
ENDBRANCH   1   6
TORSDOF 4
ENDMDL
MODEL 9
REMARK VINA RESULT:    -3.628      9.236      9.971
REMARK INTER + INTRA:          -4.612
REMARK INTER:                  -4.399
REMARK INTRA:                  -0.213
REMARK UNBOUND:                -0.136
REMARK SMILES CCCCCC(=O)[O-]
REMARK SMILES IDX 4 1 5 2 6 3 7 4 8 5 3 6 2 7 1 8
REMARK H PARENT
REMARK Flexibility Score: inf
ROOT
ATOM      1  C   UNL     1     -18.109  45.239  83.894  1.00  0.00     0.006 C 
ENDROOT
BRANCH   1   2
ATOM      2  C   UNL     1     -18.091  44.787  85.360  1.00  0.00     0.053 C 
BRANCH   2   3
ATOM      3  C   UNL     1     -19.395  44.172  85.767  1.00  0.00     0.041 C 
ATOM      4  O   UNL     1     -20.381  44.904  86.048  1.00  0.00    -0.550 OA
ATOM      5  O   UNL     1     -19.531  42.791  85.803  1.00  0.00    -0.550 OA
ENDBRANCH   2   3
ENDBRANCH   1   2
BRANCH   1   6
ATOM      6  C   UNL     1     -18.385  46.746  83.754  1.00  0.00     0.000 C 
BRANCH   6   7
ATOM      7  C   UNL     1     -19.408  47.059  82.652  1.00  0.00    -0.003 C 
ATOM      8  C   UNL     1     -20.611  46.116  82.677  1.00  0.00     0.004 C 
ENDBRANCH   6   7
ENDBRANCH   1   6
TORSDOF 4
ENDMDL
