MODEL 1
REMARK VINA RESULT:    -3.214      0.000      0.000
REMARK INTER + INTRA:          -3.873
REMARK INTER:                  -3.777
REMARK INTRA:                  -0.096
REMARK UNBOUND:                -0.096
REMARK SMILES CCCCC(=O)[O-]
REMARK SMILES IDX 4 1 5 2 6 3 7 4 3 5 2 6 1 7
REMARK H PARENT
REMARK Flexibility Score: inf
ROOT
ATOM      1  C   UNL     1      -0.096   7.269  -9.338  1.00  0.00     0.053 C 
ENDROOT
BRANCH   1   2
ATOM      2  C   UNL     1       0.994   6.472  -8.694  1.00  0.00     0.041 C 
ATOM      3  O   UNL     1       2.133   6.409  -9.228  1.00  0.00    -0.550 OA
ATOM      4  O   UNL     1       0.768   5.839  -7.479  1.00  0.00    -0.550 OA
ENDBRANCH   1   2
BRANCH   1   5
ATOM      5  C   UNL     1      -0.614   8.344  -8.374  1.00  0.00     0.006 C 
BRANCH   5   6
ATOM      6  C   UNL     1       0.492   9.312  -7.923  1.00  0.00    -0.003 C 
ATOM      7  C   UNL     1       0.193   9.962  -6.573  1.00  0.00     0.004 C 
ENDBRANCH   5   6
ENDBRANCH   1   5
TORSDOF 3
ENDMDL
MODEL 2
REMARK VINA RESULT:    -2.992     15.393     16.161
REMARK INTER + INTRA:          -3.613
REMARK INTER:                  -3.534
REMARK INTRA:                  -0.079
REMARK UNBOUND:                -0.096
REMARK SMILES CCCCC(=O)[O-]
REMARK SMILES IDX 4 1 5 2 6 3 7 4 3 5 2 6 1 7
REMARK H PARENT
REMARK Flexibility Score: inf
ROOT
ATOM      1  C   UNL     1      -5.242  -6.397  -7.171  1.00  0.00     0.053 C 
ENDROOT
BRANCH   1   2
ATOM      2  C   UNL     1      -4.460  -7.145  -8.205  1.00  0.00     0.041 C 
ATOM      3  O   UNL     1      -3.258  -7.453  -7.990  1.00  0.00    -0.550 OA
ATOM      4  O   UNL     1      -5.073  -7.545  -9.386  1.00  0.00    -0.550 OA
ENDBRANCH   1   2
BRANCH   1   5
ATOM      5  C   UNL     1      -5.769  -7.360  -6.100  1.00  0.00     0.006 C 
BRANCH   5   6
ATOM      6  C   UNL     1      -7.284  -7.219  -5.876  1.00  0.00    -0.003 C 
ATOM      7  C   UNL     1      -7.991  -6.527  -7.042  1.00  0.00     0.004 C 
ENDBRANCH   5   6
ENDBRANCH   1   5
TORSDOF 3
ENDMDL
MODEL 3
REMARK VINA RESULT:    -2.867     15.491     16.232
REMARK INTER + INTRA:          -3.466
REMARK INTER:                  -3.377
REMARK INTRA:                  -0.089
REMARK UNBOUND:                -0.096
REMARK SMILES CCCCC(=O)[O-]
REMARK SMILES IDX 4 1 5 2 6 3 7 4 3 5 2 6 1 7
REMARK H PARENT
REMARK Flexibility Score: inf
ROOT
ATOM      1  C   UNL     1      -5.254  -6.351  -7.119  1.00  0.00     0.053 C 
ENDROOT
BRANCH   1   2
ATOM      2  C   UNL     1      -4.461  -7.266  -7.999  1.00  0.00     0.041 C 
ATOM      3  O   UNL     1      -4.794  -7.433  -9.201  1.00  0.00    -0.550 OA
ATOM      4  O   UNL     1      -3.326  -7.894  -7.505  1.00  0.00    -0.550 OA
ENDBRANCH   1   2
BRANCH   1   5
ATOM      5  C   UNL     1      -5.945  -7.147  -6.005  1.00  0.00     0.006 C 
BRANCH   5   6
ATOM      6  C   UNL     1      -7.368  -7.583  -6.389  1.00  0.00    -0.003 C 
ATOM      7  C   UNL     1      -8.180  -6.455  -7.024  1.00  0.00     0.004 C 
ENDBRANCH   5   6
ENDBRANCH   1   5
TORSDOF 3
ENDMDL
MODEL 4
REMARK VINA RESULT:    -2.861     12.671     13.491
REMARK INTER + INTRA:          -3.458
REMARK INTER:                  -3.424
REMARK INTRA:                  -0.034
REMARK UNBOUND:                -0.096
REMARK SMILES CCCCC(=O)[O-]
REMARK SMILES IDX 4 1 5 2 6 3 7 4 3 5 2 6 1 7
REMARK H PARENT
REMARK Flexibility Score: inf
ROOT
ATOM      1  C   UNL     1       9.932   5.890   1.687  1.00  0.00     0.053 C 
ENDROOT
BRANCH   1   2
ATOM      2  C   UNL     1       9.332   7.241   1.922  1.00  0.00     0.041 C 
ATOM      3  O   UNL     1       8.150   7.345   2.343  1.00  0.00    -0.550 OA
ATOM      4  O   UNL     1      10.095   8.384   1.723  1.00  0.00    -0.550 OA
ENDBRANCH   1   2
BRANCH   1   5
ATOM      5  C   UNL     1      10.123   5.644   0.186  1.00  0.00     0.006 C 
BRANCH   5   6
ATOM      6  C   UNL     1       9.153   4.587  -0.366  1.00  0.00    -0.003 C 
ATOM      7  C   UNL     1       9.873   3.400  -1.005  1.00  0.00     0.004 C 
ENDBRANCH   5   6
ENDBRANCH   1   5
TORSDOF 3
ENDMDL
MODEL 5
REMARK VINA RESULT:    -2.753      1.257      1.813
REMARK INTER + INTRA:          -3.332
REMARK INTER:                  -3.220
REMARK INTRA:                  -0.112
REMARK UNBOUND:                -0.096
REMARK SMILES CCCCC(=O)[O-]
REMARK SMILES IDX 4 1 5 2 6 3 7 4 3 5 2 6 1 7
REMARK H PARENT
REMARK Flexibility Score: inf
ROOT
ATOM      1  C   UNL     1      -0.363   8.042  -8.074  1.00  0.00     0.053 C 
ENDROOT
BRANCH   1   2
ATOM      2  C   UNL     1       0.370   6.771  -8.367  1.00  0.00     0.041 C 
ATOM      3  O   UNL     1       0.682   6.478  -9.551  1.00  0.00    -0.550 OA
ATOM      4  O   UNL     1       0.752   5.933  -7.328  1.00  0.00    -0.550 OA
ENDBRANCH   1   2
BRANCH   1   5
ATOM      5  C   UNL     1       0.628   9.166  -7.744  1.00  0.00     0.006 C 
BRANCH   5   6
ATOM      6  C   UNL     1       0.859  10.114  -8.932  1.00  0.00    -0.003 C 
ATOM      7  C   UNL     1       2.169   9.830  -9.667  1.00  0.00     0.004 C 
ENDBRANCH   5   6
ENDBRANCH   1   5
TORSDOF 3
ENDMDL
MODEL 6
REMARK VINA RESULT:    -2.749     12.204     12.679
REMARK INTER + INTRA:          -3.327
REMARK INTER:                  -3.282
REMARK INTRA:                  -0.045
REMARK UNBOUND:                -0.096
REMARK SMILES CCCCC(=O)[O-]
REMARK SMILES IDX 4 1 5 2 6 3 7 4 3 5 2 6 1 7
REMARK H PARENT
REMARK Flexibility Score: inf
ROOT
ATOM      1  C   UNL     1       8.958   5.280   0.436  1.00  0.00     0.053 C 
ENDROOT
BRANCH   1   2
ATOM      2  C   UNL     1       9.707   4.803  -0.769  1.00  0.00     0.041 C 
ATOM      3  O   UNL     1      10.124   5.628  -1.623  1.00  0.00    -0.550 OA
ATOM      4  O   UNL     1       9.988   3.451  -0.922  1.00  0.00    -0.550 OA
ENDBRANCH   1   2
BRANCH   1   5
ATOM      5  C   UNL     1       9.929   5.846   1.480  1.00  0.00     0.006 C 
BRANCH   5   6
ATOM      6  C   UNL     1       9.616   7.307   1.844  1.00  0.00    -0.003 C 
ATOM      7  C   UNL     1       8.179   7.500   2.326  1.00  0.00     0.004 C 
ENDBRANCH   5   6
ENDBRANCH   1   5
TORSDOF 3
ENDMDL
MODEL 7
REMARK VINA RESULT:    -2.740     15.864     16.551
REMARK INTER + INTRA:          -3.316
REMARK INTER:                  -3.213
REMARK INTRA:                  -0.103
REMARK UNBOUND:                -0.096
REMARK SMILES CCCCC(=O)[O-]
REMARK SMILES IDX 4 1 5 2 6 3 7 4 3 5 2 6 1 7
REMARK H PARENT
REMARK Flexibility Score: inf
ROOT
ATOM      1  C   UNL     1      -6.199  -7.273  -6.484  1.00  0.00     0.053 C 
ENDROOT
BRANCH   1   2
ATOM      2  C   UNL     1      -7.592  -6.938  -6.915  1.00  0.00     0.041 C 
ATOM      3  O   UNL     1      -7.960  -7.158  -8.099  1.00  0.00    -0.550 OA
ATOM      4  O   UNL     1      -8.501  -6.430  -5.995  1.00  0.00    -0.550 OA
ENDBRANCH   1   2
BRANCH   1   5
ATOM      5  C   UNL     1      -5.186  -6.373  -7.203  1.00  0.00     0.006 C 
BRANCH   5   6
ATOM      6  C   UNL     1      -4.131  -7.176  -7.979  1.00  0.00    -0.003 C 
ATOM      7  C   UNL     1      -4.682  -7.785  -9.268  1.00  0.00     0.004 C 
ENDBRANCH   5   6
ENDBRANCH   1   5
TORSDOF 3
ENDMDL
MODEL 8
REMARK VINA RESULT:    -2.704     15.857     16.729
REMARK INTER + INTRA:          -3.275
REMARK INTER:                  -3.181
REMARK INTRA:                  -0.093
REMARK UNBOUND:                -0.096
REMARK SMILES CCCCC(=O)[O-]
REMARK SMILES IDX 4 1 5 2 6 3 7 4 3 5 2 6 1 7
REMARK H PARENT
REMARK Flexibility Score: inf
ROOT
ATOM      1  C   UNL     1      -5.194  -6.476  -7.186  1.00  0.00     0.053 C 
ENDROOT
BRANCH   1   2
ATOM      2  C   UNL     1      -5.805  -7.431  -6.208  1.00  0.00     0.041 C 
ATOM      3  O   UNL     1      -6.887  -7.142  -5.633  1.00  0.00    -0.550 OA
ATOM      4  O   UNL     1      -5.206  -8.661  -5.970  1.00  0.00    -0.550 OA
ENDBRANCH   1   2
BRANCH   1   5
ATOM      5  C   UNL     1      -4.073  -7.164  -7.976  1.00  0.00     0.006 C 
BRANCH   5   6
ATOM      6  C   UNL     1      -4.574  -7.782  -9.291  1.00  0.00    -0.003 C 
ATOM      7  C   UNL     1      -4.115  -9.228  -9.477  1.00  0.00     0.004 C 
ENDBRANCH   5   6
ENDBRANCH   1   5
TORSDOF 3
ENDMDL
MODEL 9
REMARK VINA RESULT:    -2.623      2.871      4.042
REMARK INTER + INTRA:          -3.179
REMARK INTER:                  -3.158
REMARK INTRA:                  -0.020
REMARK UNBOUND:                -0.096
REMARK SMILES CCCCC(=O)[O-]
REMARK SMILES IDX 4 1 5 2 6 3 7 4 3 5 2 6 1 7
REMARK H PARENT
REMARK Flexibility Score: inf
ROOT
ATOM      1  C   UNL     1      -0.372   8.278  -7.469  1.00  0.00     0.053 C 
ENDROOT
BRANCH   1   2
ATOM      2  C   UNL     1      -1.450   9.303  -7.630  1.00  0.00     0.041 C 
ATOM      3  O   UNL     1      -1.816   9.998  -6.645  1.00  0.00    -0.550 OA
ATOM      4  O   UNL     1      -2.017   9.527  -8.878  1.00  0.00    -0.550 OA
ENDBRANCH   1   2
BRANCH   1   5
ATOM      5  C   UNL     1      -0.110   7.564  -8.802  1.00  0.00     0.006 C 
BRANCH   5   6
ATOM      6  C   UNL     1       0.764   6.311  -8.636  1.00  0.00    -0.003 C 
ATOM      7  C   UNL     1       1.968   6.303  -9.578  1.00  0.00     0.004 C 
ENDBRANCH   5   6
ENDBRANCH   1   5
TORSDOF 3
ENDMDL
