MODEL 1
REMARK VINA RESULT:    -3.229      0.000      0.000
REMARK INTER + INTRA:          -4.106
REMARK INTER:                  -3.984
REMARK INTRA:                  -0.122
REMARK UNBOUND:                -0.122
REMARK SMILES CCCCCC=O
REMARK SMILES IDX 4 1 3 2 2 3 1 4 5 5 6 6 7 7
REMARK H PARENT
REMARK Flexibility Score: inf
ROOT
ATOM      1  C   UNL     1      11.537  -0.743  19.508  1.00  0.00     0.008 C 
ENDROOT
BRANCH   1   2
ATOM      2  C   UNL     1      12.897  -1.462  19.523  1.00  0.00     0.000 C 
BRANCH   2   3
ATOM      3  C   UNL     1      13.578  -1.465  18.146  1.00  0.00    -0.003 C 
ATOM      4  C   UNL     1      12.746  -0.764  17.072  1.00  0.00     0.004 C 
ENDBRANCH   2   3
ENDBRANCH   1   2
BRANCH   1   5
ATOM      5  C   UNL     1      10.562  -1.329  20.538  1.00  0.00     0.072 C 
BRANCH   5   6
ATOM      6  C   UNL     1      10.907  -2.745  20.899  1.00  0.00     0.224 C 
ATOM      7  O   UNL     1      10.219  -3.366  21.694  1.00  0.00    -0.303 OA
ENDBRANCH   5   6
ENDBRANCH   1   5
TORSDOF 4
ENDMDL
MODEL 2
REMARK VINA RESULT:    -3.210      2.473      2.997
REMARK INTER + INTRA:          -4.083
REMARK INTER:                  -4.018
REMARK INTRA:                  -0.065
REMARK UNBOUND:                -0.122
REMARK SMILES CCCCCC=O
REMARK SMILES IDX 4 1 3 2 2 3 1 4 5 5 6 6 7 7
REMARK H PARENT
REMARK Flexibility Score: inf
ROOT
ATOM      1  C   UNL     1      10.269  -1.083  20.616  1.00  0.00     0.008 C 
ENDROOT
BRANCH   1   2
ATOM      2  C   UNL     1      11.444  -2.018  20.280  1.00  0.00     0.000 C 
BRANCH   2   3
ATOM      3  C   UNL     1      12.739  -1.251  19.977  1.00  0.00    -0.003 C 
ATOM      4  C   UNL     1      13.227  -1.456  18.542  1.00  0.00     0.004 C 
ENDBRANCH   2   3
ENDBRANCH   1   2
BRANCH   1   5
ATOM      5  C   UNL     1       9.989  -0.079  19.489  1.00  0.00     0.072 C 
BRANCH   5   6
ATOM      6  C   UNL     1       8.524   0.218  19.349  1.00  0.00     0.224 C 
ATOM      7  O   UNL     1       8.009   0.284  18.244  1.00  0.00    -0.303 OA
ENDBRANCH   5   6
ENDBRANCH   1   5
TORSDOF 4
ENDMDL
MODEL 3
REMARK VINA RESULT:    -3.126      1.863      2.825
REMARK INTER + INTRA:          -3.978
REMARK INTER:                  -3.902
REMARK INTRA:                  -0.077
REMARK UNBOUND:                -0.122
REMARK SMILES CCCCCC=O
REMARK SMILES IDX 4 1 3 2 2 3 1 4 5 5 6 6 7 7
REMARK H PARENT
REMARK Flexibility Score: inf
ROOT
ATOM      1  C   UNL     1      12.649  -2.136  20.203  1.00  0.00     0.008 C 
ENDROOT
BRANCH   1   2
ATOM      2  C   UNL     1      11.859  -1.093  19.392  1.00  0.00     0.000 C 
BRANCH   2   3
ATOM      3  C   UNL     1      10.843  -0.326  20.251  1.00  0.00    -0.003 C 
ATOM      4  C   UNL     1       9.570   0.033  19.484  1.00  0.00     0.004 C 
ENDBRANCH   2   3
ENDBRANCH   1   2
BRANCH   1   5
ATOM      5  C   UNL     1      11.763  -3.303  20.661  1.00  0.00     0.072 C 
BRANCH   5   6
ATOM      6  C   UNL     1      12.330  -4.633  20.258  1.00  0.00     0.224 C 
ATOM      7  O   UNL     1      11.595  -5.529  19.876  1.00  0.00    -0.303 OA
ENDBRANCH   5   6
ENDBRANCH   1   5
TORSDOF 4
ENDMDL
MODEL 4
REMARK VINA RESULT:    -3.118      1.870      2.254
REMARK INTER + INTRA:          -3.969
REMARK INTER:                  -3.889
REMARK INTRA:                  -0.080
REMARK UNBOUND:                -0.122
REMARK SMILES CCCCCC=O
REMARK SMILES IDX 4 1 3 2 2 3 1 4 5 5 6 6 7 7
REMARK H PARENT
REMARK Flexibility Score: inf
ROOT
ATOM      1  C   UNL     1      12.835  -1.595  19.489  1.00  0.00     0.008 C 
ENDROOT
BRANCH   1   2
ATOM      2  C   UNL     1      12.755  -1.036  18.058  1.00  0.00     0.000 C 
BRANCH   2   3
ATOM      3  C   UNL     1      14.110  -1.069  17.336  1.00  0.00    -0.003 C 
ATOM      4  C   UNL     1      14.421  -2.433  16.719  1.00  0.00     0.004 C 
ENDBRANCH   2   3
ENDBRANCH   1   2
BRANCH   1   5
ATOM      5  C   UNL     1      11.459  -1.647  20.168  1.00  0.00     0.072 C 
BRANCH   5   6
ATOM      6  C   UNL     1      10.838  -0.285  20.287  1.00  0.00     0.224 C 
ATOM      7  O   UNL     1      11.261   0.519  21.102  1.00  0.00    -0.303 OA
ENDBRANCH   5   6
ENDBRANCH   1   5
TORSDOF 4
ENDMDL
MODEL 5
REMARK VINA RESULT:    -3.098      2.506      3.491
REMARK INTER + INTRA:          -3.945
REMARK INTER:                  -3.835
REMARK INTRA:                  -0.109
REMARK UNBOUND:                -0.122
REMARK SMILES CCCCCC=O
REMARK SMILES IDX 4 1 3 2 2 3 1 4 5 5 6 6 7 7
REMARK H PARENT
REMARK Flexibility Score: inf
ROOT
ATOM      1  C   UNL     1      10.248  -1.943  21.126  1.00  0.00     0.008 C 
ENDROOT
BRANCH   1   2
ATOM      2  C   UNL     1      10.821  -3.349  21.377  1.00  0.00     0.000 C 
BRANCH   2   3
ATOM      3  C   UNL     1      12.139  -3.591  20.626  1.00  0.00    -0.003 C 
ATOM      4  C   UNL     1      12.338  -5.056  20.235  1.00  0.00     0.004 C 
ENDBRANCH   2   3
ENDBRANCH   1   2
BRANCH   1   5
ATOM      5  C   UNL     1      11.175  -1.089  20.250  1.00  0.00     0.072 C 
BRANCH   5   6
ATOM      6  C   UNL     1      10.407  -0.183  19.331  1.00  0.00     0.224 C 
ATOM      7  O   UNL     1       9.212   0.001  19.501  1.00  0.00    -0.303 OA
ENDBRANCH   5   6
ENDBRANCH   1   5
TORSDOF 4
ENDMDL
MODEL 6
REMARK VINA RESULT:    -3.012      2.889      4.272
REMARK INTER + INTRA:          -3.838
REMARK INTER:                  -3.770
REMARK INTRA:                  -0.068
REMARK UNBOUND:                -0.122
REMARK SMILES CCCCCC=O
REMARK SMILES IDX 4 1 3 2 2 3 1 4 5 5 6 6 7 7
REMARK H PARENT
REMARK Flexibility Score: inf
ROOT
ATOM      1  C   UNL     1      12.204  -0.922  18.710  1.00  0.00     0.008 C 
ENDROOT
BRANCH   1   2
ATOM      2  C   UNL     1      11.843  -1.378  20.135  1.00  0.00     0.000 C 
BRANCH   2   3
ATOM      3  C   UNL     1      10.403  -1.012  20.524  1.00  0.00    -0.003 C 
ATOM      4  C   UNL     1       9.744  -0.058  19.528  1.00  0.00     0.004 C 
ENDBRANCH   2   3
ENDBRANCH   1   2
BRANCH   1   5
ATOM      5  C   UNL     1      13.557  -1.482  18.250  1.00  0.00     0.072 C 
BRANCH   5   6
ATOM      6  C   UNL     1      13.911  -1.031  16.862  1.00  0.00     0.224 C 
ATOM      7  O   UNL     1      14.319  -1.833  16.036  1.00  0.00    -0.303 OA
ENDBRANCH   5   6
ENDBRANCH   1   5
TORSDOF 4
ENDMDL
MODEL 7
REMARK VINA RESULT:    -2.824      2.689      4.382
REMARK INTER + INTRA:          -3.606
REMARK INTER:                  -3.558
REMARK INTRA:                  -0.048
REMARK UNBOUND:                -0.122
REMARK SMILES CCCCCC=O
REMARK SMILES IDX 4 1 3 2 2 3 1 4 5 5 6 6 7 7
REMARK H PARENT
REMARK Flexibility Score: inf
ROOT
ATOM      1  C   UNL     1      13.222  -1.343  18.495  1.00  0.00     0.008 C 
ENDROOT
BRANCH   1   2
ATOM      2  C   UNL     1      11.805  -0.823  18.795  1.00  0.00     0.000 C 
BRANCH   2   3
ATOM      3  C   UNL     1      11.443  -0.924  20.284  1.00  0.00    -0.003 C 
ATOM      4  C   UNL     1      11.049  -2.341  20.703  1.00  0.00     0.004 C 
ENDBRANCH   2   3
ENDBRANCH   1   2
BRANCH   1   5
ATOM      5  C   UNL     1      13.690  -0.962  17.083  1.00  0.00     0.072 C 
BRANCH   5   6
ATOM      6  C   UNL     1      14.770  -1.875  16.582  1.00  0.00     0.224 C 
ATOM      7  O   UNL     1      14.773  -3.057  16.888  1.00  0.00    -0.303 OA
ENDBRANCH   5   6
ENDBRANCH   1   5
TORSDOF 4
ENDMDL
MODEL 8
REMARK VINA RESULT:    -2.806      3.148      4.030
REMARK INTER + INTRA:          -3.584
REMARK INTER:                  -3.513
REMARK INTRA:                  -0.071
REMARK UNBOUND:                -0.122
REMARK SMILES CCCCCC=O
REMARK SMILES IDX 4 1 3 2 2 3 1 4 5 5 6 6 7 7
REMARK H PARENT
REMARK Flexibility Score: inf
ROOT
ATOM      1  C   UNL     1       9.647  -0.008  18.859  1.00  0.00     0.008 C 
ENDROOT
BRANCH   1   2
ATOM      2  C   UNL     1       8.211   0.502  19.069  1.00  0.00     0.000 C 
BRANCH   2   3
ATOM      3  C   UNL     1       7.290   0.176  17.884  1.00  0.00    -0.003 C 
ATOM      4  C   UNL     1       8.054  -0.002  16.571  1.00  0.00     0.004 C 
ENDBRANCH   2   3
ENDBRANCH   1   2
BRANCH   1   5
ATOM      5  C   UNL     1      10.214  -0.674  20.121  1.00  0.00     0.072 C 
BRANCH   5   6
ATOM      6  C   UNL     1      11.701  -0.500  20.232  1.00  0.00     0.224 C 
ATOM      7  O   UNL     1      12.447  -1.456  20.099  1.00  0.00    -0.303 OA
ENDBRANCH   5   6
ENDBRANCH   1   5
TORSDOF 4
ENDMDL
MODEL 9
REMARK VINA RESULT:    -2.759      2.538      4.269
REMARK INTER + INTRA:          -3.526
REMARK INTER:                  -3.485
REMARK INTRA:                  -0.041
REMARK UNBOUND:                -0.122
REMARK SMILES CCCCCC=O
REMARK SMILES IDX 4 1 3 2 2 3 1 4 5 5 6 6 7 7
REMARK H PARENT
REMARK Flexibility Score: inf
ROOT
ATOM      1  C   UNL     1      12.907  -1.523  19.401  1.00  0.00     0.008 C 
ENDROOT
BRANCH   1   2
ATOM      2  C   UNL     1      11.612  -1.796  20.186  1.00  0.00     0.000 C 
BRANCH   2   3
ATOM      3  C   UNL     1      11.560  -3.220  20.760  1.00  0.00    -0.003 C 
ATOM      4  C   UNL     1      10.328  -3.462  21.633  1.00  0.00     0.004 C 
ENDBRANCH   2   3
ENDBRANCH   1   2
BRANCH   1   5
ATOM      5  C   UNL     1      12.630  -0.870  18.039  1.00  0.00     0.072 C 
BRANCH   5   6
ATOM      6  C   UNL     1      13.690  -1.201  17.029  1.00  0.00     0.224 C 
ATOM      7  O   UNL     1      14.351  -2.221  17.138  1.00  0.00    -0.303 OA
ENDBRANCH   5   6
ENDBRANCH   1   5
TORSDOF 4
ENDMDL
