MODEL 1
REMARK VINA RESULT:    -4.361      0.000      0.000
REMARK INTER + INTRA:          -9.784
REMARK INTER:                  -7.675
REMARK INTRA:                  -2.109
REMARK UNBOUND:                -2.109
REMARK SMILES CCCCCCC=CCCCCCCCC(=O)[O-]
REMARK SMILES IDX 10 1 11 2 12 3 13 4 14 5 15 6 16 7 17 8 18 9 9 10 8 11 7 12
REMARK SMILES IDX 6 13 5 14 4 15 3 16 2 17 1 18
REMARK H PARENT
REMARK Flexibility Score: inf
ROOT
ATOM      1  C   UNL     1      30.660  10.487 -12.747  1.00  0.00     0.004 C 
ENDROOT
BRANCH   1   2
ATOM      2  C   UNL     1      31.052  11.543 -11.698  1.00  0.00     0.000 C 
BRANCH   2   3
ATOM      3  C   UNL     1      29.876  12.151 -10.912  1.00  0.00     0.000 C 
BRANCH   3   4
ATOM      4  C   UNL     1      28.683  11.189 -10.782  1.00  0.00     0.000 C 
BRANCH   4   5
ATOM      5  C   UNL     1      27.325  11.909 -10.877  1.00  0.00     0.006 C 
BRANCH   5   6
ATOM      6  C   UNL     1      27.410  13.363 -11.370  1.00  0.00     0.053 C 
BRANCH   6   7
ATOM      7  C   UNL     1      26.092  14.066 -11.274  1.00  0.00     0.041 C 
ATOM      8  O   UNL     1      25.535  14.219 -10.154  1.00  0.00    -0.550 OA
ATOM      9  O   UNL     1      25.463  14.526 -12.424  1.00  0.00    -0.550 OA
ENDBRANCH   6   7
ENDBRANCH   5   6
ENDBRANCH   4   5
ENDBRANCH   3   4
ENDBRANCH   2   3
ENDBRANCH   1   2
BRANCH   1  10
ATOM     10  C   UNL     1      30.602  11.053 -14.173  1.00  0.00     0.027 C 
BRANCH  10  11
ATOM     11  C   UNL     1      29.174  11.293 -14.593  1.00  0.00    -0.031 C 
ATOM     12  C   UNL     1      28.653  12.504 -14.868  1.00  0.00    -0.031 C 
BRANCH  12  13
ATOM     13  C   UNL     1      29.391  13.812 -14.709  1.00  0.00     0.027 C 
BRANCH  13  14
ATOM     14  C   UNL     1      30.179  14.181 -15.975  1.00  0.00     0.004 C 
BRANCH  14  15
ATOM     15  C   UNL     1      29.261  14.402 -17.186  1.00  0.00     0.000 C 
BRANCH  15  16
ATOM     16  C   UNL     1      29.543  13.365 -18.285  1.00  0.00    -0.000 C 
BRANCH  16  17
ATOM     17  C   UNL     1      30.818  12.552 -18.017  1.00  0.00    -0.003 C 
ATOM     18  C   UNL     1      30.729  11.122 -18.545  1.00  0.00     0.004 C 
ENDBRANCH  16  17
ENDBRANCH  15  16
ENDBRANCH  14  15
ENDBRANCH  13  14
ENDBRANCH  12  13
ENDBRANCH  10  11
ENDBRANCH   1  10
TORSDOF 13
ENDMDL
MODEL 2
REMARK VINA RESULT:    -4.065      1.279      3.045
REMARK INTER + INTRA:          -9.263
REMARK INTER:                  -7.377
REMARK INTRA:                  -1.886
REMARK UNBOUND:                -2.109
REMARK SMILES CCCCCCC=CCCCCCCCC(=O)[O-]
REMARK SMILES IDX 10 1 11 2 12 3 13 4 14 5 15 6 16 7 17 8 18 9 9 10 8 11 7 12
REMARK SMILES IDX 6 13 5 14 4 15 3 16 2 17 1 18
REMARK H PARENT
REMARK Flexibility Score: inf
ROOT
ATOM      1  C   UNL     1      29.329  10.475 -15.500  1.00  0.00     0.004 C 
ENDROOT
BRANCH   1   2
ATOM      2  C   UNL     1      29.141  11.867 -14.870  1.00  0.00     0.000 C 
BRANCH   2   3
ATOM      3  C   UNL     1      29.843  12.072 -13.516  1.00  0.00     0.000 C 
BRANCH   3   4
ATOM      4  C   UNL     1      28.888  11.919 -12.319  1.00  0.00     0.000 C 
BRANCH   4   5
ATOM      5  C   UNL     1      28.428  13.273 -11.748  1.00  0.00     0.006 C 
BRANCH   5   6
ATOM      6  C   UNL     1      27.360  13.988 -12.591  1.00  0.00     0.053 C 
BRANCH   6   7
ATOM      7  C   UNL     1      26.093  14.207 -11.823  1.00  0.00     0.041 C 
ATOM      8  O   UNL     1      25.126  14.814 -12.355  1.00  0.00    -0.550 OA
ATOM      9  O   UNL     1      25.991  13.766 -10.510  1.00  0.00    -0.550 OA
ENDBRANCH   6   7
ENDBRANCH   5   6
ENDBRANCH   4   5
ENDBRANCH   3   4
ENDBRANCH   2   3
ENDBRANCH   1   2
BRANCH   1  10
ATOM     10  C   UNL     1      30.687  10.312 -16.197  1.00  0.00     0.027 C 
BRANCH  10  11
ATOM     11  C   UNL     1      30.505  10.130 -17.683  1.00  0.00    -0.031 C 
ATOM     12  C   UNL     1      30.599  11.121 -18.590  1.00  0.00    -0.031 C 
BRANCH  12  13
ATOM     13  C   UNL     1      30.808  12.577 -18.252  1.00  0.00     0.027 C 
BRANCH  13  14
ATOM     14  C   UNL     1      29.482  13.351 -18.205  1.00  0.00     0.004 C 
BRANCH  14  15
ATOM     15  C   UNL     1      29.557  14.573 -17.278  1.00  0.00     0.000 C 
BRANCH  15  16
ATOM     16  C   UNL     1      30.965  14.730 -16.687  1.00  0.00    -0.000 C 
BRANCH  16  17
ATOM     17  C   UNL     1      30.943  15.181 -15.218  1.00  0.00    -0.003 C 
ATOM     18  C   UNL     1      29.640  15.878 -14.833  1.00  0.00     0.004 C 
ENDBRANCH  16  17
ENDBRANCH  15  16
ENDBRANCH  14  15
ENDBRANCH  13  14
ENDBRANCH  12  13
ENDBRANCH  10  11
ENDBRANCH   1  10
TORSDOF 13
ENDMDL
MODEL 3
REMARK VINA RESULT:    -4.004      1.249      2.395
REMARK INTER + INTRA:          -9.155
REMARK INTER:                  -7.163
REMARK INTRA:                  -1.992
REMARK UNBOUND:                -2.109
REMARK SMILES CCCCCCC=CCCCCCCCC(=O)[O-]
REMARK SMILES IDX 10 1 11 2 12 3 13 4 14 5 15 6 16 7 17 8 18 9 9 10 8 11 7 12
REMARK SMILES IDX 6 13 5 14 4 15 3 16 2 17 1 18
REMARK H PARENT
REMARK Flexibility Score: inf
ROOT
ATOM      1  C   UNL     1      30.922  12.909 -14.367  1.00  0.00     0.004 C 
ENDROOT
BRANCH   1   2
ATOM      2  C   UNL     1      30.668  11.436 -14.003  1.00  0.00     0.000 C 
BRANCH   2   3
ATOM      3  C   UNL     1      30.583  11.140 -12.494  1.00  0.00     0.000 C 
BRANCH   3   4
ATOM      4  C   UNL     1      29.257  10.470 -12.091  1.00  0.00     0.000 C 
BRANCH   4   5
ATOM      5  C   UNL     1      28.426  11.332 -11.123  1.00  0.00     0.006 C 
BRANCH   5   6
ATOM      6  C   UNL     1      28.487  12.842 -11.405  1.00  0.00     0.053 C 
BRANCH   6   7
ATOM      7  C   UNL     1      27.121  13.444 -11.537  1.00  0.00     0.041 C 
ATOM      8  O   UNL     1      26.861  14.224 -12.491  1.00  0.00    -0.550 OA
ATOM      9  O   UNL     1      26.145  13.167 -10.589  1.00  0.00    -0.550 OA
ENDBRANCH   6   7
ENDBRANCH   5   6
ENDBRANCH   4   5
ENDBRANCH   3   4
ENDBRANCH   2   3
ENDBRANCH   1   2
BRANCH   1  10
ATOM     10  C   UNL     1      29.627  13.693 -14.627  1.00  0.00     0.027 C 
BRANCH  10  11
ATOM     11  C   UNL     1      28.588  12.808 -15.266  1.00  0.00    -0.031 C 
ATOM     12  C   UNL     1      28.297  12.798 -16.580  1.00  0.00    -0.031 C 
BRANCH  12  13
ATOM     13  C   UNL     1      28.901  13.734 -17.599  1.00  0.00     0.027 C 
BRANCH  13  14
ATOM     14  C   UNL     1      29.697  12.976 -18.672  1.00  0.00     0.004 C 
BRANCH  14  15
ATOM     15  C   UNL     1      30.894  12.218 -18.078  1.00  0.00     0.000 C 
BRANCH  15  16
ATOM     16  C   UNL     1      30.877  10.742 -18.503  1.00  0.00    -0.000 C 
BRANCH  16  17
ATOM     17  C   UNL     1      30.399   9.809 -17.380  1.00  0.00    -0.003 C 
ATOM     18  C   UNL     1      30.000   8.426 -17.890  1.00  0.00     0.004 C 
ENDBRANCH  16  17
ENDBRANCH  15  16
ENDBRANCH  14  15
ENDBRANCH  13  14
ENDBRANCH  12  13
ENDBRANCH  10  11
ENDBRANCH   1  10
TORSDOF 13
ENDMDL
MODEL 4
REMARK VINA RESULT:    -3.990      1.235      4.647
REMARK INTER + INTRA:          -9.132
REMARK INTER:                  -6.897
REMARK INTRA:                  -2.236
REMARK UNBOUND:                -2.109
REMARK SMILES CCCCCCC=CCCCCCCCC(=O)[O-]
REMARK SMILES IDX 10 1 11 2 12 3 13 4 14 5 15 6 16 7 17 8 18 9 9 10 8 11 7 12
REMARK SMILES IDX 6 13 5 14 4 15 3 16 2 17 1 18
REMARK H PARENT
REMARK Flexibility Score: inf
ROOT
ATOM      1  C   UNL     1      29.247  13.207 -17.958  1.00  0.00     0.004 C 
ENDROOT
BRANCH   1   2
ATOM      2  C   UNL     1      28.720  13.408 -16.526  1.00  0.00     0.000 C 
BRANCH   2   3
ATOM      3  C   UNL     1      29.625  14.249 -15.608  1.00  0.00     0.000 C 
BRANCH   3   4
ATOM      4  C   UNL     1      29.675  13.714 -14.165  1.00  0.00     0.000 C 
BRANCH   4   5
ATOM      5  C   UNL     1      28.277  13.408 -13.597  1.00  0.00     0.006 C 
BRANCH   5   6
ATOM      6  C   UNL     1      28.155  13.595 -12.075  1.00  0.00     0.053 C 
BRANCH   6   7
ATOM      7  C   UNL     1      26.786  13.248 -11.576  1.00  0.00     0.041 C 
ATOM      8  O   UNL     1      25.780  13.884 -11.989  1.00  0.00    -0.550 OA
ATOM      9  O   UNL     1      26.625  12.243 -10.631  1.00  0.00    -0.550 OA
ENDBRANCH   6   7
ENDBRANCH   5   6
ENDBRANCH   4   5
ENDBRANCH   3   4
ENDBRANCH   2   3
ENDBRANCH   1   2
BRANCH   1  10
ATOM     10  C   UNL     1      30.727  12.799 -17.999  1.00  0.00     0.027 C 
BRANCH  10  11
ATOM     11  C   UNL     1      30.872  11.367 -18.448  1.00  0.00    -0.031 C 
ATOM     12  C   UNL     1      30.914  10.308 -17.618  1.00  0.00    -0.031 C 
BRANCH  12  13
ATOM     13  C   UNL     1      30.913  10.397 -16.111  1.00  0.00     0.027 C 
BRANCH  13  14
ATOM     14  C   UNL     1      29.625   9.821 -15.504  1.00  0.00     0.004 C 
BRANCH  14  15
ATOM     15  C   UNL     1      29.568  10.005 -13.981  1.00  0.00     0.000 C 
BRANCH  15  16
ATOM     16  C   UNL     1      30.953  10.356 -13.418  1.00  0.00    -0.000 C 
BRANCH  16  17
ATOM     17  C   UNL     1      30.905  10.760 -11.936  1.00  0.00    -0.003 C 
ATOM     18  C   UNL     1      29.629  10.292 -11.238  1.00  0.00     0.004 C 
ENDBRANCH  16  17
ENDBRANCH  15  16
ENDBRANCH  14  15
ENDBRANCH  13  14
ENDBRANCH  12  13
ENDBRANCH  10  11
ENDBRANCH   1  10
TORSDOF 13
ENDMDL
MODEL 5
REMARK VINA RESULT:    -3.978      2.990      6.101
REMARK INTER + INTRA:          -9.109
REMARK INTER:                  -7.176
REMARK INTRA:                  -1.933
REMARK UNBOUND:                -2.109
REMARK SMILES CCCCCCC=CCCCCCCCC(=O)[O-]
REMARK SMILES IDX 10 1 11 2 12 3 13 4 14 5 15 6 16 7 17 8 18 9 9 10 8 11 7 12
REMARK SMILES IDX 6 13 5 14 4 15 3 16 2 17 1 18
REMARK H PARENT
REMARK Flexibility Score: inf
ROOT
ATOM      1  C   UNL     1      27.020  13.927 -12.700  1.00  0.00     0.004 C 
ENDROOT
BRANCH   1   2
ATOM      2  C   UNL     1      28.296  14.693 -13.091  1.00  0.00     0.000 C 
BRANCH   2   3
ATOM      3  C   UNL     1      29.221  13.962 -14.081  1.00  0.00     0.000 C 
BRANCH   3   4
ATOM      4  C   UNL     1      28.845  12.480 -14.266  1.00  0.00     0.000 C 
BRANCH   4   5
ATOM      5  C   UNL     1      28.758  12.070 -15.748  1.00  0.00     0.006 C 
BRANCH   5   6
ATOM      6  C   UNL     1      30.119  11.938 -16.452  1.00  0.00     0.053 C 
BRANCH   6   7
ATOM      7  C   UNL     1      30.068  12.429 -17.866  1.00  0.00     0.041 C 
ATOM      8  O   UNL     1      30.457  11.689 -18.808  1.00  0.00    -0.550 OA
ATOM      9  O   UNL     1      29.621  13.715 -18.140  1.00  0.00    -0.550 OA
ENDBRANCH   6   7
ENDBRANCH   5   6
ENDBRANCH   4   5
ENDBRANCH   3   4
ENDBRANCH   2   3
ENDBRANCH   1   2
BRANCH   1  10
ATOM     10  C   UNL     1      26.922  13.660 -11.191  1.00  0.00     0.027 C 
BRANCH  10  11
ATOM     11  C   UNL     1      26.929  12.179 -10.909  1.00  0.00    -0.031 C 
ATOM     12  C   UNL     1      28.038  11.449 -10.687  1.00  0.00    -0.031 C 
BRANCH  12  13
ATOM     13  C   UNL     1      29.448  11.982 -10.775  1.00  0.00     0.027 C 
BRANCH  13  14
ATOM     14  C   UNL     1      30.481  10.852 -10.888  1.00  0.00     0.004 C 
BRANCH  14  15
ATOM     15  C   UNL     1      29.843   9.464 -10.727  1.00  0.00     0.000 C 
BRANCH  15  16
ATOM     16  C   UNL     1      30.110   8.590 -11.961  1.00  0.00    -0.000 C 
BRANCH  16  17
ATOM     17  C   UNL     1      29.055   8.783 -13.061  1.00  0.00    -0.003 C 
ATOM     18  C   UNL     1      29.637   8.658 -14.467  1.00  0.00     0.004 C 
ENDBRANCH  16  17
ENDBRANCH  15  16
ENDBRANCH  14  15
ENDBRANCH  13  14
ENDBRANCH  12  13
ENDBRANCH  10  11
ENDBRANCH   1  10
TORSDOF 13
ENDMDL
MODEL 6
REMARK VINA RESULT:    -3.969      1.117      2.473
REMARK INTER + INTRA:          -9.094
REMARK INTER:                  -7.388
REMARK INTRA:                  -1.706
REMARK UNBOUND:                -2.109
REMARK SMILES CCCCCCC=CCCCCCCCC(=O)[O-]
REMARK SMILES IDX 10 1 11 2 12 3 13 4 14 5 15 6 16 7 17 8 18 9 9 10 8 11 7 12
REMARK SMILES IDX 6 13 5 14 4 15 3 16 2 17 1 18
REMARK H PARENT
REMARK Flexibility Score: inf
ROOT
ATOM      1  C   UNL     1      30.744  11.442 -14.005  1.00  0.00     0.004 C 
ENDROOT
BRANCH   1   2
ATOM      2  C   UNL     1      30.613  11.132 -12.503  1.00  0.00     0.000 C 
BRANCH   2   3
ATOM      3  C   UNL     1      29.288  10.470 -12.085  1.00  0.00     0.000 C 
BRANCH   3   4
ATOM      4  C   UNL     1      28.521  11.283 -11.028  1.00  0.00     0.000 C 
BRANCH   4   5
ATOM      5  C   UNL     1      28.122  12.684 -11.529  1.00  0.00     0.006 C 
BRANCH   5   6
ATOM      6  C   UNL     1      26.674  13.087 -11.204  1.00  0.00     0.053 C 
BRANCH   6   7
ATOM      7  C   UNL     1      26.374  14.491 -11.628  1.00  0.00     0.041 C 
ATOM      8  O   UNL     1      25.269  14.770 -12.163  1.00  0.00    -0.550 OA
ATOM      9  O   UNL     1      27.328  15.487 -11.461  1.00  0.00    -0.550 OA
ENDBRANCH   6   7
ENDBRANCH   5   6
ENDBRANCH   4   5
ENDBRANCH   3   4
ENDBRANCH   2   3
ENDBRANCH   1   2
BRANCH   1  10
ATOM     10  C   UNL     1      29.407  11.348 -14.754  1.00  0.00     0.027 C 
BRANCH  10  11
ATOM     11  C   UNL     1      29.552  10.516 -16.002  1.00  0.00    -0.031 C 
ATOM     12  C   UNL     1      30.042  10.971 -17.170  1.00  0.00    -0.031 C 
BRANCH  12  13
ATOM     13  C   UNL     1      30.434  12.405 -17.436  1.00  0.00     0.027 C 
BRANCH  13  14
ATOM     14  C   UNL     1      29.218  13.276 -17.786  1.00  0.00     0.004 C 
BRANCH  14  15
ATOM     15  C   UNL     1      29.467  14.763 -17.495  1.00  0.00     0.000 C 
BRANCH  15  16
ATOM     16  C   UNL     1      30.632  14.943 -16.511  1.00  0.00    -0.000 C 
BRANCH  16  17
ATOM     17  C   UNL     1      30.233  15.748 -15.264  1.00  0.00    -0.003 C 
ATOM     18  C   UNL     1      29.361  14.949 -14.298  1.00  0.00     0.004 C 
ENDBRANCH  16  17
ENDBRANCH  15  16
ENDBRANCH  14  15
ENDBRANCH  13  14
ENDBRANCH  12  13
ENDBRANCH  10  11
ENDBRANCH   1  10
TORSDOF 13
ENDMDL
MODEL 7
REMARK VINA RESULT:    -3.962      2.315      5.284
REMARK INTER + INTRA:          -9.081
REMARK INTER:                  -7.216
REMARK INTRA:                  -1.866
REMARK UNBOUND:                -2.109
REMARK SMILES CCCCCCC=CCCCCCCCC(=O)[O-]
REMARK SMILES IDX 10 1 11 2 12 3 13 4 14 5 15 6 16 7 17 8 18 9 9 10 8 11 7 12
REMARK SMILES IDX 6 13 5 14 4 15 3 16 2 17 1 18
REMARK H PARENT
REMARK Flexibility Score: inf
ROOT
ATOM      1  C   UNL     1      28.873  13.142 -17.158  1.00  0.00     0.004 C 
ENDROOT
BRANCH   1   2
ATOM      2  C   UNL     1      29.828  11.947 -16.985  1.00  0.00     0.000 C 
BRANCH   2   3
ATOM      3  C   UNL     1      29.441  10.957 -15.872  1.00  0.00     0.000 C 
BRANCH   3   4
ATOM      4  C   UNL     1      29.218  11.642 -14.512  1.00  0.00     0.000 C 
BRANCH   4   5
ATOM      5  C   UNL     1      30.519  11.792 -13.702  1.00  0.00     0.006 C 
BRANCH   5   6
ATOM      6  C   UNL     1      30.720  10.719 -12.619  1.00  0.00     0.053 C 
BRANCH   6   7
ATOM      7  C   UNL     1      30.538  11.274 -11.240  1.00  0.00     0.041 C 
ATOM      8  O   UNL     1      30.753  10.551 -10.231  1.00  0.00    -0.550 OA
ATOM      9  O   UNL     1      30.100  12.581 -11.068  1.00  0.00    -0.550 OA
ENDBRANCH   6   7
ENDBRANCH   5   6
ENDBRANCH   4   5
ENDBRANCH   3   4
ENDBRANCH   2   3
ENDBRANCH   1   2
BRANCH   1  10
ATOM     10  C   UNL     1      29.610  14.468 -17.392  1.00  0.00     0.027 C 
BRANCH  10  11
ATOM     11  C   UNL     1      30.820  14.571 -16.499  1.00  0.00    -0.031 C 
ATOM     12  C   UNL     1      30.831  15.177 -15.297  1.00  0.00    -0.031 C 
BRANCH  12  13
ATOM     13  C   UNL     1      29.662  15.923 -14.701  1.00  0.00     0.027 C 
BRANCH  13  14
ATOM     14  C   UNL     1      28.859  15.046 -13.728  1.00  0.00     0.004 C 
BRANCH  14  15
ATOM     15  C   UNL     1      27.868  15.867 -12.889  1.00  0.00     0.000 C 
BRANCH  15  16
ATOM     16  C   UNL     1      27.390  15.070 -11.667  1.00  0.00    -0.000 C 
BRANCH  16  17
ATOM     17  C   UNL     1      26.607  13.806 -12.055  1.00  0.00    -0.003 C 
ATOM     18  C   UNL     1      26.654  12.727 -10.975  1.00  0.00     0.004 C 
ENDBRANCH  16  17
ENDBRANCH  15  16
ENDBRANCH  14  15
ENDBRANCH  13  14
ENDBRANCH  12  13
ENDBRANCH  10  11
ENDBRANCH   1  10
TORSDOF 13
ENDMDL
MODEL 8
REMARK VINA RESULT:    -3.948      2.478      5.968
REMARK INTER + INTRA:          -9.058
REMARK INTER:                  -7.280
REMARK INTRA:                  -1.778
REMARK UNBOUND:                -2.109
REMARK SMILES CCCCCCC=CCCCCCCCC(=O)[O-]
REMARK SMILES IDX 10 1 11 2 12 3 13 4 14 5 15 6 16 7 17 8 18 9 9 10 8 11 7 12
REMARK SMILES IDX 6 13 5 14 4 15 3 16 2 17 1 18
REMARK H PARENT
REMARK Flexibility Score: inf
ROOT
ATOM      1  C   UNL     1      29.426  13.231 -18.060  1.00  0.00     0.004 C 
ENDROOT
BRANCH   1   2
ATOM      2  C   UNL     1      30.782  12.504 -18.068  1.00  0.00     0.000 C 
BRANCH   2   3
ATOM      3  C   UNL     1      30.762  11.089 -18.674  1.00  0.00     0.000 C 
BRANCH   3   4
ATOM      4  C   UNL     1      30.413  10.002 -17.642  1.00  0.00     0.000 C 
BRANCH   4   5
ATOM      5  C   UNL     1      30.654  10.460 -16.192  1.00  0.00     0.006 C 
BRANCH   5   6
ATOM      6  C   UNL     1      29.416  10.375 -15.284  1.00  0.00     0.053 C 
BRANCH   6   7
ATOM      7  C   UNL     1      29.786  10.162 -13.849  1.00  0.00     0.041 C 
ATOM      8  O   UNL     1      30.787  10.748 -13.358  1.00  0.00    -0.550 OA
ATOM      9  O   UNL     1      29.043   9.292 -13.061  1.00  0.00    -0.550 OA
ENDBRANCH   6   7
ENDBRANCH   5   6
ENDBRANCH   4   5
ENDBRANCH   3   4
ENDBRANCH   2   3
ENDBRANCH   1   2
BRANCH   1  10
ATOM     10  C   UNL     1      29.379  14.399 -17.064  1.00  0.00     0.027 C 
BRANCH  10  11
ATOM     11  C   UNL     1      30.449  14.247 -16.013  1.00  0.00    -0.031 C 
ATOM     12  C   UNL     1      30.209  14.010 -14.709  1.00  0.00    -0.031 C 
BRANCH  12  13
ATOM     13  C   UNL     1      28.836  13.951 -14.086  1.00  0.00     0.027 C 
BRANCH  13  14
ATOM     14  C   UNL     1      28.504  15.234 -13.309  1.00  0.00     0.004 C 
BRANCH  14  15
ATOM     15  C   UNL     1      27.734  14.944 -12.012  1.00  0.00     0.000 C 
BRANCH  15  16
ATOM     16  C   UNL     1      26.593  13.947 -12.262  1.00  0.00    -0.000 C 
BRANCH  16  17
ATOM     17  C   UNL     1      26.580  12.796 -11.244  1.00  0.00    -0.003 C 
ATOM     18  C   UNL     1      27.944  12.126 -11.091  1.00  0.00     0.004 C 
ENDBRANCH  16  17
ENDBRANCH  15  16
ENDBRANCH  14  15
ENDBRANCH  13  14
ENDBRANCH  12  13
ENDBRANCH  10  11
ENDBRANCH   1  10
TORSDOF 13
ENDMDL
MODEL 9
REMARK VINA RESULT:    -3.929      1.923      3.921
REMARK INTER + INTRA:          -9.024
REMARK INTER:                  -7.040
REMARK INTRA:                  -1.985
REMARK UNBOUND:                -2.109
REMARK SMILES CCCCCCC=CCCCCCCCC(=O)[O-]
REMARK SMILES IDX 10 1 11 2 12 3 13 4 14 5 15 6 16 7 17 8 18 9 9 10 8 11 7 12
REMARK SMILES IDX 6 13 5 14 4 15 3 16 2 17 1 18
REMARK H PARENT
REMARK Flexibility Score: inf
ROOT
ATOM      1  C   UNL     1      28.500  12.546 -15.119  1.00  0.00     0.004 C 
ENDROOT
BRANCH   1   2
ATOM      2  C   UNL     1      29.247  11.202 -15.040  1.00  0.00     0.000 C 
BRANCH   2   3
ATOM      3  C   UNL     1      30.649  11.270 -14.408  1.00  0.00     0.000 C 
BRANCH   3   4
ATOM      4  C   UNL     1      30.847  10.241 -13.281  1.00  0.00     0.000 C 
BRANCH   4   5
ATOM      5  C   UNL     1      30.714  10.863 -11.878  1.00  0.00     0.006 C 
BRANCH   5   6
ATOM      6  C   UNL     1      29.343  10.650 -11.216  1.00  0.00     0.053 C 
BRANCH   6   7
ATOM      7  C   UNL     1      28.507  11.892 -11.246  1.00  0.00     0.041 C 
ATOM      8  O   UNL     1      27.306  11.858 -10.868  1.00  0.00    -0.550 OA
ATOM      9  O   UNL     1      29.046  13.082 -11.719  1.00  0.00    -0.550 OA
ENDBRANCH   6   7
ENDBRANCH   5   6
ENDBRANCH   4   5
ENDBRANCH   3   4
ENDBRANCH   2   3
ENDBRANCH   1   2
BRANCH   1  10
ATOM     10  C   UNL     1      29.329  13.652 -15.787  1.00  0.00     0.027 C 
BRANCH  10  11
ATOM     11  C   UNL     1      28.965  13.786 -17.244  1.00  0.00    -0.031 C 
ATOM     12  C   UNL     1      29.624  13.187 -18.253  1.00  0.00    -0.031 C 
BRANCH  12  13
ATOM     13  C   UNL     1      30.881  12.366 -18.090  1.00  0.00     0.027 C 
BRANCH  13  14
ATOM     14  C   UNL     1      30.754  10.987 -18.755  1.00  0.00     0.004 C 
BRANCH  14  15
ATOM     15  C   UNL     1      31.098   9.843 -17.789  1.00  0.00     0.000 C 
BRANCH  15  16
ATOM     16  C   UNL     1      30.364   8.553 -18.181  1.00  0.00    -0.000 C 
BRANCH  16  17
ATOM     17  C   UNL     1      29.318   8.128 -17.139  1.00  0.00    -0.003 C 
ATOM     18  C   UNL     1      29.946   7.610 -15.847  1.00  0.00     0.004 C 
ENDBRANCH  16  17
ENDBRANCH  15  16
ENDBRANCH  14  15
ENDBRANCH  13  14
ENDBRANCH  12  13
ENDBRANCH  10  11
ENDBRANCH   1  10
TORSDOF 13
ENDMDL
