MODEL 1
REMARK VINA RESULT:    -4.892      0.000      0.000
REMARK INTER + INTRA:          -5.524
REMARK INTER:                  -5.464
REMARK INTRA:                  -0.060
REMARK UNBOUND:                -0.060
REMARK SMILES COc1cc2ccc(=O)oc2c(O)c1O
REMARK SMILES IDX 3 1 14 2 12 3 11 4 5 5 4 6 6 7 7 8 8 9 9 10 10 11 2 12 1 13
REMARK SMILES IDX 15 14 13 16
REMARK H PARENT 15 15 13 17
REMARK Flexibility Score: inf
ROOT
ATOM      1  C   UNL     1      24.494  44.189  31.057  1.00  0.00     0.165 A 
ATOM      2  C   UNL     1      24.909  44.129  32.396  1.00  0.00     0.204 A 
ATOM      3  C   UNL     1      25.612  45.202  32.975  1.00  0.00     0.205 A 
ATOM      4  C   UNL     1      25.901  46.342  32.206  1.00  0.00     0.184 A 
ATOM      5  C   UNL     1      25.486  46.404  30.859  1.00  0.00     0.025 A 
ATOM      6  C   UNL     1      24.786  45.333  30.289  1.00  0.00     0.062 A 
ATOM      7  C   UNL     1      25.788  47.551  30.117  1.00  0.00     0.020 A 
ATOM      8  C   UNL     1      26.486  48.594  30.724  1.00  0.00     0.094 A 
ATOM      9  C   UNL     1      26.867  48.466  32.062  1.00  0.00     0.336 A 
ATOM     10  O   UNL     1      27.498  49.396  32.628  1.00  0.00    -0.246 OA
ATOM     11  O   UNL     1      26.567  47.363  32.744  1.00  0.00    -0.419 OA
ENDROOT
BRANCH   1  12
ATOM     12  O   UNL     1      23.796  43.093  30.527  1.00  0.00    -0.493 OA
ATOM     13  C   UNL     1      22.585  43.191  29.783  1.00  0.00     0.278 C 
ENDBRANCH   1  12
BRANCH   2  14
ATOM     14  O   UNL     1      24.612  42.989  33.144  1.00  0.00    -0.502 OA
ATOM     15  H   UNL     1      23.753  42.897  33.673  1.00  0.00     0.293 HD
ENDBRANCH   2  14
BRANCH   3  16
ATOM     16  O   UNL     1      26.015  45.123  34.308  1.00  0.00    -0.502 OA
ATOM     17  H   UNL     1      26.720  45.738  34.697  1.00  0.00     0.293 HD
ENDBRANCH   3  16
TORSDOF 3
ENDMDL
MODEL 2
REMARK VINA RESULT:    -4.875      5.568      7.830
REMARK INTER + INTRA:          -5.505
REMARK INTER:                  -5.454
REMARK INTRA:                  -0.051
REMARK UNBOUND:                -0.060
REMARK SMILES COc1cc2ccc(=O)oc2c(O)c1O
REMARK SMILES IDX 3 1 14 2 12 3 11 4 5 5 4 6 6 7 7 8 8 9 9 10 10 11 2 12 1 13
REMARK SMILES IDX 15 14 13 16
REMARK H PARENT 15 15 13 17
REMARK Flexibility Score: inf
ROOT
ATOM      1  C   UNL     1      29.334  52.420  32.745  1.00  0.00     0.165 A 
ATOM      2  C   UNL     1      29.009  51.059  32.842  1.00  0.00     0.204 A 
ATOM      3  C   UNL     1      27.807  50.571  32.295  1.00  0.00     0.205 A 
ATOM      4  C   UNL     1      26.926  51.454  31.648  1.00  0.00     0.184 A 
ATOM      5  C   UNL     1      27.251  52.823  31.550  1.00  0.00     0.025 A 
ATOM      6  C   UNL     1      28.448  53.302  32.096  1.00  0.00     0.062 A 
ATOM      7  C   UNL     1      26.355  53.679  30.900  1.00  0.00     0.020 A 
ATOM      8  C   UNL     1      25.175  53.161  30.370  1.00  0.00     0.094 A 
ATOM      9  C   UNL     1      24.917  51.793  30.504  1.00  0.00     0.336 A 
ATOM     10  O   UNL     1      23.856  51.305  30.033  1.00  0.00    -0.246 OA
ATOM     11  O   UNL     1      25.786  51.002  31.127  1.00  0.00    -0.419 OA
ENDROOT
BRANCH   1  12
ATOM     12  O   UNL     1      30.544  52.858  33.307  1.00  0.00    -0.493 OA
ATOM     13  C   UNL     1      31.062  54.179  33.180  1.00  0.00     0.278 C 
ENDBRANCH   1  12
BRANCH   2  14
ATOM     14  O   UNL     1      29.896  50.198  33.489  1.00  0.00    -0.502 OA
ATOM     15  H   UNL     1      30.736  50.531  33.947  1.00  0.00     0.293 HD
ENDBRANCH   2  14
BRANCH   3  16
ATOM     16  O   UNL     1      27.502  49.214  32.401  1.00  0.00    -0.502 OA
ATOM     17  H   UNL     1      28.120  48.556  32.860  1.00  0.00     0.293 HD
ENDBRANCH   3  16
TORSDOF 3
ENDMDL
MODEL 3
REMARK VINA RESULT:    -4.874      7.008      8.838
REMARK INTER + INTRA:          -5.504
REMARK INTER:                  -5.451
REMARK INTRA:                  -0.052
REMARK UNBOUND:                -0.060
REMARK SMILES COc1cc2ccc(=O)oc2c(O)c1O
REMARK SMILES IDX 3 1 14 2 12 3 11 4 5 5 4 6 6 7 7 8 8 9 9 10 10 11 2 12 1 13
REMARK SMILES IDX 15 14 13 16
REMARK H PARENT 15 15 13 17
REMARK Flexibility Score: inf
ROOT
ATOM      1  C   UNL     1      30.957  51.489  33.947  1.00  0.00     0.165 A 
ATOM      2  C   UNL     1      31.050  52.885  33.850  1.00  0.00     0.204 A 
ATOM      3  C   UNL     1      30.073  53.619  33.150  1.00  0.00     0.205 A 
ATOM      4  C   UNL     1      28.999  52.948  32.543  1.00  0.00     0.184 A 
ATOM      5  C   UNL     1      28.904  51.544  32.639  1.00  0.00     0.025 A 
ATOM      6  C   UNL     1      29.878  50.819  33.337  1.00  0.00     0.062 A 
ATOM      7  C   UNL     1      27.823  50.902  32.024  1.00  0.00     0.020 A 
ATOM      8  C   UNL     1      26.875  51.661  31.339  1.00  0.00     0.094 A 
ATOM      9  C   UNL     1      27.032  53.049  31.284  1.00  0.00     0.336 A 
ATOM     10  O   UNL     1      26.188  53.752  30.671  1.00  0.00    -0.246 OA
ATOM     11  O   UNL     1      28.070  53.633  31.877  1.00  0.00    -0.419 OA
ENDROOT
BRANCH   1  12
ATOM     12  O   UNL     1      31.956  50.802  34.656  1.00  0.00    -0.493 OA
ATOM     13  C   UNL     1      31.788  49.516  35.244  1.00  0.00     0.278 C 
ENDBRANCH   1  12
BRANCH   2  14
ATOM     14  O   UNL     1      32.125  53.534  34.459  1.00  0.00    -0.502 OA
ATOM     15  H   UNL     1      32.849  53.998  33.925  1.00  0.00     0.293 HD
ENDBRANCH   2  14
BRANCH   3  16
ATOM     16  O   UNL     1      30.183  55.007  33.065  1.00  0.00    -0.502 OA
ATOM     17  H   UNL     1      29.482  55.578  32.609  1.00  0.00     0.293 HD
ENDBRANCH   3  16
TORSDOF 3
ENDMDL
MODEL 4
REMARK VINA RESULT:    -4.865      1.881      5.101
REMARK INTER + INTRA:          -5.493
REMARK INTER:                  -5.424
REMARK INTRA:                  -0.069
REMARK UNBOUND:                -0.060
REMARK SMILES COc1cc2ccc(=O)oc2c(O)c1O
REMARK SMILES IDX 3 1 14 2 12 3 11 4 5 5 4 6 6 7 7 8 8 9 9 10 10 11 2 12 1 13
REMARK SMILES IDX 15 14 13 16
REMARK H PARENT 15 15 13 17
REMARK Flexibility Score: inf
ROOT
ATOM      1  C   UNL     1      27.618  48.166  33.722  1.00  0.00     0.165 A 
ATOM      2  C   UNL     1      27.528  47.162  34.698  1.00  0.00     0.204 A 
ATOM      3  C   UNL     1      26.954  45.914  34.387  1.00  0.00     0.205 A 
ATOM      4  C   UNL     1      26.468  45.673  33.092  1.00  0.00     0.184 A 
ATOM      5  C   UNL     1      26.558  46.681  32.109  1.00  0.00     0.025 A 
ATOM      6  C   UNL     1      27.129  47.920  32.424  1.00  0.00     0.062 A 
ATOM      7  C   UNL     1      26.065  46.412  30.827  1.00  0.00     0.020 A 
ATOM      8  C   UNL     1      25.504  45.165  30.557  1.00  0.00     0.094 A 
ATOM      9  C   UNL     1      25.448  44.213  31.578  1.00  0.00     0.336 A 
ATOM     10  O   UNL     1      24.945  43.081  31.355  1.00  0.00    -0.246 OA
ATOM     11  O   UNL     1      25.923  44.495  32.789  1.00  0.00    -0.419 OA
ENDROOT
BRANCH   1  12
ATOM     12  O   UNL     1      28.198  49.393  34.080  1.00  0.00    -0.493 OA
ATOM     13  C   UNL     1      29.462  49.855  33.613  1.00  0.00     0.278 C 
ENDBRANCH   1  12
BRANCH   2  14
ATOM     14  O   UNL     1      28.016  47.421  35.979  1.00  0.00    -0.502 OA
ATOM     15  H   UNL     1      27.511  47.149  36.815  1.00  0.00     0.293 HD
ENDBRANCH   2  14
BRANCH   3  16
ATOM     16  O   UNL     1      26.874  44.929  35.372  1.00  0.00    -0.502 OA
ATOM     17  H   UNL     1      27.352  45.013  36.261  1.00  0.00     0.293 HD
ENDBRANCH   3  16
TORSDOF 3
ENDMDL
MODEL 5
REMARK VINA RESULT:    -4.782     12.915     13.330
REMARK INTER + INTRA:          -5.401
REMARK INTER:                  -5.331
REMARK INTRA:                  -0.069
REMARK UNBOUND:                -0.060
REMARK SMILES COc1cc2ccc(=O)oc2c(O)c1O
REMARK SMILES IDX 3 1 14 2 12 3 11 4 5 5 4 6 6 7 7 8 8 9 9 10 10 11 2 12 1 13
REMARK SMILES IDX 15 14 13 16
REMARK H PARENT 15 15 13 17
REMARK Flexibility Score: inf
ROOT
ATOM      1  C   UNL     1      14.018  48.999  39.337  1.00  0.00     0.165 A 
ATOM      2  C   UNL     1      14.096  49.824  38.205  1.00  0.00     0.204 A 
ATOM      3  C   UNL     1      15.192  50.689  38.027  1.00  0.00     0.205 A 
ATOM      4  C   UNL     1      16.215  50.727  38.990  1.00  0.00     0.184 A 
ATOM      5  C   UNL     1      16.137  49.899  40.129  1.00  0.00     0.025 A 
ATOM      6  C   UNL     1      15.044  49.040  40.301  1.00  0.00     0.062 A 
ATOM      7  C   UNL     1      17.170  49.958  41.071  1.00  0.00     0.020 A 
ATOM      8  C   UNL     1      18.239  50.826  40.861  1.00  0.00     0.094 A 
ATOM      9  C   UNL     1      18.252  51.619  39.710  1.00  0.00     0.336 A 
ATOM     10  O   UNL     1      19.208  52.410  39.502  1.00  0.00    -0.246 OA
ATOM     11  O   UNL     1      17.256  51.543  38.830  1.00  0.00    -0.419 OA
ENDROOT
BRANCH   1  12
ATOM     12  O   UNL     1      12.904  48.154  39.469  1.00  0.00    -0.493 OA
ATOM     13  C   UNL     1      12.917  46.755  39.201  1.00  0.00     0.278 C 
ENDBRANCH   1  12
BRANCH   2  14
ATOM     14  O   UNL     1      13.071  49.772  37.260  1.00  0.00    -0.502 OA
ATOM     15  H   UNL     1      13.254  49.672  36.269  1.00  0.00     0.293 HD
ENDBRANCH   2  14
BRANCH   3  16
ATOM     16  O   UNL     1      15.252  51.502  36.894  1.00  0.00    -0.502 OA
ATOM     17  H   UNL     1      14.718  52.358  36.814  1.00  0.00     0.293 HD
ENDBRANCH   3  16
TORSDOF 3
ENDMDL
MODEL 6
REMARK VINA RESULT:    -4.757     11.362     12.659
REMARK INTER + INTRA:          -5.373
REMARK INTER:                  -5.314
REMARK INTRA:                  -0.059
REMARK UNBOUND:                -0.060
REMARK SMILES COc1cc2ccc(=O)oc2c(O)c1O
REMARK SMILES IDX 3 1 14 2 12 3 11 4 5 5 4 6 6 7 7 8 8 9 9 10 10 11 2 12 1 13
REMARK SMILES IDX 15 14 13 16
REMARK H PARENT 15 15 13 17
REMARK Flexibility Score: inf
ROOT
ATOM      1  C   UNL     1      19.557  42.844  40.988  1.00  0.00     0.165 A 
ATOM      2  C   UNL     1      18.160  42.970  41.002  1.00  0.00     0.204 A 
ATOM      3  C   UNL     1      17.546  44.034  41.691  1.00  0.00     0.205 A 
ATOM      4  C   UNL     1      18.339  44.974  42.369  1.00  0.00     0.184 A 
ATOM      5  C   UNL     1      19.744  44.849  42.356  1.00  0.00     0.025 A 
ATOM      6  C   UNL     1      20.348  43.789  41.669  1.00  0.00     0.062 A 
ATOM      7  C   UNL     1      20.508  45.801  43.041  1.00  0.00     0.020 A 
ATOM      8  C   UNL     1      19.866  46.840  43.712  1.00  0.00     0.094 A 
ATOM      9  C   UNL     1      18.469  46.903  43.683  1.00  0.00     0.336 A 
ATOM     10  O   UNL     1      17.870  47.833  44.283  1.00  0.00    -0.246 OA
ATOM     11  O   UNL     1      17.767  45.985  43.025  1.00  0.00    -0.419 OA
ENDROOT
BRANCH   1  12
ATOM     12  O   UNL     1      20.121  41.766  40.286  1.00  0.00    -0.493 OA
ATOM     13  C   UNL     1      21.149  40.922  40.795  1.00  0.00     0.278 C 
ENDBRANCH   1  12
BRANCH   2  14
ATOM     14  O   UNL     1      17.389  42.025  40.323  1.00  0.00    -0.502 OA
ATOM     15  H   UNL     1      16.391  41.937  40.468  1.00  0.00     0.293 HD
ENDBRANCH   2  14
BRANCH   3  16
ATOM     16  O   UNL     1      16.155  44.142  41.693  1.00  0.00    -0.502 OA
ATOM     17  H   UNL     1      15.597  43.954  40.870  1.00  0.00     0.293 HD
ENDBRANCH   3  16
TORSDOF 3
ENDMDL
MODEL 7
REMARK VINA RESULT:    -4.736      5.703      7.501
REMARK INTER + INTRA:          -5.350
REMARK INTER:                  -5.299
REMARK INTRA:                  -0.051
REMARK UNBOUND:                -0.060
REMARK SMILES COc1cc2ccc(=O)oc2c(O)c1O
REMARK SMILES IDX 3 1 14 2 12 3 11 4 5 5 4 6 6 7 7 8 8 9 9 10 10 11 2 12 1 13
REMARK SMILES IDX 15 14 13 16
REMARK H PARENT 15 15 13 17
REMARK Flexibility Score: inf
ROOT
ATOM      1  C   UNL     1      26.652  52.339  31.332  1.00  0.00     0.165 A 
ATOM      2  C   UNL     1      26.942  51.040  31.775  1.00  0.00     0.204 A 
ATOM      3  C   UNL     1      28.077  50.794  32.569  1.00  0.00     0.205 A 
ATOM      4  C   UNL     1      28.927  51.856  32.921  1.00  0.00     0.184 A 
ATOM      5  C   UNL     1      28.637  53.163  32.477  1.00  0.00     0.025 A 
ATOM      6  C   UNL     1      27.506  53.402  31.686  1.00  0.00     0.062 A 
ATOM      7  C   UNL     1      29.501  54.201  32.842  1.00  0.00     0.020 A 
ATOM      8  C   UNL     1      30.615  53.920  33.630  1.00  0.00     0.094 A 
ATOM      9  C   UNL     1      30.842  52.601  34.035  1.00  0.00     0.336 A 
ATOM     10  O   UNL     1      31.842  52.325  34.746  1.00  0.00    -0.246 OA
ATOM     11  O   UNL     1      30.004  51.633  33.673  1.00  0.00    -0.419 OA
ENDROOT
BRANCH   1  12
ATOM     12  O   UNL     1      25.508  52.534  30.542  1.00  0.00    -0.493 OA
ATOM     13  C   UNL     1      25.008  53.807  30.146  1.00  0.00     0.278 C 
ENDBRANCH   1  12
BRANCH   2  14
ATOM     14  O   UNL     1      26.087  49.998  31.415  1.00  0.00    -0.502 OA
ATOM     15  H   UNL     1      25.794  49.287  32.074  1.00  0.00     0.293 HD
ENDBRANCH   2  14
BRANCH   3  16
ATOM     16  O   UNL     1      28.349  49.494  33.000  1.00  0.00    -0.502 OA
ATOM     17  H   UNL     1      28.522  48.736  32.352  1.00  0.00     0.293 HD
ENDBRANCH   3  16
TORSDOF 3
ENDMDL
MODEL 8
REMARK VINA RESULT:    -4.723      1.262      4.706
REMARK INTER + INTRA:          -5.335
REMARK INTER:                  -5.280
REMARK INTRA:                  -0.055
REMARK UNBOUND:                -0.060
REMARK SMILES COc1cc2ccc(=O)oc2c(O)c1O
REMARK SMILES IDX 3 1 14 2 12 3 11 4 5 5 4 6 6 7 7 8 8 9 9 10 10 11 2 12 1 13
REMARK SMILES IDX 15 14 13 16
REMARK H PARENT 15 15 13 17
REMARK Flexibility Score: inf
ROOT
ATOM      1  C   UNL     1      26.173  47.591  31.181  1.00  0.00     0.165 A 
ATOM      2  C   UNL     1      26.776  46.897  32.240  1.00  0.00     0.204 A 
ATOM      3  C   UNL     1      26.428  45.559  32.506  1.00  0.00     0.205 A 
ATOM      4  C   UNL     1      25.469  44.915  31.706  1.00  0.00     0.184 A 
ATOM      5  C   UNL     1      24.862  45.612  30.641  1.00  0.00     0.025 A 
ATOM      6  C   UNL     1      25.213  46.943  30.381  1.00  0.00     0.062 A 
ATOM      7  C   UNL     1      23.911  44.945  29.861  1.00  0.00     0.020 A 
ATOM      8  C   UNL     1      23.591  43.621  30.154  1.00  0.00     0.094 A 
ATOM      9  C   UNL     1      24.232  42.991  31.225  1.00  0.00     0.336 A 
ATOM     10  O   UNL     1      23.958  41.796  31.507  1.00  0.00    -0.246 OA
ATOM     11  O   UNL     1      25.133  43.649  31.951  1.00  0.00    -0.419 OA
ENDROOT
BRANCH   1  12
ATOM     12  O   UNL     1      26.554  48.924  30.956  1.00  0.00    -0.493 OA
ATOM     13  C   UNL     1      25.670  49.954  30.526  1.00  0.00     0.278 C 
ENDBRANCH   1  12
BRANCH   2  14
ATOM     14  O   UNL     1      27.725  47.554  33.024  1.00  0.00    -0.502 OA
ATOM     15  H   UNL     1      28.615  47.861  32.651  1.00  0.00     0.293 HD
ENDBRANCH   2  14
BRANCH   3  16
ATOM     16  O   UNL     1      27.039  44.885  33.565  1.00  0.00    -0.502 OA
ATOM     17  H   UNL     1      27.916  44.391  33.456  1.00  0.00     0.293 HD
ENDBRANCH   3  16
TORSDOF 3
ENDMDL
MODEL 9
REMARK VINA RESULT:    -4.687     10.090     11.661
REMARK INTER + INTRA:          -5.295
REMARK INTER:                  -5.227
REMARK INTRA:                  -0.068
REMARK UNBOUND:                -0.060
REMARK SMILES COc1cc2ccc(=O)oc2c(O)c1O
REMARK SMILES IDX 3 1 14 2 12 3 11 4 5 5 4 6 6 7 7 8 8 9 9 10 10 11 2 12 1 13
REMARK SMILES IDX 15 14 13 16
REMARK H PARENT 15 15 13 17
REMARK Flexibility Score: inf
ROOT
ATOM      1  C   UNL     1      18.879  44.745  42.050  1.00  0.00     0.165 A 
ATOM      2  C   UNL     1      19.881  45.725  41.976  1.00  0.00     0.204 A 
ATOM      3  C   UNL     1      21.196  45.376  41.615  1.00  0.00     0.205 A 
ATOM      4  C   UNL     1      21.508  44.036  41.328  1.00  0.00     0.184 A 
ATOM      5  C   UNL     1      20.503  43.050  41.403  1.00  0.00     0.025 A 
ATOM      6  C   UNL     1      19.196  43.403  41.762  1.00  0.00     0.062 A 
ATOM      7  C   UNL     1      20.843  41.724  41.111  1.00  0.00     0.020 A 
ATOM      8  C   UNL     1      22.156  41.416  40.758  1.00  0.00     0.094 A 
ATOM      9  C   UNL     1      23.102  42.444  40.704  1.00  0.00     0.336 A 
ATOM     10  O   UNL     1      24.292  42.187  40.388  1.00  0.00    -0.246 OA
ATOM     11  O   UNL     1      22.751  43.696  40.986  1.00  0.00    -0.419 OA
ENDROOT
BRANCH   1  12
ATOM     12  O   UNL     1      17.583  45.143  42.414  1.00  0.00    -0.493 OA
ATOM     13  C   UNL     1      16.457  45.118  41.542  1.00  0.00     0.278 C 
ENDBRANCH   1  12
BRANCH   2  14
ATOM     14  O   UNL     1      19.551  47.049  42.265  1.00  0.00    -0.502 OA
ATOM     15  H   UNL     1      20.253  47.774  42.355  1.00  0.00     0.293 HD
ENDBRANCH   2  14
BRANCH   3  16
ATOM     16  O   UNL     1      22.178  46.365  41.547  1.00  0.00    -0.502 OA
ATOM     17  H   UNL     1      23.160  46.145  41.441  1.00  0.00     0.293 HD
ENDBRANCH   3  16
TORSDOF 3
ENDMDL
