MODEL 1
REMARK VINA RESULT:    -3.310      0.000      0.000
REMARK INTER + INTRA:          -6.095
REMARK INTER:                  -5.051
REMARK INTRA:                  -1.044
REMARK UNBOUND:                -1.044
REMARK SMILES O=C([O-])CCCCCCCCC(=O)[O-]
REMARK SMILES IDX 7 1 6 2 5 3 4 4 2 5 1 6 3 7 8 8 9 9 10 10 11 11 12 12 13 13
REMARK SMILES IDX 14 14
REMARK H PARENT
REMARK Flexibility Score: inf
ROOT
ATOM      1  C   UNL     1      40.386   8.885  11.623  1.00  0.00     0.000 C 
ENDROOT
BRANCH   1   2
ATOM      2  C   UNL     1      38.981   8.851  12.254  1.00  0.00     0.000 C 
BRANCH   2   3
ATOM      3  C   UNL     1      38.958   8.632  13.778  1.00  0.00     0.006 C 
BRANCH   3   4
ATOM      4  C   UNL     1      37.994   9.579  14.504  1.00  0.00     0.053 C 
BRANCH   4   5
ATOM      5  C   UNL     1      38.610  10.077  15.773  1.00  0.00     0.041 C 
ATOM      6  O   UNL     1      39.477   9.388  16.370  1.00  0.00    -0.550 OA
ATOM      7  O   UNL     1      38.259  11.325  16.272  1.00  0.00    -0.550 OA
ENDBRANCH   4   5
ENDBRANCH   3   4
ENDBRANCH   2   3
ENDBRANCH   1   2
BRANCH   1   8
ATOM      8  C   UNL     1      40.956  10.306  11.507  1.00  0.00     0.000 C 
BRANCH   8   9
ATOM      9  C   UNL     1      39.859  11.357  11.712  1.00  0.00     0.000 C 
BRANCH   9  10
ATOM     10  C   UNL     1      40.203  12.293  12.881  1.00  0.00     0.006 C 
BRANCH  10  11
ATOM     11  C   UNL     1      41.363  11.758  13.732  1.00  0.00     0.053 C 
BRANCH  11  12
ATOM     12  C   UNL     1      41.432  12.436  15.066  1.00  0.00     0.041 C 
ATOM     13  O   UNL     1      42.077  11.908  16.010  1.00  0.00    -0.550 OA
ATOM     14  O   UNL     1      40.758  13.631  15.277  1.00  0.00    -0.550 OA
ENDBRANCH  11  12
ENDBRANCH  10  11
ENDBRANCH   9  10
ENDBRANCH   8   9
ENDBRANCH   1   8
TORSDOF 9
ENDMDL
MODEL 2
REMARK VINA RESULT:    -3.291      1.240      3.929
REMARK INTER + INTRA:          -6.066
REMARK INTER:                  -5.233
REMARK INTRA:                  -0.833
REMARK UNBOUND:                -1.044
REMARK SMILES O=C([O-])CCCCCCCCC(=O)[O-]
REMARK SMILES IDX 7 1 6 2 5 3 4 4 2 5 1 6 3 7 8 8 9 9 10 10 11 11 12 12 13 13
REMARK SMILES IDX 14 14
REMARK H PARENT
REMARK Flexibility Score: inf
ROOT
ATOM      1  C   UNL     1      40.022  11.220  11.379  1.00  0.00     0.000 C 
ENDROOT
BRANCH   1   2
ATOM      2  C   UNL     1      39.999  12.254  12.519  1.00  0.00     0.000 C 
BRANCH   2   3
ATOM      3  C   UNL     1      41.188  12.173  13.495  1.00  0.00     0.006 C 
BRANCH   3   4
ATOM      4  C   UNL     1      40.792  12.471  14.947  1.00  0.00     0.053 C 
BRANCH   4   5
ATOM      5  C   UNL     1      40.211  13.845  15.057  1.00  0.00     0.041 C 
ATOM      6  O   UNL     1      40.918  14.855  14.803  1.00  0.00    -0.550 OA
ATOM      7  O   UNL     1      38.874  14.008  15.396  1.00  0.00    -0.550 OA
ENDBRANCH   4   5
ENDBRANCH   3   4
ENDBRANCH   2   3
ENDBRANCH   1   2
BRANCH   1   8
ATOM      8  C   UNL     1      41.030  10.087  11.618  1.00  0.00     0.000 C 
BRANCH   8   9
ATOM      9  C   UNL     1      40.337   8.720  11.598  1.00  0.00     0.000 C 
BRANCH   9  10
ATOM     10  C   UNL     1      38.932   8.805  12.213  1.00  0.00     0.006 C 
BRANCH  10  11
ATOM     11  C   UNL     1      38.911   8.356  13.680  1.00  0.00     0.053 C 
BRANCH  11  12
ATOM     12  C   UNL     1      38.435   9.448  14.589  1.00  0.00     0.041 C 
ATOM     13  O   UNL     1      37.890  10.477  14.109  1.00  0.00    -0.550 OA
ATOM     14  O   UNL     1      38.623   9.345  15.961  1.00  0.00    -0.550 OA
ENDBRANCH  11  12
ENDBRANCH  10  11
ENDBRANCH   9  10
ENDBRANCH   8   9
ENDBRANCH   1   8
TORSDOF 9
ENDMDL
MODEL 3
REMARK VINA RESULT:    -3.282      2.536      4.254
REMARK INTER + INTRA:          -6.052
REMARK INTER:                  -5.158
REMARK INTRA:                  -0.894
REMARK UNBOUND:                -1.044
REMARK SMILES O=C([O-])CCCCCCCCC(=O)[O-]
REMARK SMILES IDX 7 1 6 2 5 3 4 4 2 5 1 6 3 7 8 8 9 9 10 10 11 11 12 12 13 13
REMARK SMILES IDX 14 14
REMARK H PARENT
REMARK Flexibility Score: inf
ROOT
ATOM      1  C   UNL     1      40.074  11.364  14.977  1.00  0.00     0.000 C 
ENDROOT
BRANCH   1   2
ATOM      2  C   UNL     1      39.114  11.552  13.789  1.00  0.00     0.000 C 
BRANCH   2   3
ATOM      3  C   UNL     1      39.770  12.080  12.500  1.00  0.00     0.006 C 
BRANCH   3   4
ATOM      4  C   UNL     1      39.697  11.080  11.339  1.00  0.00     0.053 C 
BRANCH   4   5
ATOM      5  C   UNL     1      40.691   9.979  11.536  1.00  0.00     0.041 C 
ATOM      6  O   UNL     1      41.900  10.248  11.757  1.00  0.00    -0.550 OA
ATOM      7  O   UNL     1      40.271   8.654  11.522  1.00  0.00    -0.550 OA
ENDBRANCH   4   5
ENDBRANCH   3   4
ENDBRANCH   2   3
ENDBRANCH   1   2
BRANCH   1   8
ATOM      8  C   UNL     1      41.436  12.038  14.760  1.00  0.00     0.000 C 
BRANCH   8   9
ATOM      9  C   UNL     1      41.877  12.805  16.011  1.00  0.00     0.000 C 
BRANCH   9  10
ATOM     10  C   UNL     1      40.676  13.119  16.917  1.00  0.00     0.006 C 
BRANCH  10  11
ATOM     11  C   UNL     1      40.411  14.626  17.028  1.00  0.00     0.053 C 
BRANCH  11  12
ATOM     12  C   UNL     1      39.850  15.188  15.758  1.00  0.00     0.041 C 
ATOM     13  O   UNL     1      40.446  16.124  15.163  1.00  0.00    -0.550 OA
ATOM     14  O   UNL     1      38.652  14.702  15.250  1.00  0.00    -0.550 OA
ENDBRANCH  11  12
ENDBRANCH  10  11
ENDBRANCH   9  10
ENDBRANCH   8   9
ENDBRANCH   1   8
TORSDOF 9
ENDMDL
MODEL 4
REMARK VINA RESULT:    -3.281      2.815      5.056
REMARK INTER + INTRA:          -6.052
REMARK INTER:                  -5.334
REMARK INTRA:                  -0.717
REMARK UNBOUND:                -1.044
REMARK SMILES O=C([O-])CCCCCCCCC(=O)[O-]
REMARK SMILES IDX 7 1 6 2 5 3 4 4 2 5 1 6 3 7 8 8 9 9 10 10 11 11 12 12 13 13
REMARK SMILES IDX 14 14
REMARK H PARENT
REMARK Flexibility Score: inf
ROOT
ATOM      1  C   UNL     1      39.702  11.640  15.349  1.00  0.00     0.000 C 
ENDROOT
BRANCH   1   2
ATOM      2  C   UNL     1      39.805  12.865  16.276  1.00  0.00     0.000 C 
BRANCH   2   3
ATOM      3  C   UNL     1      41.032  13.764  16.032  1.00  0.00     0.006 C 
BRANCH   3   4
ATOM      4  C   UNL     1      40.806  14.796  14.921  1.00  0.00     0.053 C 
BRANCH   4   5
ATOM      5  C   UNL     1      40.114  16.005  15.466  1.00  0.00     0.041 C 
ATOM      6  O   UNL     1      40.767  16.882  16.088  1.00  0.00    -0.550 OA
ATOM      7  O   UNL     1      38.755  16.187  15.244  1.00  0.00    -0.550 OA
ENDBRANCH   4   5
ENDBRANCH   3   4
ENDBRANCH   2   3
ENDBRANCH   1   2
BRANCH   1   8
ATOM      8  C   UNL     1      38.404  11.617  14.529  1.00  0.00     0.000 C 
BRANCH   8   9
ATOM      9  C   UNL     1      38.524  12.504  13.285  1.00  0.00     0.000 C 
BRANCH   9  10
ATOM     10  C   UNL     1      39.735  12.098  12.433  1.00  0.00     0.006 C 
BRANCH  10  11
ATOM     11  C   UNL     1      39.469  10.830  11.610  1.00  0.00     0.053 C 
BRANCH  11  12
ATOM     12  C   UNL     1      40.620   9.873  11.676  1.00  0.00     0.041 C 
ATOM     13  O   UNL     1      41.797  10.306  11.780  1.00  0.00    -0.550 OA
ATOM     14  O   UNL     1      40.394   8.505  11.589  1.00  0.00    -0.550 OA
ENDBRANCH  11  12
ENDBRANCH  10  11
ENDBRANCH   9  10
ENDBRANCH   8   9
ENDBRANCH   1   8
TORSDOF 9
ENDMDL
MODEL 5
REMARK VINA RESULT:    -3.246      2.809      5.172
REMARK INTER + INTRA:          -5.997
REMARK INTER:                  -5.052
REMARK INTRA:                  -0.945
REMARK UNBOUND:                -1.044
REMARK SMILES O=C([O-])CCCCCCCCC(=O)[O-]
REMARK SMILES IDX 7 1 6 2 5 3 4 4 2 5 1 6 3 7 8 8 9 9 10 10 11 11 12 12 13 13
REMARK SMILES IDX 14 14
REMARK H PARENT
REMARK Flexibility Score: inf
ROOT
ATOM      1  C   UNL     1      42.013  12.202  16.432  1.00  0.00     0.000 C 
ENDROOT
BRANCH   1   2
ATOM      2  C   UNL     1      40.843  12.581  17.359  1.00  0.00     0.000 C 
BRANCH   2   3
ATOM      3  C   UNL     1      40.731  14.082  17.684  1.00  0.00     0.006 C 
BRANCH   3   4
ATOM      4  C   UNL     1      39.735  14.817  16.778  1.00  0.00     0.053 C 
BRANCH   4   5
ATOM      5  C   UNL     1      40.462  15.713  15.825  1.00  0.00     0.041 C 
ATOM      6  O   UNL     1      40.702  15.327  14.652  1.00  0.00    -0.550 OA
ATOM      7  O   UNL     1      40.832  16.992  16.219  1.00  0.00    -0.550 OA
ENDBRANCH   4   5
ENDBRANCH   3   4
ENDBRANCH   2   3
ENDBRANCH   1   2
BRANCH   1   8
ATOM      8  C   UNL     1      41.581  12.002  14.973  1.00  0.00     0.000 C 
BRANCH   8   9
ATOM      9  C   UNL     1      40.154  11.450  14.893  1.00  0.00     0.000 C 
BRANCH   9  10
ATOM     10  C   UNL     1      39.309  12.249  13.889  1.00  0.00     0.006 C 
BRANCH  10  11
ATOM     11  C   UNL     1      40.011  12.407  12.534  1.00  0.00     0.053 C 
BRANCH  11  12
ATOM     12  C   UNL     1      40.057  11.115  11.777  1.00  0.00     0.041 C 
ATOM     13  O   UNL     1      41.160  10.546  11.565  1.00  0.00    -0.550 OA
ATOM     14  O   UNL     1      38.887  10.558  11.277  1.00  0.00    -0.550 OA
ENDBRANCH  11  12
ENDBRANCH  10  11
ENDBRANCH   9  10
ENDBRANCH   8   9
ENDBRANCH   1   8
TORSDOF 9
ENDMDL
MODEL 6
REMARK VINA RESULT:    -3.227      2.826      4.705
REMARK INTER + INTRA:          -5.968
REMARK INTER:                  -5.259
REMARK INTRA:                  -0.709
REMARK UNBOUND:                -1.044
REMARK SMILES O=C([O-])CCCCCCCCC(=O)[O-]
REMARK SMILES IDX 7 1 6 2 5 3 4 4 2 5 1 6 3 7 8 8 9 9 10 10 11 11 12 12 13 13
REMARK SMILES IDX 14 14
REMARK H PARENT
REMARK Flexibility Score: inf
ROOT
ATOM      1  C   UNL     1      41.986  12.007  15.175  1.00  0.00     0.000 C 
ENDROOT
BRANCH   1   2
ATOM      2  C   UNL     1      40.563  12.069  14.589  1.00  0.00     0.000 C 
BRANCH   2   3
ATOM      3  C   UNL     1      40.488  12.474  13.105  1.00  0.00     0.006 C 
BRANCH   3   4
ATOM      4  C   UNL     1      39.622  11.524  12.269  1.00  0.00     0.053 C 
BRANCH   4   5
ATOM      5  C   UNL     1      40.409  10.316  11.870  1.00  0.00     0.041 C 
ATOM      6  O   UNL     1      41.658  10.389  11.738  1.00  0.00    -0.550 OA
ATOM      7  O   UNL     1      39.767   9.097  11.690  1.00  0.00    -0.550 OA
ENDBRANCH   4   5
ENDBRANCH   3   4
ENDBRANCH   2   3
ENDBRANCH   1   2
BRANCH   1   8
ATOM      8  C   UNL     1      42.029  12.315  16.678  1.00  0.00     0.000 C 
BRANCH   8   9
ATOM      9  C   UNL     1      40.658  12.777  17.185  1.00  0.00     0.000 C 
BRANCH   9  10
ATOM     10  C   UNL     1      40.735  14.196  17.768  1.00  0.00     0.006 C 
BRANCH  10  11
ATOM     11  C   UNL     1      39.756  15.159  17.084  1.00  0.00     0.053 C 
BRANCH  11  12
ATOM     12  C   UNL     1      40.437  16.004  16.051  1.00  0.00     0.041 C 
ATOM     13  O   UNL     1      40.571  15.577  14.874  1.00  0.00    -0.550 OA
ATOM     14  O   UNL     1      40.954  17.246  16.395  1.00  0.00    -0.550 OA
ENDBRANCH  11  12
ENDBRANCH  10  11
ENDBRANCH   9  10
ENDBRANCH   8   9
ENDBRANCH   1   8
TORSDOF 9
ENDMDL
MODEL 7
REMARK VINA RESULT:    -3.173      3.066      5.509
REMARK INTER + INTRA:          -5.887
REMARK INTER:                  -5.376
REMARK INTRA:                  -0.511
REMARK UNBOUND:                -1.044
REMARK SMILES O=C([O-])CCCCCCCCC(=O)[O-]
REMARK SMILES IDX 7 1 6 2 5 3 4 4 2 5 1 6 3 7 8 8 9 9 10 10 11 11 12 12 13 13
REMARK SMILES IDX 14 14
REMARK H PARENT
REMARK Flexibility Score: inf
ROOT
ATOM      1  C   UNL     1      41.712  12.551  15.618  1.00  0.00     0.000 C 
ENDROOT
BRANCH   1   2
ATOM      2  C   UNL     1      40.403  13.025  16.276  1.00  0.00     0.000 C 
BRANCH   2   3
ATOM      3  C   UNL     1      40.451  14.444  16.873  1.00  0.00     0.006 C 
BRANCH   3   4
ATOM      4  C   UNL     1      40.481  15.543  15.802  1.00  0.00     0.053 C 
BRANCH   4   5
ATOM      5  C   UNL     1      40.282  16.886  16.429  1.00  0.00     0.041 C 
ATOM      6  O   UNL     1      41.271  17.631  16.658  1.00  0.00    -0.550 OA
ATOM      7  O   UNL     1      39.000  17.336  16.717  1.00  0.00    -0.550 OA
ENDBRANCH   4   5
ENDBRANCH   3   4
ENDBRANCH   2   3
ENDBRANCH   1   2
BRANCH   1   8
ATOM      8  C   UNL     1      41.494  11.917  14.237  1.00  0.00     0.000 C 
BRANCH   8   9
ATOM      9  C   UNL     1      40.354  12.615  13.486  1.00  0.00     0.000 C 
BRANCH   9  10
ATOM     10  C   UNL     1      40.010  11.867  12.189  1.00  0.00     0.006 C 
BRANCH  10  11
ATOM     11  C   UNL     1      40.855  10.600  12.006  1.00  0.00     0.053 C 
BRANCH  11  12
ATOM     12  C   UNL     1      40.000   9.386  11.802  1.00  0.00     0.041 C 
ATOM     13  O   UNL     1      40.533   8.253  11.673  1.00  0.00    -0.550 OA
ATOM     14  O   UNL     1      38.620   9.512  11.718  1.00  0.00    -0.550 OA
ENDBRANCH  11  12
ENDBRANCH  10  11
ENDBRANCH   9  10
ENDBRANCH   8   9
ENDBRANCH   1   8
TORSDOF 9
ENDMDL
MODEL 8
REMARK VINA RESULT:    -3.134      2.628      4.284
REMARK INTER + INTRA:          -5.827
REMARK INTER:                  -5.042
REMARK INTRA:                  -0.786
REMARK UNBOUND:                -1.044
REMARK SMILES O=C([O-])CCCCCCCCC(=O)[O-]
REMARK SMILES IDX 7 1 6 2 5 3 4 4 2 5 1 6 3 7 8 8 9 9 10 10 11 11 12 12 13 13
REMARK SMILES IDX 14 14
REMARK H PARENT
REMARK Flexibility Score: inf
ROOT
ATOM      1  C   UNL     1      38.692  11.545  14.584  1.00  0.00     0.000 C 
ENDROOT
BRANCH   1   2
ATOM      2  C   UNL     1      38.709  12.566  13.431  1.00  0.00     0.000 C 
BRANCH   2   3
ATOM      3  C   UNL     1      39.818  12.347  12.385  1.00  0.00     0.006 C 
BRANCH   3   4
ATOM      4  C   UNL     1      40.733  11.163  12.722  1.00  0.00     0.053 C 
BRANCH   4   5
ATOM      5  C   UNL     1      40.772  10.193  11.584  1.00  0.00     0.041 C 
ATOM      6  O   UNL     1      41.093  10.582  10.431  1.00  0.00    -0.550 OA
ATOM      7  O   UNL     1      40.498   8.849  11.806  1.00  0.00    -0.550 OA
ENDBRANCH   4   5
ENDBRANCH   3   4
ENDBRANCH   2   3
ENDBRANCH   1   2
BRANCH   1   8
ATOM      8  C   UNL     1      39.032  12.171  15.944  1.00  0.00     0.000 C 
BRANCH   8   9
ATOM      9  C   UNL     1      39.527  13.612  15.778  1.00  0.00     0.000 C 
BRANCH   9  10
ATOM     10  C   UNL     1      40.863  13.824  16.506  1.00  0.00     0.006 C 
BRANCH  10  11
ATOM     11  C   UNL     1      41.876  12.715  16.196  1.00  0.00     0.053 C 
BRANCH  11  12
ATOM     12  C   UNL     1      42.326  12.009  17.438  1.00  0.00     0.041 C 
ATOM     13  O   UNL     1      43.070  12.598  18.266  1.00  0.00    -0.550 OA
ATOM     14  O   UNL     1      41.953  10.691  17.665  1.00  0.00    -0.550 OA
ENDBRANCH  11  12
ENDBRANCH  10  11
ENDBRANCH   9  10
ENDBRANCH   8   9
ENDBRANCH   1   8
TORSDOF 9
ENDMDL
MODEL 9
REMARK VINA RESULT:    -3.020      1.794      3.676
REMARK INTER + INTRA:          -5.652
REMARK INTER:                  -4.840
REMARK INTRA:                  -0.812
REMARK UNBOUND:                -1.044
REMARK SMILES O=C([O-])CCCCCCCCC(=O)[O-]
REMARK SMILES IDX 7 1 6 2 5 3 4 4 2 5 1 6 3 7 8 8 9 9 10 10 11 11 12 12 13 13
REMARK SMILES IDX 14 14
REMARK H PARENT
REMARK Flexibility Score: inf
ROOT
ATOM      1  C   UNL     1      38.997   9.517  14.845  1.00  0.00     0.000 C 
ENDROOT
BRANCH   1   2
ATOM      2  C   UNL     1      38.195  10.817  15.039  1.00  0.00     0.000 C 
BRANCH   2   3
ATOM      3  C   UNL     1      39.042  12.061  15.366  1.00  0.00     0.006 C 
BRANCH   3   4
ATOM      4  C   UNL     1      39.991  11.843  16.551  1.00  0.00     0.053 C 
BRANCH   4   5
ATOM      5  C   UNL     1      41.298  12.529  16.306  1.00  0.00     0.041 C 
ATOM      6  O   UNL     1      41.337  13.599  15.645  1.00  0.00    -0.550 OA
ATOM      7  O   UNL     1      42.467  12.010  16.848  1.00  0.00    -0.550 OA
ENDBRANCH   4   5
ENDBRANCH   3   4
ENDBRANCH   2   3
ENDBRANCH   1   2
BRANCH   1   8
ATOM      8  C   UNL     1      38.349   8.558  13.837  1.00  0.00     0.000 C 
BRANCH   8   9
ATOM      9  C   UNL     1      39.370   8.082  12.797  1.00  0.00     0.000 C 
BRANCH   9  10
ATOM     10  C   UNL     1      39.486   9.085  11.639  1.00  0.00     0.006 C 
BRANCH  10  11
ATOM     11  C   UNL     1      40.861   9.763  11.591  1.00  0.00     0.053 C 
BRANCH  11  12
ATOM     12  C   UNL     1      40.831  11.126  12.213  1.00  0.00     0.041 C 
ATOM     13  O   UNL     1      41.735  11.473  13.018  1.00  0.00    -0.550 OA
ATOM     14  O   UNL     1      39.789  11.999  11.929  1.00  0.00    -0.550 OA
ENDBRANCH  11  12
ENDBRANCH  10  11
ENDBRANCH   9  10
ENDBRANCH   8   9
ENDBRANCH   1   8
TORSDOF 9
ENDMDL
