MODEL 1
REMARK VINA RESULT:    -2.954      0.000      0.000
REMARK INTER + INTRA:          -3.767
REMARK INTER:                  -3.644
REMARK INTRA:                  -0.122
REMARK UNBOUND:                -0.122
REMARK SMILES CCCCCC(=O)[O-]
REMARK SMILES IDX 4 1 5 2 6 3 7 4 8 5 3 6 2 7 1 8
REMARK H PARENT
REMARK Flexibility Score: inf
ROOT
ATOM      1  C   UNL     1      56.775  28.565  50.473  1.00  0.00     0.006 C 
ENDROOT
BRANCH   1   2
ATOM      2  C   UNL     1      57.942  27.634  50.117  1.00  0.00     0.053 C 
BRANCH   2   3
ATOM      3  C   UNL     1      59.018  28.395  49.408  1.00  0.00     0.041 C 
ATOM      4  O   UNL     1      60.166  27.897  49.277  1.00  0.00    -0.550 OA
ATOM      5  O   UNL     1      58.765  29.677  48.934  1.00  0.00    -0.550 OA
ENDBRANCH   2   3
ENDBRANCH   1   2
BRANCH   1   6
ATOM      6  C   UNL     1      55.410  27.867  50.371  1.00  0.00     0.000 C 
BRANCH   6   7
ATOM      7  C   UNL     1      55.531  26.395  49.948  1.00  0.00    -0.003 C 
ATOM      8  C   UNL     1      54.285  25.939  49.191  1.00  0.00     0.004 C 
ENDBRANCH   6   7
ENDBRANCH   1   6
TORSDOF 4
ENDMDL
MODEL 2
REMARK VINA RESULT:    -2.907      9.094      9.963
REMARK INTER + INTRA:          -3.709
REMARK INTER:                  -3.447
REMARK INTRA:                  -0.262
REMARK UNBOUND:                -0.122
REMARK SMILES CCCCCC(=O)[O-]
REMARK SMILES IDX 4 1 5 2 6 3 7 4 8 5 3 6 2 7 1 8
REMARK H PARENT
REMARK Flexibility Score: inf
ROOT
ATOM      1  C   UNL     1      57.982  17.099  49.114  1.00  0.00     0.006 C 
ENDROOT
BRANCH   1   2
ATOM      2  C   UNL     1      59.341  17.277  48.424  1.00  0.00     0.053 C 
BRANCH   2   3
ATOM      3  C   UNL     1      59.984  18.556  48.860  1.00  0.00     0.041 C 
ATOM      4  O   UNL     1      61.033  18.533  49.555  1.00  0.00    -0.550 OA
ATOM      5  O   UNL     1      59.396  19.773  48.540  1.00  0.00    -0.550 OA
ENDBRANCH   2   3
ENDBRANCH   1   2
BRANCH   1   6
ATOM      6  C   UNL     1      58.112  16.896  50.632  1.00  0.00     0.000 C 
BRANCH   6   7
ATOM      7  C   UNL     1      57.379  17.980  51.437  1.00  0.00    -0.003 C 
ATOM      8  C   UNL     1      56.419  18.767  50.549  1.00  0.00     0.004 C 
ENDBRANCH   6   7
ENDBRANCH   1   6
TORSDOF 4
ENDMDL
MODEL 3
REMARK VINA RESULT:    -2.891      9.311     10.360
REMARK INTER + INTRA:          -3.690
REMARK INTER:                  -3.467
REMARK INTRA:                  -0.222
REMARK UNBOUND:                -0.122
REMARK SMILES CCCCCC(=O)[O-]
REMARK SMILES IDX 4 1 5 2 6 3 7 4 8 5 3 6 2 7 1 8
REMARK H PARENT
REMARK Flexibility Score: inf
ROOT
ATOM      1  C   UNL     1      58.120  17.108  49.141  1.00  0.00     0.006 C 
ENDROOT
BRANCH   1   2
ATOM      2  C   UNL     1      57.745  17.249  50.622  1.00  0.00     0.053 C 
BRANCH   2   3
ATOM      3  C   UNL     1      56.965  18.507  50.844  1.00  0.00     0.041 C 
ATOM      4  O   UNL     1      55.780  18.600  50.431  1.00  0.00    -0.550 OA
ATOM      5  O   UNL     1      57.565  19.595  51.465  1.00  0.00    -0.550 OA
ENDBRANCH   2   3
ENDBRANCH   1   2
BRANCH   1   6
ATOM      6  C   UNL     1      59.640  17.074  48.917  1.00  0.00     0.000 C 
BRANCH   6   7
ATOM      7  C   UNL     1      60.316  18.411  49.257  1.00  0.00    -0.003 C 
ATOM      8  C   UNL     1      59.760  19.542  48.395  1.00  0.00     0.004 C 
ENDBRANCH   6   7
ENDBRANCH   1   6
TORSDOF 4
ENDMDL
MODEL 4
REMARK VINA RESULT:    -2.872      1.580      1.855
REMARK INTER + INTRA:          -3.666
REMARK INTER:                  -3.524
REMARK INTRA:                  -0.142
REMARK UNBOUND:                -0.122
REMARK SMILES CCCCCC(=O)[O-]
REMARK SMILES IDX 4 1 5 2 6 3 7 4 8 5 3 6 2 7 1 8
REMARK H PARENT
REMARK Flexibility Score: inf
ROOT
ATOM      1  C   UNL     1      58.155  29.318  50.624  1.00  0.00     0.006 C 
ENDROOT
BRANCH   1   2
ATOM      2  C   UNL     1      58.848  29.172  49.263  1.00  0.00     0.053 C 
BRANCH   2   3
ATOM      3  C   UNL     1      59.785  28.005  49.278  1.00  0.00     0.041 C 
ATOM      4  O   UNL     1      61.030  28.192  49.252  1.00  0.00    -0.550 OA
ATOM      5  O   UNL     1      59.282  26.710  49.271  1.00  0.00    -0.550 OA
ENDBRANCH   2   3
ENDBRANCH   1   2
BRANCH   1   6
ATOM      6  C   UNL     1      56.624  29.253  50.518  1.00  0.00     0.000 C 
BRANCH   6   7
ATOM      7  C   UNL     1      56.105  27.817  50.351  1.00  0.00    -0.003 C 
ATOM      8  C   UNL     1      54.597  27.803  50.108  1.00  0.00     0.004 C 
ENDBRANCH   6   7
ENDBRANCH   1   6
TORSDOF 4
ENDMDL
MODEL 5
REMARK VINA RESULT:    -2.870      2.835      4.498
REMARK INTER + INTRA:          -3.663
REMARK INTER:                  -3.591
REMARK INTRA:                  -0.073
REMARK UNBOUND:                -0.122
REMARK SMILES CCCCCC(=O)[O-]
REMARK SMILES IDX 4 1 5 2 6 3 7 4 8 5 3 6 2 7 1 8
REMARK H PARENT
REMARK Flexibility Score: inf
ROOT
ATOM      1  C   UNL     1      56.910  28.194  50.338  1.00  0.00     0.006 C 
ENDROOT
BRANCH   1   2
ATOM      2  C   UNL     1      55.413  28.472  50.535  1.00  0.00     0.053 C 
BRANCH   2   3
ATOM      3  C   UNL     1      54.594  27.429  49.842  1.00  0.00     0.041 C 
ATOM      4  O   UNL     1      53.389  27.654  49.557  1.00  0.00    -0.550 OA
ATOM      5  O   UNL     1      55.148  26.187  49.556  1.00  0.00    -0.550 OA
ENDBRANCH   2   3
ENDBRANCH   1   2
BRANCH   1   6
ATOM      6  C   UNL     1      57.762  29.470  50.406  1.00  0.00     0.000 C 
BRANCH   6   7
ATOM      7  C   UNL     1      58.812  29.539  49.287  1.00  0.00    -0.003 C 
ATOM      8  C   UNL     1      59.543  28.207  49.138  1.00  0.00     0.004 C 
ENDBRANCH   6   7
ENDBRANCH   1   6
TORSDOF 4
ENDMDL
MODEL 6
REMARK VINA RESULT:    -2.821      2.726      4.335
REMARK INTER + INTRA:          -3.603
REMARK INTER:                  -3.518
REMARK INTRA:                  -0.084
REMARK UNBOUND:                -0.122
REMARK SMILES CCCCCC(=O)[O-]
REMARK SMILES IDX 4 1 5 2 6 3 7 4 8 5 3 6 2 7 1 8
REMARK H PARENT
REMARK Flexibility Score: inf
ROOT
ATOM      1  C   UNL     1      57.446  27.443  50.151  1.00  0.00     0.006 C 
ENDROOT
BRANCH   1   2
ATOM      2  C   UNL     1      56.461  26.276  50.299  1.00  0.00     0.053 C 
BRANCH   2   3
ATOM      3  C   UNL     1      55.114  26.662  49.774  1.00  0.00     0.041 C 
ATOM      4  O   UNL     1      54.428  25.835  49.117  1.00  0.00    -0.550 OA
ATOM      5  O   UNL     1      54.636  27.952  49.969  1.00  0.00    -0.550 OA
ENDBRANCH   2   3
ENDBRANCH   1   2
BRANCH   1   6
ATOM      6  C   UNL     1      58.829  26.990  49.657  1.00  0.00     0.000 C 
BRANCH   6   7
ATOM      7  C   UNL     1      59.699  28.163  49.182  1.00  0.00    -0.003 C 
ATOM      8  C   UNL     1      58.900  29.464  49.157  1.00  0.00     0.004 C 
ENDBRANCH   6   7
ENDBRANCH   1   6
TORSDOF 4
ENDMDL
MODEL 7
REMARK VINA RESULT:    -2.798      0.860      1.448
REMARK INTER + INTRA:          -3.574
REMARK INTER:                  -3.514
REMARK INTRA:                  -0.060
REMARK UNBOUND:                -0.122
REMARK SMILES CCCCCC(=O)[O-]
REMARK SMILES IDX 4 1 5 2 6 3 7 4 8 5 3 6 2 7 1 8
REMARK H PARENT
REMARK Flexibility Score: inf
ROOT
ATOM      1  C   UNL     1      56.542  27.490  50.580  1.00  0.00     0.006 C 
ENDROOT
BRANCH   1   2
ATOM      2  C   UNL     1      57.147  28.895  50.453  1.00  0.00     0.053 C 
BRANCH   2   3
ATOM      3  C   UNL     1      58.400  28.850  49.636  1.00  0.00     0.041 C 
ATOM      4  O   UNL     1      58.852  29.901  49.111  1.00  0.00    -0.550 OA
ATOM      5  O   UNL     1      59.042  27.638  49.415  1.00  0.00    -0.550 OA
ENDBRANCH   2   3
ENDBRANCH   1   2
BRANCH   1   6
ATOM      6  C   UNL     1      55.104  27.416  50.043  1.00  0.00     0.000 C 
BRANCH   6   7
ATOM      7  C   UNL     1      54.773  26.046  49.430  1.00  0.00    -0.003 C 
ATOM      8  C   UNL     1      53.351  26.023  48.874  1.00  0.00     0.004 C 
ENDBRANCH   6   7
ENDBRANCH   1   6
TORSDOF 4
ENDMDL
MODEL 8
REMARK VINA RESULT:    -2.788      1.029      1.684
REMARK INTER + INTRA:          -3.562
REMARK INTER:                  -3.473
REMARK INTRA:                  -0.089
REMARK UNBOUND:                -0.122
REMARK SMILES CCCCCC(=O)[O-]
REMARK SMILES IDX 4 1 5 2 6 3 7 4 8 5 3 6 2 7 1 8
REMARK H PARENT
REMARK Flexibility Score: inf
ROOT
ATOM      1  C   UNL     1      56.401  28.084  50.348  1.00  0.00     0.006 C 
ENDROOT
BRANCH   1   2
ATOM      2  C   UNL     1      57.762  28.677  50.736  1.00  0.00     0.053 C 
BRANCH   2   3
ATOM      3  C   UNL     1      58.699  28.638  49.570  1.00  0.00     0.041 C 
ATOM      4  O   UNL     1      58.883  29.667  48.869  1.00  0.00    -0.550 OA
ATOM      5  O   UNL     1      59.332  27.449  49.227  1.00  0.00    -0.550 OA
ENDBRANCH   2   3
ENDBRANCH   1   2
BRANCH   1   6
ATOM      6  C   UNL     1      55.234  29.039  50.644  1.00  0.00     0.000 C 
BRANCH   6   7
ATOM      7  C   UNL     1      53.897  28.528  50.086  1.00  0.00    -0.003 C 
ATOM      8  C   UNL     1      53.991  27.052  49.703  1.00  0.00     0.004 C 
ENDBRANCH   6   7
ENDBRANCH   1   6
TORSDOF 4
ENDMDL
MODEL 9
REMARK VINA RESULT:    -2.646     17.665     18.735
REMARK INTER + INTRA:          -3.387
REMARK INTER:                  -3.244
REMARK INTRA:                  -0.143
REMARK UNBOUND:                -0.122
REMARK SMILES CCCCCC(=O)[O-]
REMARK SMILES IDX 4 1 5 2 6 3 7 4 8 5 3 6 2 7 1 8
REMARK H PARENT
REMARK Flexibility Score: inf
ROOT
ATOM      1  C   UNL     1      72.373  30.067  60.872  1.00  0.00     0.006 C 
ENDROOT
BRANCH   1   2
ATOM      2  C   UNL     1      72.703  31.529  61.204  1.00  0.00     0.053 C 
BRANCH   2   3
ATOM      3  C   UNL     1      71.769  32.450  60.484  1.00  0.00     0.041 C 
ATOM      4  O   UNL     1      70.886  31.986  59.717  1.00  0.00    -0.550 OA
ATOM      5  O   UNL     1      71.906  33.826  60.624  1.00  0.00    -0.550 OA
ENDBRANCH   2   3
ENDBRANCH   1   2
BRANCH   1   6
ATOM      6  C   UNL     1      71.951  29.261  62.110  1.00  0.00     0.000 C 
BRANCH   6   7
ATOM      7  C   UNL     1      70.615  29.741  62.699  1.00  0.00    -0.003 C 
ATOM      8  C   UNL     1      69.503  28.730  62.431  1.00  0.00     0.004 C 
ENDBRANCH   6   7
ENDBRANCH   1   6
TORSDOF 4
ENDMDL
