MODEL 1
REMARK VINA RESULT:    -6.263      0.000      0.000
REMARK INTER + INTRA:          -7.231
REMARK INTER:                  -7.179
REMARK INTRA:                  -0.052
REMARK UNBOUND:                -0.052
REMARK SMILES O=C([O-])c1cc(O)c(O)c(O)c1
REMARK SMILES IDX 4 1 5 2 12 3 6 4 10 5 8 6 2 7 1 8 3 9 7 10 11 12 9 14
REMARK H PARENT 7 11 11 13 9 15
REMARK Flexibility Score: inf
ROOT
ATOM      1  C   UNL     1     151.472 154.972 149.080  1.00  0.00     0.005 A 
ATOM      2  C   UNL     1     151.894 155.278 147.775  1.00  0.00     0.060 A 
ATOM      3  C   UNL     1     152.367 155.158 150.148  1.00  0.00     0.060 A 
ATOM      4  C   UNL     1     153.189 155.761 147.538  1.00  0.00     0.162 A 
ATOM      5  C   UNL     1     153.662 155.640 149.916  1.00  0.00     0.162 A 
ATOM      6  C   UNL     1     154.075 155.943 148.612  1.00  0.00     0.200 A 
ENDROOT
BRANCH   1   7
ATOM      7  C   UNL     1     150.103 154.462 149.322  1.00  0.00     0.072 C 
ATOM      8  O   UNL     1     149.825 153.857 150.392  1.00  0.00    -0.545 OA
ATOM      9  O   UNL     1     149.106 154.644 148.371  1.00  0.00    -0.545 OA
ENDBRANCH   1   7
BRANCH   4  10
ATOM     10  O   UNL     1     153.596 156.060 146.239  1.00  0.00    -0.504 OA
ATOM     11  H   UNL     1     153.742 157.016 145.934  1.00  0.00     0.293 HD
ENDBRANCH   4  10
BRANCH   5  12
ATOM     12  O   UNL     1     154.546 155.823 150.978  1.00  0.00    -0.504 OA
ATOM     13  H   UNL     1     154.399 155.373 151.875  1.00  0.00     0.293 HD
ENDBRANCH   5  12
BRANCH   6  14
ATOM     14  O   UNL     1     155.369 156.422 148.402  1.00  0.00    -0.502 OA
ATOM     15  H   UNL     1     155.977 156.035 147.690  1.00  0.00     0.293 HD
ENDBRANCH   6  14
TORSDOF 4
ENDMDL
MODEL 2
REMARK VINA RESULT:    -6.249      0.030      2.421
REMARK INTER + INTRA:          -7.214
REMARK INTER:                  -7.162
REMARK INTRA:                  -0.052
REMARK UNBOUND:                -0.052
REMARK SMILES O=C([O-])c1cc(O)c(O)c(O)c1
REMARK SMILES IDX 4 1 5 2 12 3 6 4 10 5 8 6 2 7 1 8 3 9 7 10 11 12 9 14
REMARK H PARENT 7 11 11 13 9 15
REMARK Flexibility Score: inf
ROOT
ATOM      1  C   UNL     1     151.468 154.966 149.051  1.00  0.00     0.005 A 
ATOM      2  C   UNL     1     152.359 155.148 150.122  1.00  0.00     0.060 A 
ATOM      3  C   UNL     1     151.894 155.279 147.748  1.00  0.00     0.060 A 
ATOM      4  C   UNL     1     153.655 155.634 149.899  1.00  0.00     0.162 A 
ATOM      5  C   UNL     1     153.189 155.766 147.520  1.00  0.00     0.162 A 
ATOM      6  C   UNL     1     154.071 155.943 148.593  1.00  0.00     0.200 A 
ENDROOT
BRANCH   1   7
ATOM      7  C   UNL     1     150.101 154.452 149.294  1.00  0.00     0.072 C 
ATOM      8  O   UNL     1     149.825 153.849 150.365  1.00  0.00    -0.545 OA
ATOM      9  O   UNL     1     149.104 154.627 148.342  1.00  0.00    -0.545 OA
ENDBRANCH   1   7
BRANCH   4  10
ATOM     10  O   UNL     1     154.529 155.810 150.969  1.00  0.00    -0.504 OA
ATOM     11  H   UNL     1     154.197 155.853 151.926  1.00  0.00     0.293 HD
ENDBRANCH   4  10
BRANCH   5  12
ATOM     12  O   UNL     1     153.607 156.074 146.227  1.00  0.00    -0.504 OA
ATOM     13  H   UNL     1     153.642 155.370 145.498  1.00  0.00     0.293 HD
ENDBRANCH   5  12
BRANCH   6  14
ATOM     14  O   UNL     1     155.356 156.429 148.346  1.00  0.00    -0.502 OA
ATOM     15  H   UNL     1     155.520 157.372 148.014  1.00  0.00     0.293 HD
ENDBRANCH   6  14
TORSDOF 4
ENDMDL
MODEL 3
REMARK VINA RESULT:    -6.031      1.688      3.169
REMARK INTER + INTRA:          -6.964
REMARK INTER:                  -6.919
REMARK INTRA:                  -0.045
REMARK UNBOUND:                -0.052
REMARK SMILES O=C([O-])c1cc(O)c(O)c(O)c1
REMARK SMILES IDX 4 1 5 2 12 3 6 4 10 5 8 6 2 7 1 8 3 9 7 10 11 12 9 14
REMARK H PARENT 7 11 11 13 9 15
REMARK Flexibility Score: inf
ROOT
ATOM      1  C   UNL     1     150.643 154.408 147.539  1.00  0.00     0.005 A 
ATOM      2  C   UNL     1     150.636 154.059 148.901  1.00  0.00     0.060 A 
ATOM      3  C   UNL     1     151.677 155.225 147.049  1.00  0.00     0.060 A 
ATOM      4  C   UNL     1     151.644 154.518 149.761  1.00  0.00     0.162 A 
ATOM      5  C   UNL     1     152.687 155.686 147.905  1.00  0.00     0.162 A 
ATOM      6  C   UNL     1     152.673 155.334 149.261  1.00  0.00     0.200 A 
ENDROOT
BRANCH   1   7
ATOM      7  C   UNL     1     149.575 153.919 146.637  1.00  0.00     0.072 C 
ATOM      8  O   UNL     1     148.480 154.535 146.549  1.00  0.00    -0.545 OA
ATOM      9  O   UNL     1     149.768 152.773 145.876  1.00  0.00    -0.545 OA
ENDBRANCH   1   7
BRANCH   4  10
ATOM     10  O   UNL     1     151.626 154.166 151.109  1.00  0.00    -0.504 OA
ATOM     11  H   UNL     1     151.308 154.811 151.823  1.00  0.00     0.293 HD
ENDBRANCH   4  10
BRANCH   5  12
ATOM     12  O   UNL     1     153.709 156.496 147.415  1.00  0.00    -0.504 OA
ATOM     13  H   UNL     1     153.651 156.930 146.500  1.00  0.00     0.293 HD
ENDBRANCH   5  12
BRANCH   6  14
ATOM     14  O   UNL     1     153.687 155.803 150.097  1.00  0.00    -0.502 OA
ATOM     15  H   UNL     1     154.131 155.211 150.788  1.00  0.00     0.293 HD
ENDBRANCH   6  14
TORSDOF 4
ENDMDL
MODEL 4
REMARK VINA RESULT:    -5.990      1.689      2.429
REMARK INTER + INTRA:          -6.917
REMARK INTER:                  -6.872
REMARK INTRA:                  -0.045
REMARK UNBOUND:                -0.052
REMARK SMILES O=C([O-])c1cc(O)c(O)c(O)c1
REMARK SMILES IDX 4 1 5 2 12 3 6 4 10 5 8 6 2 7 1 8 3 9 7 10 11 12 9 14
REMARK H PARENT 7 11 11 13 9 15
REMARK Flexibility Score: inf
ROOT
ATOM      1  C   UNL     1     150.657 154.442 147.512  1.00  0.00     0.005 A 
ATOM      2  C   UNL     1     151.691 155.246 147.003  1.00  0.00     0.060 A 
ATOM      3  C   UNL     1     150.658 154.114 148.879  1.00  0.00     0.060 A 
ATOM      4  C   UNL     1     152.712 155.714 147.843  1.00  0.00     0.162 A 
ATOM      5  C   UNL     1     151.676 154.579 149.723  1.00  0.00     0.162 A 
ATOM      6  C   UNL     1     152.704 155.380 149.207  1.00  0.00     0.200 A 
ENDROOT
BRANCH   1   7
ATOM      7  C   UNL     1     149.583 153.952 146.619  1.00  0.00     0.072 C 
ATOM      8  O   UNL     1     148.494 154.578 146.523  1.00  0.00    -0.545 OA
ATOM      9  O   UNL     1     149.761 152.792 145.875  1.00  0.00    -0.545 OA
ENDBRANCH   1   7
BRANCH   4  10
ATOM     10  O   UNL     1     153.732 156.509 147.326  1.00  0.00    -0.504 OA
ATOM     11  H   UNL     1     153.989 157.391 147.755  1.00  0.00     0.293 HD
ENDBRANCH   4  10
BRANCH   5  12
ATOM     12  O   UNL     1     151.673 154.250 151.077  1.00  0.00    -0.504 OA
ATOM     13  H   UNL     1     152.404 153.678 151.486  1.00  0.00     0.293 HD
ENDBRANCH   5  12
BRANCH   6  14
ATOM     14  O   UNL     1     153.708 155.833 150.063  1.00  0.00    -0.502 OA
ATOM     15  H   UNL     1     154.109 156.760 149.979  1.00  0.00     0.293 HD
ENDBRANCH   6  14
TORSDOF 4
ENDMDL
MODEL 5
REMARK VINA RESULT:    -5.980      1.162      4.636
REMARK INTER + INTRA:          -6.905
REMARK INTER:                  -6.853
REMARK INTRA:                  -0.053
REMARK UNBOUND:                -0.052
REMARK SMILES O=C([O-])c1cc(O)c(O)c(O)c1
REMARK SMILES IDX 4 1 5 2 12 3 6 4 10 5 8 6 2 7 1 8 3 9 7 10 11 12 9 14
REMARK H PARENT 7 11 11 13 9 15
REMARK Flexibility Score: inf
ROOT
ATOM      1  C   UNL     1     152.696 155.330 149.317  1.00  0.00     0.005 A 
ATOM      2  C   UNL     1     151.802 154.634 150.149  1.00  0.00     0.060 A 
ATOM      3  C   UNL     1     152.398 155.453 147.948  1.00  0.00     0.060 A 
ATOM      4  C   UNL     1     150.631 154.068 149.625  1.00  0.00     0.162 A 
ATOM      5  C   UNL     1     151.229 154.889 147.420  1.00  0.00     0.162 A 
ATOM      6  C   UNL     1     150.344 154.197 148.256  1.00  0.00     0.200 A 
ENDROOT
BRANCH   1   7
ATOM      7  C   UNL     1     153.930 155.924 149.877  1.00  0.00     0.072 C 
ATOM      8  O   UNL     1     154.164 155.870 151.114  1.00  0.00    -0.545 OA
ATOM      9  O   UNL     1     154.849 156.553 149.045  1.00  0.00    -0.545 OA
ENDBRANCH   1   7
BRANCH   4  10
ATOM     10  O   UNL     1     149.754 153.380 150.460  1.00  0.00    -0.504 OA
ATOM     11  H   UNL     1     149.113 153.867 151.077  1.00  0.00     0.293 HD
ENDBRANCH   4  10
BRANCH   5  12
ATOM     12  O   UNL     1     150.939 155.014 146.063  1.00  0.00    -0.504 OA
ATOM     13  H   UNL     1     150.362 154.335 145.578  1.00  0.00     0.293 HD
ENDBRANCH   5  12
BRANCH   6  14
ATOM     14  O   UNL     1     149.185 153.643 147.711  1.00  0.00    -0.502 OA
ATOM     15  H   UNL     1     148.339 153.521 148.255  1.00  0.00     0.293 HD
ENDBRANCH   6  14
TORSDOF 4
ENDMDL
MODEL 6
REMARK VINA RESULT:    -5.928      1.187      4.077
REMARK INTER + INTRA:          -6.847
REMARK INTER:                  -6.794
REMARK INTRA:                  -0.053
REMARK UNBOUND:                -0.052
REMARK SMILES O=C([O-])c1cc(O)c(O)c(O)c1
REMARK SMILES IDX 4 1 5 2 12 3 6 4 10 5 8 6 2 7 1 8 3 9 7 10 11 12 9 14
REMARK H PARENT 7 11 11 13 9 15
REMARK Flexibility Score: inf
ROOT
ATOM      1  C   UNL     1     152.628 155.267 149.307  1.00  0.00     0.005 A 
ATOM      2  C   UNL     1     152.336 155.378 147.937  1.00  0.00     0.060 A 
ATOM      3  C   UNL     1     151.725 154.587 150.143  1.00  0.00     0.060 A 
ATOM      4  C   UNL     1     151.163 154.822 147.409  1.00  0.00     0.162 A 
ATOM      5  C   UNL     1     150.550 154.029 149.620  1.00  0.00     0.162 A 
ATOM      6  C   UNL     1     150.267 154.145 148.253  1.00  0.00     0.200 A 
ENDROOT
BRANCH   1   7
ATOM      7  C   UNL     1     153.869 155.856 149.858  1.00  0.00     0.072 C 
ATOM      8  O   UNL     1     154.119 155.786 151.090  1.00  0.00    -0.545 OA
ATOM      9  O   UNL     1     154.775 156.497 149.021  1.00  0.00    -0.545 OA
ENDBRANCH   1   7
BRANCH   4  10
ATOM     10  O   UNL     1     150.885 154.939 146.048  1.00  0.00    -0.504 OA
ATOM     11  H   UNL     1     151.244 154.274 145.372  1.00  0.00     0.293 HD
ENDBRANCH   4  10
BRANCH   5  12
ATOM     12  O   UNL     1     149.658 153.357 150.453  1.00  0.00    -0.504 OA
ATOM     13  H   UNL     1     149.982 152.771 151.216  1.00  0.00     0.293 HD
ENDBRANCH   5  12
BRANCH   6  14
ATOM     14  O   UNL     1     149.093 153.583 147.751  1.00  0.00    -0.502 OA
ATOM     15  H   UNL     1     149.099 152.753 147.169  1.00  0.00     0.293 HD
ENDBRANCH   6  14
TORSDOF 4
ENDMDL
MODEL 7
REMARK VINA RESULT:    -5.841      1.236      4.800
REMARK INTER + INTRA:          -6.746
REMARK INTER:                  -6.693
REMARK INTRA:                  -0.053
REMARK UNBOUND:                -0.052
REMARK SMILES O=C([O-])c1cc(O)c(O)c(O)c1
REMARK SMILES IDX 4 1 5 2 12 3 6 4 10 5 8 6 2 7 1 8 3 9 7 10 11 12 9 14
REMARK H PARENT 7 11 11 13 9 15
REMARK Flexibility Score: inf
ROOT
ATOM      1  C   UNL     1     152.375 155.385 148.177  1.00  0.00     0.005 A 
ATOM      2  C   UNL     1     152.597 155.057 149.525  1.00  0.00     0.060 A 
ATOM      3  C   UNL     1     151.163 155.004 147.573  1.00  0.00     0.060 A 
ATOM      4  C   UNL     1     151.627 154.361 150.260  1.00  0.00     0.162 A 
ATOM      5  C   UNL     1     150.191 154.308 148.304  1.00  0.00     0.162 A 
ATOM      6  C   UNL     1     150.420 153.985 149.648  1.00  0.00     0.200 A 
ENDROOT
BRANCH   1   7
ATOM      7  C   UNL     1     153.403 156.120 147.407  1.00  0.00     0.072 C 
ATOM      8  O   UNL     1     153.183 156.472 146.218  1.00  0.00    -0.545 OA
ATOM      9  O   UNL     1     154.627 156.432 147.987  1.00  0.00    -0.545 OA
ENDBRANCH   1   7
BRANCH   4  10
ATOM     10  O   UNL     1     151.859 154.041 151.597  1.00  0.00    -0.504 OA
ATOM     11  H   UNL     1     151.174 153.540 152.151  1.00  0.00     0.293 HD
ENDBRANCH   4  10
BRANCH   5  12
ATOM     12  O   UNL     1     148.992 153.932 147.701  1.00  0.00    -0.504 OA
ATOM     13  H   UNL     1     148.136 153.834 148.236  1.00  0.00     0.293 HD
ENDBRANCH   5  12
BRANCH   6  14
ATOM     14  O   UNL     1     149.440 153.292 150.359  1.00  0.00    -0.502 OA
ATOM     15  H   UNL     1     149.042 152.424 150.019  1.00  0.00     0.293 HD
ENDBRANCH   6  14
TORSDOF 4
ENDMDL
MODEL 8
REMARK VINA RESULT:    -5.119     17.681     18.151
REMARK INTER + INTRA:          -5.919
REMARK INTER:                  -5.866
REMARK INTRA:                  -0.053
REMARK UNBOUND:                -0.052
REMARK SMILES O=C([O-])c1cc(O)c(O)c(O)c1
REMARK SMILES IDX 4 1 5 2 12 3 6 4 10 5 8 6 2 7 1 8 3 9 7 10 11 12 9 14
REMARK H PARENT 7 11 11 13 9 15
REMARK Flexibility Score: inf
ROOT
ATOM      1  C   UNL     1     163.211 153.433 162.677  1.00  0.00     0.005 A 
ATOM      2  C   UNL     1     162.618 154.598 163.191  1.00  0.00     0.060 A 
ATOM      3  C   UNL     1     162.677 152.182 163.033  1.00  0.00     0.060 A 
ATOM      4  C   UNL     1     161.511 154.518 164.048  1.00  0.00     0.162 A 
ATOM      5  C   UNL     1     161.571 152.097 163.889  1.00  0.00     0.162 A 
ATOM      6  C   UNL     1     160.986 153.263 164.398  1.00  0.00     0.200 A 
ENDROOT
BRANCH   1   7
ATOM      7  C   UNL     1     164.379 153.525 161.773  1.00  0.00     0.072 C 
ATOM      8  O   UNL     1     164.854 152.491 161.232  1.00  0.00    -0.545 OA
ATOM      9  O   UNL     1     164.970 154.755 161.509  1.00  0.00    -0.545 OA
ENDBRANCH   1   7
BRANCH   4  10
ATOM     10  O   UNL     1     160.932 155.681 164.552  1.00  0.00    -0.504 OA
ATOM     11  H   UNL     1     159.964 155.707 164.852  1.00  0.00     0.293 HD
ENDBRANCH   4  10
BRANCH   5  12
ATOM     12  O   UNL     1     161.046 150.854 164.240  1.00  0.00    -0.504 OA
ATOM     13  H   UNL     1     160.212 150.485 163.795  1.00  0.00     0.293 HD
ENDBRANCH   5  12
BRANCH   6  14
ATOM     14  O   UNL     1     159.885 153.158 165.249  1.00  0.00    -0.502 OA
ATOM     15  H   UNL     1     159.909 153.493 166.204  1.00  0.00     0.293 HD
ENDBRANCH   6  14
TORSDOF 4
ENDMDL
MODEL 9
REMARK VINA RESULT:    -5.074     17.686     18.158
REMARK INTER + INTRA:          -5.868
REMARK INTER:                  -5.815
REMARK INTRA:                  -0.053
REMARK UNBOUND:                -0.052
REMARK SMILES O=C([O-])c1cc(O)c(O)c(O)c1
REMARK SMILES IDX 4 1 5 2 12 3 6 4 10 5 8 6 2 7 1 8 3 9 7 10 11 12 9 14
REMARK H PARENT 7 11 11 13 9 15
REMARK Flexibility Score: inf
ROOT
ATOM      1  C   UNL     1     163.213 153.415 162.685  1.00  0.00     0.005 A 
ATOM      2  C   UNL     1     162.674 152.163 163.027  1.00  0.00     0.060 A 
ATOM      3  C   UNL     1     162.626 154.577 163.216  1.00  0.00     0.060 A 
ATOM      4  C   UNL     1     161.568 152.070 163.882  1.00  0.00     0.162 A 
ATOM      5  C   UNL     1     161.520 154.490 164.072  1.00  0.00     0.162 A 
ATOM      6  C   UNL     1     160.989 153.238 164.407  1.00  0.00     0.200 A 
ENDROOT
BRANCH   1   7
ATOM      7  C   UNL     1     164.381 153.505 161.781  1.00  0.00     0.072 C 
ATOM      8  O   UNL     1     164.882 152.465 161.276  1.00  0.00    -0.545 OA
ATOM      9  O   UNL     1     164.943 154.739 161.477  1.00  0.00    -0.545 OA
ENDBRANCH   1   7
BRANCH   4  10
ATOM     10  O   UNL     1     161.042 150.823 164.213  1.00  0.00    -0.504 OA
ATOM     11  H   UNL     1     160.699 150.185 163.504  1.00  0.00     0.293 HD
ENDBRANCH   4  10
BRANCH   5  12
ATOM     12  O   UNL     1     160.942 155.645 164.595  1.00  0.00    -0.504 OA
ATOM     13  H   UNL     1     160.193 155.603 165.277  1.00  0.00     0.293 HD
ENDBRANCH   5  12
BRANCH   6  14
ATOM     14  O   UNL     1     159.888 153.172 165.261  1.00  0.00    -0.502 OA
ATOM     15  H   UNL     1     159.769 152.420 165.930  1.00  0.00     0.293 HD
ENDBRANCH   6  14
TORSDOF 4
ENDMDL
