MODEL 1
REMARK VINA RESULT:    -5.163      0.000      0.000
REMARK INTER + INTRA:          -5.812
REMARK INTER:                  -5.616
REMARK INTRA:                  -0.196
REMARK UNBOUND:                -0.196
REMARK SMILES C=C(C)[C@H]1CC[C@H](C)C[C@@H]1O
REMARK SMILES IDX 8 1 7 2 6 3 5 4 4 5 10 6 9 7 11 8 2 10 1 11 3 12
REMARK H PARENT 11 9
REMARK Flexibility Score: inf
ROOT
ATOM      1  C   UNL     1      -3.987  20.870  48.786  1.00  0.00     0.008 C 
ATOM      2  C   UNL     1      -3.886  19.746  47.749  1.00  0.00    -0.012 C 
ATOM      3  C   UNL     1      -3.075  20.213  46.524  1.00  0.00     0.004 C 
ATOM      4  C   UNL     1      -2.956  19.093  45.483  1.00  0.00     0.011 C 
ATOM      5  C   UNL     1      -2.318  17.831  46.098  1.00  0.00     0.043 C 
ATOM      6  C   UNL     1      -3.123  17.358  47.336  1.00  0.00     0.121 C 
ATOM      7  C   UNL     1      -3.248  18.490  48.375  1.00  0.00     0.035 C 
ENDROOT
BRANCH   6   8
ATOM      8  O   UNL     1      -2.530  16.225  47.920  1.00  0.00    -0.392 OA
ATOM      9  H   UNL     1      -3.170  15.857  48.583  1.00  0.00     0.210 HD
ENDBRANCH   6   8
BRANCH   5  10
ATOM     10  C   UNL     1      -2.180  16.725  45.059  1.00  0.00    -0.075 C 
ATOM     11  C   UNL     1      -3.251  16.235  44.410  1.00  0.00     0.008 C 
ATOM     12  C   UNL     1      -0.823  16.150  44.743  1.00  0.00     0.039 C 
ENDBRANCH   5  10
TORSDOF 2
ENDMDL
MODEL 2
REMARK VINA RESULT:    -5.135      2.345      4.862
REMARK INTER + INTRA:          -5.781
REMARK INTER:                  -5.594
REMARK INTRA:                  -0.187
REMARK UNBOUND:                -0.196
REMARK SMILES C=C(C)[C@H]1CC[C@H](C)C[C@@H]1O
REMARK SMILES IDX 8 1 7 2 6 3 5 4 4 5 10 6 9 7 11 8 2 10 1 11 3 12
REMARK H PARENT 11 9
REMARK Flexibility Score: inf
ROOT
ATOM      1  C   UNL     1      -1.758  16.247  47.444  1.00  0.00     0.008 C 
ATOM      2  C   UNL     1      -2.595  17.528  47.363  1.00  0.00    -0.012 C 
ATOM      3  C   UNL     1      -3.579  17.606  48.546  1.00  0.00     0.004 C 
ATOM      4  C   UNL     1      -4.416  18.890  48.483  1.00  0.00     0.011 C 
ATOM      5  C   UNL     1      -3.511  20.139  48.454  1.00  0.00     0.043 C 
ATOM      6  C   UNL     1      -2.513  20.066  47.271  1.00  0.00     0.121 C 
ATOM      7  C   UNL     1      -1.682  18.769  47.333  1.00  0.00     0.035 C 
ENDROOT
BRANCH   6   8
ATOM      8  O   UNL     1      -1.665  21.187  47.256  1.00  0.00    -0.392 OA
ATOM      9  H   UNL     1      -2.143  21.932  47.705  1.00  0.00     0.210 HD
ENDBRANCH   6   8
BRANCH   5  10
ATOM     10  C   UNL     1      -4.342  21.416  48.413  1.00  0.00    -0.075 C 
ATOM     11  C   UNL     1      -5.305  21.595  47.493  1.00  0.00     0.008 C 
ATOM     12  C   UNL     1      -4.089  22.515  49.413  1.00  0.00     0.039 C 
ENDBRANCH   5  10
TORSDOF 2
ENDMDL
MODEL 3
REMARK VINA RESULT:    -4.844      4.295      6.593
REMARK INTER + INTRA:          -5.464
REMARK INTER:                  -5.274
REMARK INTRA:                  -0.190
REMARK UNBOUND:                -0.196
REMARK SMILES C=C(C)[C@H]1CC[C@H](C)C[C@@H]1O
REMARK SMILES IDX 8 1 7 2 6 3 5 4 4 5 10 6 9 7 11 8 2 10 1 11 3 12
REMARK H PARENT 11 9
REMARK Flexibility Score: inf
ROOT
ATOM      1  C   UNL     1      -6.178  26.731  50.002  1.00  0.00     0.008 C 
ATOM      2  C   UNL     1      -5.251  25.597  49.548  1.00  0.00    -0.012 C 
ATOM      3  C   UNL     1      -5.240  24.460  50.589  1.00  0.00     0.004 C 
ATOM      4  C   UNL     1      -4.325  23.313  50.142  1.00  0.00     0.011 C 
ATOM      5  C   UNL     1      -4.750  22.773  48.761  1.00  0.00     0.043 C 
ATOM      6  C   UNL     1      -4.771  23.911  47.709  1.00  0.00     0.121 C 
ATOM      7  C   UNL     1      -5.684  25.065  48.168  1.00  0.00     0.035 C 
ENDROOT
BRANCH   6   8
ATOM      8  O   UNL     1      -5.187  23.431  46.455  1.00  0.00    -0.392 OA
ATOM      9  H   UNL     1      -4.815  24.037  45.762  1.00  0.00     0.210 HD
ENDBRANCH   6   8
BRANCH   5  10
ATOM     10  C   UNL     1      -3.855  21.618  48.326  1.00  0.00    -0.075 C 
ATOM     11  C   UNL     1      -2.517  21.743  48.296  1.00  0.00     0.008 C 
ATOM     12  C   UNL     1      -4.465  20.304  47.909  1.00  0.00     0.039 C 
ENDBRANCH   5  10
TORSDOF 2
ENDMDL
MODEL 4
REMARK VINA RESULT:    -4.808      1.625      2.325
REMARK INTER + INTRA:          -5.426
REMARK INTER:                  -5.238
REMARK INTRA:                  -0.187
REMARK UNBOUND:                -0.196
REMARK SMILES C=C(C)[C@H]1CC[C@H](C)C[C@@H]1O
REMARK SMILES IDX 8 1 7 2 6 3 5 4 4 5 10 6 9 7 11 8 2 10 1 11 3 12
REMARK H PARENT 11 9
REMARK Flexibility Score: inf
ROOT
ATOM      1  C   UNL     1      -3.807  22.096  49.148  1.00  0.00     0.008 C 
ATOM      2  C   UNL     1      -3.414  20.655  48.802  1.00  0.00    -0.012 C 
ATOM      3  C   UNL     1      -4.611  19.901  48.188  1.00  0.00     0.004 C 
ATOM      4  C   UNL     1      -4.228  18.461  47.828  1.00  0.00     0.011 C 
ATOM      5  C   UNL     1      -3.025  18.434  46.862  1.00  0.00     0.043 C 
ATOM      6  C   UNL     1      -1.819  19.196  47.468  1.00  0.00     0.121 C 
ATOM      7  C   UNL     1      -2.212  20.640  47.838  1.00  0.00     0.035 C 
ENDROOT
BRANCH   6   8
ATOM      8  O   UNL     1      -0.728  19.201  46.580  1.00  0.00    -0.392 OA
ATOM      9  H   UNL     1      -0.156  19.979  46.810  1.00  0.00     0.210 HD
ENDBRANCH   6   8
BRANCH   5  10
ATOM     10  C   UNL     1      -2.657  17.003  46.485  1.00  0.00    -0.075 C 
ATOM     11  C   UNL     1      -2.212  16.130  47.405  1.00  0.00     0.008 C 
ATOM     12  C   UNL     1      -2.781  16.542  45.056  1.00  0.00     0.039 C 
ENDBRANCH   5  10
TORSDOF 2
ENDMDL
MODEL 5
REMARK VINA RESULT:    -4.738      2.591      4.362
REMARK INTER + INTRA:          -5.349
REMARK INTER:                  -5.165
REMARK INTRA:                  -0.183
REMARK UNBOUND:                -0.196
REMARK SMILES C=C(C)[C@H]1CC[C@H](C)C[C@@H]1O
REMARK SMILES IDX 8 1 7 2 6 3 5 4 4 5 10 6 9 7 11 8 2 10 1 11 3 12
REMARK H PARENT 11 9
REMARK Flexibility Score: inf
ROOT
ATOM      1  C   UNL     1      -5.287  24.923  49.291  1.00  0.00     0.008 C 
ATOM      2  C   UNL     1      -5.131  23.414  49.074  1.00  0.00    -0.012 C 
ATOM      3  C   UNL     1      -5.482  23.038  47.622  1.00  0.00     0.004 C 
ATOM      4  C   UNL     1      -5.319  21.531  47.388  1.00  0.00     0.011 C 
ATOM      5  C   UNL     1      -3.888  21.070  47.730  1.00  0.00     0.043 C 
ATOM      6  C   UNL     1      -3.523  21.450  49.187  1.00  0.00     0.121 C 
ATOM      7  C   UNL     1      -3.698  22.964  49.420  1.00  0.00     0.035 C 
ENDROOT
BRANCH   6   8
ATOM      8  O   UNL     1      -2.207  21.059  49.496  1.00  0.00    -0.392 OA
ATOM      9  H   UNL     1      -1.598  21.529  48.869  1.00  0.00     0.210 HD
ENDBRANCH   6   8
BRANCH   5  10
ATOM     10  C   UNL     1      -3.718  19.576  47.477  1.00  0.00    -0.075 C 
ATOM     11  C   UNL     1      -2.966  19.120  46.460  1.00  0.00     0.008 C 
ATOM     12  C   UNL     1      -4.405  18.575  48.369  1.00  0.00     0.039 C 
ENDBRANCH   5  10
TORSDOF 2
ENDMDL
MODEL 6
REMARK VINA RESULT:    -4.700      2.583      3.544
REMARK INTER + INTRA:          -5.308
REMARK INTER:                  -5.121
REMARK INTRA:                  -0.187
REMARK UNBOUND:                -0.196
REMARK SMILES C=C(C)[C@H]1CC[C@H](C)C[C@@H]1O
REMARK SMILES IDX 8 1 7 2 6 3 5 4 4 5 10 6 9 7 11 8 2 10 1 11 3 12
REMARK H PARENT 11 9
REMARK Flexibility Score: inf
ROOT
ATOM      1  C   UNL     1      -5.290  23.400  48.199  1.00  0.00     0.008 C 
ATOM      2  C   UNL     1      -4.322  22.227  48.007  1.00  0.00    -0.012 C 
ATOM      3  C   UNL     1      -3.392  22.090  49.229  1.00  0.00     0.004 C 
ATOM      4  C   UNL     1      -2.424  20.913  49.055  1.00  0.00     0.011 C 
ATOM      5  C   UNL     1      -3.192  19.597  48.816  1.00  0.00     0.043 C 
ATOM      6  C   UNL     1      -4.135  19.728  47.593  1.00  0.00     0.121 C 
ATOM      7  C   UNL     1      -5.099  20.918  47.768  1.00  0.00     0.035 C 
ENDROOT
BRANCH   6   8
ATOM      8  O   UNL     1      -4.861  18.541  47.386  1.00  0.00    -0.392 OA
ATOM      9  H   UNL     1      -5.799  18.708  47.665  1.00  0.00     0.210 HD
ENDBRANCH   6   8
BRANCH   5  10
ATOM     10  C   UNL     1      -2.232  18.422  48.665  1.00  0.00    -0.075 C 
ATOM     11  C   UNL     1      -2.288  17.363  49.490  1.00  0.00     0.008 C 
ATOM     12  C   UNL     1      -1.187  18.435  47.579  1.00  0.00     0.039 C 
ENDBRANCH   5  10
TORSDOF 2
ENDMDL
MODEL 7
REMARK VINA RESULT:    -4.633      3.163      6.379
REMARK INTER + INTRA:          -5.235
REMARK INTER:                  -5.060
REMARK INTRA:                  -0.175
REMARK UNBOUND:                -0.196
REMARK SMILES C=C(C)[C@H]1CC[C@H](C)C[C@@H]1O
REMARK SMILES IDX 8 1 7 2 6 3 5 4 4 5 10 6 9 7 11 8 2 10 1 11 3 12
REMARK H PARENT 11 9
REMARK Flexibility Score: inf
ROOT
ATOM      1  C   UNL     1      -3.139  18.876  47.271  1.00  0.00     0.008 C 
ATOM      2  C   UNL     1      -3.354  20.364  47.568  1.00  0.00    -0.012 C 
ATOM      3  C   UNL     1      -4.858  20.689  47.641  1.00  0.00     0.004 C 
ATOM      4  C   UNL     1      -5.087  22.174  47.949  1.00  0.00     0.011 C 
ATOM      5  C   UNL     1      -4.386  22.582  49.261  1.00  0.00     0.043 C 
ATOM      6  C   UNL     1      -2.872  22.252  49.199  1.00  0.00     0.121 C 
ATOM      7  C   UNL     1      -2.648  20.761  48.879  1.00  0.00     0.035 C 
ENDROOT
BRANCH   6   8
ATOM      8  O   UNL     1      -2.232  22.593  50.403  1.00  0.00    -0.392 OA
ATOM      9  H   UNL     1      -1.484  23.209  50.184  1.00  0.00     0.210 HD
ENDBRANCH   6   8
BRANCH   5  10
ATOM     10  C   UNL     1      -4.630  24.053  49.579  1.00  0.00    -0.075 C 
ATOM     11  C   UNL     1      -5.154  24.436  50.756  1.00  0.00     0.008 C 
ATOM     12  C   UNL     1      -4.290  25.112  48.563  1.00  0.00     0.039 C 
ENDBRANCH   5  10
TORSDOF 2
ENDMDL
MODEL 8
REMARK VINA RESULT:    -4.582      4.751      6.592
REMARK INTER + INTRA:          -5.179
REMARK INTER:                  -5.007
REMARK INTRA:                  -0.172
REMARK UNBOUND:                -0.196
REMARK SMILES C=C(C)[C@H]1CC[C@H](C)C[C@@H]1O
REMARK SMILES IDX 8 1 7 2 6 3 5 4 4 5 10 6 9 7 11 8 2 10 1 11 3 12
REMARK H PARENT 11 9
REMARK Flexibility Score: inf
ROOT
ATOM      1  C   UNL     1      -6.625  26.614  50.012  1.00  0.00     0.008 C 
ATOM      2  C   UNL     1      -6.073  25.202  49.787  1.00  0.00    -0.012 C 
ATOM      3  C   UNL     1      -5.628  25.024  48.322  1.00  0.00     0.004 C 
ATOM      4  C   UNL     1      -5.063  23.618  48.085  1.00  0.00     0.011 C 
ATOM      5  C   UNL     1      -3.888  23.326  49.041  1.00  0.00     0.043 C 
ATOM      6  C   UNL     1      -4.324  23.510  50.517  1.00  0.00     0.121 C 
ATOM      7  C   UNL     1      -4.901  24.921  50.747  1.00  0.00     0.035 C 
ENDROOT
BRANCH   6   8
ATOM      8  O   UNL     1      -3.249  23.275  51.394  1.00  0.00    -0.392 OA
ATOM      9  H   UNL     1      -3.567  22.654  52.100  1.00  0.00     0.210 HD
ENDBRANCH   6   8
BRANCH   5  10
ATOM     10  C   UNL     1      -3.310  21.937  48.792  1.00  0.00    -0.075 C 
ATOM     11  C   UNL     1      -4.104  20.856  48.700  1.00  0.00     0.008 C 
ATOM     12  C   UNL     1      -1.822  21.752  48.651  1.00  0.00     0.039 C 
ENDBRANCH   5  10
TORSDOF 2
ENDMDL
MODEL 9
REMARK VINA RESULT:    -4.532      3.980      7.184
REMARK INTER + INTRA:          -5.125
REMARK INTER:                  -4.934
REMARK INTRA:                  -0.191
REMARK UNBOUND:                -0.196
REMARK SMILES C=C(C)[C@H]1CC[C@H](C)C[C@@H]1O
REMARK SMILES IDX 8 1 7 2 6 3 5 4 4 5 10 6 9 7 11 8 2 10 1 11 3 12
REMARK H PARENT 11 9
REMARK Flexibility Score: inf
ROOT
ATOM      1  C   UNL     1      -3.736  19.554  47.764  1.00  0.00     0.008 C 
ATOM      2  C   UNL     1      -4.411  20.868  48.175  1.00  0.00    -0.012 C 
ATOM      3  C   UNL     1      -3.578  21.589  49.252  1.00  0.00     0.004 C 
ATOM      4  C   UNL     1      -4.237  22.911  49.665  1.00  0.00     0.011 C 
ATOM      5  C   UNL     1      -4.445  23.830  48.444  1.00  0.00     0.043 C 
ATOM      6  C   UNL     1      -5.276  23.110  47.351  1.00  0.00     0.121 C 
ATOM      7  C   UNL     1      -4.615  21.777  46.948  1.00  0.00     0.035 C 
ENDROOT
BRANCH   6   8
ATOM      8  O   UNL     1      -5.445  23.932  46.222  1.00  0.00    -0.392 OA
ATOM      9  H   UNL     1      -6.407  24.167  46.161  1.00  0.00     0.210 HD
ENDBRANCH   6   8
BRANCH   5  10
ATOM     10  C   UNL     1      -5.080  25.153  48.856  1.00  0.00    -0.075 C 
ATOM     11  C   UNL     1      -4.453  26.324  48.649  1.00  0.00     0.008 C 
ATOM     12  C   UNL     1      -6.434  25.169  49.516  1.00  0.00     0.039 C 
ENDBRANCH   5  10
TORSDOF 2
ENDMDL
