MODEL 1
REMARK VINA RESULT:    -5.265      0.000      0.000
REMARK INTER + INTRA:         -10.623
REMARK INTER:                  -9.266
REMARK INTRA:                  -1.358
REMARK UNBOUND:                -1.358
REMARK SMILES CCCCCCCCCCCCCCC(=O)[O-]
REMARK SMILES IDX 9 1 10 2 11 3 12 4 13 5 14 6 15 7 16 8 17 9 8 10 7 11 6 12
REMARK SMILES IDX 5 13 4 14 3 15 2 16 1 17
REMARK H PARENT
REMARK Flexibility Score: inf
ROOT
ATOM      1  C   UNL     1      14.357  17.311  63.538  1.00  0.00     0.000 C 
ENDROOT
BRANCH   1   2
ATOM      2  C   UNL     1      13.004  16.773  63.051  1.00  0.00     0.000 C 
BRANCH   2   3
ATOM      3  C   UNL     1      12.471  15.612  63.912  1.00  0.00     0.000 C 
BRANCH   3   4
ATOM      4  C   UNL     1      13.342  15.248  65.129  1.00  0.00     0.000 C 
BRANCH   4   5
ATOM      5  C   UNL     1      14.225  14.012  64.890  1.00  0.00     0.006 C 
BRANCH   5   6
ATOM      6  C   UNL     1      13.640  13.083  63.819  1.00  0.00     0.053 C 
BRANCH   6   7
ATOM      7  C   UNL     1      14.292  11.734  63.842  1.00  0.00     0.041 C 
ATOM      8  O   UNL     1      13.711  10.758  64.385  1.00  0.00    -0.550 OA
ATOM      9  O   UNL     1      15.527  11.548  63.232  1.00  0.00    -0.550 OA
ENDBRANCH   6   7
ENDBRANCH   5   6
ENDBRANCH   4   5
ENDBRANCH   3   4
ENDBRANCH   2   3
ENDBRANCH   1   2
BRANCH   1  10
ATOM     10  C   UNL     1      15.448  17.095  62.479  1.00  0.00     0.000 C 
BRANCH  10  11
ATOM     11  C   UNL     1      15.331  15.735  61.768  1.00  0.00    -0.000 C 
BRANCH  11  12
ATOM     12  C   UNL     1      16.303  15.523  60.589  1.00  0.00    -0.000 C 
BRANCH  12  13
ATOM     13  C   UNL     1      16.471  16.738  59.658  1.00  0.00    -0.000 C 
BRANCH  13  14
ATOM     14  C   UNL     1      17.935  16.982  59.255  1.00  0.00    -0.000 C 
BRANCH  14  15
ATOM     15  C   UNL     1      18.927  16.330  60.242  1.00  0.00    -0.000 C 
BRANCH  15  16
ATOM     16  C   UNL     1      19.853  17.341  60.939  1.00  0.00    -0.003 C 
ATOM     17  C   UNL     1      19.864  17.194  62.459  1.00  0.00     0.004 C 
ENDBRANCH  15  16
ENDBRANCH  14  15
ENDBRANCH  13  14
ENDBRANCH  12  13
ENDBRANCH  11  12
ENDBRANCH  10  11
ENDBRANCH   1  10
TORSDOF 13
ENDMDL
MODEL 2
REMARK VINA RESULT:    -5.176      0.770      1.404
REMARK INTER + INTRA:         -10.467
REMARK INTER:                  -9.062
REMARK INTRA:                  -1.405
REMARK UNBOUND:                -1.358
REMARK SMILES CCCCCCCCCCCCCCC(=O)[O-]
REMARK SMILES IDX 9 1 10 2 11 3 12 4 13 5 14 6 15 7 16 8 17 9 8 10 7 11 6 12
REMARK SMILES IDX 5 13 4 14 3 15 2 16 1 17
REMARK H PARENT
REMARK Flexibility Score: inf
ROOT
ATOM      1  C   UNL     1      15.759  16.480  62.024  1.00  0.00     0.000 C 
ENDROOT
BRANCH   1   2
ATOM      2  C   UNL     1      15.011  16.704  63.346  1.00  0.00     0.000 C 
BRANCH   2   3
ATOM      3  C   UNL     1      13.495  16.459  63.231  1.00  0.00     0.000 C 
BRANCH   3   4
ATOM      4  C   UNL     1      12.928  15.403  64.197  1.00  0.00     0.000 C 
BRANCH   4   5
ATOM      5  C   UNL     1      13.874  14.208  64.406  1.00  0.00     0.006 C 
BRANCH   5   6
ATOM      6  C   UNL     1      13.592  13.069  63.418  1.00  0.00     0.053 C 
BRANCH   6   7
ATOM      7  C   UNL     1      14.263  11.797  63.837  1.00  0.00     0.041 C 
ATOM      8  O   UNL     1      13.681  10.999  64.618  1.00  0.00    -0.550 OA
ATOM      9  O   UNL     1      15.519  11.476  63.336  1.00  0.00    -0.550 OA
ENDBRANCH   6   7
ENDBRANCH   5   6
ENDBRANCH   4   5
ENDBRANCH   3   4
ENDBRANCH   2   3
ENDBRANCH   1   2
BRANCH   1  10
ATOM     10  C   UNL     1      14.961  15.559  61.091  1.00  0.00     0.000 C 
BRANCH  10  11
ATOM     11  C   UNL     1      15.446  15.619  59.631  1.00  0.00    -0.000 C 
BRANCH  11  12
ATOM     12  C   UNL     1      16.592  16.616  59.360  1.00  0.00    -0.000 C 
BRANCH  12  13
ATOM     13  C   UNL     1      17.794  16.033  58.595  1.00  0.00    -0.000 C 
BRANCH  13  14
ATOM     14  C   UNL     1      19.100  16.091  59.404  1.00  0.00    -0.000 C 
BRANCH  14  15
ATOM     15  C   UNL     1      19.085  17.224  60.453  1.00  0.00    -0.000 C 
BRANCH  15  16
ATOM     16  C   UNL     1      19.448  16.753  61.871  1.00  0.00    -0.003 C 
ATOM     17  C   UNL     1      19.567  17.901  62.871  1.00  0.00     0.004 C 
ENDBRANCH  15  16
ENDBRANCH  14  15
ENDBRANCH  13  14
ENDBRANCH  12  13
ENDBRANCH  11  12
ENDBRANCH  10  11
ENDBRANCH   1  10
TORSDOF 13
ENDMDL
MODEL 3
REMARK VINA RESULT:    -4.941     11.681     13.850
REMARK INTER + INTRA:         -10.054
REMARK INTER:                  -9.347
REMARK INTRA:                  -0.707
REMARK UNBOUND:                -1.358
REMARK SMILES CCCCCCCCCCCCCCC(=O)[O-]
REMARK SMILES IDX 9 1 10 2 11 3 12 4 13 5 14 6 15 7 16 8 17 9 8 10 7 11 6 12
REMARK SMILES IDX 5 13 4 14 3 15 2 16 1 17
REMARK H PARENT
REMARK Flexibility Score: inf
ROOT
ATOM      1  C   UNL     1      18.087  26.140  70.253  1.00  0.00     0.000 C 
ENDROOT
BRANCH   1   2
ATOM      2  C   UNL     1      19.084  27.058  70.976  1.00  0.00     0.000 C 
BRANCH   2   3
ATOM      3  C   UNL     1      19.356  28.369  70.216  1.00  0.00     0.000 C 
BRANCH   3   4
ATOM      4  C   UNL     1      18.140  28.963  69.481  1.00  0.00     0.000 C 
BRANCH   4   5
ATOM      5  C   UNL     1      18.310  28.982  67.952  1.00  0.00     0.006 C 
BRANCH   5   6
ATOM      6  C   UNL     1      17.323  28.042  67.250  1.00  0.00     0.053 C 
BRANCH   6   7
ATOM      7  C   UNL     1      17.709  27.803  65.821  1.00  0.00     0.041 C 
ATOM      8  O   UNL     1      16.908  27.235  65.034  1.00  0.00    -0.550 OA
ATOM      9  O   UNL     1      18.941  28.241  65.352  1.00  0.00    -0.550 OA
ENDBRANCH   6   7
ENDBRANCH   5   6
ENDBRANCH   4   5
ENDBRANCH   3   4
ENDBRANCH   2   3
ENDBRANCH   1   2
BRANCH   1  10
ATOM     10  C   UNL     1      17.913  24.815  71.010  1.00  0.00     0.000 C 
BRANCH  10  11
ATOM     11  C   UNL     1      18.533  23.617  70.269  1.00  0.00    -0.000 C 
BRANCH  11  12
ATOM     12  C   UNL     1      18.353  22.250  70.961  1.00  0.00    -0.000 C 
BRANCH  12  13
ATOM     13  C   UNL     1      17.008  22.060  71.687  1.00  0.00    -0.000 C 
BRANCH  13  14
ATOM     14  C   UNL     1      16.325  20.729  71.336  1.00  0.00    -0.000 C 
BRANCH  14  15
ATOM     15  C   UNL     1      17.115  19.929  70.280  1.00  0.00    -0.000 C 
BRANCH  15  16
ATOM     16  C   UNL     1      16.794  18.425  70.281  1.00  0.00    -0.003 C 
ATOM     17  C   UNL     1      16.095  17.963  71.557  1.00  0.00     0.004 C 
ENDBRANCH  15  16
ENDBRANCH  14  15
ENDBRANCH  13  14
ENDBRANCH  12  13
ENDBRANCH  11  12
ENDBRANCH  10  11
ENDBRANCH   1  10
TORSDOF 13
ENDMDL
MODEL 4
REMARK VINA RESULT:    -4.788      1.438      2.834
REMARK INTER + INTRA:          -9.784
REMARK INTER:                  -8.253
REMARK INTRA:                  -1.531
REMARK UNBOUND:                -1.358
REMARK SMILES CCCCCCCCCCCCCCC(=O)[O-]
REMARK SMILES IDX 9 1 10 2 11 3 12 4 13 5 14 6 15 7 16 8 17 9 8 10 7 11 6 12
REMARK SMILES IDX 5 13 4 14 3 15 2 16 1 17
REMARK H PARENT
REMARK Flexibility Score: inf
ROOT
ATOM      1  C   UNL     1      15.892  15.692  62.081  1.00  0.00     0.000 C 
ENDROOT
BRANCH   1   2
ATOM      2  C   UNL     1      14.480  16.283  61.960  1.00  0.00     0.000 C 
BRANCH   2   3
ATOM      3  C   UNL     1      13.684  16.217  63.276  1.00  0.00     0.000 C 
BRANCH   3   4
ATOM      4  C   UNL     1      14.325  15.364  64.386  1.00  0.00     0.000 C 
BRANCH   4   5
ATOM      5  C   UNL     1      13.572  14.047  64.645  1.00  0.00     0.006 C 
BRANCH   5   6
ATOM      6  C   UNL     1      13.652  13.092  63.448  1.00  0.00     0.053 C 
BRANCH   6   7
ATOM      7  C   UNL     1      14.276  11.783  63.828  1.00  0.00     0.041 C 
ATOM      8  O   UNL     1      13.661  10.982  64.581  1.00  0.00    -0.550 OA
ATOM      9  O   UNL     1      15.521  11.433  63.321  1.00  0.00    -0.550 OA
ENDBRANCH   6   7
ENDBRANCH   5   6
ENDBRANCH   4   5
ENDBRANCH   3   4
ENDBRANCH   2   3
ENDBRANCH   1   2
BRANCH   1  10
ATOM     10  C   UNL     1      16.958  16.796  62.009  1.00  0.00     0.000 C 
BRANCH  10  11
ATOM     11  C   UNL     1      18.286  16.307  61.405  1.00  0.00    -0.000 C 
BRANCH  11  12
ATOM     12  C   UNL     1      18.520  16.693  59.930  1.00  0.00    -0.000 C 
BRANCH  12  13
ATOM     13  C   UNL     1      18.489  15.519  58.935  1.00  0.00    -0.000 C 
BRANCH  13  14
ATOM     14  C   UNL     1      17.272  15.564  57.997  1.00  0.00    -0.000 C 
BRANCH  14  15
ATOM     15  C   UNL     1      16.016  14.940  58.641  1.00  0.00    -0.000 C 
BRANCH  15  16
ATOM     16  C   UNL     1      16.268  13.559  59.267  1.00  0.00    -0.003 C 
ATOM     17  C   UNL     1      14.989  12.877  59.748  1.00  0.00     0.004 C 
ENDBRANCH  15  16
ENDBRANCH  14  15
ENDBRANCH  13  14
ENDBRANCH  12  13
ENDBRANCH  11  12
ENDBRANCH  10  11
ENDBRANCH   1  10
TORSDOF 13
ENDMDL
MODEL 5
REMARK VINA RESULT:    -4.767      3.047      6.690
REMARK INTER + INTRA:          -9.748
REMARK INTER:                  -8.154
REMARK INTRA:                  -1.595
REMARK UNBOUND:                -1.358
REMARK SMILES CCCCCCCCCCCCCCC(=O)[O-]
REMARK SMILES IDX 9 1 10 2 11 3 12 4 13 5 14 6 15 7 16 8 17 9 8 10 7 11 6 12
REMARK SMILES IDX 5 13 4 14 3 15 2 16 1 17
REMARK H PARENT
REMARK Flexibility Score: inf
ROOT
ATOM      1  C   UNL     1      15.230  15.357  60.115  1.00  0.00     0.000 C 
ENDROOT
BRANCH   1   2
ATOM      2  C   UNL     1      16.128  14.319  59.427  1.00  0.00     0.000 C 
BRANCH   2   3
ATOM      3  C   UNL     1      17.559  14.829  59.177  1.00  0.00     0.000 C 
BRANCH   3   4
ATOM      4  C   UNL     1      17.669  16.329  58.845  1.00  0.00     0.000 C 
BRANCH   4   5
ATOM      5  C   UNL     1      18.774  17.043  59.641  1.00  0.00     0.006 C 
BRANCH   5   6
ATOM      6  C   UNL     1      18.914  16.484  61.062  1.00  0.00     0.053 C 
BRANCH   6   7
ATOM      7  C   UNL     1      19.800  17.347  61.909  1.00  0.00     0.041 C 
ATOM      8  O   UNL     1      21.050  17.315  61.757  1.00  0.00    -0.550 OA
ATOM      9  O   UNL     1      19.243  18.212  62.843  1.00  0.00    -0.550 OA
ENDBRANCH   6   7
ENDBRANCH   5   6
ENDBRANCH   4   5
ENDBRANCH   3   4
ENDBRANCH   2   3
ENDBRANCH   1   2
BRANCH   1  10
ATOM     10  C   UNL     1      15.472  15.374  61.631  1.00  0.00     0.000 C 
BRANCH  10  11
ATOM     11  C   UNL     1      15.486  16.795  62.220  1.00  0.00    -0.000 C 
BRANCH  11  12
ATOM     12  C   UNL     1      14.676  16.976  63.521  1.00  0.00    -0.000 C 
BRANCH  12  13
ATOM     13  C   UNL     1      13.147  16.955  63.345  1.00  0.00    -0.000 C 
BRANCH  13  14
ATOM     14  C   UNL     1      12.509  15.646  63.840  1.00  0.00    -0.000 C 
BRANCH  14  15
ATOM     15  C   UNL     1      13.327  14.991  64.972  1.00  0.00    -0.000 C 
BRANCH  15  16
ATOM     16  C   UNL     1      13.855  13.591  64.618  1.00  0.00    -0.003 C 
ATOM     17  C   UNL     1      13.307  13.061  63.295  1.00  0.00     0.004 C 
ENDBRANCH  15  16
ENDBRANCH  14  15
ENDBRANCH  13  14
ENDBRANCH  12  13
ENDBRANCH  11  12
ENDBRANCH  10  11
ENDBRANCH   1  10
TORSDOF 13
ENDMDL
MODEL 6
REMARK VINA RESULT:    -4.610      2.614      6.314
REMARK INTER + INTRA:          -9.471
REMARK INTER:                  -7.919
REMARK INTRA:                  -1.552
REMARK UNBOUND:                -1.358
REMARK SMILES CCCCCCCCCCCCCCC(=O)[O-]
REMARK SMILES IDX 9 1 10 2 11 3 12 4 13 5 14 6 15 7 16 8 17 9 8 10 7 11 6 12
REMARK SMILES IDX 5 13 4 14 3 15 2 16 1 17
REMARK H PARENT
REMARK Flexibility Score: inf
ROOT
ATOM      1  C   UNL     1      16.023  12.439  60.516  1.00  0.00     0.000 C 
ENDROOT
BRANCH   1   2
ATOM      2  C   UNL     1      16.446  13.365  59.367  1.00  0.00     0.000 C 
BRANCH   2   3
ATOM      3  C   UNL     1      15.674  14.697  59.349  1.00  0.00     0.000 C 
BRANCH   3   4
ATOM      4  C   UNL     1      16.514  15.935  58.982  1.00  0.00     0.000 C 
BRANCH   4   5
ATOM      5  C   UNL     1      18.016  15.746  59.255  1.00  0.00     0.006 C 
BRANCH   5   6
ATOM      6  C   UNL     1      18.635  16.967  59.946  1.00  0.00     0.053 C 
BRANCH   6   7
ATOM      7  C   UNL     1      18.785  16.748  61.421  1.00  0.00     0.041 C 
ATOM      8  O   UNL     1      18.660  15.593  61.907  1.00  0.00    -0.550 OA
ATOM      9  O   UNL     1      19.099  17.815  62.254  1.00  0.00    -0.550 OA
ENDBRANCH   6   7
ENDBRANCH   5   6
ENDBRANCH   4   5
ENDBRANCH   3   4
ENDBRANCH   2   3
ENDBRANCH   1   2
BRANCH   1  10
ATOM     10  C   UNL     1      14.734  12.944  61.182  1.00  0.00     0.000 C 
BRANCH  10  11
ATOM     11  C   UNL     1      14.604  12.497  62.649  1.00  0.00    -0.000 C 
BRANCH  11  12
ATOM     12  C   UNL     1      13.407  13.098  63.415  1.00  0.00    -0.000 C 
BRANCH  12  13
ATOM     13  C   UNL     1      13.763  13.777  64.750  1.00  0.00    -0.000 C 
BRANCH  13  14
ATOM     14  C   UNL     1      13.032  15.115  64.951  1.00  0.00    -0.000 C 
BRANCH  14  15
ATOM     15  C   UNL     1      13.017  15.969  63.665  1.00  0.00    -0.000 C 
BRANCH  15  16
ATOM     16  C   UNL     1      14.206  16.938  63.557  1.00  0.00    -0.003 C 
ATOM     17  C   UNL     1      15.319  16.421  62.648  1.00  0.00     0.004 C 
ENDBRANCH  15  16
ENDBRANCH  14  15
ENDBRANCH  13  14
ENDBRANCH  12  13
ENDBRANCH  11  12
ENDBRANCH  10  11
ENDBRANCH   1  10
TORSDOF 13
ENDMDL
MODEL 7
REMARK VINA RESULT:    -4.588      2.894      6.019
REMARK INTER + INTRA:          -9.432
REMARK INTER:                  -7.882
REMARK INTRA:                  -1.550
REMARK UNBOUND:                -1.358
REMARK SMILES CCCCCCCCCCCCCCC(=O)[O-]
REMARK SMILES IDX 9 1 10 2 11 3 12 4 13 5 14 6 15 7 16 8 17 9 8 10 7 11 6 12
REMARK SMILES IDX 5 13 4 14 3 15 2 16 1 17
REMARK H PARENT
REMARK Flexibility Score: inf
ROOT
ATOM      1  C   UNL     1      14.865  17.099  63.135  1.00  0.00     0.000 C 
ENDROOT
BRANCH   1   2
ATOM      2  C   UNL     1      15.853  16.342  62.235  1.00  0.00     0.000 C 
BRANCH   2   3
ATOM      3  C   UNL     1      15.710  16.702  60.745  1.00  0.00     0.000 C 
BRANCH   3   4
ATOM      4  C   UNL     1      16.992  16.540  59.907  1.00  0.00     0.000 C 
BRANCH   4   5
ATOM      5  C   UNL     1      18.172  15.975  60.716  1.00  0.00     0.006 C 
BRANCH   5   6
ATOM      6  C   UNL     1      19.318  16.986  60.849  1.00  0.00     0.053 C 
BRANCH   6   7
ATOM      7  C   UNL     1      19.543  17.379  62.278  1.00  0.00     0.041 C 
ATOM      8  O   UNL     1      20.289  16.684  63.017  1.00  0.00    -0.550 OA
ATOM      9  O   UNL     1      18.956  18.532  62.783  1.00  0.00    -0.550 OA
ENDBRANCH   6   7
ENDBRANCH   5   6
ENDBRANCH   4   5
ENDBRANCH   3   4
ENDBRANCH   2   3
ENDBRANCH   1   2
BRANCH   1  10
ATOM     10  C   UNL     1      13.563  16.305  63.310  1.00  0.00     0.000 C 
BRANCH  10  11
ATOM     11  C   UNL     1      13.498  15.549  64.650  1.00  0.00    -0.000 C 
BRANCH  11  12
ATOM     12  C   UNL     1      14.265  14.211  64.688  1.00  0.00    -0.000 C 
BRANCH  12  13
ATOM     13  C   UNL     1      13.586  13.050  63.938  1.00  0.00    -0.000 C 
BRANCH  13  14
ATOM     14  C   UNL     1      14.544  12.315  62.987  1.00  0.00    -0.000 C 
BRANCH  14  15
ATOM     15  C   UNL     1      14.647  13.010  61.612  1.00  0.00    -0.000 C 
BRANCH  15  16
ATOM     16  C   UNL     1      15.446  12.204  60.575  1.00  0.00    -0.003 C 
ATOM     17  C   UNL     1      15.882  13.041  59.374  1.00  0.00     0.004 C 
ENDBRANCH  15  16
ENDBRANCH  14  15
ENDBRANCH  13  14
ENDBRANCH  12  13
ENDBRANCH  11  12
ENDBRANCH  10  11
ENDBRANCH   1  10
TORSDOF 13
ENDMDL
MODEL 8
REMARK VINA RESULT:    -4.566      1.753      2.795
REMARK INTER + INTRA:          -9.393
REMARK INTER:                  -7.876
REMARK INTRA:                  -1.518
REMARK UNBOUND:                -1.358
REMARK SMILES CCCCCCCCCCCCCCC(=O)[O-]
REMARK SMILES IDX 9 1 10 2 11 3 12 4 13 5 14 6 15 7 16 8 17 9 8 10 7 11 6 12
REMARK SMILES IDX 5 13 4 14 3 15 2 16 1 17
REMARK H PARENT
REMARK Flexibility Score: inf
ROOT
ATOM      1  C   UNL     1      12.817  15.890  63.600  1.00  0.00     0.000 C 
ENDROOT
BRANCH   1   2
ATOM      2  C   UNL     1      13.158  15.150  64.902  1.00  0.00     0.000 C 
BRANCH   2   3
ATOM      3  C   UNL     1      14.007  13.885  64.674  1.00  0.00     0.000 C 
BRANCH   3   4
ATOM      4  C   UNL     1      13.521  12.971  63.534  1.00  0.00     0.000 C 
BRANCH   4   5
ATOM      5  C   UNL     1      14.672  12.269  62.793  1.00  0.00     0.006 C 
BRANCH   5   6
ATOM      6  C   UNL     1      14.810  12.758  61.346  1.00  0.00     0.053 C 
BRANCH   6   7
ATOM      7  C   UNL     1      16.096  12.298  60.728  1.00  0.00     0.041 C 
ATOM      8  O   UNL     1      17.170  12.909  60.970  1.00  0.00    -0.550 OA
ATOM      9  O   UNL     1      16.113  11.173  59.914  1.00  0.00    -0.550 OA
ENDBRANCH   6   7
ENDBRANCH   5   6
ENDBRANCH   4   5
ENDBRANCH   3   4
ENDBRANCH   2   3
ENDBRANCH   1   2
BRANCH   1  10
ATOM     10  C   UNL     1      13.515  17.256  63.546  1.00  0.00     0.000 C 
BRANCH  10  11
ATOM     11  C   UNL     1      14.963  17.169  63.029  1.00  0.00    -0.000 C 
BRANCH  11  12
ATOM     12  C   UNL     1      15.188  16.181  61.866  1.00  0.00    -0.000 C 
BRANCH  12  13
ATOM     13  C   UNL     1      15.335  16.832  60.478  1.00  0.00    -0.000 C 
BRANCH  13  14
ATOM     14  C   UNL     1      15.528  15.800  59.355  1.00  0.00    -0.000 C 
BRANCH  14  15
ATOM     15  C   UNL     1      16.980  15.774  58.831  1.00  0.00    -0.000 C 
BRANCH  15  16
ATOM     16  C   UNL     1      17.830  16.959  59.318  1.00  0.00    -0.003 C 
ATOM     17  C   UNL     1      19.000  16.533  60.203  1.00  0.00     0.004 C 
ENDBRANCH  15  16
ENDBRANCH  14  15
ENDBRANCH  13  14
ENDBRANCH  12  13
ENDBRANCH  11  12
ENDBRANCH  10  11
ENDBRANCH   1  10
TORSDOF 13
ENDMDL
MODEL 9
REMARK VINA RESULT:    -4.469     11.682     13.647
REMARK INTER + INTRA:          -9.223
REMARK INTER:                  -8.239
REMARK INTRA:                  -0.984
REMARK UNBOUND:                -1.358
REMARK SMILES CCCCCCCCCCCCCCC(=O)[O-]
REMARK SMILES IDX 9 1 10 2 11 3 12 4 13 5 14 6 15 7 16 8 17 9 8 10 7 11 6 12
REMARK SMILES IDX 5 13 4 14 3 15 2 16 1 17
REMARK H PARENT
REMARK Flexibility Score: inf
ROOT
ATOM      1  C   UNL     1      11.248  25.538  58.944  1.00  0.00     0.000 C 
ENDROOT
BRANCH   1   2
ATOM      2  C   UNL     1      10.521  26.890  58.958  1.00  0.00     0.000 C 
BRANCH   2   3
ATOM      3  C   UNL     1      10.266  27.452  57.547  1.00  0.00     0.000 C 
BRANCH   3   4
ATOM      4  C   UNL     1      10.566  28.953  57.378  1.00  0.00     0.000 C 
BRANCH   4   5
ATOM      5  C   UNL     1      10.978  29.327  55.944  1.00  0.00     0.006 C 
BRANCH   5   6
ATOM      6  C   UNL     1      10.795  28.159  54.967  1.00  0.00     0.053 C 
BRANCH   6   7
ATOM      7  C   UNL     1      11.398  28.459  53.628  1.00  0.00     0.041 C 
ATOM      8  O   UNL     1      12.094  27.591  53.037  1.00  0.00    -0.550 OA
ATOM      9  O   UNL     1      11.163  29.684  53.018  1.00  0.00    -0.550 OA
ENDBRANCH   6   7
ENDBRANCH   5   6
ENDBRANCH   4   5
ENDBRANCH   3   4
ENDBRANCH   2   3
ENDBRANCH   1   2
BRANCH   1  10
ATOM     10  C   UNL     1      11.219  24.885  60.334  1.00  0.00     0.000 C 
BRANCH  10  11
ATOM     11  C   UNL     1       9.994  23.977  60.544  1.00  0.00    -0.000 C 
BRANCH  11  12
ATOM     12  C   UNL     1      10.046  23.083  61.800  1.00  0.00    -0.000 C 
BRANCH  12  13
ATOM     13  C   UNL     1      10.482  21.628  61.546  1.00  0.00    -0.000 C 
BRANCH  13  14
ATOM     14  C   UNL     1      11.925  21.351  61.999  1.00  0.00    -0.000 C 
BRANCH  14  15
ATOM     15  C   UNL     1      12.936  21.494  60.841  1.00  0.00    -0.000 C 
BRANCH  15  16
ATOM     16  C   UNL     1      13.890  22.689  61.003  1.00  0.00    -0.003 C 
ATOM     17  C   UNL     1      13.963  23.207  62.438  1.00  0.00     0.004 C 
ENDBRANCH  15  16
ENDBRANCH  14  15
ENDBRANCH  13  14
ENDBRANCH  12  13
ENDBRANCH  11  12
ENDBRANCH  10  11
ENDBRANCH   1  10
TORSDOF 13
ENDMDL
