MODEL 1
REMARK VINA RESULT:    -4.358      0.000      0.000
REMARK INTER + INTRA:          -5.304
REMARK INTER:                  -4.995
REMARK INTRA:                  -0.309
REMARK UNBOUND:                -0.309
REMARK SMILES COc1ccc(C(C)=O)c(O)c1
REMARK SMILES IDX 6 1 10 2 12 3 3 4 4 5 5 6 7 7 8 8 9 9 11 10 2 12 1 13
REMARK H PARENT 11 11
REMARK Flexibility Score: inf
ROOT
ATOM      1  C   UNL     1      -1.012  28.622  51.817  1.00  0.00     0.059 A 
ATOM      2  C   UNL     1      -0.209  29.026  52.909  1.00  0.00     0.130 A 
ATOM      3  C   UNL     1       0.189  28.088  53.873  1.00  0.00     0.093 A 
ATOM      4  C   UNL     1      -0.216  26.746  53.777  1.00  0.00     0.122 A 
ATOM      5  C   UNL     1      -1.025  26.353  52.708  1.00  0.00     0.047 A 
ATOM      6  C   UNL     1      -1.421  27.278  51.741  1.00  0.00     0.019 A 
ENDROOT
BRANCH   1   7
ATOM      7  C   UNL     1      -1.450  29.564  50.753  1.00  0.00     0.163 C 
ATOM      8  C   UNL     1      -0.999  29.438  49.330  1.00  0.00     0.093 C 
ATOM      9  O   UNL     1      -2.231  30.510  51.048  1.00  0.00    -0.294 OA
ENDBRANCH   1   7
BRANCH   2  10
ATOM     10  O   UNL     1       0.178  30.359  53.055  1.00  0.00    -0.507 OA
ATOM     11  H   UNL     1      -0.010  30.879  53.904  1.00  0.00     0.293 HD
ENDBRANCH   2  10
BRANCH   4  12
ATOM     12  O   UNL     1       0.158  25.776  54.721  1.00  0.00    -0.497 OA
ATOM     13  C   UNL     1       0.537  26.063  56.063  1.00  0.00     0.278 C 
ENDBRANCH   4  12
TORSDOF 3
ENDMDL
MODEL 2
REMARK VINA RESULT:    -4.319      1.590      4.414
REMARK INTER + INTRA:          -5.259
REMARK INTER:                  -4.920
REMARK INTRA:                  -0.339
REMARK UNBOUND:                -0.309
REMARK SMILES COc1ccc(C(C)=O)c(O)c1
REMARK SMILES IDX 6 1 10 2 12 3 3 4 4 5 5 6 7 7 8 8 9 9 11 10 2 12 1 13
REMARK H PARENT 11 11
REMARK Flexibility Score: inf
ROOT
ATOM      1  C   UNL     1       0.122  27.412  53.421  1.00  0.00     0.059 A 
ATOM      2  C   UNL     1      -0.229  28.684  52.913  1.00  0.00     0.130 A 
ATOM      3  C   UNL     1      -1.272  28.804  51.981  1.00  0.00     0.093 A 
ATOM      4  C   UNL     1      -1.964  27.667  51.530  1.00  0.00     0.122 A 
ATOM      5  C   UNL     1      -1.602  26.411  52.020  1.00  0.00     0.047 A 
ATOM      6  C   UNL     1      -0.571  26.281  52.952  1.00  0.00     0.019 A 
ENDROOT
BRANCH   1   7
ATOM      7  C   UNL     1       1.204  27.222  54.425  1.00  0.00     0.163 C 
ATOM      8  C   UNL     1       1.027  26.377  55.649  1.00  0.00     0.093 C 
ATOM      9  O   UNL     1       2.317  27.790  54.249  1.00  0.00    -0.294 OA
ENDBRANCH   1   7
BRANCH   2  10
ATOM     10  O   UNL     1       0.464  29.828  53.309  1.00  0.00    -0.507 OA
ATOM     11  H   UNL     1       0.266  30.738  52.909  1.00  0.00     0.293 HD
ENDBRANCH   2  10
BRANCH   4  12
ATOM     12  O   UNL     1      -3.011  27.742  50.598  1.00  0.00    -0.497 OA
ATOM     13  C   UNL     1      -3.664  28.949  50.217  1.00  0.00     0.278 C 
ENDBRANCH   4  12
TORSDOF 3
ENDMDL
MODEL 3
REMARK VINA RESULT:    -4.207      2.109      4.903
REMARK INTER + INTRA:          -5.131
REMARK INTER:                  -4.803
REMARK INTRA:                  -0.328
REMARK UNBOUND:                -0.309
REMARK SMILES COc1ccc(C(C)=O)c(O)c1
REMARK SMILES IDX 6 1 10 2 12 3 3 4 4 5 5 6 7 7 8 8 9 9 11 10 2 12 1 13
REMARK H PARENT 11 11
REMARK Flexibility Score: inf
ROOT
ATOM      1  C   UNL     1       0.110  27.517  54.709  1.00  0.00     0.059 A 
ATOM      2  C   UNL     1       0.628  28.252  53.618  1.00  0.00     0.130 A 
ATOM      3  C   UNL     1      -0.198  29.143  52.915  1.00  0.00     0.093 A 
ATOM      4  C   UNL     1      -1.548  29.302  53.274  1.00  0.00     0.122 A 
ATOM      5  C   UNL     1      -2.061  28.561  54.340  1.00  0.00     0.047 A 
ATOM      6  C   UNL     1      -1.246  27.677  55.049  1.00  0.00     0.019 A 
ENDROOT
BRANCH   1   7
ATOM      7  C   UNL     1       0.940  26.573  55.505  1.00  0.00     0.163 C 
ATOM      8  C   UNL     1       0.414  25.260  56.001  1.00  0.00     0.093 C 
ATOM      9  O   UNL     1       2.132  26.879  55.779  1.00  0.00    -0.294 OA
ENDBRANCH   1   7
BRANCH   2  10
ATOM     10  O   UNL     1       1.953  28.088  53.211  1.00  0.00    -0.507 OA
ATOM     11  H   UNL     1       2.688  27.855  53.868  1.00  0.00     0.293 HD
ENDBRANCH   2  10
BRANCH   4  12
ATOM     12  O   UNL     1      -2.409  30.180  52.597  1.00  0.00    -0.497 OA
ATOM     13  C   UNL     1      -2.235  31.592  52.537  1.00  0.00     0.278 C 
ENDBRANCH   4  12
TORSDOF 3
ENDMDL
MODEL 4
REMARK VINA RESULT:    -4.154      1.756      4.587
REMARK INTER + INTRA:          -5.070
REMARK INTER:                  -4.775
REMARK INTRA:                  -0.295
REMARK UNBOUND:                -0.309
REMARK SMILES COc1ccc(C(C)=O)c(O)c1
REMARK SMILES IDX 6 1 10 2 12 3 3 4 4 5 5 6 7 7 8 8 9 9 11 10 2 12 1 13
REMARK H PARENT 11 11
REMARK Flexibility Score: inf
ROOT
ATOM      1  C   UNL     1      -0.543  27.231  54.050  1.00  0.00     0.059 A 
ATOM      2  C   UNL     1      -1.367  28.380  54.061  1.00  0.00     0.130 A 
ATOM      3  C   UNL     1      -2.242  28.627  52.991  1.00  0.00     0.093 A 
ATOM      4  C   UNL     1      -2.298  27.749  51.895  1.00  0.00     0.122 A 
ATOM      5  C   UNL     1      -1.469  26.625  51.879  1.00  0.00     0.047 A 
ATOM      6  C   UNL     1      -0.600  26.368  52.941  1.00  0.00     0.019 A 
ENDROOT
BRANCH   1   7
ATOM      7  C   UNL     1       0.390  26.906  55.162  1.00  0.00     0.163 C 
ATOM      8  C   UNL     1       1.879  26.908  54.991  1.00  0.00     0.093 C 
ATOM      9  O   UNL     1      -0.079  26.615  56.297  1.00  0.00    -0.294 OA
ENDBRANCH   1   7
BRANCH   2  10
ATOM     10  O   UNL     1      -1.308  29.293  55.114  1.00  0.00    -0.507 OA
ATOM     11  H   UNL     1      -1.879  29.188  55.945  1.00  0.00     0.293 HD
ENDBRANCH   2  10
BRANCH   4  12
ATOM     12  O   UNL     1      -3.156  27.958  50.804  1.00  0.00    -0.497 OA
ATOM     13  C   UNL     1      -3.215  29.162  50.046  1.00  0.00     0.278 C 
ENDBRANCH   4  12
TORSDOF 3
ENDMDL
MODEL 5
REMARK VINA RESULT:    -3.987      1.802      5.268
REMARK INTER + INTRA:          -4.879
REMARK INTER:                  -4.544
REMARK INTRA:                  -0.335
REMARK UNBOUND:                -0.309
REMARK SMILES COc1ccc(C(C)=O)c(O)c1
REMARK SMILES IDX 6 1 10 2 12 3 3 4 4 5 5 6 7 7 8 8 9 9 11 10 2 12 1 13
REMARK H PARENT 11 11
REMARK Flexibility Score: inf
ROOT
ATOM      1  C   UNL     1      -0.151  26.896  55.493  1.00  0.00     0.059 A 
ATOM      2  C   UNL     1      -1.345  27.633  55.312  1.00  0.00     0.130 A 
ATOM      3  C   UNL     1      -1.428  28.596  54.295  1.00  0.00     0.093 A 
ATOM      4  C   UNL     1      -0.327  28.852  53.459  1.00  0.00     0.122 A 
ATOM      5  C   UNL     1       0.856  28.136  53.652  1.00  0.00     0.047 A 
ATOM      6  C   UNL     1       0.947  27.171  54.657  1.00  0.00     0.019 A 
ENDROOT
BRANCH   1   7
ATOM      7  C   UNL     1      -0.007  25.848  56.539  1.00  0.00     0.163 C 
ATOM      8  C   UNL     1       0.507  24.474  56.237  1.00  0.00     0.093 C 
ATOM      9  O   UNL     1      -0.329  26.116  57.729  1.00  0.00    -0.294 OA
ENDBRANCH   1   7
BRANCH   2  10
ATOM     10  O   UNL     1      -2.442  27.432  56.150  1.00  0.00    -0.507 OA
ATOM     11  H   UNL     1      -2.428  26.741  56.892  1.00  0.00     0.293 HD
ENDBRANCH   2  10
BRANCH   4  12
ATOM     12  O   UNL     1      -0.367  29.808  52.432  1.00  0.00    -0.497 OA
ATOM     13  C   UNL     1      -1.142  29.681  51.244  1.00  0.00     0.278 C 
ENDBRANCH   4  12
TORSDOF 3
ENDMDL
MODEL 6
REMARK VINA RESULT:    -3.923      2.105      5.114
REMARK INTER + INTRA:          -4.806
REMARK INTER:                  -4.465
REMARK INTRA:                  -0.341
REMARK UNBOUND:                -0.309
REMARK SMILES COc1ccc(C(C)=O)c(O)c1
REMARK SMILES IDX 6 1 10 2 12 3 3 4 4 5 5 6 7 7 8 8 9 9 11 10 2 12 1 13
REMARK H PARENT 11 11
REMARK Flexibility Score: inf
ROOT
ATOM      1  C   UNL     1      -0.424  27.568  54.840  1.00  0.00     0.059 A 
ATOM      2  C   UNL     1      -1.704  27.814  55.388  1.00  0.00     0.130 A 
ATOM      3  C   UNL     1      -2.556  28.754  54.787  1.00  0.00     0.093 A 
ATOM      4  C   UNL     1      -2.144  29.470  53.650  1.00  0.00     0.122 A 
ATOM      5  C   UNL     1      -0.872  29.237  53.122  1.00  0.00     0.047 A 
ATOM      6  C   UNL     1      -0.020  28.301  53.710  1.00  0.00     0.019 A 
ENDROOT
BRANCH   1   7
ATOM      7  C   UNL     1       0.516  26.571  55.420  1.00  0.00     0.163 C 
ATOM      8  C   UNL     1       1.982  26.841  55.574  1.00  0.00     0.093 C 
ATOM      9  O   UNL     1       0.074  25.452  55.799  1.00  0.00    -0.294 OA
ENDBRANCH   1   7
BRANCH   2  10
ATOM     10  O   UNL     1      -2.129  27.150  56.540  1.00  0.00    -0.507 OA
ATOM     11  H   UNL     1      -1.548  27.092  57.368  1.00  0.00     0.293 HD
ENDBRANCH   2  10
BRANCH   4  12
ATOM     12  O   UNL     1      -2.963  30.419  53.019  1.00  0.00    -0.497 OA
ATOM     13  C   UNL     1      -2.483  31.596  52.377  1.00  0.00     0.278 C 
ENDBRANCH   4  12
TORSDOF 3
ENDMDL
MODEL 7
REMARK VINA RESULT:    -3.860      1.707      2.037
REMARK INTER + INTRA:          -4.734
REMARK INTER:                  -4.409
REMARK INTRA:                  -0.325
REMARK UNBOUND:                -0.309
REMARK SMILES COc1ccc(C(C)=O)c(O)c1
REMARK SMILES IDX 6 1 10 2 12 3 3 4 4 5 5 6 7 7 8 8 9 9 11 10 2 12 1 13
REMARK H PARENT 11 11
REMARK Flexibility Score: inf
ROOT
ATOM      1  C   UNL     1      -1.224  29.484  53.083  1.00  0.00     0.059 A 
ATOM      2  C   UNL     1       0.042  28.854  53.125  1.00  0.00     0.130 A 
ATOM      3  C   UNL     1       0.316  27.896  54.114  1.00  0.00     0.093 A 
ATOM      4  C   UNL     1      -0.651  27.564  55.078  1.00  0.00     0.122 A 
ATOM      5  C   UNL     1      -1.893  28.202  55.045  1.00  0.00     0.047 A 
ATOM      6  C   UNL     1      -2.177  29.152  54.062  1.00  0.00     0.019 A 
ENDROOT
BRANCH   1   7
ATOM      7  C   UNL     1      -1.581  30.492  52.049  1.00  0.00     0.163 C 
ATOM      8  C   UNL     1      -1.992  31.891  52.397  1.00  0.00     0.093 C 
ATOM      9  O   UNL     1      -1.542  30.168  50.831  1.00  0.00    -0.294 OA
ENDBRANCH   1   7
BRANCH   2  10
ATOM     10  O   UNL     1       1.038  29.189  52.207  1.00  0.00    -0.507 OA
ATOM     11  H   UNL     1       1.043  30.081  51.727  1.00  0.00     0.293 HD
ENDBRANCH   2  10
BRANCH   4  12
ATOM     12  O   UNL     1      -0.417  26.614  56.084  1.00  0.00    -0.497 OA
ATOM     13  C   UNL     1       0.673  25.697  56.088  1.00  0.00     0.278 C 
ENDBRANCH   4  12
TORSDOF 3
ENDMDL
MODEL 8
REMARK VINA RESULT:    -3.775      1.683      4.920
REMARK INTER + INTRA:          -4.637
REMARK INTER:                  -4.314
REMARK INTRA:                  -0.322
REMARK UNBOUND:                -0.309
REMARK SMILES COc1ccc(C(C)=O)c(O)c1
REMARK SMILES IDX 6 1 10 2 12 3 3 4 4 5 5 6 7 7 8 8 9 9 11 10 2 12 1 13
REMARK H PARENT 11 11
REMARK Flexibility Score: inf
ROOT
ATOM      1  C   UNL     1      -0.332  27.864  53.297  1.00  0.00     0.059 A 
ATOM      2  C   UNL     1      -1.236  27.113  52.511  1.00  0.00     0.130 A 
ATOM      3  C   UNL     1      -1.692  27.623  51.285  1.00  0.00     0.093 A 
ATOM      4  C   UNL     1      -1.272  28.886  50.835  1.00  0.00     0.122 A 
ATOM      5  C   UNL     1      -0.394  29.633  51.622  1.00  0.00     0.047 A 
ATOM      6  C   UNL     1       0.070  29.132  52.840  1.00  0.00     0.019 A 
ENDROOT
BRANCH   1   7
ATOM      7  C   UNL     1       0.203  27.369  54.594  1.00  0.00     0.163 C 
ATOM      8  C   UNL     1       1.667  27.156  54.833  1.00  0.00     0.093 C 
ATOM      9  O   UNL     1      -0.598  27.116  55.536  1.00  0.00    -0.294 OA
ENDBRANCH   1   7
BRANCH   2  10
ATOM     10  O   UNL     1      -1.703  25.873  52.948  1.00  0.00    -0.507 OA
ATOM     11  H   UNL     1      -1.736  25.631  53.931  1.00  0.00     0.293 HD
ENDBRANCH   2  10
BRANCH   4  12
ATOM     12  O   UNL     1      -1.706  29.434  49.617  1.00  0.00    -0.497 OA
ATOM     13  C   UNL     1      -2.913  30.170  49.450  1.00  0.00     0.278 C 
ENDBRANCH   4  12
TORSDOF 3
ENDMDL
MODEL 9
REMARK VINA RESULT:    -3.768      1.948      2.725
REMARK INTER + INTRA:          -4.628
REMARK INTER:                  -4.290
REMARK INTRA:                  -0.337
REMARK UNBOUND:                -0.309
REMARK SMILES COc1ccc(C(C)=O)c(O)c1
REMARK SMILES IDX 6 1 10 2 12 3 3 4 4 5 5 6 7 7 8 8 9 9 11 10 2 12 1 13
REMARK H PARENT 11 11
REMARK Flexibility Score: inf
ROOT
ATOM      1  C   UNL     1      -1.999  27.944  52.223  1.00  0.00     0.059 A 
ATOM      2  C   UNL     1      -1.587  26.685  52.717  1.00  0.00     0.130 A 
ATOM      3  C   UNL     1      -0.386  26.571  53.435  1.00  0.00     0.093 A 
ATOM      4  C   UNL     1       0.426  27.696  53.656  1.00  0.00     0.122 A 
ATOM      5  C   UNL     1       0.025  28.935  53.152  1.00  0.00     0.047 A 
ATOM      6  C   UNL     1      -1.170  29.060  52.442  1.00  0.00     0.019 A 
ENDROOT
BRANCH   1   7
ATOM      7  C   UNL     1      -3.270  28.133  51.473  1.00  0.00     0.163 C 
ATOM      8  C   UNL     1      -3.346  28.933  50.208  1.00  0.00     0.093 C 
ATOM      9  O   UNL     1      -4.329  27.605  51.909  1.00  0.00    -0.294 OA
ENDBRANCH   1   7
BRANCH   2  10
ATOM     10  O   UNL     1      -2.349  25.540  52.480  1.00  0.00    -0.507 OA
ATOM     11  H   UNL     1      -3.362  25.562  52.492  1.00  0.00     0.293 HD
ENDBRANCH   2  10
BRANCH   4  12
ATOM     12  O   UNL     1       1.634  27.626  54.367  1.00  0.00    -0.497 OA
ATOM     13  C   UNL     1       1.846  26.813  55.517  1.00  0.00     0.278 C 
ENDBRANCH   4  12
TORSDOF 3
ENDMDL
