MODEL 1
REMARK VINA RESULT:    -3.609      0.000      0.000
REMARK INTER + INTRA:          -7.374
REMARK INTER:                  -6.141
REMARK INTRA:                  -1.233
REMARK UNBOUND:                -1.233
REMARK SMILES CCCCCCCCCCCCCC(=O)[O-]
REMARK SMILES IDX 8 1 9 2 10 3 11 4 12 5 13 6 14 7 15 8 16 9 7 10 6 11 5 12
REMARK SMILES IDX 4 13 3 14 2 15 1 16
REMARK H PARENT
REMARK Flexibility Score: inf
ROOT
ATOM      1  C   UNL     1      31.838   5.818  -7.237  1.00  0.00     0.000 C 
ENDROOT
BRANCH   1   2
ATOM      2  C   UNL     1      33.377   5.833  -7.091  1.00  0.00     0.000 C 
BRANCH   2   3
ATOM      3  C   UNL     1      33.871   5.134  -5.809  1.00  0.00     0.000 C 
BRANCH   3   4
ATOM      4  C   UNL     1      34.957   5.923  -5.055  1.00  0.00     0.000 C 
BRANCH   4   5
ATOM      5  C   UNL     1      34.926   7.428  -5.381  1.00  0.00     0.006 C 
BRANCH   5   6
ATOM      6  C   UNL     1      34.123   8.227  -4.346  1.00  0.00     0.053 C 
BRANCH   6   7
ATOM      7  C   UNL     1      34.771   8.198  -2.995  1.00  0.00     0.041 C 
ATOM      8  O   UNL     1      35.976   8.535  -2.863  1.00  0.00    -0.550 OA
ATOM      9  O   UNL     1      34.033   7.832  -1.877  1.00  0.00    -0.550 OA
ENDBRANCH   6   7
ENDBRANCH   5   6
ENDBRANCH   4   5
ENDBRANCH   3   4
ENDBRANCH   2   3
ENDBRANCH   1   2
BRANCH   1  10
ATOM     10  C   UNL     1      31.171   7.144  -6.830  1.00  0.00     0.000 C 
BRANCH  10  11
ATOM     11  C   UNL     1      29.644   7.111  -6.988  1.00  0.00    -0.000 C 
BRANCH  11  12
ATOM     12  C   UNL     1      29.107   8.481  -7.421  1.00  0.00    -0.000 C 
BRANCH  12  13
ATOM     13  C   UNL     1      28.343   8.375  -8.749  1.00  0.00    -0.000 C 
BRANCH  13  14
ATOM     14  C   UNL     1      28.850   7.226  -9.634  1.00  0.00    -0.000 C 
BRANCH  14  15
ATOM     15  C   UNL     1      29.953   7.670 -10.605  1.00  0.00    -0.003 C 
ATOM     16  C   UNL     1      31.020   6.588 -10.754  1.00  0.00     0.004 C 
ENDBRANCH  14  15
ENDBRANCH  13  14
ENDBRANCH  12  13
ENDBRANCH  11  12
ENDBRANCH  10  11
ENDBRANCH   1  10
TORSDOF 12
ENDMDL
MODEL 2
REMARK VINA RESULT:    -3.433      1.246      2.423
REMARK INTER + INTRA:          -7.074
REMARK INTER:                  -6.256
REMARK INTRA:                  -0.818
REMARK UNBOUND:                -1.233
REMARK SMILES CCCCCCCCCCCCCC(=O)[O-]
REMARK SMILES IDX 8 1 9 2 10 3 11 4 12 5 13 6 14 7 15 8 16 9 7 10 6 11 5 12
REMARK SMILES IDX 4 13 3 14 2 15 1 16
REMARK H PARENT
REMARK Flexibility Score: inf
ROOT
ATOM      1  C   UNL     1      34.756   5.056  -7.540  1.00  0.00     0.000 C 
ENDROOT
BRANCH   1   2
ATOM      2  C   UNL     1      36.019   5.608  -6.840  1.00  0.00     0.000 C 
BRANCH   2   3
ATOM      3  C   UNL     1      35.702   6.405  -5.559  1.00  0.00     0.000 C 
BRANCH   3   4
ATOM      4  C   UNL     1      36.198   7.863  -5.601  1.00  0.00     0.000 C 
BRANCH   4   5
ATOM      5  C   UNL     1      35.735   8.679  -4.380  1.00  0.00     0.006 C 
BRANCH   5   6
ATOM      6  C   UNL     1      34.741   7.900  -3.508  1.00  0.00     0.053 C 
BRANCH   6   7
ATOM      7  C   UNL     1      34.790   8.342  -2.077  1.00  0.00     0.041 C 
ATOM      8  O   UNL     1      35.864   8.778  -1.586  1.00  0.00    -0.550 OA
ATOM      9  O   UNL     1      33.641   8.305  -1.297  1.00  0.00    -0.550 OA
ENDBRANCH   6   7
ENDBRANCH   5   6
ENDBRANCH   4   5
ENDBRANCH   3   4
ENDBRANCH   2   3
ENDBRANCH   1   2
BRANCH   1  10
ATOM     10  C   UNL     1      33.474   5.834  -7.195  1.00  0.00     0.000 C 
BRANCH  10  11
ATOM     11  C   UNL     1      32.866   6.542  -8.414  1.00  0.00    -0.000 C 
BRANCH  11  12
ATOM     12  C   UNL     1      31.759   7.515  -7.990  1.00  0.00    -0.000 C 
BRANCH  12  13
ATOM     13  C   UNL     1      30.791   6.847  -7.002  1.00  0.00    -0.000 C 
BRANCH  13  14
ATOM     14  C   UNL     1      29.341   7.323  -7.180  1.00  0.00    -0.000 C 
BRANCH  14  15
ATOM     15  C   UNL     1      29.151   8.181  -8.439  1.00  0.00    -0.003 C 
ATOM     16  C   UNL     1      28.582   7.352  -9.587  1.00  0.00     0.004 C 
ENDBRANCH  14  15
ENDBRANCH  13  14
ENDBRANCH  12  13
ENDBRANCH  11  12
ENDBRANCH  10  11
ENDBRANCH   1  10
TORSDOF 12
ENDMDL
MODEL 3
REMARK VINA RESULT:    -3.388      4.439      6.039
REMARK INTER + INTRA:          -6.998
REMARK INTER:                  -5.923
REMARK INTRA:                  -1.075
REMARK UNBOUND:                -1.233
REMARK SMILES CCCCCCCCCCCCCC(=O)[O-]
REMARK SMILES IDX 8 1 9 2 10 3 11 4 12 5 13 6 14 7 15 8 16 9 7 10 6 11 5 12
REMARK SMILES IDX 4 13 3 14 2 15 1 16
REMARK H PARENT
REMARK Flexibility Score: inf
ROOT
ATOM      1  C   UNL     1      36.043   6.321  -6.388  1.00  0.00     0.000 C 
ENDROOT
BRANCH   1   2
ATOM      2  C   UNL     1      37.096   5.472  -7.136  1.00  0.00     0.000 C 
BRANCH   2   3
ATOM      3  C   UNL     1      36.795   5.322  -8.641  1.00  0.00     0.000 C 
BRANCH   3   4
ATOM      4  C   UNL     1      36.415   3.888  -9.054  1.00  0.00     0.000 C 
BRANCH   4   5
ATOM      5  C   UNL     1      36.934   2.831  -8.062  1.00  0.00     0.006 C 
BRANCH   5   6
ATOM      6  C   UNL     1      36.006   1.612  -7.978  1.00  0.00     0.053 C 
BRANCH   6   7
ATOM      7  C   UNL     1      36.733   0.389  -7.509  1.00  0.00     0.041 C 
ATOM      8  O   UNL     1      36.136  -0.717  -7.444  1.00  0.00    -0.550 OA
ATOM      9  O   UNL     1      38.080   0.465  -7.179  1.00  0.00    -0.550 OA
ENDBRANCH   6   7
ENDBRANCH   5   6
ENDBRANCH   4   5
ENDBRANCH   3   4
ENDBRANCH   2   3
ENDBRANCH   1   2
BRANCH   1  10
ATOM     10  C   UNL     1      35.165   5.500  -5.427  1.00  0.00     0.000 C 
BRANCH  10  11
ATOM     11  C   UNL     1      33.969   4.846  -6.131  1.00  0.00    -0.000 C 
BRANCH  11  12
ATOM     12  C   UNL     1      33.381   5.777  -7.198  1.00  0.00    -0.000 C 
BRANCH  12  13
ATOM     13  C   UNL     1      31.848   5.697  -7.212  1.00  0.00    -0.000 C 
BRANCH  13  14
ATOM     14  C   UNL     1      31.182   7.080  -7.142  1.00  0.00    -0.000 C 
BRANCH  14  15
ATOM     15  C   UNL     1      29.652   6.995  -7.035  1.00  0.00    -0.003 C 
ATOM     16  C   UNL     1      28.983   7.527  -8.299  1.00  0.00     0.004 C 
ENDBRANCH  14  15
ENDBRANCH  13  14
ENDBRANCH  12  13
ENDBRANCH  11  12
ENDBRANCH  10  11
ENDBRANCH   1  10
TORSDOF 12
ENDMDL
MODEL 4
REMARK VINA RESULT:    -3.386      2.309      2.654
REMARK INTER + INTRA:          -6.994
REMARK INTER:                  -5.176
REMARK INTRA:                  -1.818
REMARK UNBOUND:                -1.233
REMARK SMILES CCCCCCCCCCCCCC(=O)[O-]
REMARK SMILES IDX 8 1 9 2 10 3 11 4 12 5 13 6 14 7 15 8 16 9 7 10 6 11 5 12
REMARK SMILES IDX 4 13 3 14 2 15 1 16
REMARK H PARENT
REMARK Flexibility Score: inf
ROOT
ATOM      1  C   UNL     1      32.723   7.743  -7.871  1.00  0.00     0.000 C 
ENDROOT
BRANCH   1   2
ATOM      2  C   UNL     1      32.875   6.225  -8.118  1.00  0.00     0.000 C 
BRANCH   2   3
ATOM      3  C   UNL     1      32.698   5.381  -6.840  1.00  0.00     0.000 C 
BRANCH   3   4
ATOM      4  C   UNL     1      34.003   4.736  -6.340  1.00  0.00     0.000 C 
BRANCH   4   5
ATOM      5  C   UNL     1      34.525   5.386  -5.046  1.00  0.00     0.006 C 
BRANCH   5   6
ATOM      6  C   UNL     1      35.403   6.613  -5.328  1.00  0.00     0.053 C 
BRANCH   6   7
ATOM      7  C   UNL     1      36.376   6.358  -6.438  1.00  0.00     0.041 C 
ATOM      8  O   UNL     1      36.335   7.051  -7.488  1.00  0.00    -0.550 OA
ATOM      9  O   UNL     1      37.350   5.378  -6.297  1.00  0.00    -0.550 OA
ENDBRANCH   6   7
ENDBRANCH   5   6
ENDBRANCH   4   5
ENDBRANCH   3   4
ENDBRANCH   2   3
ENDBRANCH   1   2
BRANCH   1  10
ATOM     10  C   UNL     1      32.044   8.081  -6.532  1.00  0.00     0.000 C 
BRANCH  10  11
ATOM     11  C   UNL     1      30.598   8.564  -6.708  1.00  0.00    -0.000 C 
BRANCH  11  12
ATOM     12  C   UNL     1      29.628   7.379  -6.788  1.00  0.00    -0.000 C 
BRANCH  12  13
ATOM     13  C   UNL     1      29.029   7.255  -8.197  1.00  0.00    -0.000 C 
BRANCH  13  14
ATOM     14  C   UNL     1      29.191   8.539  -9.025  1.00  0.00    -0.000 C 
BRANCH  14  15
ATOM     15  C   UNL     1      29.561   8.257 -10.488  1.00  0.00    -0.003 C 
ATOM     16  C   UNL     1      30.244   6.899 -10.628  1.00  0.00     0.004 C 
ENDBRANCH  14  15
ENDBRANCH  13  14
ENDBRANCH  12  13
ENDBRANCH  11  12
ENDBRANCH  10  11
ENDBRANCH   1  10
TORSDOF 12
ENDMDL
MODEL 5
REMARK VINA RESULT:    -3.287      4.900      7.938
REMARK INTER + INTRA:          -6.826
REMARK INTER:                  -5.376
REMARK INTRA:                  -1.450
REMARK UNBOUND:                -1.233
REMARK SMILES CCCCCCCCCCCCCC(=O)[O-]
REMARK SMILES IDX 8 1 9 2 10 3 11 4 12 5 13 6 14 7 15 8 16 9 7 10 6 11 5 12
REMARK SMILES IDX 4 13 3 14 2 15 1 16
REMARK H PARENT
REMARK Flexibility Score: inf
ROOT
ATOM      1  C   UNL     1      35.944   2.993  -8.249  1.00  0.00     0.000 C 
ENDROOT
BRANCH   1   2
ATOM      2  C   UNL     1      36.544   4.252  -8.915  1.00  0.00     0.000 C 
BRANCH   2   3
ATOM      3  C   UNL     1      37.585   4.968  -8.033  1.00  0.00     0.000 C 
BRANCH   3   4
ATOM      4  C   UNL     1      37.095   5.242  -6.598  1.00  0.00     0.000 C 
BRANCH   4   5
ATOM      5  C   UNL     1      36.299   6.555  -6.487  1.00  0.00     0.006 C 
BRANCH   5   6
ATOM      6  C   UNL     1      35.280   6.518  -5.340  1.00  0.00     0.053 C 
BRANCH   6   7
ATOM      7  C   UNL     1      34.416   5.296  -5.402  1.00  0.00     0.041 C 
ATOM      8  O   UNL     1      34.371   4.501  -4.427  1.00  0.00    -0.550 OA
ATOM      9  O   UNL     1      33.633   5.055  -6.523  1.00  0.00    -0.550 OA
ENDBRANCH   6   7
ENDBRANCH   5   6
ENDBRANCH   4   5
ENDBRANCH   3   4
ENDBRANCH   2   3
ENDBRANCH   1   2
BRANCH   1  10
ATOM     10  C   UNL     1      35.709   1.833  -9.231  1.00  0.00     0.000 C 
BRANCH  10  11
ATOM     11  C   UNL     1      36.476   0.562  -8.840  1.00  0.00    -0.000 C 
BRANCH  11  12
ATOM     12  C   UNL     1      36.984   0.648  -7.395  1.00  0.00    -0.000 C 
BRANCH  12  13
ATOM     13  C   UNL     1      38.157  -0.317  -7.167  1.00  0.00    -0.000 C 
BRANCH  13  14
ATOM     14  C   UNL     1      39.477   0.414  -6.877  1.00  0.00    -0.000 C 
BRANCH  14  15
ATOM     15  C   UNL     1      39.390   1.922  -7.151  1.00  0.00    -0.003 C 
ATOM     16  C   UNL     1      40.124   2.718  -6.075  1.00  0.00     0.004 C 
ENDBRANCH  14  15
ENDBRANCH  13  14
ENDBRANCH  12  13
ENDBRANCH  11  12
ENDBRANCH  10  11
ENDBRANCH   1  10
TORSDOF 12
ENDMDL
MODEL 6
REMARK VINA RESULT:    -3.279      2.144      3.208
REMARK INTER + INTRA:          -6.812
REMARK INTER:                  -5.513
REMARK INTRA:                  -1.299
REMARK UNBOUND:                -1.233
REMARK SMILES CCCCCCCCCCCCCC(=O)[O-]
REMARK SMILES IDX 8 1 9 2 10 3 11 4 12 5 13 6 14 7 15 8 16 9 7 10 6 11 5 12
REMARK SMILES IDX 4 13 3 14 2 15 1 16
REMARK H PARENT
REMARK Flexibility Score: inf
ROOT
ATOM      1  C   UNL     1      34.346   8.617  -7.745  1.00  0.00     0.000 C 
ENDROOT
BRANCH   1   2
ATOM      2  C   UNL     1      35.646   7.929  -8.221  1.00  0.00     0.000 C 
BRANCH   2   3
ATOM      3  C   UNL     1      35.430   6.471  -8.674  1.00  0.00     0.000 C 
BRANCH   3   4
ATOM      4  C   UNL     1      36.179   5.439  -7.811  1.00  0.00     0.000 C 
BRANCH   4   5
ATOM      5  C   UNL     1      35.255   4.323  -7.290  1.00  0.00     0.006 C 
BRANCH   5   6
ATOM      6  C   UNL     1      34.090   4.877  -6.459  1.00  0.00     0.053 C 
BRANCH   6   7
ATOM      7  C   UNL     1      34.493   5.134  -5.039  1.00  0.00     0.041 C 
ATOM      8  O   UNL     1      34.210   4.300  -4.140  1.00  0.00    -0.550 OA
ATOM      9  O   UNL     1      35.211   6.277  -4.715  1.00  0.00    -0.550 OA
ENDBRANCH   6   7
ENDBRANCH   5   6
ENDBRANCH   4   5
ENDBRANCH   3   4
ENDBRANCH   2   3
ENDBRANCH   1   2
BRANCH   1  10
ATOM     10  C   UNL     1      33.067   7.892  -8.201  1.00  0.00     0.000 C 
BRANCH  10  11
ATOM     11  C   UNL     1      31.953   7.939  -7.145  1.00  0.00    -0.000 C 
BRANCH  11  12
ATOM     12  C   UNL     1      31.070   6.687  -7.222  1.00  0.00    -0.000 C 
BRANCH  12  13
ATOM     13  C   UNL     1      29.631   7.003  -6.788  1.00  0.00    -0.000 C 
BRANCH  13  14
ATOM     14  C   UNL     1      28.950   8.033  -7.703  1.00  0.00    -0.000 C 
BRANCH  14  15
ATOM     15  C   UNL     1      28.696   7.491  -9.116  1.00  0.00    -0.003 C 
ATOM     16  C   UNL     1      29.469   8.294 -10.159  1.00  0.00     0.004 C 
ENDBRANCH  14  15
ENDBRANCH  13  14
ENDBRANCH  12  13
ENDBRANCH  11  12
ENDBRANCH  10  11
ENDBRANCH   1  10
TORSDOF 12
ENDMDL
MODEL 7
REMARK VINA RESULT:    -3.240     12.695     14.062
REMARK INTER + INTRA:          -6.747
REMARK INTER:                  -5.059
REMARK INTRA:                  -1.687
REMARK UNBOUND:                -1.233
REMARK SMILES CCCCCCCCCCCCCC(=O)[O-]
REMARK SMILES IDX 8 1 9 2 10 3 11 4 12 5 13 6 14 7 15 8 16 9 7 10 6 11 5 12
REMARK SMILES IDX 4 13 3 14 2 15 1 16
REMARK H PARENT
REMARK Flexibility Score: inf
ROOT
ATOM      1  C   UNL     1      27.767  -2.723   1.834  1.00  0.00     0.000 C 
ENDROOT
BRANCH   1   2
ATOM      2  C   UNL     1      27.660  -1.227   2.210  1.00  0.00     0.000 C 
BRANCH   2   3
ATOM      3  C   UNL     1      28.856  -0.726   3.044  1.00  0.00     0.000 C 
BRANCH   3   4
ATOM      4  C   UNL     1      30.129  -1.573   2.869  1.00  0.00     0.000 C 
BRANCH   4   5
ATOM      5  C   UNL     1      31.414  -0.775   3.159  1.00  0.00     0.006 C 
BRANCH   5   6
ATOM      6  C   UNL     1      31.123   0.703   3.448  1.00  0.00     0.053 C 
BRANCH   6   7
ATOM      7  C   UNL     1      31.565   1.589   2.323  1.00  0.00     0.041 C 
ATOM      8  O   UNL     1      31.203   1.343   1.144  1.00  0.00    -0.550 OA
ATOM      9  O   UNL     1      32.349   2.706   2.584  1.00  0.00    -0.550 OA
ENDBRANCH   6   7
ENDBRANCH   5   6
ENDBRANCH   4   5
ENDBRANCH   3   4
ENDBRANCH   2   3
ENDBRANCH   1   2
BRANCH   1  10
ATOM     10  C   UNL     1      26.424  -3.471   1.912  1.00  0.00     0.000 C 
BRANCH  10  11
ATOM     11  C   UNL     1      25.233  -2.528   2.133  1.00  0.00    -0.000 C 
BRANCH  11  12
ATOM     12  C   UNL     1      24.304  -3.063   3.229  1.00  0.00    -0.000 C 
BRANCH  12  13
ATOM     13  C   UNL     1      24.994  -3.022   4.601  1.00  0.00    -0.000 C 
BRANCH  13  14
ATOM     14  C   UNL     1      25.276  -1.589   5.079  1.00  0.00    -0.000 C 
BRANCH  14  15
ATOM     15  C   UNL     1      26.580  -1.480   5.882  1.00  0.00    -0.003 C 
ATOM     16  C   UNL     1      27.425  -2.742   5.729  1.00  0.00     0.004 C 
ENDBRANCH  14  15
ENDBRANCH  13  14
ENDBRANCH  12  13
ENDBRANCH  11  12
ENDBRANCH  10  11
ENDBRANCH   1  10
TORSDOF 12
ENDMDL
MODEL 8
REMARK VINA RESULT:    -3.236      5.114      7.455
REMARK INTER + INTRA:          -6.739
REMARK INTER:                  -5.487
REMARK INTRA:                  -1.251
REMARK UNBOUND:                -1.233
REMARK SMILES CCCCCCCCCCCCCC(=O)[O-]
REMARK SMILES IDX 8 1 9 2 10 3 11 4 12 5 13 6 14 7 15 8 16 9 7 10 6 11 5 12
REMARK SMILES IDX 4 13 3 14 2 15 1 16
REMARK H PARENT
REMARK Flexibility Score: inf
ROOT
ATOM      1  C   UNL     1      36.956   3.963  -8.133  1.00  0.00     0.000 C 
ENDROOT
BRANCH   1   2
ATOM      2  C   UNL     1      35.993   2.758  -8.037  1.00  0.00     0.000 C 
BRANCH   2   3
ATOM      3  C   UNL     1      36.596   1.455  -8.599  1.00  0.00     0.000 C 
BRANCH   3   4
ATOM      4  C   UNL     1      36.581   0.285  -7.598  1.00  0.00     0.000 C 
BRANCH   4   5
ATOM      5  C   UNL     1      37.981  -0.034  -7.042  1.00  0.00     0.006 C 
BRANCH   5   6
ATOM      6  C   UNL     1      39.064   0.865  -7.653  1.00  0.00     0.053 C 
BRANCH   6   7
ATOM      7  C   UNL     1      39.925   1.494  -6.600  1.00  0.00     0.041 C 
ATOM      8  O   UNL     1      40.584   2.534  -6.859  1.00  0.00    -0.550 OA
ATOM      9  O   UNL     1      39.970   0.950  -5.323  1.00  0.00    -0.550 OA
ENDBRANCH   6   7
ENDBRANCH   5   6
ENDBRANCH   4   5
ENDBRANCH   3   4
ENDBRANCH   2   3
ENDBRANCH   1   2
BRANCH   1  10
ATOM     10  C   UNL     1      36.314   5.211  -8.764  1.00  0.00     0.000 C 
BRANCH  10  11
ATOM     11  C   UNL     1      36.599   6.491  -7.965  1.00  0.00    -0.000 C 
BRANCH  11  12
ATOM     12  C   UNL     1      36.840   6.173  -6.484  1.00  0.00    -0.000 C 
BRANCH  12  13
ATOM     13  C   UNL     1      36.130   7.193  -5.582  1.00  0.00    -0.000 C 
BRANCH  13  14
ATOM     14  C   UNL     1      34.810   6.656  -5.006  1.00  0.00    -0.000 C 
BRANCH  14  15
ATOM     15  C   UNL     1      34.586   5.172  -5.328  1.00  0.00    -0.003 C 
ATOM     16  C   UNL     1      33.474   4.996  -6.359  1.00  0.00     0.004 C 
ENDBRANCH  14  15
ENDBRANCH  13  14
ENDBRANCH  12  13
ENDBRANCH  11  12
ENDBRANCH  10  11
ENDBRANCH   1  10
TORSDOF 12
ENDMDL
MODEL 9
REMARK VINA RESULT:    -3.228      6.904      8.931
REMARK INTER + INTRA:          -6.726
REMARK INTER:                  -5.307
REMARK INTRA:                  -1.418
REMARK UNBOUND:                -1.233
REMARK SMILES CCCCCCCCCCCCCC(=O)[O-]
REMARK SMILES IDX 8 1 9 2 10 3 11 4 12 5 13 6 14 7 15 8 16 9 7 10 6 11 5 12
REMARK SMILES IDX 4 13 3 14 2 15 1 16
REMARK H PARENT
REMARK Flexibility Score: inf
ROOT
ATOM      1  C   UNL     1      37.040   3.644  -9.235  1.00  0.00     0.000 C 
ENDROOT
BRANCH   1   2
ATOM      2  C   UNL     1      36.628   4.632  -8.120  1.00  0.00     0.000 C 
BRANCH   2   3
ATOM      3  C   UNL     1      37.806   5.056  -7.220  1.00  0.00     0.000 C 
BRANCH   3   4
ATOM      4  C   UNL     1      39.160   4.466  -7.657  1.00  0.00     0.000 C 
BRANCH   4   5
ATOM      5  C   UNL     1      39.848   3.671  -6.533  1.00  0.00     0.006 C 
BRANCH   5   6
ATOM      6  C   UNL     1      40.253   2.262  -6.985  1.00  0.00     0.053 C 
BRANCH   6   7
ATOM      7  C   UNL     1      40.807   1.451  -5.854  1.00  0.00     0.041 C 
ATOM      8  O   UNL     1      40.134   0.509  -5.360  1.00  0.00    -0.550 OA
ATOM      9  O   UNL     1      42.082   1.714  -5.369  1.00  0.00    -0.550 OA
ENDBRANCH   6   7
ENDBRANCH   5   6
ENDBRANCH   4   5
ENDBRANCH   3   4
ENDBRANCH   2   3
ENDBRANCH   1   2
BRANCH   1  10
ATOM     10  C   UNL     1      36.123   2.412  -9.332  1.00  0.00     0.000 C 
BRANCH  10  11
ATOM     11  C   UNL     1      35.862   1.761  -7.966  1.00  0.00    -0.000 C 
BRANCH  11  12
ATOM     12  C   UNL     1      36.996   0.800  -7.589  1.00  0.00    -0.000 C 
BRANCH  12  13
ATOM     13  C   UNL     1      36.442  -0.585  -7.222  1.00  0.00    -0.000 C 
BRANCH  13  14
ATOM     14  C   UNL     1      36.767  -1.652  -8.279  1.00  0.00    -0.000 C 
BRANCH  14  15
ATOM     15  C   UNL     1      37.691  -1.125  -9.385  1.00  0.00    -0.003 C 
ATOM     16  C   UNL     1      37.045  -1.279 -10.759  1.00  0.00     0.004 C 
ENDBRANCH  14  15
ENDBRANCH  13  14
ENDBRANCH  12  13
ENDBRANCH  11  12
ENDBRANCH  10  11
ENDBRANCH   1  10
TORSDOF 12
ENDMDL
