MODEL 1
REMARK VINA RESULT:    -4.297      0.000      0.000
REMARK INTER + INTRA:          -5.190
REMARK INTER:                  -5.051
REMARK INTRA:                  -0.139
REMARK UNBOUND:                -0.139
REMARK SMILES O=C([O-])C=Cc1ccc(O)c(O)c1
REMARK SMILES IDX 6 1 13 2 7 3 11 4 8 5 9 6 5 7 4 8 2 9 1 10 3 11 12 12 10 14
REMARK H PARENT 12 13 10 15
REMARK Flexibility Score: inf
ROOT
ATOM      1  C   UNL     1      34.316 -37.868  11.273  1.00  0.00    -0.022 A 
ATOM      2  C   UNL     1      34.558 -37.271  12.520  1.00  0.00     0.058 A 
ATOM      3  C   UNL     1      34.457 -39.262  11.150  1.00  0.00     0.012 A 
ATOM      4  C   UNL     1      34.908 -38.041  13.637  1.00  0.00     0.157 A 
ATOM      5  C   UNL     1      34.805 -40.037  12.258  1.00  0.00     0.051 A 
ATOM      6  C   UNL     1      35.031 -39.444  13.504  1.00  0.00     0.157 A 
ENDROOT
BRANCH   1   7
ATOM      7  C   UNL     1      33.958 -36.997  10.126  1.00  0.00     0.010 C 
ATOM      8  C   UNL     1      34.358 -37.221   8.868  1.00  0.00     0.025 C 
BRANCH   8   9
ATOM      9  C   UNL     1      33.969 -36.336   7.758  1.00  0.00     0.064 C 
ATOM     10  O   UNL     1      32.768 -35.976   7.641  1.00  0.00    -0.545 OA
ATOM     11  O   UNL     1      34.906 -35.891   6.832  1.00  0.00    -0.545 OA
ENDBRANCH   8   9
ENDBRANCH   1   7
BRANCH   4  12
ATOM     12  O   UNL     1      35.125 -37.376  14.846  1.00  0.00    -0.504 OA
ATOM     13  H   UNL     1      36.039 -37.167  15.219  1.00  0.00     0.293 HD
ENDBRANCH   4  12
BRANCH   6  14
ATOM     14  O   UNL     1      35.374 -40.276  14.571  1.00  0.00    -0.504 OA
ATOM     15  H   UNL     1      35.392 -39.979  15.537  1.00  0.00     0.293 HD
ENDBRANCH   6  14
TORSDOF 4
ENDMDL
MODEL 2
REMARK VINA RESULT:    -4.083      2.714      6.514
REMARK INTER + INTRA:          -4.938
REMARK INTER:                  -4.811
REMARK INTRA:                  -0.127
REMARK UNBOUND:                -0.139
REMARK SMILES O=C([O-])C=Cc1ccc(O)c(O)c1
REMARK SMILES IDX 6 1 13 2 7 3 11 4 8 5 9 6 5 7 4 8 2 9 1 10 3 11 12 12 10 14
REMARK H PARENT 12 13 10 15
REMARK Flexibility Score: inf
ROOT
ATOM      1  C   UNL     1      35.166 -40.507  13.339  1.00  0.00    -0.022 A 
ATOM      2  C   UNL     1      35.360 -39.354  14.115  1.00  0.00     0.058 A 
ATOM      3  C   UNL     1      34.685 -40.368  12.024  1.00  0.00     0.012 A 
ATOM      4  C   UNL     1      35.108 -38.079  13.592  1.00  0.00     0.157 A 
ATOM      5  C   UNL     1      34.432 -39.101  11.496  1.00  0.00     0.051 A 
ATOM      6  C   UNL     1      34.641 -37.950  12.264  1.00  0.00     0.157 A 
ENDROOT
BRANCH   1   7
ATOM      7  C   UNL     1      35.441 -41.831  13.952  1.00  0.00     0.010 C 
ATOM      8  C   UNL     1      36.672 -42.287  14.218  1.00  0.00     0.025 C 
BRANCH   8   9
ATOM      9  C   UNL     1      36.897 -43.603  14.839  1.00  0.00     0.064 C 
ATOM     10  O   UNL     1      38.070 -43.962  15.124  1.00  0.00    -0.545 OA
ATOM     11  O   UNL     1      35.837 -44.458  15.113  1.00  0.00    -0.545 OA
ENDBRANCH   8   9
ENDBRANCH   1   7
BRANCH   4  12
ATOM     12  O   UNL     1      35.333 -36.978  14.423  1.00  0.00    -0.504 OA
ATOM     13  H   UNL     1      34.954 -36.058  14.255  1.00  0.00     0.293 HD
ENDBRANCH   4  12
BRANCH   6  14
ATOM     14  O   UNL     1      34.371 -36.714  11.674  1.00  0.00    -0.504 OA
ATOM     15  H   UNL     1      35.015 -36.222  11.072  1.00  0.00     0.293 HD
ENDBRANCH   6  14
TORSDOF 4
ENDMDL
MODEL 3
REMARK VINA RESULT:    -4.036      9.586     11.043
REMARK INTER + INTRA:          -4.882
REMARK INTER:                  -4.743
REMARK INTRA:                  -0.139
REMARK UNBOUND:                -0.139
REMARK SMILES O=C([O-])C=Cc1ccc(O)c(O)c1
REMARK SMILES IDX 6 1 13 2 7 3 11 4 8 5 9 6 5 7 4 8 2 9 1 10 3 11 12 12 10 14
REMARK H PARENT 12 13 10 15
REMARK Flexibility Score: inf
ROOT
ATOM      1  C   UNL     1      44.097 -39.829  13.493  1.00  0.00    -0.022 A 
ATOM      2  C   UNL     1      43.400 -38.611  13.473  1.00  0.00     0.058 A 
ATOM      3  C   UNL     1      43.486 -40.950  14.082  1.00  0.00     0.012 A 
ATOM      4  C   UNL     1      42.108 -38.507  14.003  1.00  0.00     0.157 A 
ATOM      5  C   UNL     1      42.198 -40.855  14.613  1.00  0.00     0.051 A 
ATOM      6  C   UNL     1      41.498 -39.645  14.579  1.00  0.00     0.157 A 
ENDROOT
BRANCH   1   7
ATOM      7  C   UNL     1      45.467 -39.873  12.924  1.00  0.00     0.010 C 
ATOM      8  C   UNL     1      46.398 -40.763  13.292  1.00  0.00     0.025 C 
BRANCH   8   9
ATOM      9  C   UNL     1      47.742 -40.777  12.692  1.00  0.00     0.064 C 
ATOM     10  O   UNL     1      48.694 -40.205  13.285  1.00  0.00    -0.545 OA
ATOM     11  O   UNL     1      47.978 -41.410  11.477  1.00  0.00    -0.545 OA
ENDBRANCH   8   9
ENDBRANCH   1   7
BRANCH   4  12
ATOM     12  O   UNL     1      41.475 -37.263  13.939  1.00  0.00    -0.504 OA
ATOM     13  H   UNL     1      40.511 -37.133  13.672  1.00  0.00     0.293 HD
ENDBRANCH   4  12
BRANCH   6  14
ATOM     14  O   UNL     1      40.213 -39.618  15.125  1.00  0.00    -0.504 OA
ATOM     15  H   UNL     1      39.365 -39.644  14.577  1.00  0.00     0.293 HD
ENDBRANCH   6  14
TORSDOF 4
ENDMDL
MODEL 4
REMARK VINA RESULT:    -4.027     16.070     16.769
REMARK INTER + INTRA:          -4.873
REMARK INTER:                  -4.741
REMARK INTRA:                  -0.132
REMARK UNBOUND:                -0.139
REMARK SMILES O=C([O-])C=Cc1ccc(O)c(O)c1
REMARK SMILES IDX 6 1 13 2 7 3 11 4 8 5 9 6 5 7 4 8 2 9 1 10 3 11 12 12 10 14
REMARK H PARENT 12 13 10 15
REMARK Flexibility Score: inf
ROOT
ATOM      1  C   UNL     1      34.788 -43.276  -4.078  1.00  0.00    -0.022 A 
ATOM      2  C   UNL     1      34.306 -41.959  -4.138  1.00  0.00     0.058 A 
ATOM      3  C   UNL     1      33.863 -44.334  -4.013  1.00  0.00     0.012 A 
ATOM      4  C   UNL     1      32.931 -41.691  -4.161  1.00  0.00     0.157 A 
ATOM      5  C   UNL     1      32.491 -44.075  -4.036  1.00  0.00     0.051 A 
ATOM      6  C   UNL     1      32.012 -42.764  -4.112  1.00  0.00     0.157 A 
ENDROOT
BRANCH   1   7
ATOM      7  C   UNL     1      36.256 -43.495  -4.046  1.00  0.00     0.010 C 
ATOM      8  C   UNL     1      37.144 -42.669  -4.614  1.00  0.00     0.025 C 
BRANCH   8   9
ATOM      9  C   UNL     1      38.593 -42.919  -4.548  1.00  0.00     0.064 C 
ATOM     10  O   UNL     1      39.387 -42.129  -5.123  1.00  0.00    -0.545 OA
ATOM     11  O   UNL     1      39.101 -44.017  -3.864  1.00  0.00    -0.545 OA
ENDBRANCH   8   9
ENDBRANCH   1   7
BRANCH   4  12
ATOM     12  O   UNL     1      32.529 -40.355  -4.231  1.00  0.00    -0.504 OA
ATOM     13  H   UNL     1      32.212 -39.904  -5.076  1.00  0.00     0.293 HD
ENDBRANCH   4  12
BRANCH   6  14
ATOM     14  O   UNL     1      30.629 -42.575  -4.133  1.00  0.00    -0.504 OA
ATOM     15  H   UNL     1      30.116 -42.235  -4.935  1.00  0.00     0.293 HD
ENDBRANCH   6  14
TORSDOF 4
ENDMDL
MODEL 5
REMARK VINA RESULT:    -3.965     14.096     15.343
REMARK INTER + INTRA:          -4.799
REMARK INTER:                  -4.668
REMARK INTRA:                  -0.131
REMARK UNBOUND:                -0.139
REMARK SMILES O=C([O-])C=Cc1ccc(O)c(O)c1
REMARK SMILES IDX 6 1 13 2 7 3 11 4 8 5 9 6 5 7 4 8 2 9 1 10 3 11 12 12 10 14
REMARK H PARENT 12 13 10 15
REMARK Flexibility Score: inf
ROOT
ATOM      1  C   UNL     1      35.490 -40.293  -3.284  1.00  0.00    -0.022 A 
ATOM      2  C   UNL     1      34.361 -39.952  -2.524  1.00  0.00     0.058 A 
ATOM      3  C   UNL     1      35.359 -41.253  -4.303  1.00  0.00     0.012 A 
ATOM      4  C   UNL     1      33.112 -40.533  -2.783  1.00  0.00     0.157 A 
ATOM      5  C   UNL     1      34.118 -41.836  -4.567  1.00  0.00     0.051 A 
ATOM      6  C   UNL     1      32.989 -41.485  -3.820  1.00  0.00     0.157 A 
ENDROOT
BRANCH   1   7
ATOM      7  C   UNL     1      36.788 -39.650  -2.955  1.00  0.00     0.010 C 
ATOM      8  C   UNL     1      37.656 -39.211  -3.876  1.00  0.00     0.025 C 
BRANCH   8   9
ATOM      9  C   UNL     1      38.927 -38.569  -3.504  1.00  0.00     0.064 C 
ATOM     10  O   UNL     1      39.009 -37.313  -3.492  1.00  0.00    -0.545 OA
ATOM     11  O   UNL     1      40.042 -39.328  -3.168  1.00  0.00    -0.545 OA
ENDBRANCH   8   9
ENDBRANCH   1   7
BRANCH   4  12
ATOM     12  O   UNL     1      32.033 -40.137  -1.989  1.00  0.00    -0.504 OA
ATOM     13  H   UNL     1      32.126 -39.763  -1.056  1.00  0.00     0.293 HD
ENDBRANCH   4  12
BRANCH   6  14
ATOM     14  O   UNL     1      31.778 -42.104  -4.138  1.00  0.00    -0.504 OA
ATOM     15  H   UNL     1      31.698 -43.058  -4.459  1.00  0.00     0.293 HD
ENDBRANCH   6  14
TORSDOF 4
ENDMDL
MODEL 6
REMARK VINA RESULT:    -3.898     13.119     14.608
REMARK INTER + INTRA:          -4.721
REMARK INTER:                  -4.588
REMARK INTRA:                  -0.133
REMARK UNBOUND:                -0.139
REMARK SMILES O=C([O-])C=Cc1ccc(O)c(O)c1
REMARK SMILES IDX 6 1 13 2 7 3 11 4 8 5 9 6 5 7 4 8 2 9 1 10 3 11 12 12 10 14
REMARK H PARENT 12 13 10 15
REMARK Flexibility Score: inf
ROOT
ATOM      1  C   UNL     1      35.342 -40.050  -2.132  1.00  0.00    -0.022 A 
ATOM      2  C   UNL     1      34.516 -40.142  -3.262  1.00  0.00     0.058 A 
ATOM      3  C   UNL     1      34.816 -40.401  -0.876  1.00  0.00     0.012 A 
ATOM      4  C   UNL     1      33.196 -40.600  -3.158  1.00  0.00     0.157 A 
ATOM      5  C   UNL     1      33.502 -40.859  -0.763  1.00  0.00     0.051 A 
ATOM      6  C   UNL     1      32.683 -40.966  -1.892  1.00  0.00     0.157 A 
ENDROOT
BRANCH   1   7
ATOM      7  C   UNL     1      36.729 -39.549  -2.305  1.00  0.00     0.010 C 
ATOM      8  C   UNL     1      37.284 -39.291  -3.496  1.00  0.00     0.025 C 
BRANCH   8   9
ATOM      9  C   UNL     1      38.661 -38.784  -3.620  1.00  0.00     0.064 C 
ATOM     10  O   UNL     1      39.623 -39.595  -3.633  1.00  0.00    -0.545 OA
ATOM     11  O   UNL     1      38.917 -37.422  -3.720  1.00  0.00    -0.545 OA
ENDBRANCH   8   9
ENDBRANCH   1   7
BRANCH   4  12
ATOM     12  O   UNL     1      32.437 -40.672  -4.329  1.00  0.00    -0.504 OA
ATOM     13  H   UNL     1      32.269 -39.888  -4.942  1.00  0.00     0.293 HD
ENDBRANCH   4  12
BRANCH   6  14
ATOM     14  O   UNL     1      31.379 -41.432  -1.711  1.00  0.00    -0.504 OA
ATOM     15  H   UNL     1      30.912 -42.066  -2.344  1.00  0.00     0.293 HD
ENDBRANCH   6  14
TORSDOF 4
ENDMDL
MODEL 7
REMARK VINA RESULT:    -3.801     14.576     16.102
REMARK INTER + INTRA:          -4.607
REMARK INTER:                  -4.474
REMARK INTRA:                  -0.133
REMARK UNBOUND:                -0.139
REMARK SMILES O=C([O-])C=Cc1ccc(O)c(O)c1
REMARK SMILES IDX 6 1 13 2 7 3 11 4 8 5 9 6 5 7 4 8 2 9 1 10 3 11 12 12 10 14
REMARK H PARENT 12 13 10 15
REMARK Flexibility Score: inf
ROOT
ATOM      1  C   UNL     1      34.462 -42.073  -4.046  1.00  0.00    -0.022 A 
ATOM      2  C   UNL     1      34.678 -43.459  -3.995  1.00  0.00     0.058 A 
ATOM      3  C   UNL     1      33.143 -41.595  -4.141  1.00  0.00     0.012 A 
ATOM      4  C   UNL     1      33.605 -44.360  -4.011  1.00  0.00     0.157 A 
ATOM      5  C   UNL     1      32.069 -42.486  -4.158  1.00  0.00     0.051 A 
ATOM      6  C   UNL     1      32.283 -43.866  -4.091  1.00  0.00     0.157 A 
ENDROOT
BRANCH   1   7
ATOM      7  C   UNL     1      35.641 -41.170  -4.035  1.00  0.00     0.010 C 
ATOM      8  C   UNL     1      35.788 -40.149  -3.181  1.00  0.00     0.025 C 
BRANCH   8   9
ATOM      9  C   UNL     1      36.980 -39.285  -3.199  1.00  0.00     0.064 C 
ATOM     10  O   UNL     1      37.645 -39.166  -4.261  1.00  0.00    -0.545 OA
ATOM     11  O   UNL     1      37.387 -38.600  -2.060  1.00  0.00    -0.545 OA
ENDBRANCH   8   9
ENDBRANCH   1   7
BRANCH   4  12
ATOM     12  O   UNL     1      33.899 -45.724  -3.949  1.00  0.00    -0.504 OA
ATOM     13  H   UNL     1      33.496 -46.358  -3.275  1.00  0.00     0.293 HD
ENDBRANCH   4  12
BRANCH   6  14
ATOM     14  O   UNL     1      31.164 -44.702  -4.109  1.00  0.00    -0.504 OA
ATOM     15  H   UNL     1      30.912 -45.291  -4.890  1.00  0.00     0.293 HD
ENDBRANCH   6  14
TORSDOF 4
ENDMDL
MODEL 8
REMARK VINA RESULT:    -3.621      0.941      1.919
REMARK INTER + INTRA:          -4.395
REMARK INTER:                  -4.255
REMARK INTRA:                  -0.140
REMARK UNBOUND:                -0.139
REMARK SMILES O=C([O-])C=Cc1ccc(O)c(O)c1
REMARK SMILES IDX 6 1 13 2 7 3 11 4 8 5 9 6 5 7 4 8 2 9 1 10 3 11 12 12 10 14
REMARK H PARENT 12 13 10 15
REMARK Flexibility Score: inf
ROOT
ATOM      1  C   UNL     1      34.384 -38.156  11.170  1.00  0.00    -0.022 A 
ATOM      2  C   UNL     1      34.740 -39.474  11.495  1.00  0.00     0.058 A 
ATOM      3  C   UNL     1      34.389 -37.182  12.185  1.00  0.00     0.012 A 
ATOM      4  C   UNL     1      35.122 -39.820  12.798  1.00  0.00     0.157 A 
ATOM      5  C   UNL     1      34.768 -37.519  13.485  1.00  0.00     0.051 A 
ATOM      6  C   UNL     1      35.138 -38.829  13.806  1.00  0.00     0.157 A 
ENDROOT
BRANCH   1   7
ATOM      7  C   UNL     1      33.980 -37.853   9.774  1.00  0.00     0.010 C 
ATOM      8  C   UNL     1      33.529 -36.658   9.372  1.00  0.00     0.025 C 
BRANCH   8   9
ATOM      9  C   UNL     1      33.150 -36.399   7.973  1.00  0.00     0.064 C 
ATOM     10  O   UNL     1      32.028 -35.889   7.718  1.00  0.00    -0.545 OA
ATOM     11  O   UNL     1      34.011 -36.711   6.928  1.00  0.00    -0.545 OA
ENDBRANCH   8   9
ENDBRANCH   1   7
BRANCH   4  12
ATOM     12  O   UNL     1      35.471 -41.151  13.043  1.00  0.00    -0.504 OA
ATOM     13  H   UNL     1      35.214 -41.657  13.877  1.00  0.00     0.293 HD
ENDBRANCH   4  12
BRANCH   6  14
ATOM     14  O   UNL     1      35.508 -39.098  15.125  1.00  0.00    -0.504 OA
ATOM     15  H   UNL     1      36.365 -38.772  15.550  1.00  0.00     0.293 HD
ENDBRANCH   6  14
TORSDOF 4
ENDMDL
