MODEL 1
REMARK VINA RESULT:    -4.406      0.000      0.000
REMARK INTER + INTRA:          -4.999
REMARK INTER:                  -4.793
REMARK INTRA:                  -0.206
REMARK UNBOUND:                -0.206
REMARK SMILES C=C1C[C@]2(O)O[C@@]3(C[C@H]2C(C)C)[C@@H]1CC[C@@H]3C
REMARK SMILES IDX 17 1 16 2 15 3 14 4 13 5 7 6 8 7 9 8 4 9 6 10 3 11 2 12 1 13
REMARK SMILES IDX 10 14 11 15 12 16 5 17
REMARK H PARENT 5 18
REMARK Flexibility Score: inf
ROOT
ATOM      1  C   UNL     1       8.881  22.309   7.256  1.00  0.00     0.011 C 
ATOM      2  C   UNL     1      10.213  21.531   7.272  1.00  0.00     0.019 C 
ATOM      3  C   UNL     1      11.344  22.401   6.710  1.00  0.00     0.007 C 
ATOM      4  C   UNL     1      12.065  23.031   7.908  1.00  0.00     0.011 C 
ATOM      5  C   UNL     1      11.435  22.431   9.172  1.00  0.00     0.047 C 
ATOM      6  C   UNL     1      10.703  21.164   8.685  1.00  0.00     0.081 C 
ATOM      7  C   UNL     1       9.628  20.689   9.671  1.00  0.00     0.046 C 
ATOM      8  C   UNL     1      10.395  19.730  10.581  1.00  0.00     0.054 C 
ATOM      9  C   UNL     1      11.808  19.694   9.934  1.00  0.00     0.173 C 
ATOM     10  O   UNL     1      11.635  20.107   8.599  1.00  0.00    -0.342 OA
ATOM     11  C   UNL     1      12.780  20.688  10.625  1.00  0.00     0.096 C 
ATOM     12  C   UNL     1      12.461  22.123  10.251  1.00  0.00    -0.066 C 
ATOM     13  C   UNL     1      13.102  23.124  10.871  1.00  0.00     0.008 C 
ENDROOT
BRANCH   8  14
ATOM     14  C   UNL     1       9.709  18.335  10.757  1.00  0.00    -0.009 C 
ATOM     15  C   UNL     1       8.259  18.260  10.235  1.00  0.00     0.008 C 
ATOM     16  C   UNL     1       9.764  17.876  12.222  1.00  0.00     0.008 C 
ENDBRANCH   8  14
BRANCH   9  17
ATOM     17  O   UNL     1      12.365  18.403   9.981  1.00  0.00    -0.365 OA
ATOM     18  H   UNL     1      12.201  18.041  10.892  1.00  0.00     0.214 HD
ENDBRANCH   9  17
TORSDOF 2
ENDMDL
MODEL 2
REMARK VINA RESULT:    -3.974      2.308      4.511
REMARK INTER + INTRA:          -4.529
REMARK INTER:                  -4.272
REMARK INTRA:                  -0.257
REMARK UNBOUND:                -0.206
REMARK SMILES C=C1C[C@]2(O)O[C@@]3(C[C@H]2C(C)C)[C@@H]1CC[C@@H]3C
REMARK SMILES IDX 17 1 16 2 15 3 14 4 13 5 7 6 8 7 9 8 4 9 6 10 3 11 2 12 1 13
REMARK SMILES IDX 10 14 11 15 12 16 5 17
REMARK H PARENT 5 18
REMARK Flexibility Score: inf
ROOT
ATOM      1  C   UNL     1       8.888  17.368  10.266  1.00  0.00     0.011 C 
ATOM      2  C   UNL     1       8.996  18.501  11.307  1.00  0.00     0.019 C 
ATOM      3  C   UNL     1      10.151  18.224  12.277  1.00  0.00     0.007 C 
ATOM      4  C   UNL     1      11.365  19.010  11.767  1.00  0.00     0.011 C 
ATOM      5  C   UNL     1      10.885  19.843  10.571  1.00  0.00     0.047 C 
ATOM      6  C   UNL     1       9.349  19.872  10.701  1.00  0.00     0.081 C 
ATOM      7  C   UNL     1       8.653  20.227   9.381  1.00  0.00     0.046 C 
ATOM      8  C   UNL     1       8.549  21.751   9.445  1.00  0.00     0.054 C 
ATOM      9  C   UNL     1       9.114  22.078  10.856  1.00  0.00     0.173 C 
ATOM     10  O   UNL     1       8.990  20.893  11.608  1.00  0.00    -0.342 OA
ATOM     11  C   UNL     1      10.617  22.457  10.798  1.00  0.00     0.096 C 
ATOM     12  C   UNL     1      11.486  21.240  10.548  1.00  0.00    -0.066 C 
ATOM     13  C   UNL     1      12.798  21.401  10.318  1.00  0.00     0.008 C 
ENDROOT
BRANCH   8  14
ATOM     14  C   UNL     1       7.114  22.303   9.159  1.00  0.00    -0.009 C 
ATOM     15  C   UNL     1       6.005  21.231   9.126  1.00  0.00     0.008 C 
ATOM     16  C   UNL     1       7.089  23.125   7.861  1.00  0.00     0.008 C 
ENDBRANCH   8  14
BRANCH   9  17
ATOM     17  O   UNL     1       8.400  23.125  11.468  1.00  0.00    -0.365 OA
ATOM     18  H   UNL     1       7.489  23.134  11.074  1.00  0.00     0.214 HD
ENDBRANCH   9  17
TORSDOF 2
ENDMDL
MODEL 3
REMARK VINA RESULT:    -3.905      1.662      4.189
REMARK INTER + INTRA:          -4.453
REMARK INTER:                  -4.226
REMARK INTRA:                  -0.227
REMARK UNBOUND:                -0.206
REMARK SMILES C=C1C[C@]2(O)O[C@@]3(C[C@H]2C(C)C)[C@@H]1CC[C@@H]3C
REMARK SMILES IDX 17 1 16 2 15 3 14 4 13 5 7 6 8 7 9 8 4 9 6 10 3 11 2 12 1 13
REMARK SMILES IDX 10 14 11 15 12 16 5 17
REMARK H PARENT 5 18
REMARK Flexibility Score: inf
ROOT
ATOM      1  C   UNL     1       7.703  23.125   8.299  1.00  0.00     0.011 C 
ATOM      2  C   UNL     1       8.950  22.979   9.195  1.00  0.00     0.019 C 
ATOM      3  C   UNL     1       8.537  22.892  10.671  1.00  0.00     0.007 C 
ATOM      4  C   UNL     1       8.491  21.404  11.038  1.00  0.00     0.011 C 
ATOM      5  C   UNL     1       8.998  20.628   9.815  1.00  0.00     0.047 C 
ATOM      6  C   UNL     1       9.738  21.677   8.960  1.00  0.00     0.081 C 
ATOM      7  C   UNL     1       9.898  21.239   7.499  1.00  0.00     0.046 C 
ATOM      8  C   UNL     1      11.237  20.502   7.506  1.00  0.00     0.054 C 
ATOM      9  C   UNL     1      11.734  20.698   8.966  1.00  0.00     0.173 C 
ATOM     10  O   UNL     1      11.050  21.826   9.460  1.00  0.00    -0.342 OA
ATOM     11  C   UNL     1      11.374  19.484   9.862  1.00  0.00     0.096 C 
ATOM     12  C   UNL     1       9.894  19.458  10.191  1.00  0.00    -0.066 C 
ATOM     13  C   UNL     1       9.378  18.398  10.830  1.00  0.00     0.008 C 
ENDROOT
BRANCH   8  14
ATOM     14  C   UNL     1      12.231  20.978   6.396  1.00  0.00    -0.009 C 
ATOM     15  C   UNL     1      12.218  22.497   6.128  1.00  0.00     0.008 C 
ATOM     16  C   UNL     1      12.000  20.212   5.084  1.00  0.00     0.008 C 
ENDBRANCH   8  14
BRANCH   9  17
ATOM     17  O   UNL     1      13.125  20.907   9.015  1.00  0.00    -0.365 OA
ATOM     18  H   UNL     1      13.344  21.231   9.927  1.00  0.00     0.214 HD
ENDBRANCH   9  17
TORSDOF 2
ENDMDL
MODEL 4
REMARK VINA RESULT:    -3.812      2.126      4.404
REMARK INTER + INTRA:          -4.352
REMARK INTER:                  -4.114
REMARK INTRA:                  -0.239
REMARK UNBOUND:                -0.206
REMARK SMILES C=C1C[C@]2(O)O[C@@]3(C[C@H]2C(C)C)[C@@H]1CC[C@@H]3C
REMARK SMILES IDX 17 1 16 2 15 3 14 4 13 5 7 6 8 7 9 8 4 9 6 10 3 11 2 12 1 13
REMARK SMILES IDX 10 14 11 15 12 16 5 17
REMARK H PARENT 5 18
REMARK Flexibility Score: inf
ROOT
ATOM      1  C   UNL     1       8.650  22.852   8.238  1.00  0.00     0.011 C 
ATOM      2  C   UNL     1       8.272  22.261   9.612  1.00  0.00     0.019 C 
ATOM      3  C   UNL     1       6.746  22.175   9.752  1.00  0.00     0.007 C 
ATOM      4  C   UNL     1       6.340  20.744   9.381  1.00  0.00     0.011 C 
ATOM      5  C   UNL     1       7.639  19.960   9.145  1.00  0.00     0.047 C 
ATOM      6  C   UNL     1       8.739  20.808   9.815  1.00  0.00     0.081 C 
ATOM      7  C   UNL     1      10.142  20.470   9.294  1.00  0.00     0.046 C 
ATOM      8  C   UNL     1      10.606  19.368  10.245  1.00  0.00     0.054 C 
ATOM      9  C   UNL     1       9.439  19.278  11.268  1.00  0.00     0.173 C 
ATOM     10  O   UNL     1       8.763  20.512  11.195  1.00  0.00    -0.342 OA
ATOM     11  C   UNL     1       8.435  18.155  10.895  1.00  0.00     0.096 C 
ATOM     12  C   UNL     1       7.582  18.547   9.704  1.00  0.00    -0.066 C 
ATOM     13  C   UNL     1       6.765  17.640   9.150  1.00  0.00     0.008 C 
ENDROOT
BRANCH   8  14
ATOM     14  C   UNL     1      12.019  19.617  10.868  1.00  0.00    -0.009 C 
ATOM     15  C   UNL     1      12.329  21.094  11.190  1.00  0.00     0.008 C 
ATOM     16  C   UNL     1      13.125  19.030   9.977  1.00  0.00     0.008 C 
ENDBRANCH   8  14
BRANCH   9  17
ATOM     17  O   UNL     1       9.913  19.053  12.574  1.00  0.00    -0.365 OA
ATOM     18  H   UNL     1       9.127  19.065  13.181  1.00  0.00     0.214 HD
ENDBRANCH   9  17
TORSDOF 2
ENDMDL
MODEL 5
REMARK VINA RESULT:    -3.811      2.725      4.714
REMARK INTER + INTRA:          -4.351
REMARK INTER:                  -4.487
REMARK INTRA:                   0.136
REMARK UNBOUND:                -0.206
REMARK SMILES C=C1C[C@]2(O)O[C@@]3(C[C@H]2C(C)C)[C@@H]1CC[C@@H]3C
REMARK SMILES IDX 17 1 16 2 15 3 14 4 13 5 7 6 8 7 9 8 4 9 6 10 3 11 2 12 1 13
REMARK SMILES IDX 10 14 11 15 12 16 5 17
REMARK H PARENT 5 18
REMARK Flexibility Score: inf
ROOT
ATOM      1  C   UNL     1       9.798  18.270  11.536  1.00  0.00     0.011 C 
ATOM      2  C   UNL     1       9.396  19.758  11.485  1.00  0.00     0.019 C 
ATOM      3  C   UNL     1      10.637  20.650  11.622  1.00  0.00     0.007 C 
ATOM      4  C   UNL     1      11.065  21.045  10.203  1.00  0.00     0.011 C 
ATOM      5  C   UNL     1      10.002  20.489   9.247  1.00  0.00     0.047 C 
ATOM      6  C   UNL     1       8.782  20.192  10.142  1.00  0.00     0.081 C 
ATOM      7  C   UNL     1       7.804  19.203   9.494  1.00  0.00     0.046 C 
ATOM      8  C   UNL     1       6.847  20.116   8.729  1.00  0.00     0.054 C 
ATOM      9  C   UNL     1       7.339  21.539   9.117  1.00  0.00     0.173 C 
ATOM     10  O   UNL     1       8.051  21.387  10.323  1.00  0.00    -0.342 OA
ATOM     11  C   UNL     1       8.308  22.121   8.054  1.00  0.00     0.096 C 
ATOM     12  C   UNL     1       9.667  21.451   8.118  1.00  0.00    -0.066 C 
ATOM     13  C   UNL     1      10.581  21.722   7.174  1.00  0.00     0.008 C 
ENDROOT
BRANCH   8  14
ATOM     14  C   UNL     1       5.335  19.834   9.013  1.00  0.00    -0.009 C 
ATOM     15  C   UNL     1       4.979  18.343   9.190  1.00  0.00     0.008 C 
ATOM     16  C   UNL     1       4.444  20.461   7.929  1.00  0.00     0.008 C 
ENDBRANCH   8  14
BRANCH   9  17
ATOM     17  O   UNL     1       6.262  22.428   9.292  1.00  0.00    -0.365 OA
ATOM     18  H   UNL     1       6.564  23.142   9.912  1.00  0.00     0.214 HD
ENDBRANCH   9  17
TORSDOF 2
ENDMDL
MODEL 6
REMARK VINA RESULT:    -3.743      1.445      4.865
REMARK INTER + INTRA:          -4.278
REMARK INTER:                  -4.274
REMARK INTRA:                  -0.004
REMARK UNBOUND:                -0.206
REMARK SMILES C=C1C[C@]2(O)O[C@@]3(C[C@H]2C(C)C)[C@@H]1CC[C@@H]3C
REMARK SMILES IDX 17 1 16 2 15 3 14 4 13 5 7 6 8 7 9 8 4 9 6 10 3 11 2 12 1 13
REMARK SMILES IDX 10 14 11 15 12 16 5 17
REMARK H PARENT 5 18
REMARK Flexibility Score: inf
ROOT
ATOM      1  C   UNL     1       9.743  18.250  12.126  1.00  0.00     0.011 C 
ATOM      2  C   UNL     1       9.684  18.384  10.590  1.00  0.00     0.019 C 
ATOM      3  C   UNL     1       8.426  17.694  10.044  1.00  0.00     0.007 C 
ATOM      4  C   UNL     1       7.360  18.781   9.861  1.00  0.00     0.011 C 
ATOM      5  C   UNL     1       8.034  20.122  10.181  1.00  0.00     0.047 C 
ATOM      6  C   UNL     1       9.547  19.835  10.095  1.00  0.00     0.081 C 
ATOM      7  C   UNL     1      10.388  20.884  10.835  1.00  0.00     0.046 C 
ATOM      8  C   UNL     1      10.665  21.928   9.754  1.00  0.00     0.054 C 
ATOM      9  C   UNL     1      10.027  21.293   8.486  1.00  0.00     0.173 C 
ATOM     10  O   UNL     1       9.947  19.910   8.743  1.00  0.00    -0.342 OA
ATOM     11  C   UNL     1       8.588  21.823   8.242  1.00  0.00     0.096 C 
ATOM     12  C   UNL     1       7.606  21.235   9.236  1.00  0.00    -0.066 C 
ATOM     13  C   UNL     1       6.346  21.695   9.270  1.00  0.00     0.008 C 
ENDROOT
BRANCH   8  14
ATOM     14  C   UNL     1      12.174  22.316   9.616  1.00  0.00    -0.009 C 
ATOM     15  C   UNL     1      13.125  21.126   9.370  1.00  0.00     0.008 C 
ATOM     16  C   UNL     1      12.649  23.125  10.832  1.00  0.00     0.008 C 
ENDBRANCH   8  14
BRANCH   9  17
ATOM     17  O   UNL     1      10.805  21.536   7.339  1.00  0.00    -0.365 OA
ATOM     18  H   UNL     1      10.827  22.519   7.198  1.00  0.00     0.214 HD
ENDBRANCH   9  17
TORSDOF 2
ENDMDL
MODEL 7
REMARK VINA RESULT:    -3.595      1.813      3.803
REMARK INTER + INTRA:          -4.117
REMARK INTER:                  -4.084
REMARK INTRA:                  -0.033
REMARK UNBOUND:                -0.206
REMARK SMILES C=C1C[C@]2(O)O[C@@]3(C[C@H]2C(C)C)[C@@H]1CC[C@@H]3C
REMARK SMILES IDX 17 1 16 2 15 3 14 4 13 5 7 6 8 7 9 8 4 9 6 10 3 11 2 12 1 13
REMARK SMILES IDX 10 14 11 15 12 16 5 17
REMARK H PARENT 5 18
REMARK Flexibility Score: inf
ROOT
ATOM      1  C   UNL     1      12.395  19.007  11.427  1.00  0.00     0.011 C 
ATOM      2  C   UNL     1      11.502  20.263  11.360  1.00  0.00     0.019 C 
ATOM      3  C   UNL     1      12.357  21.511  11.099  1.00  0.00     0.007 C 
ATOM      4  C   UNL     1      12.305  21.783   9.591  1.00  0.00     0.011 C 
ATOM      5  C   UNL     1      11.321  20.771   8.989  1.00  0.00     0.047 C 
ATOM      6  C   UNL     1      10.502  20.255  10.190  1.00  0.00     0.081 C 
ATOM      7  C   UNL     1       9.811  18.916   9.900  1.00  0.00     0.046 C 
ATOM      8  C   UNL     1       8.457  19.342   9.336  1.00  0.00     0.054 C 
ATOM      9  C   UNL     1       8.497  20.891   9.467  1.00  0.00     0.173 C 
ATOM     10  O   UNL     1       9.461  21.171  10.456  1.00  0.00    -0.342 OA
ATOM     11  C   UNL     1       8.952  21.567   8.146  1.00  0.00     0.096 C 
ATOM     12  C   UNL     1      10.438  21.380   7.911  1.00  0.00    -0.066 C 
ATOM     13  C   UNL     1      10.975  21.767   6.745  1.00  0.00     0.008 C 
ENDROOT
BRANCH   8  14
ATOM     14  C   UNL     1       7.235  18.648  10.022  1.00  0.00    -0.009 C 
ATOM     15  C   UNL     1       7.531  17.251  10.606  1.00  0.00     0.008 C 
ATOM     16  C   UNL     1       6.034  18.574   9.066  1.00  0.00     0.008 C 
ENDBRANCH   8  14
BRANCH   9  17
ATOM     17  O   UNL     1       7.244  21.411   9.840  1.00  0.00    -0.365 OA
ATOM     18  H   UNL     1       6.989  20.982  10.699  1.00  0.00     0.214 HD
ENDBRANCH   9  17
TORSDOF 2
ENDMDL
MODEL 8
REMARK VINA RESULT:    -3.336      1.956      3.092
REMARK INTER + INTRA:          -3.835
REMARK INTER:                  -3.577
REMARK INTRA:                  -0.258
REMARK UNBOUND:                -0.206
REMARK SMILES C=C1C[C@]2(O)O[C@@]3(C[C@H]2C(C)C)[C@@H]1CC[C@@H]3C
REMARK SMILES IDX 17 1 16 2 15 3 14 4 13 5 7 6 8 7 9 8 4 9 6 10 3 11 2 12 1 13
REMARK SMILES IDX 10 14 11 15 12 16 5 17
REMARK H PARENT 5 18
REMARK Flexibility Score: inf
ROOT
ATOM      1  C   UNL     1      11.595  21.788   6.116  1.00  0.00     0.011 C 
ATOM      2  C   UNL     1      11.331  20.678   7.155  1.00  0.00     0.019 C 
ATOM      3  C   UNL     1      12.651  20.015   7.572  1.00  0.00     0.007 C 
ATOM      4  C   UNL     1      13.100  20.688   8.875  1.00  0.00     0.011 C 
ATOM      5  C   UNL     1      11.982  21.655   9.285  1.00  0.00     0.047 C 
ATOM      6  C   UNL     1      10.747  21.194   8.482  1.00  0.00     0.081 C 
ATOM      7  C   UNL     1       9.676  22.287   8.370  1.00  0.00     0.046 C 
ATOM      8  C   UNL     1       8.800  22.038   9.597  1.00  0.00     0.054 C 
ATOM      9  C   UNL     1       9.424  20.755  10.215  1.00  0.00     0.173 C 
ATOM     10  O   UNL     1      10.131  20.126   9.171  1.00  0.00    -0.342 OA
ATOM     11  C   UNL     1      10.433  21.095  11.345  1.00  0.00     0.096 C 
ATOM     12  C   UNL     1      11.725  21.656  10.784  1.00  0.00    -0.066 C 
ATOM     13  C   UNL     1      12.651  22.144  11.622  1.00  0.00     0.008 C 
ENDROOT
BRANCH   8  14
ATOM     14  C   UNL     1       7.271  21.948   9.280  1.00  0.00    -0.009 C 
ATOM     15  C   UNL     1       6.931  21.837   7.779  1.00  0.00     0.008 C 
ATOM     16  C   UNL     1       6.507  23.124   9.906  1.00  0.00     0.008 C 
ENDBRANCH   8  14
BRANCH   9  17
ATOM     17  O   UNL     1       8.436  19.895  10.727  1.00  0.00    -0.365 OA
ATOM     18  H   UNL     1       8.235  20.191  11.653  1.00  0.00     0.214 HD
ENDBRANCH   9  17
TORSDOF 2
ENDMDL
MODEL 9
REMARK VINA RESULT:    -3.030      4.215      6.779
REMARK INTER + INTRA:          -3.502
REMARK INTER:                  -3.660
REMARK INTRA:                   0.159
REMARK UNBOUND:                -0.206
REMARK SMILES C=C1C[C@]2(O)O[C@@]3(C[C@H]2C(C)C)[C@@H]1CC[C@@H]3C
REMARK SMILES IDX 17 1 16 2 15 3 14 4 13 5 7 6 8 7 9 8 4 9 6 10 3 11 2 12 1 13
REMARK SMILES IDX 10 14 11 15 12 16 5 17
REMARK H PARENT 5 18
REMARK Flexibility Score: inf
ROOT
ATOM      1  C   UNL     1       5.250  22.751   4.275  1.00  0.00     0.011 C 
ATOM      2  C   UNL     1       4.757  23.060   5.704  1.00  0.00     0.019 C 
ATOM      3  C   UNL     1       3.287  22.649   5.860  1.00  0.00     0.007 C 
ATOM      4  C   UNL     1       3.276  21.256   6.501  1.00  0.00     0.011 C 
ATOM      5  C   UNL     1       4.733  20.907   6.832  1.00  0.00     0.047 C 
ATOM      6  C   UNL     1       5.479  22.256   6.800  1.00  0.00     0.081 C 
ATOM      7  C   UNL     1       6.994  22.086   6.627  1.00  0.00     0.046 C 
ATOM      8  C   UNL     1       7.498  21.999   8.067  1.00  0.00     0.054 C 
ATOM      9  C   UNL     1       6.207  22.234   8.901  1.00  0.00     0.173 C 
ATOM     10  O   UNL     1       5.307  22.900   8.045  1.00  0.00    -0.342 OA
ATOM     11  C   UNL     1       5.556  20.895   9.338  1.00  0.00     0.096 C 
ATOM     12  C   UNL     1       4.878  20.202   8.172  1.00  0.00    -0.066 C 
ATOM     13  C   UNL     1       4.393  18.962   8.333  1.00  0.00     0.008 C 
ENDROOT
BRANCH   8  14
ATOM     14  C   UNL     1       8.682  22.970   8.387  1.00  0.00    -0.009 C 
ATOM     15  C   UNL     1       9.714  23.124   7.250  1.00  0.00     0.008 C 
ATOM     16  C   UNL     1       9.390  22.565   9.688  1.00  0.00     0.008 C 
ENDBRANCH   8  14
BRANCH   9  17
ATOM     17  O   UNL     1       6.465  23.013  10.044  1.00  0.00    -0.365 OA
ATOM     18  H   UNL     1       5.663  23.575  10.207  1.00  0.00     0.214 HD
ENDBRANCH   9  17
TORSDOF 2
ENDMDL
