MODEL 1
REMARK VINA RESULT:    -5.296      0.000      0.000
REMARK INTER + INTRA:          -5.698
REMARK INTER:                  -5.605
REMARK INTRA:                  -0.092
REMARK UNBOUND:                -0.092
REMARK SMILES C=C(C)[C@H]1CC=C(C)C(=O)C1
REMARK SMILES IDX 8 1 7 2 6 3 5 4 4 5 11 6 9 7 10 8 2 9 1 10 3 11
REMARK H PARENT
REMARK Flexibility Score: inf
ROOT
ATOM      1  C   UNL     1      51.450   4.018  13.629  1.00  0.00     0.048 C 
ATOM      2  C   UNL     1      50.504   3.625  14.730  1.00  0.00    -0.012 C 
ATOM      3  C   UNL     1      49.306   3.096  14.427  1.00  0.00    -0.019 C 
ATOM      4  C   UNL     1      48.315   2.703  15.489  1.00  0.00     0.036 C 
ATOM      5  C   UNL     1      49.031   2.217  16.763  1.00  0.00     0.025 C 
ATOM      6  C   UNL     1      50.024   3.284  17.259  1.00  0.00     0.089 C 
ATOM      7  C   UNL     1      50.943   3.708  16.146  1.00  0.00     0.158 C 
ATOM      8  O   UNL     1      52.079   4.172  16.431  1.00  0.00    -0.295 OA
ENDROOT
BRANCH   5   9
ATOM      9  C   UNL     1      48.036   1.835  17.850  1.00  0.00    -0.077 C 
ATOM     10  C   UNL     1      48.420   1.048  18.869  1.00  0.00     0.008 C 
ATOM     11  C   UNL     1      46.609   2.324  17.817  1.00  0.00     0.039 C 
ENDBRANCH   5   9
TORSDOF 1
ENDMDL
MODEL 2
REMARK VINA RESULT:    -5.202      3.400      4.807
REMARK INTER + INTRA:          -5.599
REMARK INTER:                  -5.504
REMARK INTRA:                  -0.094
REMARK UNBOUND:                -0.092
REMARK SMILES C=C(C)[C@H]1CC=C(C)C(=O)C1
REMARK SMILES IDX 8 1 7 2 6 3 5 4 4 5 11 6 9 7 10 8 2 9 1 10 3 11
REMARK H PARENT
REMARK Flexibility Score: inf
ROOT
ATOM      1  C   UNL     1      45.811   2.813  18.339  1.00  0.00     0.048 C 
ATOM      2  C   UNL     1      47.263   2.804  18.733  1.00  0.00    -0.012 C 
ATOM      3  C   UNL     1      48.012   1.711  18.502  1.00  0.00    -0.019 C 
ATOM      4  C   UNL     1      49.463   1.641  18.894  1.00  0.00     0.036 C 
ATOM      5  C   UNL     1      50.132   3.026  18.791  1.00  0.00     0.025 C 
ATOM      6  C   UNL     1      49.353   4.059  19.624  1.00  0.00     0.089 C 
ATOM      7  C   UNL     1      47.894   4.039  19.261  1.00  0.00     0.158 C 
ATOM      8  O   UNL     1      47.201   5.076  19.445  1.00  0.00    -0.295 OA
ENDROOT
BRANCH   5   9
ATOM      9  C   UNL     1      51.597   2.969  19.203  1.00  0.00    -0.077 C 
ATOM     10  C   UNL     1      52.402   2.021  18.698  1.00  0.00     0.008 C 
ATOM     11  C   UNL     1      52.178   3.964  20.178  1.00  0.00     0.039 C 
ENDBRANCH   5   9
TORSDOF 1
ENDMDL
MODEL 3
REMARK VINA RESULT:    -5.021      1.379      4.297
REMARK INTER + INTRA:          -5.407
REMARK INTER:                  -5.319
REMARK INTRA:                  -0.088
REMARK UNBOUND:                -0.092
REMARK SMILES C=C(C)[C@H]1CC=C(C)C(=O)C1
REMARK SMILES IDX 8 1 7 2 6 3 5 4 4 5 11 6 9 7 10 8 2 9 1 10 3 11
REMARK H PARENT
REMARK Flexibility Score: inf
ROOT
ATOM      1  C   UNL     1      48.334   1.232  18.688  1.00  0.00     0.048 C 
ATOM      2  C   UNL     1      49.052   1.901  17.549  1.00  0.00    -0.012 C 
ATOM      3  C   UNL     1      48.549   1.826  16.304  1.00  0.00    -0.019 C 
ATOM      4  C   UNL     1      49.237   2.460  15.125  1.00  0.00     0.036 C 
ATOM      5  C   UNL     1      49.979   3.745  15.541  1.00  0.00     0.025 C 
ATOM      6  C   UNL     1      50.954   3.449  16.695  1.00  0.00     0.089 C 
ATOM      7  C   UNL     1      50.245   2.742  17.818  1.00  0.00     0.158 C 
ATOM      8  O   UNL     1      50.698   2.842  18.990  1.00  0.00    -0.295 OA
ENDROOT
BRANCH   5   9
ATOM      9  C   UNL     1      50.694   4.383  14.359  1.00  0.00    -0.077 C 
ATOM     10  C   UNL     1      50.553   5.696  14.115  1.00  0.00     0.008 C 
ATOM     11  C   UNL     1      51.573   3.570  13.440  1.00  0.00     0.039 C 
ENDBRANCH   5   9
TORSDOF 1
ENDMDL
MODEL 4
REMARK VINA RESULT:    -4.937      3.150      4.120
REMARK INTER + INTRA:          -5.318
REMARK INTER:                  -5.221
REMARK INTRA:                  -0.096
REMARK UNBOUND:                -0.092
REMARK SMILES C=C(C)[C@H]1CC=C(C)C(=O)C1
REMARK SMILES IDX 8 1 7 2 6 3 5 4 4 5 11 6 9 7 10 8 2 9 1 10 3 11
REMARK H PARENT
REMARK Flexibility Score: inf
ROOT
ATOM      1  C   UNL     1      52.328   4.619  20.716  1.00  0.00     0.048 C 
ATOM      2  C   UNL     1      51.099   4.135  19.996  1.00  0.00    -0.012 C 
ATOM      3  C   UNL     1      51.204   3.168  19.068  1.00  0.00    -0.019 C 
ATOM      4  C   UNL     1      50.010   2.661  18.305  1.00  0.00     0.036 C 
ATOM      5  C   UNL     1      48.736   2.713  19.170  1.00  0.00     0.025 C 
ATOM      6  C   UNL     1      48.517   4.137  19.714  1.00  0.00     0.089 C 
ATOM      7  C   UNL     1      49.761   4.638  20.397  1.00  0.00     0.158 C 
ATOM      8  O   UNL     1      49.657   5.519  21.291  1.00  0.00    -0.295 OA
ENDROOT
BRANCH   5   9
ATOM      9  C   UNL     1      47.519   2.220  18.399  1.00  0.00    -0.077 C 
ATOM     10  C   UNL     1      47.646   1.228  17.504  1.00  0.00     0.008 C 
ATOM     11  C   UNL     1      46.153   2.823  18.618  1.00  0.00     0.039 C 
ENDBRANCH   5   9
TORSDOF 1
ENDMDL
MODEL 5
REMARK VINA RESULT:    -4.888      2.933      3.898
REMARK INTER + INTRA:          -5.266
REMARK INTER:                  -5.167
REMARK INTRA:                  -0.099
REMARK UNBOUND:                -0.092
REMARK SMILES C=C(C)[C@H]1CC=C(C)C(=O)C1
REMARK SMILES IDX 8 1 7 2 6 3 5 4 4 5 11 6 9 7 10 8 2 9 1 10 3 11
REMARK H PARENT
REMARK Flexibility Score: inf
ROOT
ATOM      1  C   UNL     1      51.782   5.360  20.724  1.00  0.00     0.048 C 
ATOM      2  C   UNL     1      50.743   4.436  20.150  1.00  0.00    -0.012 C 
ATOM      3  C   UNL     1      49.438   4.708  20.322  1.00  0.00    -0.019 C 
ATOM      4  C   UNL     1      48.357   3.808  19.785  1.00  0.00     0.036 C 
ATOM      5  C   UNL     1      48.800   3.132  18.473  1.00  0.00     0.025 C 
ATOM      6  C   UNL     1      50.131   2.386  18.678  1.00  0.00     0.089 C 
ATOM      7  C   UNL     1      51.158   3.298  19.292  1.00  0.00     0.158 C 
ATOM      8  O   UNL     1      52.381   3.062  19.100  1.00  0.00    -0.295 OA
ENDROOT
BRANCH   5   9
ATOM      9  C   UNL     1      47.720   2.205  17.932  1.00  0.00    -0.077 C 
ATOM     10  C   UNL     1      48.047   0.985  17.477  1.00  0.00     0.008 C 
ATOM     11  C   UNL     1      46.271   2.624  17.895  1.00  0.00     0.039 C 
ENDBRANCH   5   9
TORSDOF 1
ENDMDL
MODEL 6
REMARK VINA RESULT:    -4.617      3.863      4.933
REMARK INTER + INTRA:          -4.979
REMARK INTER:                  -4.881
REMARK INTRA:                  -0.098
REMARK UNBOUND:                -0.092
REMARK SMILES C=C(C)[C@H]1CC=C(C)C(=O)C1
REMARK SMILES IDX 8 1 7 2 6 3 5 4 4 5 11 6 9 7 10 8 2 9 1 10 3 11
REMARK H PARENT
REMARK Flexibility Score: inf
ROOT
ATOM      1  C   UNL     1      50.099   7.731  20.405  1.00  0.00     0.048 C 
ATOM      2  C   UNL     1      49.408   6.501  19.884  1.00  0.00    -0.012 C 
ATOM      3  C   UNL     1      50.109   5.370  19.692  1.00  0.00    -0.019 C 
ATOM      4  C   UNL     1      49.472   4.116  19.155  1.00  0.00     0.036 C 
ATOM      5  C   UNL     1      48.004   4.003  19.610  1.00  0.00     0.025 C 
ATOM      6  C   UNL     1      47.222   5.269  19.216  1.00  0.00     0.089 C 
ATOM      7  C   UNL     1      47.935   6.502  19.700  1.00  0.00     0.158 C 
ATOM      8  O   UNL     1      47.271   7.552  19.912  1.00  0.00    -0.295 OA
ENDROOT
BRANCH   5   9
ATOM      9  C   UNL     1      47.345   2.747  19.056  1.00  0.00    -0.077 C 
ATOM     10  C   UNL     1      46.068   2.784  18.642  1.00  0.00     0.008 C 
ATOM     11  C   UNL     1      48.097   1.443  18.955  1.00  0.00     0.039 C 
ENDBRANCH   5   9
TORSDOF 1
ENDMDL
MODEL 7
REMARK VINA RESULT:    -4.609      1.317      2.048
REMARK INTER + INTRA:          -4.970
REMARK INTER:                  -4.872
REMARK INTRA:                  -0.098
REMARK UNBOUND:                -0.092
REMARK SMILES C=C(C)[C@H]1CC=C(C)C(=O)C1
REMARK SMILES IDX 8 1 7 2 6 3 5 4 4 5 11 6 9 7 10 8 2 9 1 10 3 11
REMARK H PARENT
REMARK Flexibility Score: inf
ROOT
ATOM      1  C   UNL     1      52.500   4.742  15.290  1.00  0.00     0.048 C 
ATOM      2  C   UNL     1      51.429   3.894  15.921  1.00  0.00    -0.012 C 
ATOM      3  C   UNL     1      51.524   3.552  17.218  1.00  0.00    -0.019 C 
ATOM      4  C   UNL     1      50.491   2.690  17.893  1.00  0.00     0.036 C 
ATOM      5  C   UNL     1      49.091   2.934  17.298  1.00  0.00     0.025 C 
ATOM      6  C   UNL     1      49.114   2.727  15.773  1.00  0.00     0.089 C 
ATOM      7  C   UNL     1      50.213   3.542  15.146  1.00  0.00     0.158 C 
ATOM      8  O   UNL     1      50.106   3.892  13.941  1.00  0.00    -0.295 OA
ENDROOT
BRANCH   5   9
ATOM      9  C   UNL     1      48.042   2.053  17.963  1.00  0.00    -0.077 C 
ATOM     10  C   UNL     1      48.420   1.023  18.737  1.00  0.00     0.008 C 
ATOM     11  C   UNL     1      46.567   2.308  17.774  1.00  0.00     0.039 C 
ENDBRANCH   5   9
TORSDOF 1
ENDMDL
MODEL 8
REMARK VINA RESULT:    -4.554      2.947      4.855
REMARK INTER + INTRA:          -4.912
REMARK INTER:                  -4.814
REMARK INTRA:                  -0.098
REMARK UNBOUND:                -0.092
REMARK SMILES C=C(C)[C@H]1CC=C(C)C(=O)C1
REMARK SMILES IDX 8 1 7 2 6 3 5 4 4 5 11 6 9 7 10 8 2 9 1 10 3 11
REMARK H PARENT
REMARK Flexibility Score: inf
ROOT
ATOM      1  C   UNL     1      46.047   2.852  18.762  1.00  0.00     0.048 C 
ATOM      2  C   UNL     1      47.541   3.021  18.719  1.00  0.00    -0.012 C 
ATOM      3  C   UNL     1      48.136   3.928  19.514  1.00  0.00    -0.019 C 
ATOM      4  C   UNL     1      49.624   4.151  19.498  1.00  0.00     0.036 C 
ATOM      5  C   UNL     1      50.377   2.843  19.184  1.00  0.00     0.025 C 
ATOM      6  C   UNL     1      49.865   2.233  17.867  1.00  0.00     0.089 C 
ATOM      7  C   UNL     1      48.366   2.104  17.893  1.00  0.00     0.158 C 
ATOM      8  O   UNL     1      47.813   1.229  17.174  1.00  0.00    -0.295 OA
ENDROOT
BRANCH   5   9
ATOM      9  C   UNL     1      51.883   3.063  19.147  1.00  0.00    -0.077 C 
ATOM     10  C   UNL     1      52.672   2.203  18.484  1.00  0.00     0.008 C 
ATOM     11  C   UNL     1      52.524   4.239  19.842  1.00  0.00     0.039 C 
ENDBRANCH   5   9
TORSDOF 1
ENDMDL
MODEL 9
REMARK VINA RESULT:    -4.473      3.339      5.022
REMARK INTER + INTRA:          -4.827
REMARK INTER:                  -4.729
REMARK INTRA:                  -0.097
REMARK UNBOUND:                -0.092
REMARK SMILES C=C(C)[C@H]1CC=C(C)C(=O)C1
REMARK SMILES IDX 8 1 7 2 6 3 5 4 4 5 11 6 9 7 10 8 2 9 1 10 3 11
REMARK H PARENT
REMARK Flexibility Score: inf
ROOT
ATOM      1  C   UNL     1      48.401   0.912  18.460  1.00  0.00     0.048 C 
ATOM      2  C   UNL     1      48.793   2.298  18.893  1.00  0.00    -0.012 C 
ATOM      3  C   UNL     1      47.863   3.132  19.389  1.00  0.00    -0.019 C 
ATOM      4  C   UNL     1      48.197   4.535  19.820  1.00  0.00     0.036 C 
ATOM      5  C   UNL     1      49.631   4.616  20.380  1.00  0.00     0.025 C 
ATOM      6  C   UNL     1      50.638   4.066  19.354  1.00  0.00     0.089 C 
ATOM      7  C   UNL     1      50.223   2.697  18.888  1.00  0.00     0.158 C 
ATOM      8  O   UNL     1      51.101   1.903  18.456  1.00  0.00    -0.295 OA
ENDROOT
BRANCH   5   9
ATOM      9  C   UNL     1      49.985   6.036  20.800  1.00  0.00    -0.077 C 
ATOM     10  C   UNL     1      49.593   7.078  20.050  1.00  0.00     0.008 C 
ATOM     11  C   UNL     1      50.775   6.310  22.057  1.00  0.00     0.039 C 
ENDBRANCH   5   9
TORSDOF 1
ENDMDL
