MODEL 1
REMARK VINA RESULT:    -8.372      0.000      0.000
REMARK INTER + INTRA:          -9.908
REMARK INTER:                  -9.840
REMARK INTRA:                  -0.068
REMARK UNBOUND:                -0.068
REMARK SMILES O=c1c(O)c(-c2ccc(O)c(O)c2)oc2cc(O)ccc12
REMARK SMILES IDX 5 1 3 2 2 3 1 4 21 5 15 6 14 7 16 8 17 9 19 10 20 11 6 12
REMARK SMILES IDX 7 13 8 14 9 15 13 16 11 17 10 18 12 20 4 22 18 24
REMARK H PARENT 10 19 12 21 4 23 18 25
REMARK Flexibility Score: inf
ROOT
ATOM      1  C   UNL     1     -34.361  44.198  39.957  1.00  0.00     0.180 A 
ATOM      2  C   UNL     1     -35.117  44.803  40.981  1.00  0.00     0.208 A 
ATOM      3  C   UNL     1     -35.456  44.042  42.111  1.00  0.00     0.235 A 
ATOM      4  O   UNL     1     -36.141  44.559  43.037  1.00  0.00    -0.285 OA
ATOM      5  C   UNL     1     -35.018  42.712  42.204  1.00  0.00     0.069 A 
ATOM      6  C   UNL     1     -34.245  42.187  41.148  1.00  0.00     0.142 A 
ATOM      7  O   UNL     1     -33.953  42.937  40.090  1.00  0.00    -0.452 OA
ATOM      8  C   UNL     1     -33.781  40.868  41.208  1.00  0.00     0.094 A 
ATOM      9  C   UNL     1     -34.083  40.064  42.311  1.00  0.00     0.119 A 
ATOM     10  C   UNL     1     -34.852  40.581  43.362  1.00  0.00     0.047 A 
ATOM     11  C   UNL     1     -35.319  41.899  43.312  1.00  0.00     0.020 A 
ENDROOT
BRANCH   1  12
ATOM     12  C   UNL     1     -33.980  44.927  38.725  1.00  0.00     0.025 A 
ATOM     13  C   UNL     1     -34.982  45.502  37.927  1.00  0.00     0.016 A 
ATOM     14  C   UNL     1     -34.645  46.212  36.771  1.00  0.00     0.051 A 
ATOM     15  C   UNL     1     -33.305  46.372  36.404  1.00  0.00     0.157 A 
ATOM     16  C   UNL     1     -32.632  45.106  38.366  1.00  0.00     0.062 A 
ATOM     17  C   UNL     1     -32.292  45.820  37.208  1.00  0.00     0.158 A 
BRANCH  15  18
ATOM     18  O   UNL     1     -33.000  47.083  35.245  1.00  0.00    -0.504 OA
ATOM     19  H   UNL     1     -33.104  46.679  34.322  1.00  0.00     0.293 HD
ENDBRANCH  15  18
BRANCH  17  20
ATOM     20  O   UNL     1     -30.955  45.988  36.855  1.00  0.00    -0.504 OA
ATOM     21  H   UNL     1     -30.684  46.528  36.041  1.00  0.00     0.293 HD
ENDBRANCH  17  20
ENDBRANCH   1  12
BRANCH   2  22
ATOM     22  O   UNL     1     -35.496  46.144  40.882  1.00  0.00    -0.502 OA
ATOM     23  H   UNL     1     -34.852  46.868  40.586  1.00  0.00     0.293 HD
ENDBRANCH   2  22
BRANCH   9  24
ATOM     24  O   UNL     1     -33.614  38.753  42.354  1.00  0.00    -0.508 OA
ATOM     25  H   UNL     1     -33.109  38.397  43.157  1.00  0.00     0.293 HD
ENDBRANCH   9  24
TORSDOF 5
ENDMDL
MODEL 2
REMARK VINA RESULT:    -7.963      2.701      4.363
REMARK INTER + INTRA:          -9.427
REMARK INTER:                  -9.165
REMARK INTRA:                  -0.263
REMARK UNBOUND:                -0.068
REMARK SMILES O=c1c(O)c(-c2ccc(O)c(O)c2)oc2cc(O)ccc12
REMARK SMILES IDX 5 1 3 2 2 3 1 4 21 5 15 6 14 7 16 8 17 9 19 10 20 11 6 12
REMARK SMILES IDX 7 13 8 14 9 15 13 16 11 17 10 18 12 20 4 22 18 24
REMARK H PARENT 10 19 12 21 4 23 18 25
REMARK Flexibility Score: inf
ROOT
ATOM      1  C   UNL     1     -35.493  41.950  42.254  1.00  0.00     0.180 A 
ATOM      2  C   UNL     1     -34.459  41.261  42.919  1.00  0.00     0.208 A 
ATOM      3  C   UNL     1     -34.796  40.332  43.916  1.00  0.00     0.235 A 
ATOM      4  O   UNL     1     -33.886  39.710  44.533  1.00  0.00    -0.285 OA
ATOM      5  C   UNL     1     -36.147  40.097  44.211  1.00  0.00     0.069 A 
ATOM      6  C   UNL     1     -37.125  40.810  43.484  1.00  0.00     0.142 A 
ATOM      7  O   UNL     1     -36.764  41.688  42.554  1.00  0.00    -0.452 OA
ATOM      8  C   UNL     1     -38.483  40.596  43.742  1.00  0.00     0.094 A 
ATOM      9  C   UNL     1     -38.880  39.680  44.721  1.00  0.00     0.119 A 
ATOM     10  C   UNL     1     -37.912  38.970  45.446  1.00  0.00     0.047 A 
ATOM     11  C   UNL     1     -36.552  39.176  45.194  1.00  0.00     0.020 A 
ENDROOT
BRANCH   1  12
ATOM     12  C   UNL     1     -35.219  42.958  41.205  1.00  0.00     0.025 A 
ATOM     13  C   UNL     1     -35.288  44.324  41.526  1.00  0.00     0.016 A 
ATOM     14  C   UNL     1     -35.013  45.293  40.557  1.00  0.00     0.051 A 
ATOM     15  C   UNL     1     -34.650  44.915  39.261  1.00  0.00     0.157 A 
ATOM     16  C   UNL     1     -34.833  42.580  39.907  1.00  0.00     0.062 A 
ATOM     17  C   UNL     1     -34.554  43.552  38.934  1.00  0.00     0.158 A 
BRANCH  15  18
ATOM     18  O   UNL     1     -34.383  45.904  38.316  1.00  0.00    -0.504 OA
ATOM     19  H   UNL     1     -33.640  45.811  37.634  1.00  0.00     0.293 HD
ENDBRANCH  15  18
BRANCH  17  20
ATOM     20  O   UNL     1     -34.179  43.168  37.648  1.00  0.00    -0.504 OA
ATOM     21  H   UNL     1     -33.262  43.387  37.275  1.00  0.00     0.293 HD
ENDBRANCH  17  20
ENDBRANCH   1  12
BRANCH   2  22
ATOM     22  O   UNL     1     -33.124  41.480  42.569  1.00  0.00    -0.502 OA
ATOM     23  H   UNL     1     -32.847  42.209  41.921  1.00  0.00     0.293 HD
ENDBRANCH   2  22
BRANCH   9  24
ATOM     24  O   UNL     1     -40.237  39.480  44.965  1.00  0.00    -0.508 OA
ATOM     25  H   UNL     1     -40.859  39.132  44.245  1.00  0.00     0.293 HD
ENDBRANCH   9  24
TORSDOF 5
ENDMDL
MODEL 3
REMARK VINA RESULT:    -7.938      4.982      8.060
REMARK INTER + INTRA:          -9.398
REMARK INTER:                  -9.094
REMARK INTRA:                  -0.304
REMARK UNBOUND:                -0.068
REMARK SMILES O=c1c(O)c(-c2ccc(O)c(O)c2)oc2cc(O)ccc12
REMARK SMILES IDX 5 1 3 2 2 3 1 4 21 5 15 6 14 7 16 8 17 9 19 10 20 11 6 12
REMARK SMILES IDX 7 13 8 14 9 15 13 16 11 17 10 18 12 20 4 22 18 24
REMARK H PARENT 10 19 12 21 4 23 18 25
REMARK Flexibility Score: inf
ROOT
ATOM      1  C   UNL     1     -37.379  38.850  44.104  1.00  0.00     0.180 A 
ATOM      2  C   UNL     1     -36.792  37.577  44.260  1.00  0.00     0.208 A 
ATOM      3  C   UNL     1     -37.189  36.776  45.342  1.00  0.00     0.235 A 
ATOM      4  O   UNL     1     -36.671  35.638  45.507  1.00  0.00    -0.285 OA
ATOM      5  C   UNL     1     -38.171  37.249  46.226  1.00  0.00     0.069 A 
ATOM      6  C   UNL     1     -38.727  38.524  45.989  1.00  0.00     0.142 A 
ATOM      7  O   UNL     1     -38.317  39.256  44.958  1.00  0.00    -0.452 OA
ATOM      8  C   UNL     1     -39.715  39.027  46.843  1.00  0.00     0.094 A 
ATOM      9  C   UNL     1     -40.154  38.273  47.935  1.00  0.00     0.119 A 
ATOM     10  C   UNL     1     -39.603  37.006  48.175  1.00  0.00     0.047 A 
ATOM     11  C   UNL     1     -38.616  36.494  47.326  1.00  0.00     0.020 A 
ENDROOT
BRANCH   1  12
ATOM     12  C   UNL     1     -36.999  39.761  43.001  1.00  0.00     0.025 A 
ATOM     13  C   UNL     1     -35.852  40.561  43.130  1.00  0.00     0.016 A 
ATOM     14  C   UNL     1     -35.464  41.414  42.093  1.00  0.00     0.051 A 
ATOM     15  C   UNL     1     -36.203  41.469  40.908  1.00  0.00     0.157 A 
ATOM     16  C   UNL     1     -37.730  39.802  41.800  1.00  0.00     0.062 A 
ATOM     17  C   UNL     1     -37.340  40.656  40.757  1.00  0.00     0.158 A 
BRANCH  15  18
ATOM     18  O   UNL     1     -35.792  42.330  39.892  1.00  0.00    -0.504 OA
ATOM     19  H   UNL     1     -36.412  42.615  39.143  1.00  0.00     0.293 HD
ENDBRANCH  15  18
BRANCH  17  20
ATOM     20  O   UNL     1     -38.073  40.696  39.573  1.00  0.00    -0.504 OA
ATOM     21  H   UNL     1     -38.044  41.501  38.957  1.00  0.00     0.293 HD
ENDBRANCH  17  20
ENDBRANCH   1  12
BRANCH   2  22
ATOM     22  O   UNL     1     -35.854  37.114  43.334  1.00  0.00    -0.502 OA
ATOM     23  H   UNL     1     -34.962  37.574  43.190  1.00  0.00     0.293 HD
ENDBRANCH   2  22
BRANCH   9  24
ATOM     24  O   UNL     1     -41.138  38.789  48.775  1.00  0.00    -0.508 OA
ATOM     25  H   UNL     1     -41.367  38.345  49.657  1.00  0.00     0.293 HD
ENDBRANCH   9  24
TORSDOF 5
ENDMDL
MODEL 4
REMARK VINA RESULT:    -7.918      4.995     10.127
REMARK INTER + INTRA:          -9.374
REMARK INTER:                  -9.511
REMARK INTRA:                   0.137
REMARK UNBOUND:                -0.068
REMARK SMILES O=c1c(O)c(-c2ccc(O)c(O)c2)oc2cc(O)ccc12
REMARK SMILES IDX 5 1 3 2 2 3 1 4 21 5 15 6 14 7 16 8 17 9 19 10 20 11 6 12
REMARK SMILES IDX 7 13 8 14 9 15 13 16 11 17 10 18 12 20 4 22 18 24
REMARK H PARENT 10 19 12 21 4 23 18 25
REMARK Flexibility Score: inf
ROOT
ATOM      1  C   UNL     1     -37.349  38.590  44.876  1.00  0.00     0.180 A 
ATOM      2  C   UNL     1     -36.278  37.677  44.796  1.00  0.00     0.208 A 
ATOM      3  C   UNL     1     -35.389  37.770  43.714  1.00  0.00     0.235 A 
ATOM      4  O   UNL     1     -34.428  36.957  43.615  1.00  0.00    -0.285 OA
ATOM      5  C   UNL     1     -35.572  38.778  42.755  1.00  0.00     0.069 A 
ATOM      6  C   UNL     1     -36.655  39.669  42.919  1.00  0.00     0.142 A 
ATOM      7  O   UNL     1     -37.480  39.540  43.953  1.00  0.00    -0.452 OA
ATOM      8  C   UNL     1     -36.865  40.693  41.990  1.00  0.00     0.094 A 
ATOM      9  C   UNL     1     -36.009  40.838  40.894  1.00  0.00     0.119 A 
ATOM     10  C   UNL     1     -34.934  39.955  40.726  1.00  0.00     0.047 A 
ATOM     11  C   UNL     1     -34.714  38.929  41.651  1.00  0.00     0.020 A 
ENDROOT
BRANCH   1  12
ATOM     12  C   UNL     1     -38.340  38.544  45.975  1.00  0.00     0.025 A 
ATOM     13  C   UNL     1     -39.706  38.688  45.679  1.00  0.00     0.016 A 
ATOM     14  C   UNL     1     -40.661  38.628  46.698  1.00  0.00     0.051 A 
ATOM     15  C   UNL     1     -40.270  38.408  48.022  1.00  0.00     0.157 A 
ATOM     16  C   UNL     1     -37.951  38.302  47.304  1.00  0.00     0.062 A 
ATOM     17  C   UNL     1     -38.909  38.239  48.328  1.00  0.00     0.158 A 
BRANCH  15  18
ATOM     18  O   UNL     1     -41.245  38.354  49.016  1.00  0.00    -0.504 OA
ATOM     19  H   UNL     1     -41.155  38.864  49.887  1.00  0.00     0.293 HD
ENDBRANCH  15  18
BRANCH  17  20
ATOM     20  O   UNL     1     -38.514  38.004  49.643  1.00  0.00    -0.504 OA
ATOM     21  H   UNL     1     -37.944  37.204  49.892  1.00  0.00     0.293 HD
ENDBRANCH  17  20
ENDBRANCH   1  12
BRANCH   2  22
ATOM     22  O   UNL     1     -36.092  36.715  45.793  1.00  0.00    -0.502 OA
ATOM     23  H   UNL     1     -36.621  35.851  45.817  1.00  0.00     0.293 HD
ENDBRANCH   2  22
BRANCH   9  24
ATOM     24  O   UNL     1     -36.234  41.863  39.978  1.00  0.00    -0.508 OA
ATOM     25  H   UNL     1     -36.291  41.680  38.982  1.00  0.00     0.293 HD
ENDBRANCH   9  24
TORSDOF 5
ENDMDL
MODEL 5
REMARK VINA RESULT:    -7.893      4.634      7.457
REMARK INTER + INTRA:          -9.345
REMARK INTER:                  -9.032
REMARK INTRA:                  -0.313
REMARK UNBOUND:                -0.068
REMARK SMILES O=c1c(O)c(-c2ccc(O)c(O)c2)oc2cc(O)ccc12
REMARK SMILES IDX 5 1 3 2 2 3 1 4 21 5 15 6 14 7 16 8 17 9 19 10 20 11 6 12
REMARK SMILES IDX 7 13 8 14 9 15 13 16 11 17 10 18 12 20 4 22 18 24
REMARK H PARENT 10 19 12 21 4 23 18 25
REMARK Flexibility Score: inf
ROOT
ATOM      1  C   UNL     1     -36.719  38.382  43.660  1.00  0.00     0.180 A 
ATOM      2  C   UNL     1     -37.569  38.551  44.771  1.00  0.00     0.208 A 
ATOM      3  C   UNL     1     -37.719  37.490  45.677  1.00  0.00     0.235 A 
ATOM      4  O   UNL     1     -38.483  37.614  46.674  1.00  0.00    -0.285 OA
ATOM      5  C   UNL     1     -37.006  36.299  45.468  1.00  0.00     0.069 A 
ATOM      6  C   UNL     1     -36.157  36.216  44.344  1.00  0.00     0.142 A 
ATOM      7  O   UNL     1     -36.050  37.241  43.505  1.00  0.00    -0.452 OA
ATOM      8  C   UNL     1     -35.422  35.050  44.107  1.00  0.00     0.094 A 
ATOM      9  C   UNL     1     -35.526  33.961  44.977  1.00  0.00     0.119 A 
ATOM     10  C   UNL     1     -36.370  34.038  46.094  1.00  0.00     0.047 A 
ATOM     11  C   UNL     1     -37.108  35.201  46.341  1.00  0.00     0.020 A 
ENDROOT
BRANCH   1  12
ATOM     12  C   UNL     1     -36.524  39.447  42.650  1.00  0.00     0.025 A 
ATOM     13  C   UNL     1     -35.372  40.249  42.706  1.00  0.00     0.016 A 
ATOM     14  C   UNL     1     -35.157  41.247  41.751  1.00  0.00     0.051 A 
ATOM     15  C   UNL     1     -36.078  41.448  40.719  1.00  0.00     0.157 A 
ATOM     16  C   UNL     1     -37.438  39.636  41.598  1.00  0.00     0.062 A 
ATOM     17  C   UNL     1     -37.223  40.636  40.638  1.00  0.00     0.158 A 
BRANCH  15  18
ATOM     18  O   UNL     1     -35.838  42.452  39.782  1.00  0.00    -0.504 OA
ATOM     19  H   UNL     1     -35.841  42.271  38.786  1.00  0.00     0.293 HD
ENDBRANCH  15  18
BRANCH  17  20
ATOM     20  O   UNL     1     -38.137  40.822  39.603  1.00  0.00    -0.504 OA
ATOM     21  H   UNL     1     -38.857  41.535  39.652  1.00  0.00     0.293 HD
ENDBRANCH  17  20
ENDBRANCH   1  12
BRANCH   2  22
ATOM     22  O   UNL     1     -38.227  39.767  44.979  1.00  0.00    -0.502 OA
ATOM     23  H   UNL     1     -37.760  40.575  45.373  1.00  0.00     0.293 HD
ENDBRANCH   2  22
BRANCH   9  24
ATOM     24  O   UNL     1     -34.788  32.806  44.726  1.00  0.00    -0.508 OA
ATOM     25  H   UNL     1     -35.233  31.899  44.650  1.00  0.00     0.293 HD
ENDBRANCH   9  24
TORSDOF 5
ENDMDL
MODEL 6
REMARK VINA RESULT:    -7.871      3.138      5.097
REMARK INTER + INTRA:          -9.319
REMARK INTER:                  -9.018
REMARK INTRA:                  -0.301
REMARK UNBOUND:                -0.068
REMARK SMILES O=c1c(O)c(-c2ccc(O)c(O)c2)oc2cc(O)ccc12
REMARK SMILES IDX 5 1 3 2 2 3 1 4 21 5 15 6 14 7 16 8 17 9 19 10 20 11 6 12
REMARK SMILES IDX 7 13 8 14 9 15 13 16 11 17 10 18 12 20 4 22 18 24
REMARK H PARENT 10 19 12 21 4 23 18 25
REMARK Flexibility Score: inf
ROOT
ATOM      1  C   UNL     1     -34.881  40.810  43.665  1.00  0.00     0.180 A 
ATOM      2  C   UNL     1     -35.186  41.626  44.773  1.00  0.00     0.208 A 
ATOM      3  C   UNL     1     -35.409  41.020  46.019  1.00  0.00     0.235 A 
ATOM      4  O   UNL     1     -35.693  41.730  47.024  1.00  0.00    -0.285 OA
ATOM      5  C   UNL     1     -35.303  39.626  46.137  1.00  0.00     0.069 A 
ATOM      6  C   UNL     1     -34.971  38.880  44.986  1.00  0.00     0.142 A 
ATOM      7  O   UNL     1     -34.777  39.491  43.822  1.00  0.00    -0.452 OA
ATOM      8  C   UNL     1     -34.847  37.489  45.064  1.00  0.00     0.094 A 
ATOM      9  C   UNL     1     -35.053  36.830  46.280  1.00  0.00     0.119 A 
ATOM     10  C   UNL     1     -35.385  37.566  47.426  1.00  0.00     0.047 A 
ATOM     11  C   UNL     1     -35.510  38.958  47.357  1.00  0.00     0.020 A 
ENDROOT
BRANCH   1  12
ATOM     12  C   UNL     1     -34.652  41.371  42.314  1.00  0.00     0.025 A 
ATOM     13  C   UNL     1     -35.753  41.686  41.501  1.00  0.00     0.016 A 
ATOM     14  C   UNL     1     -35.561  42.236  40.231  1.00  0.00     0.051 A 
ATOM     15  C   UNL     1     -34.270  42.494  39.760  1.00  0.00     0.157 A 
ATOM     16  C   UNL     1     -33.355  41.651  41.847  1.00  0.00     0.062 A 
ATOM     17  C   UNL     1     -33.161  42.205  40.573  1.00  0.00     0.158 A 
BRANCH  15  18
ATOM     18  O   UNL     1     -34.110  43.042  38.488  1.00  0.00    -0.504 OA
ATOM     19  H   UNL     1     -33.294  43.585  38.235  1.00  0.00     0.293 HD
ENDBRANCH  15  18
BRANCH  17  20
ATOM     20  O   UNL     1     -31.872  42.474  40.115  1.00  0.00    -0.504 OA
ATOM     21  H   UNL     1     -31.357  43.289  40.428  1.00  0.00     0.293 HD
ENDBRANCH  17  20
ENDBRANCH   1  12
BRANCH   2  22
ATOM     22  O   UNL     1     -35.235  43.016  44.635  1.00  0.00    -0.502 OA
ATOM     23  H   UNL     1     -36.017  43.566  44.971  1.00  0.00     0.293 HD
ENDBRANCH   2  22
BRANCH   9  24
ATOM     24  O   UNL     1     -34.926  35.444  46.340  1.00  0.00    -0.508 OA
ATOM     25  H   UNL     1     -34.631  34.903  45.535  1.00  0.00     0.293 HD
ENDBRANCH   9  24
TORSDOF 5
ENDMDL
MODEL 7
REMARK VINA RESULT:    -7.835      5.269      9.089
REMARK INTER + INTRA:          -9.277
REMARK INTER:                  -8.965
REMARK INTRA:                  -0.312
REMARK UNBOUND:                -0.068
REMARK SMILES O=c1c(O)c(-c2ccc(O)c(O)c2)oc2cc(O)ccc12
REMARK SMILES IDX 5 1 3 2 2 3 1 4 21 5 15 6 14 7 16 8 17 9 19 10 20 11 6 12
REMARK SMILES IDX 7 13 8 14 9 15 13 16 11 17 10 18 12 20 4 22 18 24
REMARK H PARENT 10 19 12 21 4 23 18 25
REMARK Flexibility Score: inf
ROOT
ATOM      1  C   UNL     1     -36.618  39.002  43.492  1.00  0.00     0.180 A 
ATOM      2  C   UNL     1     -37.493  39.196  42.403  1.00  0.00     0.208 A 
ATOM      3  C   UNL     1     -36.949  39.480  41.141  1.00  0.00     0.235 A 
ATOM      4  O   UNL     1     -37.712  39.668  40.153  1.00  0.00    -0.285 OA
ATOM      5  C   UNL     1     -35.555  39.541  40.988  1.00  0.00     0.069 A 
ATOM      6  C   UNL     1     -34.747  39.311  42.122  1.00  0.00     0.142 A 
ATOM      7  O   UNL     1     -35.301  39.055  43.302  1.00  0.00    -0.452 OA
ATOM      8  C   UNL     1     -33.353  39.354  42.008  1.00  0.00     0.094 A 
ATOM      9  C   UNL     1     -32.754  39.627  40.775  1.00  0.00     0.119 A 
ATOM     10  C   UNL     1     -33.552  39.858  39.647  1.00  0.00     0.047 A 
ATOM     11  C   UNL     1     -34.947  39.816  39.750  1.00  0.00     0.020 A 
ENDROOT
BRANCH   1  12
ATOM     12  C   UNL     1     -37.115  38.718  44.858  1.00  0.00     0.025 A 
ATOM     13  C   UNL     1     -37.481  39.786  45.694  1.00  0.00     0.016 A 
ATOM     14  C   UNL     1     -37.972  39.541  46.980  1.00  0.00     0.051 A 
ATOM     15  C   UNL     1     -38.118  38.230  47.444  1.00  0.00     0.157 A 
ATOM     16  C   UNL     1     -37.283  37.400  45.318  1.00  0.00     0.062 A 
ATOM     17  C   UNL     1     -37.777  37.153  46.608  1.00  0.00     0.158 A 
BRANCH  15  18
ATOM     18  O   UNL     1     -38.608  38.018  48.731  1.00  0.00    -0.504 OA
ATOM     19  H   UNL     1     -38.452  38.679  49.482  1.00  0.00     0.293 HD
ENDBRANCH  15  18
BRANCH  17  20
ATOM     20  O   UNL     1     -37.935  35.844  47.059  1.00  0.00    -0.504 OA
ATOM     21  H   UNL     1     -38.176  35.640  48.022  1.00  0.00     0.293 HD
ENDBRANCH  17  20
ENDBRANCH   1  12
BRANCH   2  22
ATOM     22  O   UNL     1     -38.874  39.080  42.576  1.00  0.00    -0.502 OA
ATOM     23  H   UNL     1     -39.317  39.181  43.482  1.00  0.00     0.293 HD
ENDBRANCH   2  22
BRANCH   9  24
ATOM     24  O   UNL     1     -31.364  39.667  40.680  1.00  0.00    -0.508 OA
ATOM     25  H   UNL     1     -30.775  39.142  41.316  1.00  0.00     0.293 HD
ENDBRANCH   9  24
TORSDOF 5
ENDMDL
MODEL 8
REMARK VINA RESULT:    -7.806      5.513     10.307
REMARK INTER + INTRA:          -9.243
REMARK INTER:                  -8.985
REMARK INTRA:                  -0.258
REMARK UNBOUND:                -0.068
REMARK SMILES O=c1c(O)c(-c2ccc(O)c(O)c2)oc2cc(O)ccc12
REMARK SMILES IDX 5 1 3 2 2 3 1 4 21 5 15 6 14 7 16 8 17 9 19 10 20 11 6 12
REMARK SMILES IDX 7 13 8 14 9 15 13 16 11 17 10 18 12 20 4 22 18 24
REMARK H PARENT 10 19 12 21 4 23 18 25
REMARK Flexibility Score: inf
ROOT
ATOM      1  C   UNL     1     -37.968  39.165  45.216  1.00  0.00     0.180 A 
ATOM      2  C   UNL     1     -37.155  40.246  45.614  1.00  0.00     0.208 A 
ATOM      3  C   UNL     1     -36.558  41.043  44.626  1.00  0.00     0.235 A 
ATOM      4  O   UNL     1     -35.818  42.011  44.957  1.00  0.00    -0.285 OA
ATOM      5  C   UNL     1     -36.801  40.761  43.272  1.00  0.00     0.069 A 
ATOM      6  C   UNL     1     -37.645  39.676  42.956  1.00  0.00     0.142 A 
ATOM      7  O   UNL     1     -38.184  38.939  43.922  1.00  0.00    -0.452 OA
ATOM      8  C   UNL     1     -37.919  39.368  41.619  1.00  0.00     0.094 A 
ATOM      9  C   UNL     1     -37.357  40.130  40.590  1.00  0.00     0.119 A 
ATOM     10  C   UNL     1     -36.516  41.208  40.900  1.00  0.00     0.047 A 
ATOM     11  C   UNL     1     -36.238  41.525  42.234  1.00  0.00     0.020 A 
ENDROOT
BRANCH   1  12
ATOM     12  C   UNL     1     -38.616  38.266  46.198  1.00  0.00     0.025 A 
ATOM     13  C   UNL     1     -38.059  37.001  46.449  1.00  0.00     0.016 A 
ATOM     14  C   UNL     1     -38.643  36.144  47.386  1.00  0.00     0.051 A 
ATOM     15  C   UNL     1     -39.779  36.542  48.098  1.00  0.00     0.157 A 
ATOM     16  C   UNL     1     -39.747  38.673  46.930  1.00  0.00     0.062 A 
ATOM     17  C   UNL     1     -40.332  37.814  47.873  1.00  0.00     0.158 A 
BRANCH  15  18
ATOM     18  O   UNL     1     -40.339  35.665  49.025  1.00  0.00    -0.504 OA
ATOM     19  H   UNL     1     -39.794  35.248  49.770  1.00  0.00     0.293 HD
ENDBRANCH  15  18
BRANCH  17  20
ATOM     20  O   UNL     1     -41.456  38.222  48.589  1.00  0.00    -0.504 OA
ATOM     21  H   UNL     1     -42.185  37.568  48.850  1.00  0.00     0.293 HD
ENDBRANCH  17  20
ENDBRANCH   1  12
BRANCH   2  22
ATOM     22  O   UNL     1     -36.973  40.532  46.970  1.00  0.00    -0.502 OA
ATOM     23  H   UNL     1     -36.091  40.869  47.338  1.00  0.00     0.293 HD
ENDBRANCH   2  22
BRANCH   9  24
ATOM     24  O   UNL     1     -37.639  39.810  39.264  1.00  0.00    -0.508 OA
ATOM     25  H   UNL     1     -38.411  40.240  38.768  1.00  0.00     0.293 HD
ENDBRANCH   9  24
TORSDOF 5
ENDMDL
MODEL 9
REMARK VINA RESULT:    -7.798      2.454      3.890
REMARK INTER + INTRA:          -9.234
REMARK INTER:                  -8.962
REMARK INTRA:                  -0.272
REMARK UNBOUND:                -0.068
REMARK SMILES O=c1c(O)c(-c2ccc(O)c(O)c2)oc2cc(O)ccc12
REMARK SMILES IDX 5 1 3 2 2 3 1 4 21 5 15 6 14 7 16 8 17 9 19 10 20 11 6 12
REMARK SMILES IDX 7 13 8 14 9 15 13 16 11 17 10 18 12 20 4 22 18 24
REMARK H PARENT 10 19 12 21 4 23 18 25
REMARK Flexibility Score: inf
ROOT
ATOM      1  C   UNL     1     -35.324  42.401  41.704  1.00  0.00     0.180 A 
ATOM      2  C   UNL     1     -36.260  41.440  41.270  1.00  0.00     0.208 A 
ATOM      3  C   UNL     1     -36.929  40.665  42.231  1.00  0.00     0.235 A 
ATOM      4  O   UNL     1     -37.764  39.792  41.867  1.00  0.00    -0.285 OA
ATOM      5  C   UNL     1     -36.667  40.879  43.593  1.00  0.00     0.069 A 
ATOM      6  C   UNL     1     -35.733  41.876  43.947  1.00  0.00     0.142 A 
ATOM      7  O   UNL     1     -35.114  42.581  43.006  1.00  0.00    -0.452 OA
ATOM      8  C   UNL     1     -35.452  42.126  45.295  1.00  0.00     0.094 A 
ATOM      9  C   UNL     1     -36.090  41.389  46.297  1.00  0.00     0.119 A 
ATOM     10  C   UNL     1     -37.018  40.396  45.950  1.00  0.00     0.047 A 
ATOM     11  C   UNL     1     -37.307  40.141  44.605  1.00  0.00     0.020 A 
ENDROOT
BRANCH   1  12
ATOM     12  C   UNL     1     -34.564  43.243  40.752  1.00  0.00     0.025 A 
ATOM     13  C   UNL     1     -33.240  42.901  40.433  1.00  0.00     0.016 A 
ATOM     14  C   UNL     1     -32.510  43.669  39.521  1.00  0.00     0.051 A 
ATOM     15  C   UNL     1     -33.095  44.779  38.904  1.00  0.00     0.157 A 
ATOM     16  C   UNL     1     -35.158  44.347  40.114  1.00  0.00     0.062 A 
ATOM     17  C   UNL     1     -34.427  45.118  39.197  1.00  0.00     0.158 A 
BRANCH  15  18
ATOM     18  O   UNL     1     -32.342  45.527  38.001  1.00  0.00    -0.504 OA
ATOM     19  H   UNL     1     -32.738  45.894  37.144  1.00  0.00     0.293 HD
ENDBRANCH  15  18
BRANCH  17  20
ATOM     20  O   UNL     1     -35.021  46.214  38.574  1.00  0.00    -0.504 OA
ATOM     21  H   UNL     1     -35.326  46.174  37.608  1.00  0.00     0.293 HD
ENDBRANCH  17  20
ENDBRANCH   1  12
BRANCH   2  22
ATOM     22  O   UNL     1     -36.536  41.285  39.909  1.00  0.00    -0.502 OA
ATOM     23  H   UNL     1     -35.992  40.673  39.313  1.00  0.00     0.293 HD
ENDBRANCH   2  22
BRANCH   9  24
ATOM     24  O   UNL     1     -35.798  41.649  47.633  1.00  0.00    -0.508 OA
ATOM     25  H   UNL     1     -36.167  41.071  48.379  1.00  0.00     0.293 HD
ENDBRANCH   9  24
TORSDOF 5
ENDMDL
