MODEL 1
REMARK VINA RESULT:    -3.813      0.000      0.000
REMARK INTER + INTRA:          -4.234
REMARK INTER:                  -4.147
REMARK INTRA:                  -0.087
REMARK UNBOUND:                -0.087
REMARK SMILES C=C(C)[C@H]1CC=C(C)[C@H](O)C1
REMARK SMILES IDX 8 1 7 2 6 3 5 4 4 5 11 6 9 7 10 8 2 10 1 11 3 12
REMARK H PARENT 10 9
REMARK Flexibility Score: inf
ROOT
ATOM      1  C   UNL     1     -19.124 -12.513  12.454  1.00  0.00     0.042 C 
ATOM      2  C   UNL     1     -18.564 -13.484  11.450  1.00  0.00    -0.049 C 
ATOM      3  C   UNL     1     -17.753 -13.020  10.474  1.00  0.00    -0.025 C 
ATOM      4  C   UNL     1     -17.194 -13.896   9.380  1.00  0.00     0.035 C 
ATOM      5  C   UNL     1     -17.166 -15.381   9.780  1.00  0.00     0.021 C 
ATOM      6  C   UNL     1     -18.526 -15.787  10.371  1.00  0.00     0.044 C 
ATOM      7  C   UNL     1     -18.830 -14.968  11.640  1.00  0.00     0.140 C 
ENDROOT
BRANCH   7   8
ATOM      8  O   UNL     1     -18.046 -15.430  12.709  1.00  0.00    -0.389 OA
ATOM      9  H   UNL     1     -17.719 -16.334  12.458  1.00  0.00     0.211 HD
ENDBRANCH   7   8
BRANCH   5  10
ATOM     10  C   UNL     1     -16.773 -16.270   8.606  1.00  0.00    -0.077 C 
ATOM     11  C   UNL     1     -15.498 -16.354   8.188  1.00  0.00     0.008 C 
ATOM     12  C   UNL     1     -17.822 -17.076   7.885  1.00  0.00     0.039 C 
ENDBRANCH   5  10
TORSDOF 2
ENDMDL
MODEL 2
REMARK VINA RESULT:    -3.367      1.943      4.455
REMARK INTER + INTRA:          -3.749
REMARK INTER:                  -3.663
REMARK INTRA:                  -0.086
REMARK UNBOUND:                -0.087
REMARK SMILES C=C(C)[C@H]1CC=C(C)[C@H](O)C1
REMARK SMILES IDX 8 1 7 2 6 3 5 4 4 5 11 6 9 7 10 8 2 10 1 11 3 12
REMARK H PARENT 10 9
REMARK Flexibility Score: inf
ROOT
ATOM      1  C   UNL     1     -15.026 -17.001   7.899  1.00  0.00     0.042 C 
ATOM      2  C   UNL     1     -15.975 -16.523   8.964  1.00  0.00    -0.049 C 
ATOM      3  C   UNL     1     -15.547 -15.600   9.853  1.00  0.00    -0.025 C 
ATOM      4  C   UNL     1     -16.394 -15.104  10.999  1.00  0.00     0.035 C 
ATOM      5  C   UNL     1     -17.897 -15.306  10.743  1.00  0.00     0.021 C 
ATOM      6  C   UNL     1     -18.154 -16.742  10.256  1.00  0.00     0.044 C 
ATOM      7  C   UNL     1     -17.415 -17.003   8.930  1.00  0.00     0.140 C 
ENDROOT
BRANCH   7   8
ATOM      8  O   UNL     1     -18.079 -16.356   7.875  1.00  0.00    -0.389 OA
ATOM      9  H   UNL     1     -18.970 -16.784   7.789  1.00  0.00     0.211 HD
ENDBRANCH   7   8
BRANCH   5  10
ATOM     10  C   UNL     1     -18.726 -14.972  11.977  1.00  0.00    -0.077 C 
ATOM     11  C   UNL     1     -19.120 -13.712  12.235  1.00  0.00     0.008 C 
ATOM     12  C   UNL     1     -19.119 -16.061  12.940  1.00  0.00     0.039 C 
ENDBRANCH   5  10
TORSDOF 2
ENDMDL
MODEL 3
REMARK VINA RESULT:    -3.235      1.452      2.334
REMARK INTER + INTRA:          -3.605
REMARK INTER:                  -3.519
REMARK INTRA:                  -0.086
REMARK UNBOUND:                -0.087
REMARK SMILES C=C(C)[C@H]1CC=C(C)[C@H](O)C1
REMARK SMILES IDX 8 1 7 2 6 3 5 4 4 5 11 6 9 7 10 8 2 10 1 11 3 12
REMARK H PARENT 10 9
REMARK Flexibility Score: inf
ROOT
ATOM      1  C   UNL     1     -19.125 -12.271  12.665  1.00  0.00     0.042 C 
ATOM      2  C   UNL     1     -18.601 -13.280  11.681  1.00  0.00    -0.049 C 
ATOM      3  C   UNL     1     -18.826 -14.592  11.909  1.00  0.00    -0.025 C 
ATOM      4  C   UNL     1     -18.287 -15.688  11.022  1.00  0.00     0.035 C 
ATOM      5  C   UNL     1     -17.962 -15.184   9.605  1.00  0.00     0.021 C 
ATOM      6  C   UNL     1     -17.140 -13.888   9.689  1.00  0.00     0.044 C 
ATOM      7  C   UNL     1     -17.943 -12.785  10.404  1.00  0.00     0.140 C 
ENDROOT
BRANCH   7   8
ATOM      8  O   UNL     1     -18.941 -12.286   9.551  1.00  0.00    -0.389 OA
ATOM      9  H   UNL     1     -18.556 -11.496   9.088  1.00  0.00     0.211 HD
ENDBRANCH   7   8
BRANCH   5  10
ATOM     10  C   UNL     1     -17.251 -16.250   8.780  1.00  0.00    -0.077 C 
ATOM     11  C   UNL     1     -17.939 -17.123   8.023  1.00  0.00     0.008 C 
ATOM     12  C   UNL     1     -15.748 -16.346   8.804  1.00  0.00     0.039 C 
ENDBRANCH   5  10
TORSDOF 2
ENDMDL
MODEL 4
REMARK VINA RESULT:    -2.827      1.471      4.394
REMARK INTER + INTRA:          -3.161
REMARK INTER:                  -3.069
REMARK INTRA:                  -0.092
REMARK UNBOUND:                -0.087
REMARK SMILES C=C(C)[C@H]1CC=C(C)[C@H](O)C1
REMARK SMILES IDX 8 1 7 2 6 3 5 4 4 5 11 6 9 7 10 8 2 10 1 11 3 12
REMARK H PARENT 10 9
REMARK Flexibility Score: inf
ROOT
ATOM      1  C   UNL     1     -15.412 -17.123   7.876  1.00  0.00     0.042 C 
ATOM      2  C   UNL     1     -16.235 -16.092   8.597  1.00  0.00    -0.049 C 
ATOM      3  C   UNL     1     -17.529 -15.925   8.243  1.00  0.00    -0.025 C 
ATOM      4  C   UNL     1     -18.422 -14.874   8.855  1.00  0.00     0.035 C 
ATOM      5  C   UNL     1     -17.923 -14.418  10.237  1.00  0.00     0.021 C 
ATOM      6  C   UNL     1     -16.420 -14.102  10.170  1.00  0.00     0.044 C 
ATOM      7  C   UNL     1     -15.621 -15.359   9.777  1.00  0.00     0.140 C 
ENDROOT
BRANCH   7   8
ATOM      8  O   UNL     1     -15.551 -16.243  10.866  1.00  0.00    -0.389 OA
ATOM      9  H   UNL     1     -15.198 -15.725  11.636  1.00  0.00     0.211 HD
ENDBRANCH   7   8
BRANCH   5  10
ATOM     10  C   UNL     1     -18.726 -13.233  10.760  1.00  0.00    -0.077 C 
ATOM     11  C   UNL     1     -19.125 -12.242   9.942  1.00  0.00     0.008 C 
ATOM     12  C   UNL     1     -19.086 -13.150  12.220  1.00  0.00     0.039 C 
ENDBRANCH   5  10
TORSDOF 2
ENDMDL
MODEL 5
REMARK VINA RESULT:    -2.063      1.860      4.031
REMARK INTER + INTRA:          -2.331
REMARK INTER:                  -2.237
REMARK INTRA:                  -0.094
REMARK UNBOUND:                -0.087
REMARK SMILES C=C(C)[C@H]1CC=C(C)[C@H](O)C1
REMARK SMILES IDX 8 1 7 2 6 3 5 4 4 5 11 6 9 7 10 8 2 10 1 11 3 12
REMARK H PARENT 10 9
REMARK Flexibility Score: inf
ROOT
ATOM      1  C   UNL     1     -15.953 -13.555   7.880  1.00  0.00     0.042 C 
ATOM      2  C   UNL     1     -16.654 -14.060   9.112  1.00  0.00    -0.049 C 
ATOM      3  C   UNL     1     -17.540 -13.253   9.736  1.00  0.00    -0.025 C 
ATOM      4  C   UNL     1     -18.246 -13.635  11.014  1.00  0.00     0.035 C 
ATOM      5  C   UNL     1     -18.294 -15.159  11.220  1.00  0.00     0.021 C 
ATOM      6  C   UNL     1     -16.899 -15.761  10.987  1.00  0.00     0.044 C 
ATOM      7  C   UNL     1     -16.432 -15.500   9.543  1.00  0.00     0.140 C 
ENDROOT
BRANCH   7   8
ATOM      8  O   UNL     1     -17.120 -16.343   8.656  1.00  0.00    -0.389 OA
ATOM      9  H   UNL     1     -17.755 -16.878   9.200  1.00  0.00     0.211 HD
ENDBRANCH   7   8
BRANCH   5  10
ATOM     10  C   UNL     1     -18.843 -15.521  12.594  1.00  0.00    -0.077 C 
ATOM     11  C   UNL     1     -19.090 -16.799  12.935  1.00  0.00     0.008 C 
ATOM     12  C   UNL     1     -19.125 -14.440  13.604  1.00  0.00     0.039 C 
ENDBRANCH   5  10
TORSDOF 2
ENDMDL
MODEL 6
REMARK VINA RESULT:    -2.035      1.677      2.973
REMARK INTER + INTRA:          -2.300
REMARK INTER:                  -2.206
REMARK INTRA:                  -0.094
REMARK UNBOUND:                -0.087
REMARK SMILES C=C(C)[C@H]1CC=C(C)[C@H](O)C1
REMARK SMILES IDX 8 1 7 2 6 3 5 4 4 5 11 6 9 7 10 8 2 10 1 11 3 12
REMARK H PARENT 10 9
REMARK Flexibility Score: inf
ROOT
ATOM      1  C   UNL     1     -19.124 -16.356  13.492  1.00  0.00     0.042 C 
ATOM      2  C   UNL     1     -18.723 -15.520  12.307  1.00  0.00    -0.049 C 
ATOM      3  C   UNL     1     -19.122 -14.231  12.254  1.00  0.00    -0.025 C 
ATOM      4  C   UNL     1     -18.833 -13.325  11.082  1.00  0.00     0.035 C 
ATOM      5  C   UNL     1     -17.624 -13.806  10.259  1.00  0.00     0.021 C 
ATOM      6  C   UNL     1     -17.760 -15.308   9.963  1.00  0.00     0.044 C 
ATOM      7  C   UNL     1     -17.783 -16.117  11.274  1.00  0.00     0.140 C 
ENDROOT
BRANCH   7   8
ATOM      8  O   UNL     1     -16.493 -16.178  11.824  1.00  0.00    -0.389 OA
ATOM      9  H   UNL     1     -15.962 -15.457  11.394  1.00  0.00     0.211 HD
ENDBRANCH   7   8
BRANCH   5  10
ATOM     10  C   UNL     1     -17.457 -12.992   8.982  1.00  0.00    -0.077 C 
ATOM     11  C   UNL     1     -18.158 -11.863   8.773  1.00  0.00     0.008 C 
ATOM     12  C   UNL     1     -16.493 -13.448   7.918  1.00  0.00     0.039 C 
ENDBRANCH   5  10
TORSDOF 2
ENDMDL
