MODEL 1
REMARK VINA RESULT:    -3.548      0.000      0.000
REMARK INTER + INTRA:          -4.205
REMARK INTER:                  -4.170
REMARK INTRA:                  -0.035
REMARK UNBOUND:                -0.035
REMARK SMILES O=C([O-])CCC(=O)[O-]
REMARK SMILES IDX 4 1 2 2 1 3 3 4 5 5 6 6 7 7 8 8
REMARK H PARENT
REMARK Flexibility Score: inf
ROOT
ATOM      1  C   UNL     1      -8.910 -30.757 -23.426  1.00  0.00     0.059 C 
ENDROOT
BRANCH   1   2
ATOM      2  C   UNL     1      -9.490 -29.519 -24.039  1.00  0.00     0.042 C 
ATOM      3  O   UNL     1      -9.666 -29.452 -25.284  1.00  0.00    -0.550 OA
ATOM      4  O   UNL     1      -9.798 -28.425 -23.241  1.00  0.00    -0.550 OA
ENDBRANCH   1   2
BRANCH   1   5
ATOM      5  C   UNL     1      -8.557 -31.802 -24.489  1.00  0.00     0.059 C 
BRANCH   5   6
ATOM      6  C   UNL     1      -8.425 -33.172 -23.895  1.00  0.00     0.042 C 
ATOM      7  O   UNL     1      -7.585 -33.389 -22.983  1.00  0.00    -0.550 OA
ATOM      8  O   UNL     1      -9.202 -34.217 -24.378  1.00  0.00    -0.550 OA
ENDBRANCH   5   6
ENDBRANCH   1   5
TORSDOF 3
ENDMDL
MODEL 2
REMARK VINA RESULT:    -3.472     12.647     14.231
REMARK INTER + INTRA:          -4.117
REMARK INTER:                  -4.083
REMARK INTRA:                  -0.034
REMARK UNBOUND:                -0.035
REMARK SMILES O=C([O-])CCC(=O)[O-]
REMARK SMILES IDX 4 1 2 2 1 3 3 4 5 5 6 6 7 7 8 8
REMARK H PARENT
REMARK Flexibility Score: inf
ROOT
ATOM      1  C   UNL     1       3.774 -33.647 -20.035  1.00  0.00     0.059 C 
ENDROOT
BRANCH   1   2
ATOM      2  C   UNL     1       4.866 -34.555 -19.557  1.00  0.00     0.042 C 
ATOM      3  O   UNL     1       5.625 -35.125 -20.385  1.00  0.00    -0.550 OA
ATOM      4  O   UNL     1       5.020 -34.803 -18.199  1.00  0.00    -0.550 OA
ENDBRANCH   1   2
BRANCH   1   5
ATOM      5  C   UNL     1       3.724 -32.348 -19.225  1.00  0.00     0.059 C 
BRANCH   5   6
ATOM      6  C   UNL     1       2.839 -31.326 -19.873  1.00  0.00     0.042 C 
ATOM      7  O   UNL     1       2.622 -31.371 -21.113  1.00  0.00    -0.550 OA
ATOM      8  O   UNL     1       2.289 -30.301 -19.115  1.00  0.00    -0.550 OA
ENDBRANCH   5   6
ENDBRANCH   1   5
TORSDOF 3
ENDMDL
MODEL 3
REMARK VINA RESULT:    -3.456      0.285      4.414
REMARK INTER + INTRA:          -4.097
REMARK INTER:                  -4.060
REMARK INTRA:                  -0.037
REMARK UNBOUND:                -0.035
REMARK SMILES O=C([O-])CCC(=O)[O-]
REMARK SMILES IDX 4 1 2 2 1 3 3 4 5 5 6 6 7 7 8 8
REMARK H PARENT
REMARK Flexibility Score: inf
ROOT
ATOM      1  C   UNL     1      -8.548 -31.799 -24.267  1.00  0.00     0.059 C 
ENDROOT
BRANCH   1   2
ATOM      2  C   UNL     1      -8.537 -33.188 -23.706  1.00  0.00     0.042 C 
ATOM      3  O   UNL     1      -8.064 -33.404 -22.559  1.00  0.00    -0.550 OA
ATOM      4  O   UNL     1      -9.011 -34.250 -24.465  1.00  0.00    -0.550 OA
ENDBRANCH   1   2
BRANCH   1   5
ATOM      5  C   UNL     1      -9.103 -30.787 -23.260  1.00  0.00     0.059 C 
BRANCH   5   6
ATOM      6  C   UNL     1      -9.548 -29.524 -23.934  1.00  0.00     0.042 C 
ATOM      7  O   UNL     1      -9.693 -29.490 -25.184  1.00  0.00    -0.550 OA
ATOM      8  O   UNL     1      -9.763 -28.374 -23.185  1.00  0.00    -0.550 OA
ENDBRANCH   5   6
ENDBRANCH   1   5
TORSDOF 3
ENDMDL
MODEL 4
REMARK VINA RESULT:    -3.394     12.683     13.690
REMARK INTER + INTRA:          -4.024
REMARK INTER:                  -3.994
REMARK INTRA:                  -0.030
REMARK UNBOUND:                -0.035
REMARK SMILES O=C([O-])CCC(=O)[O-]
REMARK SMILES IDX 4 1 2 2 1 3 3 4 5 5 6 6 7 7 8 8
REMARK H PARENT
REMARK Flexibility Score: inf
ROOT
ATOM      1  C   UNL     1       3.925 -32.334 -19.353  1.00  0.00     0.059 C 
ENDROOT
BRANCH   1   2
ATOM      2  C   UNL     1       2.880 -31.410 -19.900  1.00  0.00     0.042 C 
ATOM      3  O   UNL     1       2.540 -31.483 -21.110  1.00  0.00    -0.550 OA
ATOM      4  O   UNL     1       2.311 -30.441 -19.083  1.00  0.00    -0.550 OA
ENDBRANCH   1   2
BRANCH   1   5
ATOM      5  C   UNL     1       3.773 -33.752 -19.913  1.00  0.00     0.059 C 
BRANCH   5   6
ATOM      6  C   UNL     1       4.874 -34.653 -19.441  1.00  0.00     0.042 C 
ATOM      7  O   UNL     1       5.704 -35.124 -20.263  1.00  0.00    -0.550 OA
ATOM      8  O   UNL     1       4.958 -35.005 -18.100  1.00  0.00    -0.550 OA
ENDBRANCH   5   6
ENDBRANCH   1   5
TORSDOF 3
ENDMDL
MODEL 5
REMARK VINA RESULT:    -3.350     16.051     17.151
REMARK INTER + INTRA:          -3.972
REMARK INTER:                  -3.803
REMARK INTRA:                  -0.169
REMARK UNBOUND:                -0.035
REMARK SMILES O=C([O-])CCC(=O)[O-]
REMARK SMILES IDX 4 1 2 2 1 3 3 4 5 5 6 6 7 7 8 8
REMARK H PARENT
REMARK Flexibility Score: inf
ROOT
ATOM      1  C   UNL     1       0.622 -17.840 -25.022  1.00  0.00     0.059 C 
ENDROOT
BRANCH   1   2
ATOM      2  C   UNL     1       1.236 -17.857 -26.389  1.00  0.00     0.042 C 
ATOM      3  O   UNL     1       1.812 -16.831 -26.837  1.00  0.00    -0.550 OA
ATOM      4  O   UNL     1       1.135 -18.992 -27.184  1.00  0.00    -0.550 OA
ENDBRANCH   1   2
BRANCH   1   5
ATOM      5  C   UNL     1      -0.908 -17.875 -25.089  1.00  0.00     0.059 C 
BRANCH   5   6
ATOM      6  C   UNL     1      -1.461 -16.645 -25.744  1.00  0.00     0.042 C 
ATOM      7  O   UNL     1      -2.205 -16.746 -26.754  1.00  0.00    -0.550 OA
ATOM      8  O   UNL     1      -1.119 -15.388 -25.263  1.00  0.00    -0.550 OA
ENDBRANCH   5   6
ENDBRANCH   1   5
TORSDOF 3
ENDMDL
MODEL 6
REMARK VINA RESULT:    -3.341     16.023     16.817
REMARK INTER + INTRA:          -3.962
REMARK INTER:                  -3.779
REMARK INTRA:                  -0.183
REMARK UNBOUND:                -0.035
REMARK SMILES O=C([O-])CCC(=O)[O-]
REMARK SMILES IDX 4 1 2 2 1 3 3 4 5 5 6 6 7 7 8 8
REMARK H PARENT
REMARK Flexibility Score: inf
ROOT
ATOM      1  C   UNL     1      -0.956 -17.847 -25.012  1.00  0.00     0.059 C 
ENDROOT
BRANCH   1   2
ATOM      2  C   UNL     1      -1.498 -16.632 -25.703  1.00  0.00     0.042 C 
ATOM      3  O   UNL     1      -2.201 -16.755 -26.741  1.00  0.00    -0.550 OA
ATOM      4  O   UNL     1      -1.193 -15.365 -25.225  1.00  0.00    -0.550 OA
ENDBRANCH   1   2
BRANCH   1   5
ATOM      5  C   UNL     1       0.575 -17.828 -24.954  1.00  0.00     0.059 C 
BRANCH   5   6
ATOM      6  C   UNL     1       1.180 -17.873 -26.324  1.00  0.00     0.042 C 
ATOM      7  O   UNL     1       1.837 -16.891 -26.759  1.00  0.00    -0.550 OA
ATOM      8  O   UNL     1       0.983 -18.983 -27.136  1.00  0.00    -0.550 OA
ENDBRANCH   5   6
ENDBRANCH   1   5
TORSDOF 3
ENDMDL
MODEL 7
REMARK VINA RESULT:    -3.335     16.062     17.108
REMARK INTER + INTRA:          -3.955
REMARK INTER:                  -3.790
REMARK INTRA:                  -0.165
REMARK UNBOUND:                -0.035
REMARK SMILES O=C([O-])CCC(=O)[O-]
REMARK SMILES IDX 4 1 2 2 1 3 3 4 5 5 6 6 7 7 8 8
REMARK H PARENT
REMARK Flexibility Score: inf
ROOT
ATOM      1  C   UNL     1       0.548 -17.750 -24.974  1.00  0.00     0.059 C 
ENDROOT
BRANCH   1   2
ATOM      2  C   UNL     1       1.193 -17.807 -26.325  1.00  0.00     0.042 C 
ATOM      3  O   UNL     1       1.787 -16.797 -26.787  1.00  0.00    -0.550 OA
ATOM      4  O   UNL     1       1.103 -18.962 -27.091  1.00  0.00    -0.550 OA
ENDBRANCH   1   2
BRANCH   1   5
ATOM      5  C   UNL     1      -0.980 -17.793 -25.075  1.00  0.00     0.059 C 
BRANCH   5   6
ATOM      6  C   UNL     1      -1.522 -16.587 -25.781  1.00  0.00     0.042 C 
ATOM      7  O   UNL     1      -1.312 -15.435 -25.319  1.00  0.00    -0.550 OA
ATOM      8  O   UNL     1      -2.293 -16.739 -26.927  1.00  0.00    -0.550 OA
ENDBRANCH   5   6
ENDBRANCH   1   5
TORSDOF 3
ENDMDL
MODEL 8
REMARK VINA RESULT:    -3.322     16.036     17.114
REMARK INTER + INTRA:          -3.940
REMARK INTER:                  -3.754
REMARK INTRA:                  -0.187
REMARK UNBOUND:                -0.035
REMARK SMILES O=C([O-])CCC(=O)[O-]
REMARK SMILES IDX 4 1 2 2 1 3 3 4 5 5 6 6 7 7 8 8
REMARK H PARENT
REMARK Flexibility Score: inf
ROOT
ATOM      1  C   UNL     1       0.497 -17.841 -24.943  1.00  0.00     0.059 C 
ENDROOT
BRANCH   1   2
ATOM      2  C   UNL     1       1.107 -17.899 -26.310  1.00  0.00     0.042 C 
ATOM      3  O   UNL     1       0.997 -18.941 -27.009  1.00  0.00    -0.550 OA
ATOM      4  O   UNL     1       1.831 -16.818 -26.796  1.00  0.00    -0.550 OA
ENDBRANCH   1   2
BRANCH   1   5
ATOM      5  C   UNL     1      -1.034 -17.803 -25.008  1.00  0.00     0.059 C 
BRANCH   5   6
ATOM      6  C   UNL     1      -1.526 -16.580 -25.720  1.00  0.00     0.042 C 
ATOM      7  O   UNL     1      -2.238 -16.692 -26.753  1.00  0.00    -0.550 OA
ATOM      8  O   UNL     1      -1.164 -15.318 -25.267  1.00  0.00    -0.550 OA
ENDBRANCH   5   6
ENDBRANCH   1   5
TORSDOF 3
ENDMDL
MODEL 9
REMARK VINA RESULT:    -3.012     15.891     17.282
REMARK INTER + INTRA:          -3.575
REMARK INTER:                  -3.452
REMARK INTRA:                  -0.123
REMARK UNBOUND:                -0.035
REMARK SMILES O=C([O-])CCC(=O)[O-]
REMARK SMILES IDX 4 1 2 2 1 3 3 4 5 5 6 6 7 7 8 8
REMARK H PARENT
REMARK Flexibility Score: inf
ROOT
ATOM      1  C   UNL     1       1.374 -17.479 -26.014  1.00  0.00     0.059 C 
ENDROOT
BRANCH   1   2
ATOM      2  C   UNL     1       0.808 -18.654 -26.753  1.00  0.00     0.042 C 
ATOM      3  O   UNL     1       1.549 -19.350 -27.496  1.00  0.00    -0.550 OA
ATOM      4  O   UNL     1      -0.544 -18.954 -26.654  1.00  0.00    -0.550 OA
ENDBRANCH   1   2
BRANCH   1   5
ATOM      5  C   UNL     1       0.795 -17.369 -24.599  1.00  0.00     0.059 C 
BRANCH   5   6
ATOM      6  C   UNL     1      -0.016 -16.120 -24.430  1.00  0.00     0.042 C 
ATOM      7  O   UNL     1       0.229 -15.329 -23.482  1.00  0.00    -0.550 OA
ATOM      8  O   UNL     1      -1.070 -15.852 -25.296  1.00  0.00    -0.550 OA
ENDBRANCH   5   6
ENDBRANCH   1   5
TORSDOF 3
ENDMDL
