MODEL 1
REMARK VINA RESULT:    -3.729      0.000      0.000
REMARK INTER + INTRA:          -5.674
REMARK INTER:                  -5.255
REMARK INTRA:                  -0.419
REMARK UNBOUND:                -0.419
REMARK SMILES C=CCCCCCCC(=O)[O-]
REMARK SMILES IDX 6 1 7 2 8 3 9 4 10 5 11 6 5 7 4 8 3 9 2 10 1 11
REMARK H PARENT
REMARK Flexibility Score: inf
ROOT
ATOM      1  C   UNL     1      16.988  -4.487  -0.725  1.00  0.00     0.000 C 
ENDROOT
BRANCH   1   2
ATOM      2  C   UNL     1      17.159  -5.231  -2.062  1.00  0.00     0.006 C 
BRANCH   2   3
ATOM      3  C   UNL     1      17.926  -4.439  -3.133  1.00  0.00     0.053 C 
BRANCH   3   4
ATOM      4  C   UNL     1      17.242  -3.150  -3.473  1.00  0.00     0.041 C 
ATOM      5  O   UNL     1      17.865  -2.060  -3.381  1.00  0.00    -0.550 OA
ATOM      6  O   UNL     1      15.926  -3.157  -3.918  1.00  0.00    -0.550 OA
ENDBRANCH   3   4
ENDBRANCH   2   3
ENDBRANCH   1   2
BRANCH   1   7
ATOM      7  C   UNL     1      15.517  -4.217  -0.378  1.00  0.00     0.000 C 
BRANCH   7   8
ATOM      8  C   UNL     1      15.032  -5.164   0.732  1.00  0.00     0.004 C 
BRANCH   8   9
ATOM      9  C   UNL     1      14.623  -4.405   2.003  1.00  0.00     0.027 C 
BRANCH   9  10
ATOM     10  C   UNL     1      14.627  -2.913   1.807  1.00  0.00    -0.035 C 
ATOM     11  C   UNL     1      15.044  -2.078   2.763  1.00  0.00     0.004 C 
ENDBRANCH   9  10
ENDBRANCH   8   9
ENDBRANCH   7   8
ENDBRANCH   1   7
TORSDOF 7
ENDMDL
MODEL 2
REMARK VINA RESULT:    -3.689      2.883      5.260
REMARK INTER + INTRA:          -5.618
REMARK INTER:                  -5.134
REMARK INTRA:                  -0.484
REMARK UNBOUND:                -0.419
REMARK SMILES C=CCCCCCCC(=O)[O-]
REMARK SMILES IDX 6 1 7 2 8 3 9 4 10 5 11 6 5 7 4 8 3 9 2 10 1 11
REMARK H PARENT
REMARK Flexibility Score: inf
ROOT
ATOM      1  C   UNL     1      15.331  -5.464  -4.013  1.00  0.00     0.000 C 
ENDROOT
BRANCH   1   2
ATOM      2  C   UNL     1      15.056  -6.199  -2.689  1.00  0.00     0.006 C 
BRANCH   2   3
ATOM      3  C   UNL     1      14.690  -5.275  -1.517  1.00  0.00     0.053 C 
BRANCH   3   4
ATOM      4  C   UNL     1      15.611  -5.462  -0.350  1.00  0.00     0.041 C 
ATOM      5  O   UNL     1      16.795  -5.038  -0.403  1.00  0.00    -0.550 OA
ATOM      6  O   UNL     1      15.151  -6.077   0.807  1.00  0.00    -0.550 OA
ENDBRANCH   3   4
ENDBRANCH   2   3
ENDBRANCH   1   2
BRANCH   1   7
ATOM      7  C   UNL     1      14.647  -4.091  -4.086  1.00  0.00     0.000 C 
BRANCH   7   8
ATOM      8  C   UNL     1      15.656  -2.994  -4.461  1.00  0.00     0.004 C 
BRANCH   8   9
ATOM      9  C   UNL     1      16.943  -3.080  -3.627  1.00  0.00     0.027 C 
BRANCH   9  10
ATOM     10  C   UNL     1      17.966  -2.058  -4.042  1.00  0.00    -0.035 C 
ATOM     11  C   UNL     1      17.814  -1.315  -5.142  1.00  0.00     0.004 C 
ENDBRANCH   9  10
ENDBRANCH   8   9
ENDBRANCH   7   8
ENDBRANCH   1   7
TORSDOF 7
ENDMDL
MODEL 3
REMARK VINA RESULT:    -3.602      3.130      5.230
REMARK INTER + INTRA:          -5.495
REMARK INTER:                  -4.813
REMARK INTRA:                  -0.682
REMARK UNBOUND:                -0.419
REMARK SMILES C=CCCCCCCC(=O)[O-]
REMARK SMILES IDX 6 1 7 2 8 3 9 4 10 5 11 6 5 7 4 8 3 9 2 10 1 11
REMARK H PARENT
REMARK Flexibility Score: inf
ROOT
ATOM      1  C   UNL     1      17.257  -4.377  -1.216  1.00  0.00     0.000 C 
ENDROOT
BRANCH   1   2
ATOM      2  C   UNL     1      16.112  -4.871  -0.314  1.00  0.00     0.006 C 
BRANCH   2   3
ATOM      3  C   UNL     1      15.102  -3.782   0.081  1.00  0.00     0.053 C 
BRANCH   3   4
ATOM      4  C   UNL     1      14.976  -3.648   1.567  1.00  0.00     0.041 C 
ATOM      5  O   UNL     1      15.202  -2.543   2.126  1.00  0.00    -0.550 OA
ATOM      6  O   UNL     1      14.581  -4.739   2.333  1.00  0.00    -0.550 OA
ENDBRANCH   3   4
ENDBRANCH   2   3
ENDBRANCH   1   2
BRANCH   1   7
ATOM      7  C   UNL     1      16.887  -3.118  -2.013  1.00  0.00     0.000 C 
BRANCH   7   8
ATOM      8  C   UNL     1      16.656  -3.454  -3.495  1.00  0.00     0.004 C 
BRANCH   8   9
ATOM      9  C   UNL     1      15.166  -3.603  -3.830  1.00  0.00     0.027 C 
BRANCH   9  10
ATOM     10  C   UNL     1      14.833  -4.966  -4.376  1.00  0.00    -0.035 C 
ATOM     11  C   UNL     1      15.275  -6.085  -3.795  1.00  0.00     0.004 C 
ENDBRANCH   9  10
ENDBRANCH   8   9
ENDBRANCH   7   8
ENDBRANCH   1   7
TORSDOF 7
ENDMDL
MODEL 4
REMARK VINA RESULT:    -3.557     11.348     12.916
REMARK INTER + INTRA:          -5.432
REMARK INTER:                  -4.998
REMARK INTRA:                  -0.434
REMARK UNBOUND:                -0.419
REMARK SMILES C=CCCCCCCC(=O)[O-]
REMARK SMILES IDX 6 1 7 2 8 3 9 4 10 5 11 6 5 7 4 8 3 9 2 10 1 11
REMARK H PARENT
REMARK Flexibility Score: inf
ROOT
ATOM      1  C   UNL     1      28.397   0.196  -0.300  1.00  0.00     0.000 C 
ENDROOT
BRANCH   1   2
ATOM      2  C   UNL     1      27.409  -0.790  -0.949  1.00  0.00     0.006 C 
BRANCH   2   3
ATOM      3  C   UNL     1      25.938  -0.545  -0.582  1.00  0.00     0.053 C 
BRANCH   3   4
ATOM      4  C   UNL     1      25.508  -1.375   0.589  1.00  0.00     0.041 C 
ATOM      5  O   UNL     1      26.169  -2.394   0.921  1.00  0.00    -0.550 OA
ATOM      6  O   UNL     1      24.394  -1.005   1.332  1.00  0.00    -0.550 OA
ENDBRANCH   3   4
ENDBRANCH   2   3
ENDBRANCH   1   2
BRANCH   1   7
ATOM      7  C   UNL     1      29.649  -0.496   0.258  1.00  0.00     0.000 C 
BRANCH   7   8
ATOM      8  C   UNL     1      29.578  -2.016   0.044  1.00  0.00     0.004 C 
BRANCH   8   9
ATOM      9  C   UNL     1      29.557  -2.788   1.371  1.00  0.00     0.027 C 
BRANCH   9  10
ATOM     10  C   UNL     1      30.765  -3.671   1.542  1.00  0.00    -0.035 C 
ATOM     11  C   UNL     1      31.087  -4.604   0.642  1.00  0.00     0.004 C 
ENDBRANCH   9  10
ENDBRANCH   8   9
ENDBRANCH   7   8
ENDBRANCH   1   7
TORSDOF 7
ENDMDL
MODEL 5
REMARK VINA RESULT:    -3.552      1.633      2.086
REMARK INTER + INTRA:          -5.425
REMARK INTER:                  -4.992
REMARK INTRA:                  -0.433
REMARK UNBOUND:                -0.419
REMARK SMILES C=CCCCCCCC(=O)[O-]
REMARK SMILES IDX 6 1 7 2 8 3 9 4 10 5 11 6 5 7 4 8 3 9 2 10 1 11
REMARK H PARENT
REMARK Flexibility Score: inf
ROOT
ATOM      1  C   UNL     1      14.279  -3.485  -1.868  1.00  0.00     0.000 C 
ENDROOT
BRANCH   1   2
ATOM      2  C   UNL     1      15.265  -3.530  -3.049  1.00  0.00     0.006 C 
BRANCH   2   3
ATOM      3  C   UNL     1      16.706  -3.140  -2.686  1.00  0.00     0.053 C 
BRANCH   3   4
ATOM      4  C   UNL     1      17.642  -4.306  -2.778  1.00  0.00     0.041 C 
ATOM      5  O   UNL     1      17.437  -5.339  -2.089  1.00  0.00    -0.550 OA
ATOM      6  O   UNL     1      18.724  -4.262  -3.649  1.00  0.00    -0.550 OA
ENDBRANCH   3   4
ENDBRANCH   2   3
ENDBRANCH   1   2
BRANCH   1   7
ATOM      7  C   UNL     1      14.952  -3.094  -0.545  1.00  0.00     0.000 C 
BRANCH   7   8
ATOM      8  C   UNL     1      15.075  -4.309   0.389  1.00  0.00     0.004 C 
BRANCH   8   9
ATOM      9  C   UNL     1      14.797  -3.943   1.854  1.00  0.00     0.027 C 
BRANCH   9  10
ATOM     10  C   UNL     1      14.977  -2.473   2.124  1.00  0.00    -0.035 C 
ATOM     11  C   UNL     1      14.514  -1.900   3.238  1.00  0.00     0.004 C 
ENDBRANCH   9  10
ENDBRANCH   8   9
ENDBRANCH   7   8
ENDBRANCH   1   7
TORSDOF 7
ENDMDL
MODEL 6
REMARK VINA RESULT:    -3.529      3.078      5.298
REMARK INTER + INTRA:          -5.392
REMARK INTER:                  -4.657
REMARK INTRA:                  -0.735
REMARK UNBOUND:                -0.419
REMARK SMILES C=CCCCCCCC(=O)[O-]
REMARK SMILES IDX 6 1 7 2 8 3 9 4 10 5 11 6 5 7 4 8 3 9 2 10 1 11
REMARK H PARENT
REMARK Flexibility Score: inf
ROOT
ATOM      1  C   UNL     1      15.425  -2.996  -1.479  1.00  0.00     0.000 C 
ENDROOT
BRANCH   1   2
ATOM      2  C   UNL     1      15.246  -3.276   0.024  1.00  0.00     0.006 C 
BRANCH   2   3
ATOM      3  C   UNL     1      14.107  -4.253   0.355  1.00  0.00     0.053 C 
BRANCH   3   4
ATOM      4  C   UNL     1      14.591  -5.430   1.145  1.00  0.00     0.041 C 
ATOM      5  O   UNL     1      15.264  -6.336   0.585  1.00  0.00    -0.550 OA
ATOM      6  O   UNL     1      14.324  -5.511   2.506  1.00  0.00    -0.550 OA
ENDBRANCH   3   4
ENDBRANCH   2   3
ENDBRANCH   1   2
BRANCH   1   7
ATOM      7  C   UNL     1      16.859  -3.250  -1.966  1.00  0.00     0.000 C 
BRANCH   7   8
ATOM      8  C   UNL     1      17.181  -4.753  -1.968  1.00  0.00     0.004 C 
BRANCH   8   9
ATOM      9  C   UNL     1      16.855  -5.413  -3.316  1.00  0.00     0.027 C 
BRANCH   9  10
ATOM     10  C   UNL     1      15.798  -6.478  -3.193  1.00  0.00    -0.035 C 
ATOM     11  C   UNL     1      14.509  -6.174  -3.024  1.00  0.00     0.004 C 
ENDBRANCH   9  10
ENDBRANCH   8   9
ENDBRANCH   7   8
ENDBRANCH   1   7
TORSDOF 7
ENDMDL
MODEL 7
REMARK VINA RESULT:    -3.482     13.710     15.329
REMARK INTER + INTRA:          -5.326
REMARK INTER:                  -4.696
REMARK INTRA:                  -0.629
REMARK UNBOUND:                -0.419
REMARK SMILES C=CCCCCCCC(=O)[O-]
REMARK SMILES IDX 6 1 7 2 8 3 9 4 10 5 11 6 5 7 4 8 3 9 2 10 1 11
REMARK H PARENT
REMARK Flexibility Score: inf
ROOT
ATOM      1  C   UNL     1      31.024   0.109   0.231  1.00  0.00     0.000 C 
ENDROOT
BRANCH   1   2
ATOM      2  C   UNL     1      29.529  -0.241   0.343  1.00  0.00     0.006 C 
BRANCH   2   3
ATOM      3  C   UNL     1      29.209  -1.727   0.126  1.00  0.00     0.053 C 
BRANCH   3   4
ATOM      4  C   UNL     1      28.367  -2.286   1.232  1.00  0.00     0.041 C 
ATOM      5  O   UNL     1      27.117  -2.134   1.216  1.00  0.00    -0.550 OA
ATOM      6  O   UNL     1      28.961  -3.000   2.265  1.00  0.00    -0.550 OA
ENDBRANCH   3   4
ENDBRANCH   2   3
ENDBRANCH   1   2
BRANCH   1   7
ATOM      7  C   UNL     1      31.871  -1.059  -0.297  1.00  0.00     0.000 C 
BRANCH   7   8
ATOM      8  C   UNL     1      33.108  -1.283   0.586  1.00  0.00     0.004 C 
BRANCH   8   9
ATOM      9  C   UNL     1      33.386  -2.774   0.826  1.00  0.00     0.027 C 
BRANCH   9  10
ATOM     10  C   UNL     1      32.189  -3.500   1.378  1.00  0.00    -0.035 C 
ATOM     11  C   UNL     1      31.795  -4.681   0.892  1.00  0.00     0.004 C 
ENDBRANCH   9  10
ENDBRANCH   8   9
ENDBRANCH   7   8
ENDBRANCH   1   7
TORSDOF 7
ENDMDL
MODEL 8
REMARK VINA RESULT:    -3.468      1.578      2.394
REMARK INTER + INTRA:          -5.306
REMARK INTER:                  -4.791
REMARK INTRA:                  -0.515
REMARK UNBOUND:                -0.419
REMARK SMILES C=CCCCCCCC(=O)[O-]
REMARK SMILES IDX 6 1 7 2 8 3 9 4 10 5 11 6 5 7 4 8 3 9 2 10 1 11
REMARK H PARENT
REMARK Flexibility Score: inf
ROOT
ATOM      1  C   UNL     1      15.649  -2.920  -0.944  1.00  0.00     0.000 C 
ENDROOT
BRANCH   1   2
ATOM      2  C   UNL     1      14.837  -3.611  -2.055  1.00  0.00     0.006 C 
BRANCH   2   3
ATOM      3  C   UNL     1      15.551  -3.675  -3.414  1.00  0.00     0.053 C 
BRANCH   3   4
ATOM      4  C   UNL     1      16.953  -4.187  -3.286  1.00  0.00     0.041 C 
ATOM      5  O   UNL     1      17.929  -3.438  -3.554  1.00  0.00    -0.550 OA
ATOM      6  O   UNL     1      17.181  -5.484  -2.842  1.00  0.00    -0.550 OA
ENDBRANCH   3   4
ENDBRANCH   2   3
ENDBRANCH   1   2
BRANCH   1   7
ATOM      7  C   UNL     1      14.802  -1.956  -0.101  1.00  0.00     0.000 C 
BRANCH   7   8
ATOM      8  C   UNL     1      13.928  -2.726   0.902  1.00  0.00     0.004 C 
BRANCH   8   9
ATOM      9  C   UNL     1      14.753  -3.323   2.051  1.00  0.00     0.027 C 
BRANCH   9  10
ATOM     10  C   UNL     1      14.391  -4.757   2.333  1.00  0.00    -0.035 C 
ATOM     11  C   UNL     1      14.487  -5.705   1.397  1.00  0.00     0.004 C 
ENDBRANCH   9  10
ENDBRANCH   8   9
ENDBRANCH   7   8
ENDBRANCH   1   7
TORSDOF 7
ENDMDL
MODEL 9
REMARK VINA RESULT:    -3.431     13.550     15.223
REMARK INTER + INTRA:          -5.255
REMARK INTER:                  -4.566
REMARK INTRA:                  -0.689
REMARK UNBOUND:                -0.419
REMARK SMILES C=CCCCCCCC(=O)[O-]
REMARK SMILES IDX 6 1 7 2 8 3 9 4 10 5 11 6 5 7 4 8 3 9 2 10 1 11
REMARK H PARENT
REMARK Flexibility Score: inf
ROOT
ATOM      1  C   UNL     1      30.760  -3.990   0.805  1.00  0.00     0.000 C 
ENDROOT
BRANCH   1   2
ATOM      2  C   UNL     1      29.670  -3.065   1.376  1.00  0.00     0.006 C 
BRANCH   2   3
ATOM      3  C   UNL     1      29.332  -1.860   0.484  1.00  0.00     0.053 C 
BRANCH   3   4
ATOM      4  C   UNL     1      27.887  -1.478   0.584  1.00  0.00     0.041 C 
ATOM      5  O   UNL     1      27.095  -2.169   1.278  1.00  0.00    -0.550 OA
ATOM      6  O   UNL     1      27.421  -0.342  -0.066  1.00  0.00    -0.550 OA
ENDBRANCH   3   4
ENDBRANCH   2   3
ENDBRANCH   1   2
BRANCH   1   7
ATOM      7  C   UNL     1      32.066  -3.940   1.610  1.00  0.00     0.000 C 
BRANCH   7   8
ATOM      8  C   UNL     1      33.205  -3.338   0.773  1.00  0.00     0.004 C 
BRANCH   8   9
ATOM      9  C   UNL     1      33.124  -1.806   0.701  1.00  0.00     0.027 C 
BRANCH   9  10
ATOM     10  C   UNL     1      33.230  -1.291  -0.710  1.00  0.00    -0.035 C 
ATOM     11  C   UNL     1      32.438  -1.743  -1.686  1.00  0.00     0.004 C 
ENDBRANCH   9  10
ENDBRANCH   8   9
ENDBRANCH   7   8
ENDBRANCH   1   7
TORSDOF 7
ENDMDL
