MODEL 1
REMARK VINA RESULT:    -5.401      0.000      0.000
REMARK INTER + INTRA:         -10.627
REMARK INTER:                  -8.559
REMARK INTRA:                  -2.068
REMARK UNBOUND:                -2.068
REMARK SMILES C[C@@H]1O[C@@H](O[C@@H]2[C@@H](Oc3cc(O)c4c(c3)O[C@H](c3ccc(O)cc3)CC4=O)O[C@@H](CO)[C@H](O)[C@H]2O)[C@H](O)[C@H](O)[C@H]1O
REMARK SMILES IDX 6 1 34 2 32 3 29 4 28 5 7 6 5 7 4 8 1 9 2 10 40 11 3 12
REMARK SMILES IDX 38 13 36 14 41 15 39 17 37 19 35 21 8 23 9 24 10 25 15 26
REMARK SMILES IDX 11 27 14 28 13 29 16 30 26 31 17 32 27 33 25 34 12 35 18 37
REMARK SMILES IDX 19 38 24 39 20 40 23 41 21 42 22 43 33 45 30 47 31 48
REMARK H PARENT 41 16 39 18 37 20 35 22 12 36 22 44 33 46 31 49
REMARK Flexibility Score: inf
ROOT
ATOM      1  C   UNL     1      -6.974  22.153  -7.924  1.00  0.00     0.221 C 
ATOM      2  C   UNL     1      -7.322  21.083  -8.985  1.00  0.00     0.181 C 
ATOM      3  C   UNL     1      -6.349  19.901  -8.840  1.00  0.00     0.177 C 
ATOM      4  C   UNL     1      -4.884  20.414  -8.831  1.00  0.00     0.179 C 
ATOM      5  O   UNL     1      -4.681  21.345  -7.776  1.00  0.00    -0.332 OA
ATOM      6  C   UNL     1      -5.465  22.509  -7.980  1.00  0.00     0.339 C 
ENDROOT
BRANCH   1   7
ATOM      7  O   UNL     1      -7.848  23.274  -7.949  1.00  0.00    -0.337 OA
BRANCH   7   8
ATOM      8  C   UNL     1      -7.777  24.062  -9.136  1.00  0.00     0.282 C 
ATOM      9  C   UNL     1      -6.618  27.229  -7.662  1.00  0.00     0.041 C 
ATOM     10  C   UNL     1      -7.557  26.042  -7.884  1.00  0.00     0.150 C 
ATOM     11  C   UNL     1      -8.975  26.546  -8.247  1.00  0.00     0.174 C 
ATOM     12  O   UNL     1      -7.011  25.237  -8.917  1.00  0.00    -0.344 OA
ATOM     13  C   UNL     1      -9.888  25.360  -8.593  1.00  0.00     0.179 C 
ATOM     14  C   UNL     1      -9.206  24.416  -9.603  1.00  0.00     0.202 C 
BRANCH  11  15
ATOM     15  O   UNL     1      -9.513  27.249  -7.155  1.00  0.00    -0.388 OA
ATOM     16  H   UNL     1     -10.242  27.819  -7.517  1.00  0.00     0.211 HD
ENDBRANCH  11  15
BRANCH  13  17
ATOM     17  O   UNL     1     -11.104  25.834  -9.109  1.00  0.00    -0.387 OA
ATOM     18  H   UNL     1     -11.823  25.348  -8.629  1.00  0.00     0.211 HD
ENDBRANCH  13  17
BRANCH  14  19
ATOM     19  O   UNL     1      -9.207  24.966 -10.899  1.00  0.00    -0.385 OA
ATOM     20  H   UNL     1      -9.691  25.829 -10.871  1.00  0.00     0.211 HD
ENDBRANCH  14  19
ENDBRANCH   7   8
ENDBRANCH   1   7
BRANCH   2  21
ATOM     21  O   UNL     1      -8.636  20.624  -8.802  1.00  0.00    -0.387 OA
ATOM     22  H   UNL     1      -8.620  19.999  -8.031  1.00  0.00     0.211 HD
ENDBRANCH   2  21
BRANCH   6  23
ATOM     23  O   UNL     1      -5.138  23.502  -7.004  1.00  0.00    -0.462 OA
BRANCH  23  24
ATOM     24  C   UNL     1      -4.049  24.375  -7.098  1.00  0.00     0.130 A 
ATOM     25  C   UNL     1      -3.381  24.746  -5.927  1.00  0.00     0.093 A 
ATOM     26  C   UNL     1      -3.596  24.850  -8.336  1.00  0.00     0.094 A 
ATOM     27  C   UNL     1      -2.263  25.589  -5.982  1.00  0.00     0.133 A 
ATOM     28  C   UNL     1      -2.484  25.693  -8.404  1.00  0.00     0.138 A 
ATOM     29  C   UNL     1      -1.804  26.061  -7.227  1.00  0.00     0.102 A 
ATOM     30  O   UNL     1      -2.033  26.141  -9.651  1.00  0.00    -0.484 OA
ATOM     31  C   UNL     1      -0.576  26.880  -7.366  1.00  0.00     0.174 C 
ATOM     32  C   UNL     1      -1.040  27.165  -9.794  1.00  0.00     0.211 C 
ATOM     33  O   UNL     1      -0.024  27.412  -6.366  1.00  0.00    -0.294 OA
ATOM     34  C   UNL     1       0.052  27.021  -8.720  1.00  0.00     0.131 C 
BRANCH  27  35
ATOM     35  O   UNL     1      -1.603  25.940  -4.802  1.00  0.00    -0.507 OA
ATOM     36  H   UNL     1      -2.079  26.420  -4.051  1.00  0.00     0.293 HD
ENDBRANCH  27  35
BRANCH  32  37
ATOM     37  C   UNL     1      -0.426  27.127 -11.171  1.00  0.00    -0.007 A 
ATOM     38  C   UNL     1       0.070  25.915 -11.681  1.00  0.00     0.011 A 
ATOM     39  C   UNL     1      -0.425  28.271 -11.996  1.00  0.00     0.011 A 
ATOM     40  C   UNL     1       0.584  25.849 -12.980  1.00  0.00     0.046 A 
ATOM     41  C   UNL     1       0.096  28.206 -13.290  1.00  0.00     0.046 A 
ATOM     42  C   UNL     1       0.605  26.998 -13.786  1.00  0.00     0.115 A 
BRANCH  42  43
ATOM     43  O   UNL     1       1.125  26.950 -15.077  1.00  0.00    -0.508 OA
ATOM     44  H   UNL     1       2.126  26.962 -15.249  1.00  0.00     0.293 HD
ENDBRANCH  42  43
ENDBRANCH  32  37
ENDBRANCH  23  24
ENDBRANCH   6  23
BRANCH   3  45
ATOM     45  O   UNL     1      -6.534  19.004  -9.900  1.00  0.00    -0.387 OA
ATOM     46  H   UNL     1      -7.488  19.071 -10.173  1.00  0.00     0.211 HD
ENDBRANCH   3  45
BRANCH   4  47
ATOM     47  C   UNL     1      -3.891  19.258  -8.654  1.00  0.00     0.191 C 
BRANCH  47  48
ATOM     48  O   UNL     1      -4.441  18.265  -7.826  1.00  0.00    -0.394 OA
ATOM     49  H   UNL     1      -4.377  17.416  -8.336  1.00  0.00     0.210 HD
ENDBRANCH  47  48
ENDBRANCH   4  47
TORSDOF 14
ENDMDL
MODEL 2
REMARK VINA RESULT:    -5.304      2.437      4.904
REMARK INTER + INTRA:         -10.473
REMARK INTER:                  -9.024
REMARK INTRA:                  -1.449
REMARK UNBOUND:                -2.068
REMARK SMILES C[C@@H]1O[C@@H](O[C@@H]2[C@@H](Oc3cc(O)c4c(c3)O[C@H](c3ccc(O)cc3)CC4=O)O[C@@H](CO)[C@H](O)[C@H]2O)[C@H](O)[C@H](O)[C@H]1O
REMARK SMILES IDX 6 1 34 2 32 3 29 4 28 5 7 6 5 7 4 8 1 9 2 10 40 11 3 12
REMARK SMILES IDX 38 13 36 14 41 15 39 17 37 19 35 21 8 23 9 24 10 25 15 26
REMARK SMILES IDX 11 27 14 28 13 29 16 30 26 31 17 32 27 33 25 34 12 35 18 37
REMARK SMILES IDX 19 38 24 39 20 40 23 41 21 42 22 43 33 45 30 47 31 48
REMARK H PARENT 41 16 39 18 37 20 35 22 12 36 22 44 33 46 31 49
REMARK Flexibility Score: inf
ROOT
ATOM      1  C   UNL     1      -7.462  25.286  -9.373  1.00  0.00     0.221 C 
ATOM      2  C   UNL     1      -8.482  25.657 -10.474  1.00  0.00     0.181 C 
ATOM      3  C   UNL     1      -7.884  26.766 -11.356  1.00  0.00     0.177 C 
ATOM      4  C   UNL     1      -7.368  27.932 -10.470  1.00  0.00     0.179 C 
ATOM      5  O   UNL     1      -6.396  27.469  -9.542  1.00  0.00    -0.332 OA
ATOM      6  C   UNL     1      -6.977  26.555  -8.625  1.00  0.00     0.339 C 
ENDROOT
BRANCH   1   7
ATOM      7  O   UNL     1      -7.907  24.234  -8.526  1.00  0.00    -0.337 OA
BRANCH   7   8
ATOM      8  C   UNL     1      -7.583  22.922  -8.981  1.00  0.00     0.282 C 
ATOM      9  C   UNL     1     -10.984  21.678  -9.638  1.00  0.00     0.041 C 
ATOM     10  C   UNL     1      -9.828  22.238  -8.807  1.00  0.00     0.150 C 
ATOM     11  C   UNL     1      -9.559  21.327  -7.586  1.00  0.00     0.174 C 
ATOM     12  O   UNL     1      -8.688  22.331  -9.648  1.00  0.00    -0.344 OA
ATOM     13  C   UNL     1      -8.320  21.816  -6.821  1.00  0.00     0.179 C 
ATOM     14  C   UNL     1      -7.138  22.057  -7.781  1.00  0.00     0.202 C 
BRANCH  11  15
ATOM     15  O   UNL     1     -10.676  21.350  -6.733  1.00  0.00    -0.388 OA
ATOM     16  H   UNL     1     -10.691  22.249  -6.310  1.00  0.00     0.211 HD
ENDBRANCH  11  15
BRANCH  13  17
ATOM     17  O   UNL     1      -7.970  20.876  -5.838  1.00  0.00    -0.387 OA
ATOM     18  H   UNL     1      -7.130  21.203  -5.422  1.00  0.00     0.211 HD
ENDBRANCH  13  17
BRANCH  14  19
ATOM     19  O   UNL     1      -6.563  20.843  -8.200  1.00  0.00    -0.385 OA
ATOM     20  H   UNL     1      -7.137  20.100  -7.883  1.00  0.00     0.211 HD
ENDBRANCH  14  19
ENDBRANCH   7   8
ENDBRANCH   1   7
BRANCH   2  21
ATOM     21  O   UNL     1      -8.768  24.537 -11.272  1.00  0.00    -0.387 OA
ATOM     22  H   UNL     1      -9.581  24.756 -11.798  1.00  0.00     0.211 HD
ENDBRANCH   2  21
BRANCH   6  23
ATOM     23  O   UNL     1      -6.037  26.218  -7.602  1.00  0.00    -0.462 OA
BRANCH  23  24
ATOM     24  C   UNL     1      -4.647  26.280  -7.753  1.00  0.00     0.130 A 
ATOM     25  C   UNL     1      -3.888  26.891  -6.750  1.00  0.00     0.093 A 
ATOM     26  C   UNL     1      -4.004  25.711  -8.860  1.00  0.00     0.094 A 
ATOM     27  C   UNL     1      -2.491  26.941  -6.844  1.00  0.00     0.133 A 
ATOM     28  C   UNL     1      -2.612  25.756  -8.967  1.00  0.00     0.138 A 
ATOM     29  C   UNL     1      -1.844  26.363  -7.955  1.00  0.00     0.102 A 
ATOM     30  O   UNL     1      -1.985  25.164 -10.071  1.00  0.00    -0.484 OA
ATOM     31  C   UNL     1      -0.368  26.299  -8.073  1.00  0.00     0.174 C 
ATOM     32  C   UNL     1      -0.594  25.346 -10.361  1.00  0.00     0.211 C 
ATOM     33  O   UNL     1       0.381  26.979  -7.323  1.00  0.00    -0.294 OA
ATOM     34  C   UNL     1       0.238  25.354  -9.067  1.00  0.00     0.131 C 
BRANCH  27  35
ATOM     35  O   UNL     1      -1.750  27.547  -5.827  1.00  0.00    -0.507 OA
ATOM     36  H   UNL     1      -0.776  27.324  -5.676  1.00  0.00     0.293 HD
ENDBRANCH  27  35
BRANCH  32  37
ATOM     37  C   UNL     1      -0.096  24.271 -11.295  1.00  0.00    -0.007 A 
ATOM     38  C   UNL     1      -0.499  22.938 -11.102  1.00  0.00     0.011 A 
ATOM     39  C   UNL     1       0.694  24.595 -12.417  1.00  0.00     0.011 A 
ATOM     40  C   UNL     1      -0.099  21.939 -11.995  1.00  0.00     0.046 A 
ATOM     41  C   UNL     1       1.100  23.595 -13.304  1.00  0.00     0.046 A 
ATOM     42  C   UNL     1       0.708  22.265 -13.096  1.00  0.00     0.115 A 
BRANCH  42  43
ATOM     43  O   UNL     1       1.125  21.280 -13.987  1.00  0.00    -0.508 OA
ATOM     44  H   UNL     1       1.312  20.329 -13.681  1.00  0.00     0.293 HD
ENDBRANCH  42  43
ENDBRANCH  32  37
ENDBRANCH  23  24
ENDBRANCH   6  23
BRANCH   3  45
ATOM     45  O   UNL     1      -8.856  27.237 -12.247  1.00  0.00    -0.387 OA
ATOM     46  H   UNL     1      -8.624  26.877 -13.144  1.00  0.00     0.211 HD
ENDBRANCH   3  45
BRANCH   4  47
ATOM     47  C   UNL     1      -6.735  29.039 -11.323  1.00  0.00     0.191 C 
BRANCH  47  48
ATOM     48  O   UNL     1      -6.117  28.489 -12.457  1.00  0.00    -0.394 OA
ATOM     49  H   UNL     1      -5.901  29.254 -13.051  1.00  0.00     0.210 HD
ENDBRANCH  47  48
ENDBRANCH   4  47
TORSDOF 14
ENDMDL
MODEL 3
REMARK VINA RESULT:    -5.162      3.498      7.061
REMARK INTER + INTRA:         -10.248
REMARK INTER:                  -8.534
REMARK INTRA:                  -1.714
REMARK UNBOUND:                -2.068
REMARK SMILES C[C@@H]1O[C@@H](O[C@@H]2[C@@H](Oc3cc(O)c4c(c3)O[C@H](c3ccc(O)cc3)CC4=O)O[C@@H](CO)[C@H](O)[C@H]2O)[C@H](O)[C@H](O)[C@H]1O
REMARK SMILES IDX 6 1 34 2 32 3 29 4 28 5 7 6 5 7 4 8 1 9 2 10 40 11 3 12
REMARK SMILES IDX 38 13 36 14 41 15 39 17 37 19 35 21 8 23 9 24 10 25 15 26
REMARK SMILES IDX 11 27 14 28 13 29 16 30 26 31 17 32 27 33 25 34 12 35 18 37
REMARK SMILES IDX 19 38 24 39 20 40 23 41 21 42 22 43 33 45 30 47 31 48
REMARK H PARENT 41 16 39 18 37 20 35 22 12 36 22 44 33 46 31 49
REMARK Flexibility Score: inf
ROOT
ATOM      1  C   UNL     1      -5.702  22.515  -6.523  1.00  0.00     0.221 C 
ATOM      2  C   UNL     1      -4.875  21.222  -6.714  1.00  0.00     0.181 C 
ATOM      3  C   UNL     1      -3.527  21.380  -5.990  1.00  0.00     0.177 C 
ATOM      4  C   UNL     1      -2.844  22.706  -6.418  1.00  0.00     0.179 C 
ATOM      5  O   UNL     1      -3.681  23.820  -6.137  1.00  0.00    -0.332 OA
ATOM      6  C   UNL     1      -4.866  23.762  -6.914  1.00  0.00     0.339 C 
ENDROOT
BRANCH   1   7
ATOM      7  O   UNL     1      -6.989  22.453  -7.123  1.00  0.00    -0.337 OA
BRANCH   7   8
ATOM      8  C   UNL     1      -7.121  21.476  -8.154  1.00  0.00     0.282 C 
ATOM      9  C   UNL     1      -6.034  23.512 -11.023  1.00  0.00     0.041 C 
ATOM     10  C   UNL     1      -6.902  23.120  -9.825  1.00  0.00     0.150 C 
ATOM     11  C   UNL     1      -8.386  23.026 -10.250  1.00  0.00     0.174 C 
ATOM     12  O   UNL     1      -6.425  21.880  -9.324  1.00  0.00    -0.344 OA
ATOM     13  C   UNL     1      -9.243  22.511  -9.083  1.00  0.00     0.179 C 
ATOM     14  C   UNL     1      -8.618  21.248  -8.457  1.00  0.00     0.202 C 
BRANCH  11  15
ATOM     15  O   UNL     1      -8.840  24.298 -10.639  1.00  0.00    -0.388 OA
ATOM     16  H   UNL     1      -8.957  24.268 -11.627  1.00  0.00     0.211 HD
ENDBRANCH  11  15
BRANCH  13  17
ATOM     17  O   UNL     1     -10.544  22.242  -9.535  1.00  0.00    -0.387 OA
ATOM     18  H   UNL     1     -11.162  22.661  -8.880  1.00  0.00     0.211 HD
ENDBRANCH  13  17
BRANCH  14  19
ATOM     19  O   UNL     1      -8.818  20.120  -9.274  1.00  0.00    -0.385 OA
ATOM     20  H   UNL     1      -8.033  19.524  -9.180  1.00  0.00     0.211 HD
ENDBRANCH  14  19
ENDBRANCH   7   8
ENDBRANCH   1   7
BRANCH   2  21
ATOM     21  O   UNL     1      -5.561  20.121  -6.176  1.00  0.00    -0.387 OA
ATOM     22  H   UNL     1      -5.516  20.206  -5.188  1.00  0.00     0.211 HD
ENDBRANCH   2  21
BRANCH   6  23
ATOM     23  O   UNL     1      -5.627  24.961  -6.745  1.00  0.00    -0.462 OA
BRANCH  23  24
ATOM     24  C   UNL     1      -5.943  25.850  -7.778  1.00  0.00     0.130 A 
ATOM     25  C   UNL     1      -4.973  26.130  -8.745  1.00  0.00     0.093 A 
ATOM     26  C   UNL     1      -7.215  26.430  -7.882  1.00  0.00     0.094 A 
ATOM     27  C   UNL     1      -5.261  26.986  -9.816  1.00  0.00     0.133 A 
ATOM     28  C   UNL     1      -7.514  27.286  -8.945  1.00  0.00     0.138 A 
ATOM     29  C   UNL     1      -6.541  27.564  -9.925  1.00  0.00     0.102 A 
ATOM     30  O   UNL     1      -8.796  27.841  -9.044  1.00  0.00    -0.484 OA
ATOM     31  C   UNL     1      -6.943  28.403 -11.079  1.00  0.00     0.174 C 
ATOM     32  C   UNL     1      -9.120  28.882  -9.974  1.00  0.00     0.211 C 
ATOM     33  O   UNL     1      -6.090  28.856 -11.889  1.00  0.00    -0.294 OA
ATOM     34  C   UNL     1      -8.400  28.661 -11.315  1.00  0.00     0.131 C 
BRANCH  27  35
ATOM     35  O   UNL     1      -4.282  27.245 -10.777  1.00  0.00    -0.507 OA
ATOM     36  H   UNL     1      -3.297  27.160 -10.567  1.00  0.00     0.293 HD
ENDBRANCH  27  35
BRANCH  32  37
ATOM     37  C   UNL     1     -10.611  28.964 -10.189  1.00  0.00    -0.007 A 
ATOM     38  C   UNL     1     -11.121  29.111 -11.490  1.00  0.00     0.011 A 
ATOM     39  C   UNL     1     -11.508  28.802  -9.113  1.00  0.00     0.011 A 
ATOM     40  C   UNL     1     -12.501  29.125 -11.714  1.00  0.00     0.046 A 
ATOM     41  C   UNL     1     -12.886  28.824  -9.336  1.00  0.00     0.046 A 
ATOM     42  C   UNL     1     -13.388  28.988 -10.635  1.00  0.00     0.115 A 
BRANCH  42  43
ATOM     43  O   UNL     1     -14.765  29.012 -10.841  1.00  0.00    -0.508 OA
ATOM     44  H   UNL     1     -15.164  29.075 -11.773  1.00  0.00     0.293 HD
ENDBRANCH  42  43
ENDBRANCH  32  37
ENDBRANCH  23  24
ENDBRANCH   6  23
BRANCH   3  45
ATOM     45  O   UNL     1      -2.696  20.294  -6.296  1.00  0.00    -0.387 OA
ATOM     46  H   UNL     1      -2.171  20.093  -5.477  1.00  0.00     0.211 HD
ENDBRANCH   3  45
BRANCH   4  47
ATOM     47  C   UNL     1      -1.511  22.906  -5.686  1.00  0.00     0.191 C 
BRANCH  47  48
ATOM     48  O   UNL     1      -0.545  22.013  -6.178  1.00  0.00    -0.394 OA
ATOM     49  H   UNL     1      -0.448  21.306  -5.488  1.00  0.00     0.210 HD
ENDBRANCH  47  48
ENDBRANCH   4  47
TORSDOF 14
ENDMDL
MODEL 4
REMARK VINA RESULT:    -5.068      2.264      4.833
REMARK INTER + INTRA:         -10.099
REMARK INTER:                  -8.407
REMARK INTRA:                  -1.692
REMARK UNBOUND:                -2.068
REMARK SMILES C[C@@H]1O[C@@H](O[C@@H]2[C@@H](Oc3cc(O)c4c(c3)O[C@H](c3ccc(O)cc3)CC4=O)O[C@@H](CO)[C@H](O)[C@H]2O)[C@H](O)[C@H](O)[C@H]1O
REMARK SMILES IDX 6 1 34 2 32 3 29 4 28 5 7 6 5 7 4 8 1 9 2 10 40 11 3 12
REMARK SMILES IDX 38 13 36 14 41 15 39 17 37 19 35 21 8 23 9 24 10 25 15 26
REMARK SMILES IDX 11 27 14 28 13 29 16 30 26 31 17 32 27 33 25 34 12 35 18 37
REMARK SMILES IDX 19 38 24 39 20 40 23 41 21 42 22 43 33 45 30 47 31 48
REMARK H PARENT 41 16 39 18 37 20 35 22 12 36 22 44 33 46 31 49
REMARK Flexibility Score: inf
ROOT
ATOM      1  C   UNL     1      -8.488  24.223  -6.921  1.00  0.00     0.221 C 
ATOM      2  C   UNL     1      -9.110  24.288  -5.507  1.00  0.00     0.181 C 
ATOM      3  C   UNL     1      -9.660  25.705  -5.269  1.00  0.00     0.177 C 
ATOM      4  C   UNL     1      -8.571  26.762  -5.595  1.00  0.00     0.179 C 
ATOM      5  O   UNL     1      -8.126  26.631  -6.938  1.00  0.00    -0.332 OA
ATOM      6  C   UNL     1      -7.480  25.383  -7.131  1.00  0.00     0.339 C 
ENDROOT
BRANCH   1   7
ATOM      7  O   UNL     1      -7.986  22.935  -7.255  1.00  0.00    -0.337 OA
BRANCH   7   8
ATOM      8  C   UNL     1      -8.919  22.081  -7.915  1.00  0.00     0.282 C 
ATOM      9  C   UNL     1      -6.552  19.775  -9.536  1.00  0.00     0.041 C 
ATOM     10  C   UNL     1      -7.213  21.118  -9.219  1.00  0.00     0.150 C 
ATOM     11  C   UNL     1      -7.692  21.798 -10.524  1.00  0.00     0.174 C 
ATOM     12  O   UNL     1      -8.294  20.876  -8.332  1.00  0.00    -0.344 OA
ATOM     13  C   UNL     1      -8.467  23.084 -10.200  1.00  0.00     0.179 C 
ATOM     14  C   UNL     1      -9.535  22.827  -9.119  1.00  0.00     0.202 C 
BRANCH  11  15
ATOM     15  O   UNL     1      -6.577  22.110 -11.321  1.00  0.00    -0.388 OA
ATOM     16  H   UNL     1      -6.627  23.085 -11.509  1.00  0.00     0.211 HD
ENDBRANCH  11  15
BRANCH  13  17
ATOM     17  O   UNL     1      -9.062  23.584 -11.369  1.00  0.00    -0.387 OA
ATOM     18  H   UNL     1      -9.178  24.561 -11.231  1.00  0.00     0.211 HD
ENDBRANCH  13  17
BRANCH  14  19
ATOM     19  O   UNL     1     -10.642  22.136  -9.647  1.00  0.00    -0.385 OA
ATOM     20  H   UNL     1     -11.457  22.670  -9.469  1.00  0.00     0.211 HD
ENDBRANCH  14  19
ENDBRANCH   7   8
ENDBRANCH   1   7
BRANCH   2  21
ATOM     21  O   UNL     1     -10.158  23.361  -5.391  1.00  0.00    -0.387 OA
ATOM     22  H   UNL     1     -10.040  22.699  -6.121  1.00  0.00     0.211 HD
ENDBRANCH   2  21
BRANCH   6  23
ATOM     23  O   UNL     1      -6.898  25.324  -8.436  1.00  0.00    -0.462 OA
BRANCH  23  24
ATOM     24  C   UNL     1      -5.548  25.059  -8.689  1.00  0.00     0.130 A 
ATOM     25  C   UNL     1      -4.993  23.871  -8.204  1.00  0.00     0.093 A 
ATOM     26  C   UNL     1      -4.758  25.935  -9.446  1.00  0.00     0.094 A 
ATOM     27  C   UNL     1      -3.655  23.549  -8.467  1.00  0.00     0.133 A 
ATOM     28  C   UNL     1      -3.422  25.627  -9.714  1.00  0.00     0.138 A 
ATOM     29  C   UNL     1      -2.863  24.427  -9.233  1.00  0.00     0.102 A 
ATOM     30  O   UNL     1      -2.654  26.505 -10.489  1.00  0.00    -0.484 OA
ATOM     31  C   UNL     1      -1.470  24.108  -9.627  1.00  0.00     0.174 C 
ATOM     32  C   UNL     1      -1.235  26.371 -10.633  1.00  0.00     0.211 C 
ATOM     33  O   UNL     1      -0.836  23.163  -9.086  1.00  0.00    -0.294 OA
ATOM     34  C   UNL     1      -0.832  24.890 -10.735  1.00  0.00     0.131 C 
BRANCH  27  35
ATOM     35  O   UNL     1      -3.123  22.353  -7.982  1.00  0.00    -0.507 OA
ATOM     36  H   UNL     1      -3.561  21.846  -7.226  1.00  0.00     0.293 HD
ENDBRANCH  27  35
BRANCH  32  37
ATOM     37  C   UNL     1      -0.745  27.129 -11.842  1.00  0.00    -0.007 A 
ATOM     38  C   UNL     1       0.300  26.600 -12.620  1.00  0.00     0.011 A 
ATOM     39  C   UNL     1      -1.381  28.316 -12.260  1.00  0.00     0.011 A 
ATOM     40  C   UNL     1       0.723  27.258 -13.780  1.00  0.00     0.046 A 
ATOM     41  C   UNL     1      -0.952  28.976 -13.413  1.00  0.00     0.046 A 
ATOM     42  C   UNL     1       0.101  28.453 -14.175  1.00  0.00     0.115 A 
BRANCH  42  43
ATOM     43  O   UNL     1       0.520  29.125 -15.321  1.00  0.00    -0.508 OA
ATOM     44  H   UNL     1       1.307  29.767 -15.304  1.00  0.00     0.293 HD
ENDBRANCH  42  43
ENDBRANCH  32  37
ENDBRANCH  23  24
ENDBRANCH   6  23
BRANCH   3  45
ATOM     45  O   UNL     1     -10.068  25.835  -3.935  1.00  0.00    -0.387 OA
ATOM     46  H   UNL     1      -9.243  25.840  -3.380  1.00  0.00     0.211 HD
ENDBRANCH   3  45
BRANCH   4  47
ATOM     47  C   UNL     1      -9.103  28.187  -5.397  1.00  0.00     0.191 C 
BRANCH  47  48
ATOM     48  O   UNL     1     -10.498  28.214  -5.559  1.00  0.00    -0.394 OA
ATOM     49  H   UNL     1     -10.680  27.803  -6.444  1.00  0.00     0.210 HD
ENDBRANCH  47  48
ENDBRANCH   4  47
TORSDOF 14
ENDMDL
MODEL 5
REMARK VINA RESULT:    -4.735      1.755      2.098
REMARK INTER + INTRA:          -9.571
REMARK INTER:                  -8.258
REMARK INTRA:                  -1.313
REMARK UNBOUND:                -2.068
REMARK SMILES C[C@@H]1O[C@@H](O[C@@H]2[C@@H](Oc3cc(O)c4c(c3)O[C@H](c3ccc(O)cc3)CC4=O)O[C@@H](CO)[C@H](O)[C@H]2O)[C@H](O)[C@H](O)[C@H]1O
REMARK SMILES IDX 6 1 34 2 32 3 29 4 28 5 7 6 5 7 4 8 1 9 2 10 40 11 3 12
REMARK SMILES IDX 38 13 36 14 41 15 39 17 37 19 35 21 8 23 9 24 10 25 15 26
REMARK SMILES IDX 11 27 14 28 13 29 16 30 26 31 17 32 27 33 25 34 12 35 18 37
REMARK SMILES IDX 19 38 24 39 20 40 23 41 21 42 22 43 33 45 30 47 31 48
REMARK H PARENT 41 16 39 18 37 20 35 22 12 36 22 44 33 46 31 49
REMARK Flexibility Score: inf
ROOT
ATOM      1  C   UNL     1      -7.847  23.328  -7.779  1.00  0.00     0.221 C 
ATOM      2  C   UNL     1      -8.849  22.392  -8.495  1.00  0.00     0.181 C 
ATOM      3  C   UNL     1      -8.201  21.009  -8.672  1.00  0.00     0.177 C 
ATOM      4  C   UNL     1      -6.802  21.155  -9.329  1.00  0.00     0.179 C 
ATOM      5  O   UNL     1      -5.961  21.991  -8.546  1.00  0.00    -0.332 OA
ATOM      6  C   UNL     1      -6.474  23.313  -8.500  1.00  0.00     0.339 C 
ENDROOT
BRANCH   1   7
ATOM      7  O   UNL     1      -8.371  24.626  -7.530  1.00  0.00    -0.337 OA
BRANCH   7   8
ATOM      8  C   UNL     1      -9.083  25.204  -8.622  1.00  0.00     0.282 C 
ATOM      9  C   UNL     1      -6.820  28.010  -9.370  1.00  0.00     0.041 C 
ATOM     10  C   UNL     1      -7.770  27.155  -8.528  1.00  0.00     0.150 C 
ATOM     11  C   UNL     1      -8.926  28.025  -7.980  1.00  0.00     0.174 C 
ATOM     12  O   UNL     1      -8.254  26.101  -9.347  1.00  0.00    -0.344 OA
ATOM     13  C   UNL     1      -9.947  27.147  -7.241  1.00  0.00     0.179 C 
ATOM     14  C   UNL     1     -10.342  25.924  -8.092  1.00  0.00     0.202 C 
BRANCH  11  15
ATOM     15  O   UNL     1      -8.406  28.986  -7.096  1.00  0.00    -0.388 OA
ATOM     16  H   UNL     1      -7.668  29.446  -7.579  1.00  0.00     0.211 HD
ENDBRANCH  11  15
BRANCH  13  17
ATOM     17  O   UNL     1     -11.082  27.910  -6.922  1.00  0.00    -0.387 OA
ATOM     18  H   UNL     1     -11.869  27.329  -7.094  1.00  0.00     0.211 HD
ENDBRANCH  13  17
BRANCH  14  19
ATOM     19  O   UNL     1     -11.212  26.287  -9.136  1.00  0.00    -0.385 OA
ATOM     20  H   UNL     1     -11.758  25.497  -9.377  1.00  0.00     0.211 HD
ENDBRANCH  14  19
ENDBRANCH   7   8
ENDBRANCH   1   7
BRANCH   2  21
ATOM     21  O   UNL     1     -10.021  22.258  -7.733  1.00  0.00    -0.387 OA
ATOM     22  H   UNL     1     -10.693  21.812  -8.311  1.00  0.00     0.211 HD
ENDBRANCH   2  21
BRANCH   6  23
ATOM     23  O   UNL     1      -5.544  24.181  -7.846  1.00  0.00    -0.462 OA
BRANCH  23  24
ATOM     24  C   UNL     1      -4.161  24.162  -8.057  1.00  0.00     0.130 A 
ATOM     25  C   UNL     1      -3.381  23.263  -7.324  1.00  0.00     0.093 A 
ATOM     26  C   UNL     1      -3.554  24.992  -9.008  1.00  0.00     0.094 A 
ATOM     27  C   UNL     1      -1.997  23.186  -7.532  1.00  0.00     0.133 A 
ATOM     28  C   UNL     1      -2.175  24.927  -9.224  1.00  0.00     0.138 A 
ATOM     29  C   UNL     1      -1.388  24.016  -8.493  1.00  0.00     0.102 A 
ATOM     30  O   UNL     1      -1.588  25.750 -10.193  1.00  0.00    -0.484 OA
ATOM     31  C   UNL     1       0.053  23.923  -8.829  1.00  0.00     0.174 C 
ATOM     32  C   UNL     1      -0.169  25.895 -10.329  1.00  0.00     0.211 C 
ATOM     33  O   UNL     1       0.857  23.285  -8.099  1.00  0.00    -0.294 OA
ATOM     34  C   UNL     1       0.543  24.552 -10.098  1.00  0.00     0.131 C 
BRANCH  27  35
ATOM     35  O   UNL     1      -1.237  22.274  -6.797  1.00  0.00    -0.507 OA
ATOM     36  H   UNL     1      -1.212  22.297  -5.787  1.00  0.00     0.293 HD
ENDBRANCH  27  35
BRANCH  32  37
ATOM     37  C   UNL     1       0.185  26.447 -11.688  1.00  0.00    -0.007 A 
ATOM     38  C   UNL     1       0.846  25.630 -12.622  1.00  0.00     0.011 A 
ATOM     39  C   UNL     1      -0.220  27.742 -12.072  1.00  0.00     0.011 A 
ATOM     40  C   UNL     1       1.125  26.104 -13.907  1.00  0.00     0.046 A 
ATOM     41  C   UNL     1       0.066  28.218 -13.354  1.00  0.00     0.046 A 
ATOM     42  C   UNL     1       0.741  27.403 -14.274  1.00  0.00     0.115 A 
BRANCH  42  43
ATOM     43  O   UNL     1       1.022  27.894 -15.547  1.00  0.00    -0.508 OA
ATOM     44  H   UNL     1       1.874  28.412 -15.742  1.00  0.00     0.293 HD
ENDBRANCH  42  43
ENDBRANCH  32  37
ENDBRANCH  23  24
ENDBRANCH   6  23
BRANCH   3  45
ATOM     45  O   UNL     1      -9.021  20.201  -9.471  1.00  0.00    -0.387 OA
ATOM     46  H   UNL     1      -8.577  19.315  -9.538  1.00  0.00     0.211 HD
ENDBRANCH   3  45
BRANCH   4  47
ATOM     47  C   UNL     1      -6.117  19.792  -9.489  1.00  0.00     0.191 C 
BRANCH  47  48
ATOM     48  O   UNL     1      -5.146  19.614  -8.490  1.00  0.00    -0.394 OA
ATOM     49  H   UNL     1      -4.523  20.382  -8.573  1.00  0.00     0.210 HD
ENDBRANCH  47  48
ENDBRANCH   4  47
TORSDOF 14
ENDMDL
MODEL 6
REMARK VINA RESULT:    -4.729      2.769      6.256
REMARK INTER + INTRA:          -9.562
REMARK INTER:                  -8.468
REMARK INTRA:                  -1.094
REMARK UNBOUND:                -2.068
REMARK SMILES C[C@@H]1O[C@@H](O[C@@H]2[C@@H](Oc3cc(O)c4c(c3)O[C@H](c3ccc(O)cc3)CC4=O)O[C@@H](CO)[C@H](O)[C@H]2O)[C@H](O)[C@H](O)[C@H]1O
REMARK SMILES IDX 6 1 34 2 32 3 29 4 28 5 7 6 5 7 4 8 1 9 2 10 40 11 3 12
REMARK SMILES IDX 38 13 36 14 41 15 39 17 37 19 35 21 8 23 9 24 10 25 15 26
REMARK SMILES IDX 11 27 14 28 13 29 16 30 26 31 17 32 27 33 25 34 12 35 18 37
REMARK SMILES IDX 19 38 24 39 20 40 23 41 21 42 22 43 33 45 30 47 31 48
REMARK H PARENT 41 16 39 18 37 20 35 22 12 36 22 44 33 46 31 49
REMARK Flexibility Score: inf
ROOT
ATOM      1  C   UNL     1      -9.496  25.419  -7.417  1.00  0.00     0.221 C 
ATOM      2  C   UNL     1     -10.121  26.113  -6.184  1.00  0.00     0.181 C 
ATOM      3  C   UNL     1      -9.960  25.195  -4.960  1.00  0.00     0.177 C 
ATOM      4  C   UNL     1     -10.480  23.770  -5.289  1.00  0.00     0.179 C 
ATOM      5  O   UNL     1      -9.787  23.224  -6.402  1.00  0.00    -0.332 OA
ATOM      6  C   UNL     1     -10.050  23.979  -7.574  1.00  0.00     0.339 C 
ENDROOT
BRANCH   1   7
ATOM      7  O   UNL     1      -9.558  26.210  -8.597  1.00  0.00    -0.337 OA
BRANCH   7   8
ATOM      8  C   UNL     1      -8.744  27.381  -8.575  1.00  0.00     0.282 C 
ATOM      9  C   UNL     1     -10.160  29.125 -11.492  1.00  0.00     0.041 C 
ATOM     10  C   UNL     1      -9.462  27.995 -10.731  1.00  0.00     0.150 C 
ATOM     11  C   UNL     1      -8.095  27.679 -11.383  1.00  0.00     0.174 C 
ATOM     12  O   UNL     1      -9.312  28.405  -9.380  1.00  0.00    -0.344 OA
ATOM     13  C   UNL     1      -7.337  26.635 -10.549  1.00  0.00     0.179 C 
ATOM     14  C   UNL     1      -7.321  27.027  -9.058  1.00  0.00     0.202 C 
BRANCH  11  15
ATOM     15  O   UNL     1      -8.303  27.181 -12.681  1.00  0.00    -0.388 OA
ATOM     16  H   UNL     1      -8.792  27.888 -13.181  1.00  0.00     0.211 HD
ENDBRANCH  11  15
BRANCH  13  17
ATOM     17  O   UNL     1      -6.027  26.503 -11.035  1.00  0.00    -0.387 OA
ATOM     18  H   UNL     1      -6.078  25.905 -11.827  1.00  0.00     0.211 HD
ENDBRANCH  13  17
BRANCH  14  19
ATOM     19  O   UNL     1      -6.413  28.075  -8.814  1.00  0.00    -0.385 OA
ATOM     20  H   UNL     1      -5.839  27.818  -8.050  1.00  0.00     0.211 HD
ENDBRANCH  14  19
ENDBRANCH   7   8
ENDBRANCH   1   7
BRANCH   2  21
ATOM     21  O   UNL     1      -9.477  27.335  -5.932  1.00  0.00    -0.387 OA
ATOM     22  H   UNL     1      -8.880  27.192  -5.152  1.00  0.00     0.211 HD
ENDBRANCH   2  21
BRANCH   6  23
ATOM     23  O   UNL     1      -9.479  23.334  -8.716  1.00  0.00    -0.462 OA
BRANCH  23  24
ATOM     24  C   UNL     1      -8.306  22.573  -8.690  1.00  0.00     0.130 A 
ATOM     25  C   UNL     1      -8.362  21.236  -9.094  1.00  0.00     0.093 A 
ATOM     26  C   UNL     1      -7.078  23.132  -8.310  1.00  0.00     0.094 A 
ATOM     27  C   UNL     1      -7.203  20.449  -9.119  1.00  0.00     0.133 A 
ATOM     28  C   UNL     1      -5.915  22.358  -8.329  1.00  0.00     0.138 A 
ATOM     29  C   UNL     1      -5.968  21.013  -8.742  1.00  0.00     0.102 A 
ATOM     30  O   UNL     1      -4.694  22.939  -7.965  1.00  0.00    -0.484 OA
ATOM     31  C   UNL     1      -4.690  20.267  -8.833  1.00  0.00     0.174 C 
ATOM     32  C   UNL     1      -3.503  22.170  -7.756  1.00  0.00     0.211 C 
ATOM     33  O   UNL     1      -4.669  19.018  -9.002  1.00  0.00    -0.294 OA
ATOM     34  C   UNL     1      -3.401  21.030  -8.783  1.00  0.00     0.131 C 
BRANCH  27  35
ATOM     35  O   UNL     1      -7.279  19.118  -9.534  1.00  0.00    -0.507 OA
ATOM     36  H   UNL     1      -8.151  18.705  -9.835  1.00  0.00     0.293 HD
ENDBRANCH  27  35
BRANCH  32  37
ATOM     37  C   UNL     1      -2.279  23.049  -7.829  1.00  0.00    -0.007 A 
ATOM     38  C   UNL     1      -1.865  23.568  -9.068  1.00  0.00     0.011 A 
ATOM     39  C   UNL     1      -1.595  23.436  -6.658  1.00  0.00     0.011 A 
ATOM     40  C   UNL     1      -0.771  24.435  -9.144  1.00  0.00     0.046 A 
ATOM     41  C   UNL     1      -0.497  24.296  -6.736  1.00  0.00     0.046 A 
ATOM     42  C   UNL     1      -0.079  24.796  -7.977  1.00  0.00     0.115 A 
BRANCH  42  43
ATOM     43  O   UNL     1       1.020  25.650  -8.039  1.00  0.00    -0.508 OA
ATOM     44  H   UNL     1       0.966  26.612  -7.716  1.00  0.00     0.293 HD
ENDBRANCH  42  43
ENDBRANCH  32  37
ENDBRANCH  23  24
ENDBRANCH   6  23
BRANCH   3  45
ATOM     45  O   UNL     1     -10.671  25.725  -3.875  1.00  0.00    -0.387 OA
ATOM     46  H   UNL     1     -10.576  25.080  -3.125  1.00  0.00     0.211 HD
ENDBRANCH   3  45
BRANCH   4  47
ATOM     47  C   UNL     1     -10.301  22.824  -4.095  1.00  0.00     0.191 C 
BRANCH  47  48
ATOM     48  O   UNL     1     -11.433  22.006  -3.946  1.00  0.00    -0.394 OA
ATOM     49  H   UNL     1     -11.915  22.044  -4.813  1.00  0.00     0.210 HD
ENDBRANCH  47  48
ENDBRANCH   4  47
TORSDOF 14
ENDMDL
MODEL 7
REMARK VINA RESULT:    -4.669      1.968      4.564
REMARK INTER + INTRA:          -9.466
REMARK INTER:                  -8.574
REMARK INTRA:                  -0.892
REMARK UNBOUND:                -2.068
REMARK SMILES C[C@@H]1O[C@@H](O[C@@H]2[C@@H](Oc3cc(O)c4c(c3)O[C@H](c3ccc(O)cc3)CC4=O)O[C@@H](CO)[C@H](O)[C@H]2O)[C@H](O)[C@H](O)[C@H]1O
REMARK SMILES IDX 6 1 34 2 32 3 29 4 28 5 7 6 5 7 4 8 1 9 2 10 40 11 3 12
REMARK SMILES IDX 38 13 36 14 41 15 39 17 37 19 35 21 8 23 9 24 10 25 15 26
REMARK SMILES IDX 11 27 14 28 13 29 16 30 26 31 17 32 27 33 25 34 12 35 18 37
REMARK SMILES IDX 19 38 24 39 20 40 23 41 21 42 22 43 33 45 30 47 31 48
REMARK H PARENT 41 16 39 18 37 20 35 22 12 36 22 44 33 46 31 49
REMARK Flexibility Score: inf
ROOT
ATOM      1  C   UNL     1      -7.510  25.253  -9.440  1.00  0.00     0.221 C 
ATOM      2  C   UNL     1      -8.503  25.723 -10.529  1.00  0.00     0.181 C 
ATOM      3  C   UNL     1      -7.836  26.825 -11.371  1.00  0.00     0.177 C 
ATOM      4  C   UNL     1      -7.255  27.926 -10.444  1.00  0.00     0.179 C 
ATOM      5  O   UNL     1      -6.316  27.374  -9.531  1.00  0.00    -0.332 OA
ATOM      6  C   UNL     1      -6.953  26.465  -8.648  1.00  0.00     0.339 C 
ENDROOT
BRANCH   1   7
ATOM      7  O   UNL     1      -8.020  24.201  -8.632  1.00  0.00    -0.337 OA
BRANCH   7   8
ATOM      8  C   UNL     1      -7.678  22.888  -9.072  1.00  0.00     0.282 C 
ATOM      9  C   UNL     1     -11.063  21.581  -9.688  1.00  0.00     0.041 C 
ATOM     10  C   UNL     1      -9.910  22.171  -8.873  1.00  0.00     0.150 C 
ATOM     11  C   UNL     1      -9.618  21.280  -7.642  1.00  0.00     0.174 C 
ATOM     12  O   UNL     1      -8.778  22.271  -9.723  1.00  0.00    -0.344 OA
ATOM     13  C   UNL     1      -8.381  21.799  -6.892  1.00  0.00     0.179 C 
ATOM     14  C   UNL     1      -7.211  22.047  -7.864  1.00  0.00     0.202 C 
BRANCH  11  15
ATOM     15  O   UNL     1     -10.729  21.296  -6.781  1.00  0.00    -0.388 OA
ATOM     16  H   UNL     1     -10.654  22.125  -6.236  1.00  0.00     0.211 HD
ENDBRANCH  11  15
BRANCH  13  17
ATOM     17  O   UNL     1      -8.009  20.878  -5.901  1.00  0.00    -0.387 OA
ATOM     18  H   UNL     1      -7.023  20.777  -5.965  1.00  0.00     0.211 HD
ENDBRANCH  13  17
BRANCH  14  19
ATOM     19  O   UNL     1      -6.619  20.837  -8.272  1.00  0.00    -0.385 OA
ATOM     20  H   UNL     1      -5.724  20.771  -7.854  1.00  0.00     0.211 HD
ENDBRANCH  14  19
ENDBRANCH   7   8
ENDBRANCH   1   7
BRANCH   2  21
ATOM     21  O   UNL     1      -8.853  24.651 -11.366  1.00  0.00    -0.387 OA
ATOM     22  H   UNL     1      -9.843  24.583 -11.351  1.00  0.00     0.211 HD
ENDBRANCH   2  21
BRANCH   6  23
ATOM     23  O   UNL     1      -6.038  26.036  -7.636  1.00  0.00    -0.462 OA
BRANCH  23  24
ATOM     24  C   UNL     1      -4.654  26.241  -7.682  1.00  0.00     0.130 A 
ATOM     25  C   UNL     1      -3.891  25.938  -6.550  1.00  0.00     0.093 A 
ATOM     26  C   UNL     1      -4.020  26.703  -8.843  1.00  0.00     0.094 A 
ATOM     27  C   UNL     1      -2.499  26.093  -6.567  1.00  0.00     0.133 A 
ATOM     28  C   UNL     1      -2.633  26.864  -8.872  1.00  0.00     0.138 A 
ATOM     29  C   UNL     1      -1.861  26.552  -7.737  1.00  0.00     0.102 A 
ATOM     30  O   UNL     1      -2.014  27.307 -10.048  1.00  0.00    -0.484 OA
ATOM     31  C   UNL     1      -0.387  26.652  -7.854  1.00  0.00     0.174 C 
ATOM     32  C   UNL     1      -0.636  27.696 -10.098  1.00  0.00     0.211 C 
ATOM     33  O   UNL     1       0.359  26.582  -6.840  1.00  0.00    -0.294 OA
ATOM     34  C   UNL     1       0.225  26.776  -9.217  1.00  0.00     0.131 C 
BRANCH  27  35
ATOM     35  O   UNL     1      -1.754  25.776  -5.430  1.00  0.00    -0.507 OA
ATOM     36  H   UNL     1      -2.144  25.855  -4.501  1.00  0.00     0.293 HD
ENDBRANCH  27  35
BRANCH  32  37
ATOM     37  C   UNL     1      -0.127  27.683 -11.519  1.00  0.00    -0.007 A 
ATOM     38  C   UNL     1       0.332  26.481 -12.084  1.00  0.00     0.011 A 
ATOM     39  C   UNL     1      -0.192  28.841 -12.322  1.00  0.00     0.011 A 
ATOM     40  C   UNL     1       0.747  26.439 -13.419  1.00  0.00     0.046 A 
ATOM     41  C   UNL     1       0.230  28.799 -13.652  1.00  0.00     0.046 A 
ATOM     42  C   UNL     1       0.703  27.601 -14.205  1.00  0.00     0.115 A 
BRANCH  42  43
ATOM     43  O   UNL     1       1.125  27.576 -15.532  1.00  0.00    -0.508 OA
ATOM     44  H   UNL     1       1.794  28.251 -15.892  1.00  0.00     0.293 HD
ENDBRANCH  42  43
ENDBRANCH  32  37
ENDBRANCH  23  24
ENDBRANCH   6  23
BRANCH   3  45
ATOM     45  O   UNL     1      -8.776  27.384 -12.246  1.00  0.00    -0.387 OA
ATOM     46  H   UNL     1      -8.788  26.814 -13.060  1.00  0.00     0.211 HD
ENDBRANCH   3  45
BRANCH   4  47
ATOM     47  C   UNL     1      -6.554  29.023 -11.256  1.00  0.00     0.191 C 
BRANCH  47  48
ATOM     48  O   UNL     1      -6.148  28.522 -12.504  1.00  0.00    -0.394 OA
ATOM     49  H   UNL     1      -6.209  27.534 -12.437  1.00  0.00     0.210 HD
ENDBRANCH  47  48
ENDBRANCH   4  47
TORSDOF 14
ENDMDL
MODEL 8
REMARK VINA RESULT:    -4.543      3.069      5.799
REMARK INTER + INTRA:          -9.267
REMARK INTER:                  -7.380
REMARK INTRA:                  -1.887
REMARK UNBOUND:                -2.068
REMARK SMILES C[C@@H]1O[C@@H](O[C@@H]2[C@@H](Oc3cc(O)c4c(c3)O[C@H](c3ccc(O)cc3)CC4=O)O[C@@H](CO)[C@H](O)[C@H]2O)[C@H](O)[C@H](O)[C@H]1O
REMARK SMILES IDX 6 1 34 2 32 3 29 4 28 5 7 6 5 7 4 8 1 9 2 10 40 11 3 12
REMARK SMILES IDX 38 13 36 14 41 15 39 17 37 19 35 21 8 23 9 24 10 25 15 26
REMARK SMILES IDX 11 27 14 28 13 29 16 30 26 31 17 32 27 33 25 34 12 35 18 37
REMARK SMILES IDX 19 38 24 39 20 40 23 41 21 42 22 43 33 45 30 47 31 48
REMARK H PARENT 41 16 39 18 37 20 35 22 12 36 22 44 33 46 31 49
REMARK Flexibility Score: inf
ROOT
ATOM      1  C   UNL     1      -7.382  22.318  -7.487  1.00  0.00     0.221 C 
ATOM      2  C   UNL     1      -8.664  22.149  -6.638  1.00  0.00     0.181 C 
ATOM      3  C   UNL     1      -9.771  21.548  -7.522  1.00  0.00     0.177 C 
ATOM      4  C   UNL     1      -9.913  22.369  -8.832  1.00  0.00     0.179 C 
ATOM      5  O   UNL     1      -8.683  22.399  -9.544  1.00  0.00    -0.332 OA
ATOM      6  C   UNL     1      -7.691  23.086  -8.798  1.00  0.00     0.339 C 
ENDROOT
BRANCH   1   7
ATOM      7  O   UNL     1      -6.282  22.831  -6.746  1.00  0.00    -0.337 OA
BRANCH   7   8
ATOM      8  C   UNL     1      -5.521  21.847  -6.048  1.00  0.00     0.282 C 
ATOM      9  C   UNL     1      -2.645  23.926  -5.067  1.00  0.00     0.041 C 
ATOM     10  C   UNL     1      -3.625  23.241  -6.023  1.00  0.00     0.150 C 
ATOM     11  C   UNL     1      -2.852  22.374  -7.045  1.00  0.00     0.174 C 
ATOM     12  O   UNL     1      -4.519  22.458  -5.247  1.00  0.00    -0.344 OA
ATOM     13  C   UNL     1      -3.835  21.586  -7.925  1.00  0.00     0.179 C 
ATOM     14  C   UNL     1      -4.893  20.868  -7.063  1.00  0.00     0.202 C 
BRANCH  11  15
ATOM     15  O   UNL     1      -2.060  23.205  -7.856  1.00  0.00    -0.388 OA
ATOM     16  H   UNL     1      -1.897  22.706  -8.701  1.00  0.00     0.211 HD
ENDBRANCH  11  15
BRANCH  13  17
ATOM     17  O   UNL     1      -3.130  20.660  -8.709  1.00  0.00    -0.387 OA
ATOM     18  H   UNL     1      -3.353  19.761  -8.353  1.00  0.00     0.211 HD
ENDBRANCH  13  17
BRANCH  14  19
ATOM     19  O   UNL     1      -4.350  19.736  -6.426  1.00  0.00    -0.385 OA
ATOM     20  H   UNL     1      -5.023  19.010  -6.454  1.00  0.00     0.211 HD
ENDBRANCH  14  19
ENDBRANCH   7   8
ENDBRANCH   1   7
BRANCH   2  21
ATOM     21  O   UNL     1      -8.422  21.289  -5.555  1.00  0.00    -0.387 OA
ATOM     22  H   UNL     1      -8.687  20.377  -5.843  1.00  0.00     0.211 HD
ENDBRANCH   2  21
BRANCH   6  23
ATOM     23  O   UNL     1      -6.508  23.251  -9.585  1.00  0.00    -0.462 OA
BRANCH  23  24
ATOM     24  C   UNL     1      -5.847  24.470  -9.773  1.00  0.00     0.130 A 
ATOM     25  C   UNL     1      -6.392  25.401 -10.662  1.00  0.00     0.093 A 
ATOM     26  C   UNL     1      -4.680  24.787  -9.065  1.00  0.00     0.094 A 
ATOM     27  C   UNL     1      -5.782  26.648 -10.851  1.00  0.00     0.133 A 
ATOM     28  C   UNL     1      -4.060  26.026  -9.246  1.00  0.00     0.138 A 
ATOM     29  C   UNL     1      -4.612  26.969 -10.134  1.00  0.00     0.102 A 
ATOM     30  O   UNL     1      -2.906  26.334  -8.515  1.00  0.00    -0.484 OA
ATOM     31  C   UNL     1      -3.967  28.301 -10.217  1.00  0.00     0.174 C 
ATOM     32  C   UNL     1      -2.098  27.484  -8.792  1.00  0.00     0.211 C 
ATOM     33  O   UNL     1      -4.274  29.125 -11.120  1.00  0.00    -0.294 OA
ATOM     34  C   UNL     1      -2.974  28.692  -9.163  1.00  0.00     0.131 C 
BRANCH  27  35
ATOM     35  O   UNL     1      -6.347  27.568 -11.736  1.00  0.00    -0.507 OA
ATOM     36  H   UNL     1      -6.891  27.271 -12.534  1.00  0.00     0.293 HD
ENDBRANCH  27  35
BRANCH  32  37
ATOM     37  C   UNL     1      -1.221  27.819  -7.611  1.00  0.00    -0.007 A 
ATOM     38  C   UNL     1      -0.182  28.756  -7.757  1.00  0.00     0.011 A 
ATOM     39  C   UNL     1      -1.485  27.278  -6.336  1.00  0.00     0.011 A 
ATOM     40  C   UNL     1       0.599  29.125  -6.658  1.00  0.00     0.046 A 
ATOM     41  C   UNL     1      -0.698  27.642  -5.240  1.00  0.00     0.046 A 
ATOM     42  C   UNL     1       0.347  28.563  -5.397  1.00  0.00     0.115 A 
BRANCH  42  43
ATOM     43  O   UNL     1       1.125  28.912  -4.296  1.00  0.00    -0.508 OA
ATOM     44  H   UNL     1       1.281  29.883  -4.039  1.00  0.00     0.293 HD
ENDBRANCH  42  43
ENDBRANCH  32  37
ENDBRANCH  23  24
ENDBRANCH   6  23
BRANCH   3  45
ATOM     45  O   UNL     1     -10.985  21.549  -6.823  1.00  0.00    -0.387 OA
ATOM     46  H   UNL     1     -11.322  20.614  -6.828  1.00  0.00     0.211 HD
ENDBRANCH   3  45
BRANCH   4  47
ATOM     47  C   UNL     1     -10.989  21.772  -9.748  1.00  0.00     0.191 C 
BRANCH  47  48
ATOM     48  O   UNL     1     -10.463  21.536 -11.028  1.00  0.00    -0.394 OA
ATOM     49  H   UNL     1      -9.591  21.083 -10.889  1.00  0.00     0.210 HD
ENDBRANCH  47  48
ENDBRANCH   4  47
TORSDOF 14
ENDMDL
MODEL 9
REMARK VINA RESULT:    -4.470      2.114      4.828
REMARK INTER + INTRA:          -9.151
REMARK INTER:                  -8.304
REMARK INTRA:                  -0.847
REMARK UNBOUND:                -2.068
REMARK SMILES C[C@@H]1O[C@@H](O[C@@H]2[C@@H](Oc3cc(O)c4c(c3)O[C@H](c3ccc(O)cc3)CC4=O)O[C@@H](CO)[C@H](O)[C@H]2O)[C@H](O)[C@H](O)[C@H]1O
REMARK SMILES IDX 6 1 34 2 32 3 29 4 28 5 7 6 5 7 4 8 1 9 2 10 40 11 3 12
REMARK SMILES IDX 38 13 36 14 41 15 39 17 37 19 35 21 8 23 9 24 10 25 15 26
REMARK SMILES IDX 11 27 14 28 13 29 16 30 26 31 17 32 27 33 25 34 12 35 18 37
REMARK SMILES IDX 19 38 24 39 20 40 23 41 21 42 22 43 33 45 30 47 31 48
REMARK H PARENT 41 16 39 18 37 20 35 22 12 36 22 44 33 46 31 49
REMARK Flexibility Score: inf
ROOT
ATOM      1  C   UNL     1      -8.216  25.642  -9.166  1.00  0.00     0.221 C 
ATOM      2  C   UNL     1      -8.868  25.826 -10.556  1.00  0.00     0.181 C 
ATOM      3  C   UNL     1      -8.032  26.827 -11.371  1.00  0.00     0.177 C 
ATOM      4  C   UNL     1      -7.791  28.118 -10.544  1.00  0.00     0.179 C 
ATOM      5  O   UNL     1      -7.136  27.819  -9.319  1.00  0.00    -0.332 OA
ATOM      6  C   UNL     1      -7.964  27.016  -8.493  1.00  0.00     0.339 C 
ENDROOT
BRANCH   1   7
ATOM      7  O   UNL     1      -8.895  24.698  -8.348  1.00  0.00    -0.337 OA
BRANCH   7   8
ATOM      8  C   UNL     1      -8.053  23.944  -7.479  1.00  0.00     0.282 C 
ATOM      9  C   UNL     1      -6.526  21.693  -9.959  1.00  0.00     0.041 C 
ATOM     10  C   UNL     1      -7.655  22.339  -9.154  1.00  0.00     0.150 C 
ATOM     11  C   UNL     1      -8.496  21.249  -8.447  1.00  0.00     0.174 C 
ATOM     12  O   UNL     1      -7.071  23.233  -8.219  1.00  0.00    -0.344 OA
ATOM     13  C   UNL     1      -9.551  21.898  -7.538  1.00  0.00     0.179 C 
ATOM     14  C   UNL     1      -8.915  22.977  -6.639  1.00  0.00     0.202 C 
BRANCH  11  15
ATOM     15  O   UNL     1      -9.135  20.455  -9.414  1.00  0.00    -0.388 OA
ATOM     16  H   UNL     1      -8.863  19.515  -9.234  1.00  0.00     0.211 HD
ENDBRANCH  11  15
BRANCH  13  17
ATOM     17  O   UNL     1     -10.172  20.911  -6.756  1.00  0.00    -0.387 OA
ATOM     18  H   UNL     1     -11.054  21.279  -6.486  1.00  0.00     0.211 HD
ENDBRANCH  13  17
BRANCH  14  19
ATOM     19  O   UNL     1      -8.176  22.398  -5.590  1.00  0.00    -0.385 OA
ATOM     20  H   UNL     1      -8.201  23.013  -4.814  1.00  0.00     0.211 HD
ENDBRANCH  14  19
ENDBRANCH   7   8
ENDBRANCH   1   7
BRANCH   2  21
ATOM     21  O   UNL     1      -8.915  24.600 -11.240  1.00  0.00    -0.387 OA
ATOM     22  H   UNL     1      -9.149  23.905 -10.571  1.00  0.00     0.211 HD
ENDBRANCH   2  21
BRANCH   6  23
ATOM     23  O   UNL     1      -7.365  26.852  -7.205  1.00  0.00    -0.462 OA
BRANCH  23  24
ATOM     24  C   UNL     1      -6.043  26.448  -6.992  1.00  0.00     0.130 A 
ATOM     25  C   UNL     1      -5.664  26.030  -5.713  1.00  0.00     0.093 A 
ATOM     26  C   UNL     1      -5.109  26.417  -8.037  1.00  0.00     0.094 A 
ATOM     27  C   UNL     1      -4.360  25.583  -5.466  1.00  0.00     0.133 A 
ATOM     28  C   UNL     1      -3.805  25.974  -7.804  1.00  0.00     0.138 A 
ATOM     29  C   UNL     1      -3.423  25.546  -6.518  1.00  0.00     0.102 A 
ATOM     30  O   UNL     1      -2.891  25.931  -8.864  1.00  0.00    -0.484 OA
ATOM     31  C   UNL     1      -2.056  24.998  -6.349  1.00  0.00     0.174 C 
ATOM     32  C   UNL     1      -1.491  25.693  -8.670  1.00  0.00     0.211 C 
ATOM     33  O   UNL     1      -1.573  24.778  -5.206  1.00  0.00    -0.294 OA
ATOM     34  C   UNL     1      -1.261  24.643  -7.570  1.00  0.00     0.131 C 
BRANCH  27  35
ATOM     35  O   UNL     1      -4.004  25.161  -4.183  1.00  0.00    -0.507 OA
ATOM     36  H   UNL     1      -3.910  25.813  -3.417  1.00  0.00     0.293 HD
ENDBRANCH  27  35
BRANCH  32  37
ATOM     37  C   UNL     1      -0.840  25.250  -9.958  1.00  0.00    -0.007 A 
ATOM     38  C   UNL     1      -0.791  23.883 -10.280  1.00  0.00     0.011 A 
ATOM     39  C   UNL     1      -0.363  26.194 -10.890  1.00  0.00     0.011 A 
ATOM     40  C   UNL     1      -0.248  23.460 -11.498  1.00  0.00     0.046 A 
ATOM     41  C   UNL     1       0.187  25.770 -12.102  1.00  0.00     0.046 A 
ATOM     42  C   UNL     1       0.248  24.404 -12.410  1.00  0.00     0.115 A 
BRANCH  42  43
ATOM     43  O   UNL     1       0.802  23.998 -13.621  1.00  0.00    -0.508 OA
ATOM     44  H   UNL     1       0.833  24.616 -14.427  1.00  0.00     0.293 HD
ENDBRANCH  42  43
ENDBRANCH  32  37
ENDBRANCH  23  24
ENDBRANCH   6  23
BRANCH   3  45
ATOM     45  O   UNL     1      -8.699  27.141 -12.563  1.00  0.00    -0.387 OA
ATOM     46  H   UNL     1      -8.051  26.997 -13.303  1.00  0.00     0.211 HD
ENDBRANCH   3  45
BRANCH   4  47
ATOM     47  C   UNL     1      -6.930  29.123 -11.321  1.00  0.00     0.191 C 
BRANCH  47  48
ATOM     48  O   UNL     1      -5.993  28.448 -12.119  1.00  0.00    -0.394 OA
ATOM     49  H   UNL     1      -5.986  28.918 -12.993  1.00  0.00     0.210 HD
ENDBRANCH  47  48
ENDBRANCH   4  47
TORSDOF 14
ENDMDL
