MODEL 1
REMARK VINA RESULT:    -5.660      0.000      0.000
REMARK INTER + INTRA:         -12.986
REMARK INTER:                 -10.955
REMARK INTRA:                  -2.031
REMARK UNBOUND:                -2.031
REMARK SMILES CCCCCCCCCCCCCCCCCC(=O)[O-]
REMARK SMILES IDX 10 1 11 2 12 3 13 4 14 5 15 6 16 7 17 8 18 9 19 10 20 11
REMARK SMILES IDX 9 12 8 13 7 14 6 15 5 16 4 17 3 18 2 19 1 20
REMARK H PARENT
REMARK Flexibility Score: inf
ROOT
ATOM      1  C   UNL     1       9.662   3.840  54.547  1.00  0.00     0.000 C 
ENDROOT
BRANCH   1   2
ATOM      2  C   UNL     1       9.479   4.215  56.027  1.00  0.00     0.000 C 
BRANCH   2   3
ATOM      3  C   UNL     1       9.514   5.735  56.257  1.00  0.00     0.000 C 
BRANCH   3   4
ATOM      4  C   UNL     1       9.378   6.530  54.947  1.00  0.00     0.000 C 
BRANCH   4   5
ATOM      5  C   UNL     1      10.428   7.645  54.820  1.00  0.00     0.000 C 
BRANCH   5   6
ATOM      6  C   UNL     1      11.194   7.591  53.487  1.00  0.00     0.000 C 
BRANCH   6   7
ATOM      7  C   UNL     1      10.259   7.619  52.267  1.00  0.00     0.006 C 
BRANCH   7   8
ATOM      8  C   UNL     1       9.707   9.024  51.983  1.00  0.00     0.053 C 
BRANCH   8   9
ATOM      9  C   UNL     1       8.214   9.027  52.084  1.00  0.00     0.041 C 
ATOM     10  O   UNL     1       7.509   9.085  51.042  1.00  0.00    -0.550 OA
ATOM     11  O   UNL     1       7.601   9.010  53.330  1.00  0.00    -0.550 OA
ENDBRANCH   8   9
ENDBRANCH   7   8
ENDBRANCH   6   7
ENDBRANCH   5   6
ENDBRANCH   4   5
ENDBRANCH   3   4
ENDBRANCH   2   3
ENDBRANCH   1   2
BRANCH   1  12
ATOM     12  C   UNL     1      10.998   3.128  54.270  1.00  0.00     0.000 C 
BRANCH  12  13
ATOM     13  C   UNL     1      12.073   4.050  53.657  1.00  0.00    -0.000 C 
BRANCH  13  14
ATOM     14  C   UNL     1      13.066   4.560  54.715  1.00  0.00    -0.000 C 
BRANCH  14  15
ATOM     15  C   UNL     1      12.983   3.774  56.034  1.00  0.00    -0.000 C 
BRANCH  15  16
ATOM     16  C   UNL     1      14.167   2.813  56.218  1.00  0.00    -0.000 C 
BRANCH  16  17
ATOM     17  C   UNL     1      15.430   3.358  55.537  1.00  0.00    -0.000 C 
BRANCH  17  18
ATOM     18  C   UNL     1      16.587   2.344  55.522  1.00  0.00    -0.000 C 
BRANCH  18  19
ATOM     19  C   UNL     1      16.179   0.933  55.997  1.00  0.00    -0.003 C 
ATOM     20  C   UNL     1      17.043   0.437  57.156  1.00  0.00     0.004 C 
ENDBRANCH  18  19
ENDBRANCH  17  18
ENDBRANCH  16  17
ENDBRANCH  15  16
ENDBRANCH  14  15
ENDBRANCH  13  14
ENDBRANCH  12  13
ENDBRANCH   1  12
TORSDOF 16
ENDMDL
MODEL 2
REMARK VINA RESULT:    -5.554      4.508      8.642
REMARK INTER + INTRA:         -12.780
REMARK INTER:                 -11.033
REMARK INTRA:                  -1.747
REMARK UNBOUND:                -2.031
REMARK SMILES CCCCCCCCCCCCCCCCCC(=O)[O-]
REMARK SMILES IDX 10 1 11 2 12 3 13 4 14 5 15 6 16 7 17 8 18 9 19 10 20 11
REMARK SMILES IDX 9 12 8 13 7 14 6 15 5 16 4 17 3 18 2 19 1 20
REMARK H PARENT
REMARK Flexibility Score: inf
ROOT
ATOM      1  C   UNL     1      12.419   4.761  53.346  1.00  0.00     0.000 C 
ENDROOT
BRANCH   1   2
ATOM      2  C   UNL     1      11.404   3.697  53.793  1.00  0.00     0.000 C 
BRANCH   2   3
ATOM      3  C   UNL     1      11.488   3.399  55.299  1.00  0.00     0.000 C 
BRANCH   3   4
ATOM      4  C   UNL     1      12.594   4.211  55.996  1.00  0.00     0.000 C 
BRANCH   4   5
ATOM      5  C   UNL     1      13.787   3.342  56.423  1.00  0.00     0.000 C 
BRANCH   5   6
ATOM      6  C   UNL     1      15.053   3.621  55.594  1.00  0.00     0.000 C 
BRANCH   6   7
ATOM      7  C   UNL     1      16.015   2.422  55.564  1.00  0.00     0.006 C 
BRANCH   7   8
ATOM      8  C   UNL     1      15.548   1.272  56.468  1.00  0.00     0.053 C 
BRANCH   8   9
ATOM      9  C   UNL     1      16.583   0.192  56.513  1.00  0.00     0.041 C 
ATOM     10  O   UNL     1      16.559  -0.744  55.671  1.00  0.00    -0.550 OA
ATOM     11  O   UNL     1      17.547   0.195  57.513  1.00  0.00    -0.550 OA
ENDBRANCH   8   9
ENDBRANCH   7   8
ENDBRANCH   6   7
ENDBRANCH   5   6
ENDBRANCH   4   5
ENDBRANCH   3   4
ENDBRANCH   2   3
ENDBRANCH   1   2
BRANCH   1  12
ATOM     12  C   UNL     1      11.759   5.958  52.638  1.00  0.00     0.000 C 
BRANCH  12  13
ATOM     13  C   UNL     1      11.856   7.277  53.434  1.00  0.00    -0.000 C 
BRANCH  13  14
ATOM     14  C   UNL     1      11.182   7.169  54.812  1.00  0.00    -0.000 C 
BRANCH  14  15
ATOM     15  C   UNL     1       9.649   7.094  54.719  1.00  0.00    -0.000 C 
BRANCH  15  16
ATOM     16  C   UNL     1       8.969   8.371  55.233  1.00  0.00    -0.000 C 
BRANCH  16  17
ATOM     17  C   UNL     1       8.425   9.213  54.070  1.00  0.00    -0.000 C 
BRANCH  17  18
ATOM     18  C   UNL     1       7.662   8.374  53.030  1.00  0.00    -0.000 C 
BRANCH  18  19
ATOM     19  C   UNL     1       7.913   8.818  51.573  1.00  0.00    -0.003 C 
ATOM     20  C   UNL     1       9.300   8.413  51.072  1.00  0.00     0.004 C 
ENDBRANCH  18  19
ENDBRANCH  17  18
ENDBRANCH  16  17
ENDBRANCH  15  16
ENDBRANCH  14  15
ENDBRANCH  13  14
ENDBRANCH  12  13
ENDBRANCH   1  12
TORSDOF 16
ENDMDL
MODEL 3
REMARK VINA RESULT:    -5.501      1.407      2.444
REMARK INTER + INTRA:         -12.678
REMARK INTER:                 -10.906
REMARK INTRA:                  -1.772
REMARK UNBOUND:                -2.031
REMARK SMILES CCCCCCCCCCCCCCCCCC(=O)[O-]
REMARK SMILES IDX 10 1 11 2 12 3 13 4 14 5 15 6 16 7 17 8 18 9 19 10 20 11
REMARK SMILES IDX 9 12 8 13 7 14 6 15 5 16 4 17 3 18 2 19 1 20
REMARK H PARENT
REMARK Flexibility Score: inf
ROOT
ATOM      1  C   UNL     1      11.626   3.776  53.750  1.00  0.00     0.000 C 
ENDROOT
BRANCH   1   2
ATOM      2  C   UNL     1      12.487   5.027  53.511  1.00  0.00     0.000 C 
BRANCH   2   3
ATOM      3  C   UNL     1      11.737   6.116  52.727  1.00  0.00     0.000 C 
BRANCH   3   4
ATOM      4  C   UNL     1      11.901   7.510  53.358  1.00  0.00     0.000 C 
BRANCH   4   5
ATOM      5  C   UNL     1      11.556   7.526  54.856  1.00  0.00     0.000 C 
BRANCH   5   6
ATOM      6  C   UNL     1      11.285   8.944  55.389  1.00  0.00     0.000 C 
BRANCH   6   7
ATOM      7  C   UNL     1       9.788   9.215  55.607  1.00  0.00     0.006 C 
BRANCH   7   8
ATOM      8  C   UNL     1       8.914   7.998  55.268  1.00  0.00     0.053 C 
BRANCH   8   9
ATOM      9  C   UNL     1       8.097   8.269  54.044  1.00  0.00     0.041 C 
ATOM     10  O   UNL     1       7.119   9.061  54.098  1.00  0.00    -0.550 OA
ATOM     11  O   UNL     1       8.387   7.612  52.855  1.00  0.00    -0.550 OA
ENDBRANCH   8   9
ENDBRANCH   7   8
ENDBRANCH   6   7
ENDBRANCH   5   6
ENDBRANCH   4   5
ENDBRANCH   3   4
ENDBRANCH   2   3
ENDBRANCH   1   2
BRANCH   1  12
ATOM     12  C   UNL     1      10.362   4.067  54.579  1.00  0.00     0.000 C 
BRANCH  12  13
ATOM     13  C   UNL     1      10.641   4.254  56.085  1.00  0.00    -0.000 C 
BRANCH  13  14
ATOM     14  C   UNL     1      11.558   3.152  56.642  1.00  0.00    -0.000 C 
BRANCH  14  15
ATOM     15  C   UNL     1      12.954   3.677  57.018  1.00  0.00    -0.000 C 
BRANCH  15  16
ATOM     16  C   UNL     1      14.068   2.681  56.661  1.00  0.00    -0.000 C 
BRANCH  16  17
ATOM     17  C   UNL     1      15.125   3.337  55.761  1.00  0.00    -0.000 C 
BRANCH  17  18
ATOM     18  C   UNL     1      16.166   2.335  55.234  1.00  0.00    -0.000 C 
BRANCH  18  19
ATOM     19  C   UNL     1      16.666   1.341  56.304  1.00  0.00    -0.003 C 
ATOM     20  C   UNL     1      16.493  -0.115  55.872  1.00  0.00     0.004 C 
ENDBRANCH  18  19
ENDBRANCH  17  18
ENDBRANCH  16  17
ENDBRANCH  15  16
ENDBRANCH  14  15
ENDBRANCH  13  14
ENDBRANCH  12  13
ENDBRANCH   1  12
TORSDOF 16
ENDMDL
MODEL 4
REMARK VINA RESULT:    -5.481      3.604      7.758
REMARK INTER + INTRA:         -12.639
REMARK INTER:                 -10.082
REMARK INTRA:                  -2.557
REMARK UNBOUND:                -2.031
REMARK SMILES CCCCCCCCCCCCCCCCCC(=O)[O-]
REMARK SMILES IDX 10 1 11 2 12 3 13 4 14 5 15 6 16 7 17 8 18 9 19 10 20 11
REMARK SMILES IDX 9 12 8 13 7 14 6 15 5 16 4 17 3 18 2 19 1 20
REMARK H PARENT
REMARK Flexibility Score: inf
ROOT
ATOM      1  C   UNL     1      12.101   6.238  52.624  1.00  0.00     0.000 C 
ENDROOT
BRANCH   1   2
ATOM      2  C   UNL     1      12.469   5.041  53.515  1.00  0.00     0.000 C 
BRANCH   2   3
ATOM      3  C   UNL     1      11.794   3.738  53.057  1.00  0.00     0.000 C 
BRANCH   3   4
ATOM      4  C   UNL     1      10.922   3.111  54.158  1.00  0.00     0.000 C 
BRANCH   4   5
ATOM      5  C   UNL     1       9.865   4.085  54.703  1.00  0.00     0.000 C 
BRANCH   5   6
ATOM      6  C   UNL     1       9.884   4.186  56.238  1.00  0.00     0.000 C 
BRANCH   6   7
ATOM      7  C   UNL     1      11.218   4.726  56.777  1.00  0.00     0.006 C 
BRANCH   7   8
ATOM      8  C   UNL     1      11.849   3.795  57.823  1.00  0.00     0.053 C 
BRANCH   8   9
ATOM      9  C   UNL     1      12.884   2.922  57.186  1.00  0.00     0.041 C 
ATOM     10  O   UNL     1      13.706   3.410  56.366  1.00  0.00    -0.550 OA
ATOM     11  O   UNL     1      12.912   1.562  57.462  1.00  0.00    -0.550 OA
ENDBRANCH   8   9
ENDBRANCH   7   8
ENDBRANCH   6   7
ENDBRANCH   5   6
ENDBRANCH   4   5
ENDBRANCH   3   4
ENDBRANCH   2   3
ENDBRANCH   1   2
BRANCH   1  12
ATOM     12  C   UNL     1      11.005   7.127  53.238  1.00  0.00     0.000 C 
BRANCH  12  13
ATOM     13  C   UNL     1      11.526   8.087  54.329  1.00  0.00    -0.000 C 
BRANCH  13  14
ATOM     14  C   UNL     1      10.475   8.340  55.423  1.00  0.00    -0.000 C 
BRANCH  14  15
ATOM     15  C   UNL     1       9.119   7.688  55.106  1.00  0.00    -0.000 C 
BRANCH  15  16
ATOM     16  C   UNL     1       8.023   8.726  54.825  1.00  0.00    -0.000 C 
BRANCH  16  17
ATOM     17  C   UNL     1       7.620   8.715  53.344  1.00  0.00    -0.000 C 
BRANCH  17  18
ATOM     18  C   UNL     1       7.926  10.043  52.631  1.00  0.00    -0.000 C 
BRANCH  18  19
ATOM     19  C   UNL     1       9.276  10.047  51.882  1.00  0.00    -0.003 C 
ATOM     20  C   UNL     1       9.272   9.115  50.670  1.00  0.00     0.004 C 
ENDBRANCH  18  19
ENDBRANCH  17  18
ENDBRANCH  16  17
ENDBRANCH  15  16
ENDBRANCH  14  15
ENDBRANCH  13  14
ENDBRANCH  12  13
ENDBRANCH   1  12
TORSDOF 16
ENDMDL
MODEL 5
REMARK VINA RESULT:    -5.439      4.280      7.797
REMARK INTER + INTRA:         -12.557
REMARK INTER:                 -10.139
REMARK INTRA:                  -2.418
REMARK UNBOUND:                -2.031
REMARK SMILES CCCCCCCCCCCCCCCCCC(=O)[O-]
REMARK SMILES IDX 10 1 11 2 12 3 13 4 14 5 15 6 16 7 17 8 18 9 19 10 20 11
REMARK SMILES IDX 9 12 8 13 7 14 6 15 5 16 4 17 3 18 2 19 1 20
REMARK H PARENT
REMARK Flexibility Score: inf
ROOT
ATOM      1  C   UNL     1      11.895   3.874  53.139  1.00  0.00     0.000 C 
ENDROOT
BRANCH   1   2
ATOM      2  C   UNL     1      10.954   3.235  54.172  1.00  0.00     0.000 C 
BRANCH   2   3
ATOM      3  C   UNL     1       9.834   4.189  54.617  1.00  0.00     0.000 C 
BRANCH   3   4
ATOM      4  C   UNL     1       9.715   4.280  56.149  1.00  0.00     0.000 C 
BRANCH   4   5
ATOM      5  C   UNL     1      10.966   4.885  56.805  1.00  0.00     0.000 C 
BRANCH   5   6
ATOM      6  C   UNL     1      11.641   3.923  57.798  1.00  0.00     0.000 C 
BRANCH   6   7
ATOM      7  C   UNL     1      12.917   3.284  57.226  1.00  0.00     0.006 C 
BRANCH   7   8
ATOM      8  C   UNL     1      12.851   1.750  57.214  1.00  0.00     0.053 C 
BRANCH   8   9
ATOM      9  C   UNL     1      13.989   1.174  57.996  1.00  0.00     0.041 C 
ATOM     10  O   UNL     1      13.924   1.107  59.252  1.00  0.00    -0.550 OA
ATOM     11  O   UNL     1      15.139   0.752  57.342  1.00  0.00    -0.550 OA
ENDBRANCH   8   9
ENDBRANCH   7   8
ENDBRANCH   6   7
ENDBRANCH   5   6
ENDBRANCH   4   5
ENDBRANCH   3   4
ENDBRANCH   2   3
ENDBRANCH   1   2
BRANCH   1  12
ATOM     12  C   UNL     1      12.356   5.287  53.541  1.00  0.00     0.000 C 
BRANCH  12  13
ATOM     13  C   UNL     1      11.752   6.406  52.667  1.00  0.00    -0.000 C 
BRANCH  13  14
ATOM     14  C   UNL     1      11.773   7.769  53.381  1.00  0.00    -0.000 C 
BRANCH  14  15
ATOM     15  C   UNL     1      11.489   7.654  54.887  1.00  0.00    -0.000 C 
BRANCH  15  16
ATOM     16  C   UNL     1      10.287   8.507  55.322  1.00  0.00    -0.000 C 
BRANCH  16  17
ATOM     17  C   UNL     1       8.963   7.815  54.968  1.00  0.00    -0.000 C 
BRANCH  17  18
ATOM     18  C   UNL     1       8.187   8.542  53.856  1.00  0.00    -0.000 C 
BRANCH  18  19
ATOM     19  C   UNL     1       8.241   7.822  52.492  1.00  0.00    -0.003 C 
ATOM     20  C   UNL     1       8.717   8.742  51.367  1.00  0.00     0.004 C 
ENDBRANCH  18  19
ENDBRANCH  17  18
ENDBRANCH  16  17
ENDBRANCH  15  16
ENDBRANCH  14  15
ENDBRANCH  13  14
ENDBRANCH  12  13
ENDBRANCH   1  12
TORSDOF 16
ENDMDL
MODEL 6
REMARK VINA RESULT:    -5.398      4.067      7.984
REMARK INTER + INTRA:         -12.478
REMARK INTER:                 -10.040
REMARK INTRA:                  -2.438
REMARK UNBOUND:                -2.031
REMARK SMILES CCCCCCCCCCCCCCCCCC(=O)[O-]
REMARK SMILES IDX 10 1 11 2 12 3 13 4 14 5 15 6 16 7 17 8 18 9 19 10 20 11
REMARK SMILES IDX 9 12 8 13 7 14 6 15 5 16 4 17 3 18 2 19 1 20
REMARK H PARENT
REMARK Flexibility Score: inf
ROOT
ATOM      1  C   UNL     1       9.608   4.080  56.015  1.00  0.00     0.000 C 
ENDROOT
BRANCH   1   2
ATOM      2  C   UNL     1       9.656   3.722  54.521  1.00  0.00     0.000 C 
BRANCH   2   3
ATOM      3  C   UNL     1      11.023   3.163  54.094  1.00  0.00     0.000 C 
BRANCH   3   4
ATOM      4  C   UNL     1      11.960   4.257  53.553  1.00  0.00     0.000 C 
BRANCH   4   5
ATOM      5  C   UNL     1      12.931   4.785  54.621  1.00  0.00     0.000 C 
BRANCH   5   6
ATOM      6  C   UNL     1      13.647   3.657  55.384  1.00  0.00     0.000 C 
BRANCH   6   7
ATOM      7  C   UNL     1      13.244   3.599  56.867  1.00  0.00     0.006 C 
BRANCH   7   8
ATOM      8  C   UNL     1      12.702   2.221  57.275  1.00  0.00     0.053 C 
BRANCH   8   9
ATOM      9  C   UNL     1      13.767   1.425  57.960  1.00  0.00     0.041 C 
ATOM     10  O   UNL     1      14.696   0.901  57.290  1.00  0.00    -0.550 OA
ATOM     11  O   UNL     1      13.710   1.223  59.333  1.00  0.00    -0.550 OA
ENDBRANCH   8   9
ENDBRANCH   7   8
ENDBRANCH   6   7
ENDBRANCH   5   6
ENDBRANCH   4   5
ENDBRANCH   3   4
ENDBRANCH   2   3
ENDBRANCH   1   2
BRANCH   1  12
ATOM     12  C   UNL     1       9.579   5.598  56.267  1.00  0.00     0.000 C 
BRANCH  12  13
ATOM     13  C   UNL     1       9.382   6.433  54.984  1.00  0.00    -0.000 C 
BRANCH  13  14
ATOM     14  C   UNL     1       9.961   7.852  55.125  1.00  0.00    -0.000 C 
BRANCH  14  15
ATOM     15  C   UNL     1      11.133   8.112  54.164  1.00  0.00    -0.000 C 
BRANCH  15  16
ATOM     16  C   UNL     1      10.808   7.700  52.721  1.00  0.00    -0.000 C 
BRANCH  16  17
ATOM     17  C   UNL     1       9.877   8.722  52.052  1.00  0.00    -0.000 C 
BRANCH  17  18
ATOM     18  C   UNL     1       8.573   8.093  51.533  1.00  0.00    -0.000 C 
BRANCH  18  19
ATOM     19  C   UNL     1       7.328   8.978  51.756  1.00  0.00    -0.003 C 
ATOM     20  C   UNL     1       6.985   9.138  53.237  1.00  0.00     0.004 C 
ENDBRANCH  18  19
ENDBRANCH  17  18
ENDBRANCH  16  17
ENDBRANCH  15  16
ENDBRANCH  14  15
ENDBRANCH  13  14
ENDBRANCH  12  13
ENDBRANCH   1  12
TORSDOF 16
ENDMDL
MODEL 7
REMARK VINA RESULT:    -5.395      4.408      8.379
REMARK INTER + INTRA:         -12.473
REMARK INTER:                 -10.716
REMARK INTRA:                  -1.757
REMARK UNBOUND:                -2.031
REMARK SMILES CCCCCCCCCCCCCCCCCC(=O)[O-]
REMARK SMILES IDX 10 1 11 2 12 3 13 4 14 5 15 6 16 7 17 8 18 9 19 10 20 11
REMARK SMILES IDX 9 12 8 13 7 14 6 15 5 16 4 17 3 18 2 19 1 20
REMARK H PARENT
REMARK Flexibility Score: inf
ROOT
ATOM      1  C   UNL     1       9.488   4.084  54.754  1.00  0.00     0.000 C 
ENDROOT
BRANCH   1   2
ATOM      2  C   UNL     1      10.792   3.292  54.565  1.00  0.00     0.000 C 
BRANCH   2   3
ATOM      3  C   UNL     1      11.684   3.882  53.461  1.00  0.00     0.000 C 
BRANCH   3   4
ATOM      4  C   UNL     1      12.954   4.544  54.025  1.00  0.00     0.000 C 
BRANCH   4   5
ATOM      5  C   UNL     1      13.325   4.019  55.421  1.00  0.00     0.000 C 
BRANCH   5   6
ATOM      6  C   UNL     1      14.835   3.765  55.579  1.00  0.00     0.000 C 
BRANCH   6   7
ATOM      7  C   UNL     1      15.140   2.400  56.215  1.00  0.00     0.006 C 
BRANCH   7   8
ATOM      8  C   UNL     1      16.508   1.847  55.790  1.00  0.00     0.053 C 
BRANCH   8   9
ATOM      9  C   UNL     1      16.736   0.498  56.397  1.00  0.00     0.041 C 
ATOM     10  O   UNL     1      17.214   0.399  57.558  1.00  0.00    -0.550 OA
ATOM     11  O   UNL     1      16.462  -0.649  55.664  1.00  0.00    -0.550 OA
ENDBRANCH   8   9
ENDBRANCH   7   8
ENDBRANCH   6   7
ENDBRANCH   5   6
ENDBRANCH   4   5
ENDBRANCH   3   4
ENDBRANCH   2   3
ENDBRANCH   1   2
BRANCH   1  12
ATOM     12  C   UNL     1       9.525   5.015  55.979  1.00  0.00     0.000 C 
BRANCH  12  13
ATOM     13  C   UNL     1       9.643   6.510  55.615  1.00  0.00    -0.000 C 
BRANCH  13  14
ATOM     14  C   UNL     1      11.108   6.977  55.567  1.00  0.00    -0.000 C 
BRANCH  14  15
ATOM     15  C   UNL     1      11.244   8.470  55.227  1.00  0.00    -0.000 C 
BRANCH  15  16
ATOM     16  C   UNL     1       9.895   9.203  55.262  1.00  0.00    -0.000 C 
BRANCH  16  17
ATOM     17  C   UNL     1       9.533   9.756  53.876  1.00  0.00    -0.000 C 
BRANCH  17  18
ATOM     18  C   UNL     1       8.204   9.200  53.338  1.00  0.00    -0.000 C 
BRANCH  18  19
ATOM     19  C   UNL     1       8.374   7.963  52.430  1.00  0.00    -0.003 C 
ATOM     20  C   UNL     1       9.792   7.840  51.873  1.00  0.00     0.004 C 
ENDBRANCH  18  19
ENDBRANCH  17  18
ENDBRANCH  16  17
ENDBRANCH  15  16
ENDBRANCH  14  15
ENDBRANCH  13  14
ENDBRANCH  12  13
ENDBRANCH   1  12
TORSDOF 16
ENDMDL
MODEL 8
REMARK VINA RESULT:    -5.384      1.344      1.986
REMARK INTER + INTRA:         -12.452
REMARK INTER:                 -10.393
REMARK INTRA:                  -2.059
REMARK UNBOUND:                -2.031
REMARK SMILES CCCCCCCCCCCCCCCCCC(=O)[O-]
REMARK SMILES IDX 10 1 11 2 12 3 13 4 14 5 15 6 16 7 17 8 18 9 19 10 20 11
REMARK SMILES IDX 9 12 8 13 7 14 6 15 5 16 4 17 3 18 2 19 1 20
REMARK H PARENT
REMARK Flexibility Score: inf
ROOT
ATOM      1  C   UNL     1      10.846   3.044  54.148  1.00  0.00     0.000 C 
ENDROOT
BRANCH   1   2
ATOM      2  C   UNL     1       9.568   3.812  54.522  1.00  0.00     0.000 C 
BRANCH   2   3
ATOM      3  C   UNL     1       9.484   4.118  56.026  1.00  0.00     0.000 C 
BRANCH   3   4
ATOM      4  C   UNL     1       9.453   5.629  56.316  1.00  0.00     0.000 C 
BRANCH   4   5
ATOM      5  C   UNL     1       9.662   6.479  55.053  1.00  0.00     0.000 C 
BRANCH   5   6
ATOM      6  C   UNL     1       9.047   7.884  55.172  1.00  0.00     0.000 C 
BRANCH   6   7
ATOM      7  C   UNL     1       8.315   8.318  53.892  1.00  0.00     0.006 C 
BRANCH   7   8
ATOM      8  C   UNL     1       8.796   7.552  52.652  1.00  0.00     0.053 C 
BRANCH   8   9
ATOM      9  C   UNL     1       9.325   8.503  51.625  1.00  0.00     0.041 C 
ATOM     10  O   UNL     1       9.565   9.700  51.934  1.00  0.00    -0.550 OA
ATOM     11  O   UNL     1       9.510   8.080  50.315  1.00  0.00    -0.550 OA
ENDBRANCH   8   9
ENDBRANCH   7   8
ENDBRANCH   6   7
ENDBRANCH   5   6
ENDBRANCH   4   5
ENDBRANCH   3   4
ENDBRANCH   2   3
ENDBRANCH   1   2
BRANCH   1  12
ATOM     12  C   UNL     1      11.872   3.915  53.402  1.00  0.00     0.000 C 
BRANCH  12  13
ATOM     13  C   UNL     1      12.782   4.737  54.340  1.00  0.00    -0.000 C 
BRANCH  13  14
ATOM     14  C   UNL     1      13.539   3.843  55.337  1.00  0.00    -0.000 C 
BRANCH  14  15
ATOM     15  C   UNL     1      13.111   4.083  56.794  1.00  0.00    -0.000 C 
BRANCH  15  16
ATOM     16  C   UNL     1      12.827   2.773  57.544  1.00  0.00    -0.000 C 
BRANCH  16  17
ATOM     17  C   UNL     1      13.427   1.572  56.800  1.00  0.00    -0.000 C 
BRANCH  17  18
ATOM     18  C   UNL     1      14.773   1.115  57.388  1.00  0.00    -0.000 C 
BRANCH  18  19
ATOM     19  C   UNL     1      15.946   1.201  56.388  1.00  0.00    -0.003 C 
ATOM     20  C   UNL     1      16.492  -0.177  56.012  1.00  0.00     0.004 C 
ENDBRANCH  18  19
ENDBRANCH  17  18
ENDBRANCH  16  17
ENDBRANCH  15  16
ENDBRANCH  14  15
ENDBRANCH  13  14
ENDBRANCH  12  13
ENDBRANCH   1  12
TORSDOF 16
ENDMDL
MODEL 9
REMARK VINA RESULT:    -5.292      1.466      2.432
REMARK INTER + INTRA:         -12.274
REMARK INTER:                 -10.739
REMARK INTRA:                  -1.535
REMARK UNBOUND:                -2.031
REMARK SMILES CCCCCCCCCCCCCCCCCC(=O)[O-]
REMARK SMILES IDX 10 1 11 2 12 3 13 4 14 5 15 6 16 7 17 8 18 9 19 10 20 11
REMARK SMILES IDX 9 12 8 13 7 14 6 15 5 16 4 17 3 18 2 19 1 20
REMARK H PARENT
REMARK Flexibility Score: inf
ROOT
ATOM      1  C   UNL     1      12.189   5.549  52.670  1.00  0.00     0.000 C 
ENDROOT
BRANCH   1   2
ATOM      2  C   UNL     1      11.213   6.722  52.850  1.00  0.00     0.000 C 
BRANCH   2   3
ATOM      3  C   UNL     1      11.781   7.825  53.759  1.00  0.00     0.000 C 
BRANCH   3   4
ATOM      4  C   UNL     1      11.039   7.916  55.104  1.00  0.00     0.000 C 
BRANCH   4   5
ATOM      5  C   UNL     1       9.636   7.289  55.050  1.00  0.00     0.000 C 
BRANCH   5   6
ATOM      6  C   UNL     1       8.519   8.305  55.345  1.00  0.00     0.000 C 
BRANCH   6   7
ATOM      7  C   UNL     1       8.104   9.104  54.099  1.00  0.00     0.006 C 
BRANCH   7   8
ATOM      8  C   UNL     1       7.936   8.213  52.859  1.00  0.00     0.053 C 
BRANCH   8   9
ATOM      9  C   UNL     1       8.182   9.003  51.613  1.00  0.00     0.041 C 
ATOM     10  O   UNL     1       9.348   9.104  51.147  1.00  0.00    -0.550 OA
ATOM     11  O   UNL     1       7.132   9.666  50.991  1.00  0.00    -0.550 OA
ENDBRANCH   8   9
ENDBRANCH   7   8
ENDBRANCH   6   7
ENDBRANCH   5   6
ENDBRANCH   4   5
ENDBRANCH   3   4
ENDBRANCH   2   3
ENDBRANCH   1   2
BRANCH   1  12
ATOM     12  C   UNL     1      11.887   4.368  53.610  1.00  0.00     0.000 C 
BRANCH  12  13
ATOM     13  C   UNL     1      12.588   4.475  54.980  1.00  0.00    -0.000 C 
BRANCH  13  14
ATOM     14  C   UNL     1      12.006   3.485  56.004  1.00  0.00    -0.000 C 
BRANCH  14  15
ATOM     15  C   UNL     1      12.982   3.173  57.150  1.00  0.00    -0.000 C 
BRANCH  15  16
ATOM     16  C   UNL     1      13.026   1.676  57.490  1.00  0.00    -0.000 C 
BRANCH  16  17
ATOM     17  C   UNL     1      14.455   1.126  57.379  1.00  0.00    -0.000 C 
BRANCH  17  18
ATOM     18  C   UNL     1      15.321   1.908  56.377  1.00  0.00    -0.000 C 
BRANCH  18  19
ATOM     19  C   UNL     1      16.671   1.230  56.065  1.00  0.00    -0.003 C 
ATOM     20  C   UNL     1      16.545  -0.288  55.939  1.00  0.00     0.004 C 
ENDBRANCH  18  19
ENDBRANCH  17  18
ENDBRANCH  16  17
ENDBRANCH  15  16
ENDBRANCH  14  15
ENDBRANCH  13  14
ENDBRANCH  12  13
ENDBRANCH   1  12
TORSDOF 16
ENDMDL
