MODEL 1
REMARK VINA RESULT:    -3.786      0.000      0.000
REMARK INTER + INTRA:          -5.625
REMARK INTER:                  -5.114
REMARK INTRA:                  -0.511
REMARK UNBOUND:                -0.511
REMARK SMILES [NH3+]CCCC[C@H]([NH3+])C(=O)[O-]
REMARK SMILES IDX 4 1 3 2 2 3 1 4 5 8 6 9 7 10 8 14 9 15 10 16
REMARK H PARENT 1 5 1 6 1 7 7 11 7 12 7 13
REMARK Flexibility Score: inf
ROOT
ATOM      1  C   UNL     1      18.268  30.161  44.745  1.00  0.00     0.012 C 
ENDROOT
BRANCH   1   2
ATOM      2  C   UNL     1      17.753  31.583  44.460  1.00  0.00     0.061 C 
BRANCH   2   3
ATOM      3  C   UNL     1      17.561  31.908  42.966  1.00  0.00     0.258 C 
BRANCH   3   4
ATOM      4  N   UNL     1      17.012  30.777  42.216  1.00  0.00    -0.358 N 
ATOM      5  H   UNL     1      15.971  30.868  42.180  1.00  0.00     0.344 HD
ATOM      6  H   UNL     1      17.246  29.878  42.694  1.00  0.00     0.344 HD
ATOM      7  H   UNL     1      17.383  30.773  41.238  1.00  0.00     0.344 HD
ENDBRANCH   3   4
ENDBRANCH   2   3
ENDBRANCH   1   2
BRANCH   1   8
ATOM      8  C   UNL     1      19.787  30.023  44.537  1.00  0.00     0.072 C 
BRANCH   8   9
ATOM      9  C   UNL     1      20.144  28.997  43.441  1.00  0.00     0.227 C 
BRANCH   9  10
ATOM     10  N   UNL     1      21.276  28.148  43.841  1.00  0.00    -0.350 N 
ATOM     11  H   UNL     1      21.362  28.140  44.885  1.00  0.00     0.345 HD
ATOM     12  H   UNL     1      22.168  28.533  43.456  1.00  0.00     0.345 HD
ATOM     13  H   UNL     1      21.145  27.168  43.501  1.00  0.00     0.345 HD
ENDBRANCH   9  10
BRANCH   9  14
ATOM     14  C   UNL     1      20.472  29.721  42.162  1.00  0.00     0.099 C 
ATOM     15  O   UNL     1      21.556  30.352  42.051  1.00  0.00    -0.544 OA
ATOM     16  O   UNL     1      19.591  29.678  41.087  1.00  0.00    -0.544 OA
ENDBRANCH   9  14
ENDBRANCH   8   9
ENDBRANCH   1   8
TORSDOF 7
ENDMDL
MODEL 2
REMARK VINA RESULT:    -3.713      1.939      3.803
REMARK INTER + INTRA:          -5.526
REMARK INTER:                  -5.292
REMARK INTRA:                  -0.234
REMARK UNBOUND:                -0.511
REMARK SMILES [NH3+]CCCC[C@H]([NH3+])C(=O)[O-]
REMARK SMILES IDX 4 1 3 2 2 3 1 4 5 8 6 9 7 10 8 14 9 15 10 16
REMARK H PARENT 1 5 1 6 1 7 7 11 7 12 7 13
REMARK Flexibility Score: inf
ROOT
ATOM      1  C   UNL     1      18.851  30.858  44.639  1.00  0.00     0.012 C 
ENDROOT
BRANCH   1   2
ATOM      2  C   UNL     1      20.256  30.279  44.386  1.00  0.00     0.061 C 
BRANCH   2   3
ATOM      3  C   UNL     1      20.280  29.019  43.501  1.00  0.00     0.258 C 
BRANCH   3   4
ATOM      4  N   UNL     1      20.946  27.891  44.157  1.00  0.00    -0.358 N 
ATOM      5  H   UNL     1      20.318  27.514  44.903  1.00  0.00     0.344 HD
ATOM      6  H   UNL     1      21.835  28.207  44.606  1.00  0.00     0.344 HD
ATOM      7  H   UNL     1      21.141  27.130  43.466  1.00  0.00     0.344 HD
ENDBRANCH   3   4
ENDBRANCH   2   3
ENDBRANCH   1   2
BRANCH   1   8
ATOM      8  C   UNL     1      18.671  32.267  44.047  1.00  0.00     0.072 C 
BRANCH   8   9
ATOM      9  C   UNL     1      19.106  32.348  42.568  1.00  0.00     0.227 C 
BRANCH   9  10
ATOM     10  N   UNL     1      19.254  33.741  42.122  1.00  0.00    -0.350 N 
ATOM     11  H   UNL     1      19.835  33.776  41.253  1.00  0.00     0.345 HD
ATOM     12  H   UNL     1      19.747  34.302  42.853  1.00  0.00     0.345 HD
ATOM     13  H   UNL     1      18.320  34.170  41.927  1.00  0.00     0.345 HD
ENDBRANCH   9  10
BRANCH   9  14
ATOM     14  C   UNL     1      18.095  31.637  41.707  1.00  0.00     0.099 C 
ATOM     15  O   UNL     1      18.476  30.832  40.817  1.00  0.00    -0.544 OA
ATOM     16  O   UNL     1      16.735  31.848  41.904  1.00  0.00    -0.544 OA
ENDBRANCH   9  14
ENDBRANCH   8   9
ENDBRANCH   1   8
TORSDOF 7
ENDMDL
MODEL 3
REMARK VINA RESULT:    -3.610      2.318      3.060
REMARK INTER + INTRA:          -5.387
REMARK INTER:                  -4.854
REMARK INTRA:                  -0.533
REMARK UNBOUND:                -0.511
REMARK SMILES [NH3+]CCCC[C@H]([NH3+])C(=O)[O-]
REMARK SMILES IDX 4 1 3 2 2 3 1 4 5 8 6 9 7 10 8 14 9 15 10 16
REMARK H PARENT 1 5 1 6 1 7 7 11 7 12 7 13
REMARK Flexibility Score: inf
ROOT
ATOM      1  C   UNL     1      20.137  29.038  43.206  1.00  0.00     0.012 C 
ENDROOT
BRANCH   1   2
ATOM      2  C   UNL     1      19.812  29.489  44.641  1.00  0.00     0.061 C 
BRANCH   2   3
ATOM      3  C   UNL     1      18.465  30.221  44.794  1.00  0.00     0.258 C 
BRANCH   3   4
ATOM      4  N   UNL     1      18.635  31.659  45.016  1.00  0.00    -0.358 N 
ATOM      5  H   UNL     1      17.805  32.022  45.537  1.00  0.00     0.344 HD
ATOM      6  H   UNL     1      18.693  32.162  44.102  1.00  0.00     0.344 HD
ATOM      7  H   UNL     1      19.494  31.842  45.583  1.00  0.00     0.344 HD
ENDBRANCH   3   4
ENDBRANCH   2   3
ENDBRANCH   1   2
BRANCH   1   8
ATOM      8  C   UNL     1      21.196  29.925  42.527  1.00  0.00     0.072 C 
BRANCH   8   9
ATOM      9  C   UNL     1      20.720  30.482  41.168  1.00  0.00     0.227 C 
BRANCH   9  10
ATOM     10  N   UNL     1      21.750  31.317  40.534  1.00  0.00    -0.350 N 
ATOM     11  H   UNL     1      21.422  31.633  39.592  1.00  0.00     0.345 HD
ATOM     12  H   UNL     1      22.625  30.763  40.392  1.00  0.00     0.345 HD
ATOM     13  H   UNL     1      21.963  32.156  41.121  1.00  0.00     0.345 HD
ENDBRANCH   9  10
BRANCH   9  14
ATOM     14  C   UNL     1      19.460  31.282  41.365  1.00  0.00     0.099 C 
ATOM     15  O   UNL     1      18.393  30.935  40.793  1.00  0.00    -0.544 OA
ATOM     16  O   UNL     1      19.459  32.395  42.199  1.00  0.00    -0.544 OA
ENDBRANCH   9  14
ENDBRANCH   8   9
ENDBRANCH   1   8
TORSDOF 7
ENDMDL
MODEL 4
REMARK VINA RESULT:    -3.557      2.220      2.816
REMARK INTER + INTRA:          -5.316
REMARK INTER:                  -4.759
REMARK INTRA:                  -0.557
REMARK UNBOUND:                -0.511
REMARK SMILES [NH3+]CCCC[C@H]([NH3+])C(=O)[O-]
REMARK SMILES IDX 4 1 3 2 2 3 1 4 5 8 6 9 7 10 8 14 9 15 10 16
REMARK H PARENT 1 5 1 6 1 7 7 11 7 12 7 13
REMARK Flexibility Score: inf
ROOT
ATOM      1  C   UNL     1      17.109  31.534  42.893  1.00  0.00     0.012 C 
ENDROOT
BRANCH   1   2
ATOM      2  C   UNL     1      17.559  31.644  41.424  1.00  0.00     0.061 C 
BRANCH   2   3
ATOM      3  C   UNL     1      18.292  32.952  41.074  1.00  0.00     0.258 C 
BRANCH   3   4
ATOM      4  N   UNL     1      19.421  33.214  41.968  1.00  0.00    -0.358 N 
ATOM      5  H   UNL     1      20.130  33.790  41.460  1.00  0.00     0.344 HD
ATOM      6  H   UNL     1      19.873  32.316  42.254  1.00  0.00     0.344 HD
ATOM      7  H   UNL     1      19.103  33.742  42.813  1.00  0.00     0.344 HD
ENDBRANCH   3   4
ENDBRANCH   2   3
ENDBRANCH   1   2
BRANCH   1   8
ATOM      8  C   UNL     1      17.512  30.198  43.542  1.00  0.00     0.072 C 
BRANCH   8   9
ATOM      9  C   UNL     1      18.700  30.347  44.516  1.00  0.00     0.227 C 
BRANCH   9  10
ATOM     10  N   UNL     1      18.801  31.716  45.043  1.00  0.00    -0.350 N 
ATOM     11  H   UNL     1      19.808  31.984  45.147  1.00  0.00     0.345 HD
ATOM     12  H   UNL     1      18.362  31.770  45.990  1.00  0.00     0.345 HD
ATOM     13  H   UNL     1      18.330  32.396  44.403  1.00  0.00     0.345 HD
ENDBRANCH   9  10
BRANCH   9  14
ATOM     14  C   UNL     1      19.977  29.972  43.813  1.00  0.00     0.099 C 
ATOM     15  O   UNL     1      20.651  30.849  43.211  1.00  0.00    -0.544 OA
ATOM     16  O   UNL     1      20.434  28.659  43.843  1.00  0.00    -0.544 OA
ENDBRANCH   9  14
ENDBRANCH   8   9
ENDBRANCH   1   8
TORSDOF 7
ENDMDL
MODEL 5
REMARK VINA RESULT:    -3.545      1.497      3.551
REMARK INTER + INTRA:          -5.300
REMARK INTER:                  -5.021
REMARK INTRA:                  -0.278
REMARK UNBOUND:                -0.511
REMARK SMILES [NH3+]CCCC[C@H]([NH3+])C(=O)[O-]
REMARK SMILES IDX 4 1 3 2 2 3 1 4 5 8 6 9 7 10 8 14 9 15 10 16
REMARK H PARENT 1 5 1 6 1 7 7 11 7 12 7 13
REMARK Flexibility Score: inf
ROOT
ATOM      1  C   UNL     1      18.667  30.591  44.615  1.00  0.00     0.012 C 
ENDROOT
BRANCH   1   2
ATOM      2  C   UNL     1      20.152  30.246  44.399  1.00  0.00     0.061 C 
BRANCH   2   3
ATOM      3  C   UNL     1      20.403  29.067  43.441  1.00  0.00     0.258 C 
BRANCH   3   4
ATOM      4  N   UNL     1      20.941  27.893  44.131  1.00  0.00    -0.358 N 
ATOM      5  H   UNL     1      21.622  27.412  43.501  1.00  0.00     0.344 HD
ATOM      6  H   UNL     1      20.172  27.221  44.356  1.00  0.00     0.344 HD
ATOM      7  H   UNL     1      21.437  28.179  45.006  1.00  0.00     0.344 HD
ENDBRANCH   3   4
ENDBRANCH   2   3
ENDBRANCH   1   2
BRANCH   1   8
ATOM      8  C   UNL     1      18.223  31.833  43.823  1.00  0.00     0.072 C 
BRANCH   8   9
ATOM      9  C   UNL     1      17.368  31.473  42.588  1.00  0.00     0.227 C 
BRANCH   9  10
ATOM     10  N   UNL     1      17.041  30.041  42.554  1.00  0.00    -0.350 N 
ATOM     11  H   UNL     1      17.716  29.508  43.152  1.00  0.00     0.345 HD
ATOM     12  H   UNL     1      17.129  29.675  41.579  1.00  0.00     0.345 HD
ATOM     13  H   UNL     1      16.069  29.872  42.901  1.00  0.00     0.345 HD
ENDBRANCH   9  10
BRANCH   9  14
ATOM     14  C   UNL     1      18.106  31.862  41.335  1.00  0.00     0.099 C 
ATOM     15  O   UNL     1      19.365  31.877  41.320  1.00  0.00    -0.544 OA
ATOM     16  O   UNL     1      17.404  32.186  40.180  1.00  0.00    -0.544 OA
ENDBRANCH   9  14
ENDBRANCH   8   9
ENDBRANCH   1   8
TORSDOF 7
ENDMDL
MODEL 6
REMARK VINA RESULT:    -3.540      1.645      3.690
REMARK INTER + INTRA:          -5.292
REMARK INTER:                  -5.011
REMARK INTRA:                  -0.281
REMARK UNBOUND:                -0.511
REMARK SMILES [NH3+]CCCC[C@H]([NH3+])C(=O)[O-]
REMARK SMILES IDX 4 1 3 2 2 3 1 4 5 8 6 9 7 10 8 14 9 15 10 16
REMARK H PARENT 1 5 1 6 1 7 7 11 7 12 7 13
REMARK Flexibility Score: inf
ROOT
ATOM      1  C   UNL     1      18.345  30.187  44.555  1.00  0.00     0.012 C 
ENDROOT
BRANCH   1   2
ATOM      2  C   UNL     1      19.859  29.912  44.609  1.00  0.00     0.061 C 
BRANCH   2   3
ATOM      3  C   UNL     1      20.382  28.985  43.495  1.00  0.00     0.258 C 
BRANCH   3   4
ATOM      4  N   UNL     1      21.178  27.875  44.023  1.00  0.00    -0.358 N 
ATOM      5  H   UNL     1      21.944  27.655  43.346  1.00  0.00     0.344 HD
ATOM      6  H   UNL     1      20.584  27.023  44.133  1.00  0.00     0.344 HD
ATOM      7  H   UNL     1      21.607  28.137  44.940  1.00  0.00     0.344 HD
ENDBRANCH   3   4
ENDBRANCH   2   3
ENDBRANCH   1   2
BRANCH   1   8
ATOM      8  C   UNL     1      18.017  31.677  44.352  1.00  0.00     0.072 C 
BRANCH   8   9
ATOM      9  C   UNL     1      17.648  32.009  42.890  1.00  0.00     0.227 C 
BRANCH   9  10
ATOM     10  N   UNL     1      17.220  30.810  42.154  1.00  0.00    -0.350 N 
ATOM     11  H   UNL     1      16.462  31.060  41.476  1.00  0.00     0.345 HD
ATOM     12  H   UNL     1      16.828  30.103  42.816  1.00  0.00     0.345 HD
ATOM     13  H   UNL     1      18.021  30.388  41.631  1.00  0.00     0.345 HD
ENDBRANCH   9  10
BRANCH   9  14
ATOM     14  C   UNL     1      18.831  32.638  42.203  1.00  0.00     0.099 C 
ATOM     15  O   UNL     1      19.005  33.884  42.257  1.00  0.00    -0.544 OA
ATOM     16  O   UNL     1      19.750  31.846  41.524  1.00  0.00    -0.544 OA
ENDBRANCH   9  14
ENDBRANCH   8   9
ENDBRANCH   1   8
TORSDOF 7
ENDMDL
MODEL 7
REMARK VINA RESULT:    -3.504      2.226      3.879
REMARK INTER + INTRA:          -5.244
REMARK INTER:                  -4.768
REMARK INTRA:                  -0.477
REMARK UNBOUND:                -0.511
REMARK SMILES [NH3+]CCCC[C@H]([NH3+])C(=O)[O-]
REMARK SMILES IDX 4 1 3 2 2 3 1 4 5 8 6 9 7 10 8 14 9 15 10 16
REMARK H PARENT 1 5 1 6 1 7 7 11 7 12 7 13
REMARK Flexibility Score: inf
ROOT
ATOM      1  C   UNL     1      20.113  30.209  44.437  1.00  0.00     0.012 C 
ENDROOT
BRANCH   1   2
ATOM      2  C   UNL     1      20.609  29.238  43.349  1.00  0.00     0.061 C 
BRANCH   2   3
ATOM      3  C   UNL     1      21.081  29.918  42.050  1.00  0.00     0.258 C 
BRANCH   3   4
ATOM      4  N   UNL     1      21.244  31.365  42.206  1.00  0.00    -0.358 N 
ATOM      5  H   UNL     1      21.489  31.780  41.278  1.00  0.00     0.344 HD
ATOM      6  H   UNL     1      22.021  31.572  42.872  1.00  0.00     0.344 HD
ATOM      7  H   UNL     1      20.354  31.798  42.543  1.00  0.00     0.344 HD
ENDBRANCH   3   4
ENDBRANCH   2   3
ENDBRANCH   1   2
BRANCH   1   8
ATOM      8  C   UNL     1      18.614  30.046  44.744  1.00  0.00     0.072 C 
BRANCH   8   9
ATOM      9  C   UNL     1      17.844  31.382  44.664  1.00  0.00     0.227 C 
BRANCH   9  10
ATOM     10  N   UNL     1      16.456  31.235  45.125  1.00  0.00    -0.350 N 
ATOM     11  H   UNL     1      15.837  30.990  44.317  1.00  0.00     0.345 HD
ATOM     12  H   UNL     1      16.112  32.138  45.522  1.00  0.00     0.345 HD
ATOM     13  H   UNL     1      16.382  30.487  45.852  1.00  0.00     0.345 HD
ENDBRANCH   9  10
BRANCH   9  14
ATOM     14  C   UNL     1      17.865  31.890  43.248  1.00  0.00     0.099 C 
ATOM     15  O   UNL     1      17.101  31.387  42.382  1.00  0.00    -0.544 OA
ATOM     16  O   UNL     1      18.710  32.935  42.890  1.00  0.00    -0.544 OA
ENDBRANCH   9  14
ENDBRANCH   8   9
ENDBRANCH   1   8
TORSDOF 7
ENDMDL
MODEL 8
REMARK VINA RESULT:    -3.405      2.360      2.690
REMARK INTER + INTRA:          -5.110
REMARK INTER:                  -4.646
REMARK INTRA:                  -0.464
REMARK UNBOUND:                -0.511
REMARK SMILES [NH3+]CCCC[C@H]([NH3+])C(=O)[O-]
REMARK SMILES IDX 4 1 3 2 2 3 1 4 5 8 6 9 7 10 8 14 9 15 10 16
REMARK H PARENT 1 5 1 6 1 7 7 11 7 12 7 13
REMARK Flexibility Score: inf
ROOT
ATOM      1  C   UNL     1      17.529  30.650  42.429  1.00  0.00     0.012 C 
ENDROOT
BRANCH   1   2
ATOM      2  C   UNL     1      17.206  30.175  43.858  1.00  0.00     0.061 C 
BRANCH   2   3
ATOM      3  C   UNL     1      17.473  31.222  44.957  1.00  0.00     0.258 C 
BRANCH   3   4
ATOM      4  N   UNL     1      18.829  31.768  44.889  1.00  0.00    -0.358 N 
ATOM      5  H   UNL     1      19.510  31.019  45.148  1.00  0.00     0.344 HD
ATOM      6  H   UNL     1      18.937  32.557  45.565  1.00  0.00     0.344 HD
ATOM      7  H   UNL     1      19.044  32.094  43.918  1.00  0.00     0.344 HD
ENDBRANCH   3   4
ENDBRANCH   2   3
ENDBRANCH   1   2
BRANCH   1   8
ATOM      8  C   UNL     1      18.603  29.788  41.743  1.00  0.00     0.072 C 
BRANCH   8   9
ATOM      9  C   UNL     1      19.778  30.628  41.198  1.00  0.00     0.227 C 
BRANCH   9  10
ATOM     10  N   UNL     1      20.092  30.281  39.805  1.00  0.00    -0.350 N 
ATOM     11  H   UNL     1      19.249  29.868  39.342  1.00  0.00     0.345 HD
ATOM     12  H   UNL     1      20.850  29.563  39.775  1.00  0.00     0.345 HD
ATOM     13  H   UNL     1      20.395  31.127  39.270  1.00  0.00     0.345 HD
ENDBRANCH   9  10
BRANCH   9  14
ATOM     14  C   UNL     1      20.990  30.418  42.066  1.00  0.00     0.099 C 
ATOM     15  O   UNL     1      22.143  30.638  41.608  1.00  0.00    -0.544 OA
ATOM     16  O   UNL     1      20.846  30.003  43.385  1.00  0.00    -0.544 OA
ENDBRANCH   9  14
ENDBRANCH   8   9
ENDBRANCH   1   8
TORSDOF 7
ENDMDL
