MODEL 1
REMARK VINA RESULT:    -5.960      0.000      0.000
REMARK INTER + INTRA:          -7.383
REMARK INTER:                  -7.005
REMARK INTRA:                  -0.378
REMARK UNBOUND:                -0.378
REMARK SMILES CCCC[C@@H]1OC(=O)C2=C1CCC=C2
REMARK SMILES IDX 3 1 2 2 1 3 4 4 5 5 10 6 6 7 9 8 11 9 7 10 14 11 12 12 8 13
REMARK SMILES IDX 13 14
REMARK H PARENT
REMARK Flexibility Score: inf
ROOT
ATOM      1  C   UNL     1      10.477  22.354  18.469  1.00  0.00     0.004 C 
ENDROOT
BRANCH   1   2
ATOM      2  C   UNL     1       9.288  21.386  18.540  1.00  0.00    -0.003 C 
ATOM      3  C   UNL     1       8.634  21.419  19.920  1.00  0.00     0.004 C 
ENDBRANCH   1   2
BRANCH   1   4
ATOM      4  C   UNL     1      11.823  21.658  18.728  1.00  0.00     0.050 C 
BRANCH   4   5
ATOM      5  C   UNL     1      11.797  20.156  18.400  1.00  0.00     0.204 C 
ATOM      6  C   UNL     1      12.547  19.857  17.124  1.00  0.00    -0.015 C 
ATOM      7  O   UNL     1      12.528  19.412  19.381  1.00  0.00    -0.454 OA
ATOM      8  C   UNL     1      13.584  19.072  17.359  1.00  0.00     0.062 C 
ATOM      9  C   UNL     1      12.314  20.464  15.766  1.00  0.00     0.040 C 
ATOM     10  C   UNL     1      13.593  18.775  18.768  1.00  0.00     0.338 C 
ATOM     11  C   UNL     1      14.531  18.669  16.313  1.00  0.00     0.011 C 
ATOM     12  C   UNL     1      12.917  19.577  14.652  1.00  0.00     0.032 C 
ATOM     13  O   UNL     1      14.432  18.055  19.369  1.00  0.00    -0.246 OA
ATOM     14  C   UNL     1      14.253  18.972  15.038  1.00  0.00    -0.026 C 
ENDBRANCH   4   5
ENDBRANCH   1   4
TORSDOF 3
ENDMDL
MODEL 2
REMARK VINA RESULT:    -5.834      1.971      2.899
REMARK INTER + INTRA:          -7.235
REMARK INTER:                  -6.711
REMARK INTRA:                  -0.524
REMARK UNBOUND:                -0.378
REMARK SMILES CCCC[C@@H]1OC(=O)C2=C1CCC=C2
REMARK SMILES IDX 3 1 2 2 1 3 4 4 5 5 10 6 6 7 9 8 11 9 7 10 14 11 12 12 8 13
REMARK SMILES IDX 13 14
REMARK H PARENT
REMARK Flexibility Score: inf
ROOT
ATOM      1  C   UNL     1       9.996  21.747  18.494  1.00  0.00     0.004 C 
ENDROOT
BRANCH   1   2
ATOM      2  C   UNL     1       8.905  20.708  18.204  1.00  0.00    -0.003 C 
ATOM      3  C   UNL     1       9.417  19.622  17.262  1.00  0.00     0.004 C 
ENDBRANCH   1   2
BRANCH   1   4
ATOM      4  C   UNL     1      11.286  21.115  19.043  1.00  0.00     0.050 C 
BRANCH   4   5
ATOM      5  C   UNL     1      12.531  21.468  18.213  1.00  0.00     0.204 C 
ATOM      6  C   UNL     1      13.366  20.244  17.924  1.00  0.00    -0.015 C 
ATOM      7  O   UNL     1      12.156  21.914  16.905  1.00  0.00    -0.454 OA
ATOM      8  C   UNL     1      13.428  20.012  16.625  1.00  0.00     0.062 C 
ATOM      9  C   UNL     1      13.937  19.274  18.923  1.00  0.00     0.040 C 
ATOM     10  C   UNL     1      12.680  21.048  15.962  1.00  0.00     0.338 C 
ATOM     11  C   UNL     1      14.121  18.850  16.056  1.00  0.00     0.011 C 
ATOM     12  C   UNL     1      15.107  18.470  18.308  1.00  0.00     0.032 C 
ATOM     13  O   UNL     1      12.511  21.163  14.720  1.00  0.00    -0.246 OA
ATOM     14  C   UNL     1      14.856  18.076  16.866  1.00  0.00    -0.026 C 
ENDBRANCH   4   5
ENDBRANCH   1   4
TORSDOF 3
ENDMDL
MODEL 3
REMARK VINA RESULT:    -5.635      1.792      4.373
REMARK INTER + INTRA:          -7.001
REMARK INTER:                  -6.685
REMARK INTRA:                  -0.317
REMARK UNBOUND:                -0.378
REMARK SMILES CCCC[C@@H]1OC(=O)C2=C1CCC=C2
REMARK SMILES IDX 3 1 2 2 1 3 4 4 5 5 10 6 6 7 9 8 11 9 7 10 14 11 12 12 8 13
REMARK SMILES IDX 13 14
REMARK H PARENT
REMARK Flexibility Score: inf
ROOT
ATOM      1  C   UNL     1      15.347  18.164  19.499  1.00  0.00     0.004 C 
ENDROOT
BRANCH   1   2
ATOM      2  C   UNL     1      16.418  18.912  18.693  1.00  0.00    -0.003 C 
ATOM      3  C   UNL     1      17.632  19.237  19.560  1.00  0.00     0.004 C 
ENDBRANCH   1   2
BRANCH   1   4
ATOM      4  C   UNL     1      13.941  18.313  18.896  1.00  0.00     0.050 C 
BRANCH   4   5
ATOM      5  C   UNL     1      13.674  19.717  18.328  1.00  0.00     0.204 C 
ATOM      6  C   UNL     1      13.408  19.670  16.843  1.00  0.00    -0.015 C 
ATOM      7  O   UNL     1      12.455  20.252  18.854  1.00  0.00    -0.454 OA
ATOM      8  C   UNL     1      12.186  20.094  16.570  1.00  0.00     0.062 C 
ATOM      9  C   UNL     1      14.290  19.078  15.776  1.00  0.00     0.040 C 
ATOM     10  C   UNL     1      11.568  20.468  17.815  1.00  0.00     0.338 C 
ATOM     11  C   UNL     1      11.630  20.098  15.212  1.00  0.00     0.011 C 
ATOM     12  C   UNL     1      13.932  19.646  14.383  1.00  0.00     0.032 C 
ATOM     13  O   UNL     1      10.402  20.919  17.958  1.00  0.00    -0.246 OA
ATOM     14  C   UNL     1      12.438  19.813  14.182  1.00  0.00    -0.026 C 
ENDBRANCH   4   5
ENDBRANCH   1   4
TORSDOF 3
ENDMDL
MODEL 4
REMARK VINA RESULT:    -5.583      2.279      5.210
REMARK INTER + INTRA:          -6.940
REMARK INTER:                  -6.728
REMARK INTRA:                  -0.213
REMARK UNBOUND:                -0.378
REMARK SMILES CCCC[C@@H]1OC(=O)C2=C1CCC=C2
REMARK SMILES IDX 3 1 2 2 1 3 4 4 5 5 10 6 6 7 9 8 11 9 7 10 14 11 12 12 8 13
REMARK SMILES IDX 13 14
REMARK H PARENT
REMARK Flexibility Score: inf
ROOT
ATOM      1  C   UNL     1      15.747  18.877  18.567  1.00  0.00     0.004 C 
ENDROOT
BRANCH   1   2
ATOM      2  C   UNL     1      16.882  18.424  19.496  1.00  0.00    -0.003 C 
ATOM      3  C   UNL     1      18.024  19.437  19.503  1.00  0.00     0.004 C 
ENDBRANCH   1   2
BRANCH   1   4
ATOM      4  C   UNL     1      14.362  18.763  19.225  1.00  0.00     0.050 C 
BRANCH   4   5
ATOM      5  C   UNL     1      13.206  18.860  18.216  1.00  0.00     0.204 C 
ATOM      6  C   UNL     1      12.253  19.975  18.574  1.00  0.00    -0.015 C 
ATOM      7  O   UNL     1      13.691  19.256  16.928  1.00  0.00    -0.454 OA
ATOM      8  C   UNL     1      12.228  20.895  17.627  1.00  0.00     0.062 C 
ATOM      9  C   UNL     1      11.529  20.171  19.879  1.00  0.00     0.040 C 
ATOM     10  C   UNL     1      13.119  20.467  16.580  1.00  0.00     0.338 C 
ATOM     11  C   UNL     1      11.437  22.127  17.734  1.00  0.00     0.011 C 
ATOM     12  C   UNL     1      10.307  21.103  19.700  1.00  0.00     0.032 C 
ATOM     13  O   UNL     1      13.359  21.084  15.510  1.00  0.00    -0.246 OA
ATOM     14  C   UNL     1      10.582  22.259  18.757  1.00  0.00    -0.026 C 
ENDBRANCH   4   5
ENDBRANCH   1   4
TORSDOF 3
ENDMDL
MODEL 5
REMARK VINA RESULT:    -5.526     15.408     17.450
REMARK INTER + INTRA:          -6.873
REMARK INTER:                  -6.425
REMARK INTRA:                  -0.448
REMARK UNBOUND:                -0.378
REMARK SMILES CCCC[C@@H]1OC(=O)C2=C1CCC=C2
REMARK SMILES IDX 3 1 2 2 1 3 4 4 5 5 10 6 6 7 9 8 11 9 7 10 14 11 12 12 8 13
REMARK SMILES IDX 13 14
REMARK H PARENT
REMARK Flexibility Score: inf
ROOT
ATOM      1  C   UNL     1      23.529  17.299   4.619  1.00  0.00     0.004 C 
ENDROOT
BRANCH   1   2
ATOM      2  C   UNL     1      23.239  17.978   3.273  1.00  0.00    -0.003 C 
ATOM      3  C   UNL     1      24.337  17.675   2.257  1.00  0.00     0.004 C 
ENDBRANCH   1   2
BRANCH   1   4
ATOM      4  C   UNL     1      22.316  16.528   5.166  1.00  0.00     0.050 C 
BRANCH   4   5
ATOM      5  C   UNL     1      21.172  16.403   4.147  1.00  0.00     0.204 C 
ATOM      6  C   UNL     1      20.979  14.971   3.708  1.00  0.00    -0.015 C 
ATOM      7  O   UNL     1      19.916  16.723   4.754  1.00  0.00    -0.454 OA
ATOM      8  C   UNL     1      19.781  14.530   4.052  1.00  0.00     0.062 C 
ATOM      9  C   UNL     1      22.012  14.051   3.115  1.00  0.00     0.040 C 
ATOM     10  C   UNL     1      19.092  15.612   4.707  1.00  0.00     0.338 C 
ATOM     11  C   UNL     1      19.340  13.152   3.811  1.00  0.00     0.011 C 
ATOM     12  C   UNL     1      21.343  12.879   2.360  1.00  0.00     0.032 C 
ATOM     13  O   UNL     1      17.925  15.573   5.176  1.00  0.00    -0.246 OA
ATOM     14  C   UNL     1      20.114  12.346   3.072  1.00  0.00    -0.026 C 
ENDBRANCH   4   5
ENDBRANCH   1   4
TORSDOF 3
ENDMDL
MODEL 6
REMARK VINA RESULT:    -5.484      9.321     11.055
REMARK INTER + INTRA:          -6.824
REMARK INTER:                  -6.505
REMARK INTRA:                  -0.319
REMARK UNBOUND:                -0.378
REMARK SMILES CCCC[C@@H]1OC(=O)C2=C1CCC=C2
REMARK SMILES IDX 3 1 2 2 1 3 4 4 5 5 10 6 6 7 9 8 11 9 7 10 14 11 12 12 8 13
REMARK SMILES IDX 13 14
REMARK H PARENT
REMARK Flexibility Score: inf
ROOT
ATOM      1  C   UNL     1       7.398  25.407   6.790  1.00  0.00     0.004 C 
ENDROOT
BRANCH   1   2
ATOM      2  C   UNL     1       8.450  24.965   5.764  1.00  0.00    -0.003 C 
ATOM      3  C   UNL     1       8.245  25.672   4.426  1.00  0.00     0.004 C 
ENDBRANCH   1   2
BRANCH   1   4
ATOM      4  C   UNL     1       7.624  24.783   8.177  1.00  0.00     0.050 C 
BRANCH   4   5
ATOM      5  C   UNL     1       7.280  23.286   8.227  1.00  0.00     0.204 C 
ATOM      6  C   UNL     1       8.462  22.463   8.679  1.00  0.00    -0.015 C 
ATOM      7  O   UNL     1       6.304  23.026   9.242  1.00  0.00    -0.454 OA
ATOM      8  C   UNL     1       8.199  21.845   9.816  1.00  0.00     0.062 C 
ATOM      9  C   UNL     1       9.839  22.433   8.070  1.00  0.00     0.040 C 
ATOM     10  C   UNL     1       6.849  22.178  10.190  1.00  0.00     0.338 C 
ATOM     11  C   UNL     1       9.188  21.023  10.524  1.00  0.00     0.011 C 
ATOM     12  C   UNL     1      10.598  21.149   8.478  1.00  0.00     0.032 C 
ATOM     13  O   UNL     1       6.242  21.777  11.217  1.00  0.00    -0.246 OA
ATOM     14  C   UNL     1      10.355  20.755   9.922  1.00  0.00    -0.026 C 
ENDBRANCH   4   5
ENDBRANCH   1   4
TORSDOF 3
ENDMDL
MODEL 7
REMARK VINA RESULT:    -5.425     15.757     17.768
REMARK INTER + INTRA:          -6.755
REMARK INTER:                  -6.401
REMARK INTRA:                  -0.354
REMARK UNBOUND:                -0.378
REMARK SMILES CCCC[C@@H]1OC(=O)C2=C1CCC=C2
REMARK SMILES IDX 3 1 2 2 1 3 4 4 5 5 10 6 6 7 9 8 11 9 7 10 14 11 12 12 8 13
REMARK SMILES IDX 13 14
REMARK H PARENT
REMARK Flexibility Score: inf
ROOT
ATOM      1  C   UNL     1      19.443  16.040   4.545  1.00  0.00     0.004 C 
ENDROOT
BRANCH   1   2
ATOM      2  C   UNL     1      19.071  14.593   4.894  1.00  0.00    -0.003 C 
ATOM      3  C   UNL     1      19.453  13.639   3.765  1.00  0.00     0.004 C 
ENDBRANCH   1   2
BRANCH   1   4
ATOM      4  C   UNL     1      20.811  16.149   3.851  1.00  0.00     0.050 C 
BRANCH   4   5
ATOM      5  C   UNL     1      21.992  16.028   4.827  1.00  0.00     0.204 C 
ATOM      6  C   UNL     1      23.224  15.493   4.138  1.00  0.00    -0.015 C 
ATOM      7  O   UNL     1      22.413  17.322   5.273  1.00  0.00    -0.454 OA
ATOM      8  C   UNL     1      24.202  16.381   4.164  1.00  0.00     0.062 C 
ATOM      9  C   UNL     1      23.348  14.212   3.357  1.00  0.00     0.040 C 
ATOM     10  C   UNL     1      23.721  17.537   4.874  1.00  0.00     0.338 C 
ATOM     11  C   UNL     1      25.499  16.157   3.513  1.00  0.00     0.011 C 
ATOM     12  C   UNL     1      24.828  13.777   3.236  1.00  0.00     0.032 C 
ATOM     13  O   UNL     1      24.370  18.591   5.103  1.00  0.00    -0.246 OA
ATOM     14  C   UNL     1      25.767  14.946   3.007  1.00  0.00    -0.026 C 
ENDBRANCH   4   5
ENDBRANCH   1   4
TORSDOF 3
ENDMDL
MODEL 8
REMARK VINA RESULT:    -5.344     15.720     17.777
REMARK INTER + INTRA:          -6.659
REMARK INTER:                  -6.350
REMARK INTRA:                  -0.309
REMARK UNBOUND:                -0.378
REMARK SMILES CCCC[C@@H]1OC(=O)C2=C1CCC=C2
REMARK SMILES IDX 3 1 2 2 1 3 4 4 5 5 10 6 6 7 9 8 11 9 7 10 14 11 12 12 8 13
REMARK SMILES IDX 13 14
REMARK H PARENT
REMARK Flexibility Score: inf
ROOT
ATOM      1  C   UNL     1      23.836  16.096   4.091  1.00  0.00     0.004 C 
ENDROOT
BRANCH   1   2
ATOM      2  C   UNL     1      24.839  17.251   4.216  1.00  0.00    -0.003 C 
ATOM      3  C   UNL     1      24.228  18.432   4.966  1.00  0.00     0.004 C 
ENDBRANCH   1   2
BRANCH   1   4
ATOM      4  C   UNL     1      23.475  15.780   2.630  1.00  0.00     0.050 C 
BRANCH   4   5
ATOM      5  C   UNL     1      22.024  16.144   2.276  1.00  0.00     0.204 C 
ATOM      6  C   UNL     1      21.040  15.270   3.015  1.00  0.00    -0.015 C 
ATOM      7  O   UNL     1      21.703  17.457   2.749  1.00  0.00    -0.454 OA
ATOM      8  C   UNL     1      20.284  15.991   3.824  1.00  0.00     0.062 C 
ATOM      9  C   UNL     1      20.980  13.765   3.018  1.00  0.00     0.040 C 
ATOM     10  C   UNL     1      20.677  17.368   3.673  1.00  0.00     0.338 C 
ATOM     11  C   UNL     1      19.280  15.398   4.716  1.00  0.00     0.011 C 
ATOM     12  C   UNL     1      19.586  13.268   3.467  1.00  0.00     0.032 C 
ATOM     13  O   UNL     1      20.181  18.352   4.282  1.00  0.00    -0.246 OA
ATOM     14  C   UNL     1      19.003  14.092   4.598  1.00  0.00    -0.026 C 
ENDBRANCH   4   5
ENDBRANCH   1   4
TORSDOF 3
ENDMDL
MODEL 9
REMARK VINA RESULT:    -5.319     15.800     18.388
REMARK INTER + INTRA:          -6.630
REMARK INTER:                  -6.355
REMARK INTRA:                  -0.275
REMARK UNBOUND:                -0.378
REMARK SMILES CCCC[C@@H]1OC(=O)C2=C1CCC=C2
REMARK SMILES IDX 3 1 2 2 1 3 4 4 5 5 10 6 6 7 9 8 11 9 7 10 14 11 12 12 8 13
REMARK SMILES IDX 13 14
REMARK H PARENT
REMARK Flexibility Score: inf
ROOT
ATOM      1  C   UNL     1      23.684  14.615   3.360  1.00  0.00     0.004 C 
ENDROOT
BRANCH   1   2
ATOM      2  C   UNL     1      24.632  13.409   3.393  1.00  0.00    -0.003 C 
ATOM      3  C   UNL     1      23.898  12.122   3.028  1.00  0.00     0.004 C 
ENDBRANCH   1   2
BRANCH   1   4
ATOM      4  C   UNL     1      23.234  14.976   1.934  1.00  0.00     0.050 C 
BRANCH   4   5
ATOM      5  C   UNL     1      21.857  15.659   1.892  1.00  0.00     0.204 C 
ATOM      6  C   UNL     1      20.877  14.982   2.819  1.00  0.00    -0.015 C 
ATOM      7  O   UNL     1      21.936  16.986   2.423  1.00  0.00    -0.454 OA
ATOM      8  C   UNL     1      20.479  15.810   3.769  1.00  0.00     0.062 C 
ATOM      9  C   UNL     1      20.490  13.528   2.833  1.00  0.00     0.040 C 
ATOM     10  C   UNL     1      21.125  17.076   3.541  1.00  0.00     0.338 C 
ATOM     11  C   UNL     1      19.573  15.405   4.851  1.00  0.00     0.011 C 
ATOM     12  C   UNL     1      19.142  13.320   3.563  1.00  0.00     0.032 C 
ATOM     13  O   UNL     1      20.993  18.114   4.241  1.00  0.00    -0.246 OA
ATOM     14  C   UNL     1      18.997  14.197   4.792  1.00  0.00    -0.026 C 
ENDBRANCH   4   5
ENDBRANCH   1   4
TORSDOF 3
ENDMDL
