MODEL 1
REMARK VINA RESULT:    -4.340      0.000      0.000
REMARK INTER + INTRA:          -4.917
REMARK INTER:                  -4.848
REMARK INTRA:                  -0.070
REMARK UNBOUND:                -0.070
REMARK SMILES COc1ccc(C(=O)[O-])cc1
REMARK SMILES IDX 6 1 5 2 10 3 4 4 11 5 3 6 7 7 8 8 9 9 2 10 1 11
REMARK H PARENT
REMARK Flexibility Score: inf
ROOT
ATOM      1  C   UNL     1      35.906  37.522  13.387  1.00  0.00    -0.003 A 
ATOM      2  C   UNL     1      34.630  37.192  12.898  1.00  0.00     0.014 A 
ATOM      3  C   UNL     1      36.497  36.696  14.359  1.00  0.00     0.014 A 
ATOM      4  C   UNL     1      33.961  36.059  13.372  1.00  0.00     0.047 A 
ATOM      5  C   UNL     1      35.826  35.563  14.832  1.00  0.00     0.047 A 
ATOM      6  C   UNL     1      34.549  35.238  14.339  1.00  0.00     0.118 A 
ENDROOT
BRANCH   1   7
ATOM      7  C   UNL     1      36.620  38.719  12.890  1.00  0.00     0.071 C 
ATOM      8  O   UNL     1      35.998  39.625  12.273  1.00  0.00    -0.545 OA
ATOM      9  O   UNL     1      37.987  38.861  13.097  1.00  0.00    -0.545 OA
ENDBRANCH   1   7
BRANCH   6  10
ATOM     10  O   UNL     1      33.836  34.113  14.782  1.00  0.00    -0.497 OA
ATOM     11  C   UNL     1      32.675  33.594  14.142  1.00  0.00     0.278 C 
ENDBRANCH   6  10
TORSDOF 2
ENDMDL
MODEL 2
REMARK VINA RESULT:    -4.338      0.914      4.856
REMARK INTER + INTRA:          -4.914
REMARK INTER:                  -4.850
REMARK INTRA:                  -0.064
REMARK UNBOUND:                -0.070
REMARK SMILES COc1ccc(C(=O)[O-])cc1
REMARK SMILES IDX 6 1 5 2 10 3 4 4 11 5 3 6 7 7 8 8 9 9 2 10 1 11
REMARK H PARENT
REMARK Flexibility Score: inf
ROOT
ATOM      1  C   UNL     1      34.405  35.117  14.131  1.00  0.00    -0.003 A 
ATOM      2  C   UNL     1      33.902  35.969  13.131  1.00  0.00     0.014 A 
ATOM      3  C   UNL     1      35.604  35.461  14.778  1.00  0.00     0.014 A 
ATOM      4  C   UNL     1      34.585  37.140  12.789  1.00  0.00     0.047 A 
ATOM      5  C   UNL     1      36.286  36.633  14.434  1.00  0.00     0.047 A 
ATOM      6  C   UNL     1      35.779  37.482  13.434  1.00  0.00     0.118 A 
ENDROOT
BRANCH   1   7
ATOM      7  C   UNL     1      33.687  33.877  14.497  1.00  0.00     0.071 C 
ATOM      8  O   UNL     1      34.248  32.996  15.203  1.00  0.00    -0.545 OA
ATOM      9  O   UNL     1      32.382  33.664  14.068  1.00  0.00    -0.545 OA
ENDBRANCH   1   7
BRANCH   6  10
ATOM     10  O   UNL     1      36.426  38.668  13.054  1.00  0.00    -0.497 OA
ATOM     11  C   UNL     1      37.836  38.857  13.080  1.00  0.00     0.278 C 
ENDBRANCH   6  10
TORSDOF 2
ENDMDL
MODEL 3
REMARK VINA RESULT:    -4.337      0.100      1.462
REMARK INTER + INTRA:          -4.914
REMARK INTER:                  -4.849
REMARK INTRA:                  -0.065
REMARK UNBOUND:                -0.070
REMARK SMILES COc1ccc(C(=O)[O-])cc1
REMARK SMILES IDX 6 1 5 2 10 3 4 4 11 5 3 6 7 7 8 8 9 9 2 10 1 11
REMARK H PARENT
REMARK Flexibility Score: inf
ROOT
ATOM      1  C   UNL     1      35.932  37.493  13.451  1.00  0.00    -0.003 A 
ATOM      2  C   UNL     1      36.462  36.645  14.440  1.00  0.00     0.014 A 
ATOM      3  C   UNL     1      34.669  37.199  12.909  1.00  0.00     0.014 A 
ATOM      4  C   UNL     1      35.742  35.529  14.877  1.00  0.00     0.047 A 
ATOM      5  C   UNL     1      33.950  36.082  13.348  1.00  0.00     0.047 A 
ATOM      6  C   UNL     1      34.485  35.237  14.337  1.00  0.00     0.118 A 
ENDROOT
BRANCH   1   7
ATOM      7  C   UNL     1      36.689  38.675  12.985  1.00  0.00     0.071 C 
ATOM      8  O   UNL     1      36.100  39.622  12.398  1.00  0.00    -0.545 OA
ATOM      9  O   UNL     1      38.062  38.758  13.187  1.00  0.00    -0.545 OA
ENDBRANCH   1   7
BRANCH   6  10
ATOM     10  O   UNL     1      33.802  34.106  14.810  1.00  0.00    -0.497 OA
ATOM     11  C   UNL     1      32.688  33.509  14.156  1.00  0.00     0.278 C 
ENDBRANCH   6  10
TORSDOF 2
ENDMDL
MODEL 4
REMARK VINA RESULT:    -4.151     18.034     20.080
REMARK INTER + INTRA:          -4.706
REMARK INTER:                  -4.643
REMARK INTRA:                  -0.064
REMARK UNBOUND:                -0.070
REMARK SMILES COc1ccc(C(=O)[O-])cc1
REMARK SMILES IDX 6 1 5 2 10 3 4 4 11 5 3 6 7 7 8 8 9 9 2 10 1 11
REMARK H PARENT
REMARK Flexibility Score: inf
ROOT
ATOM      1  C   UNL     1      32.838  26.854  29.904  1.00  0.00    -0.003 A 
ATOM      2  C   UNL     1      31.684  26.703  30.692  1.00  0.00     0.014 A 
ATOM      3  C   UNL     1      33.699  25.755  29.740  1.00  0.00     0.014 A 
ATOM      4  C   UNL     1      31.397  25.477  31.301  1.00  0.00     0.047 A 
ATOM      5  C   UNL     1      33.411  24.530  30.349  1.00  0.00     0.047 A 
ATOM      6  C   UNL     1      32.254  24.384  31.137  1.00  0.00     0.118 A 
ENDROOT
BRANCH   1   7
ATOM      7  C   UNL     1      33.147  28.148  29.258  1.00  0.00     0.071 C 
ATOM      8  O   UNL     1      32.797  29.233  29.795  1.00  0.00    -0.545 OA
ATOM      9  O   UNL     1      33.828  28.187  28.046  1.00  0.00    -0.545 OA
ENDBRANCH   1   7
BRANCH   6  10
ATOM     10  O   UNL     1      31.922  23.175  31.769  1.00  0.00    -0.497 OA
ATOM     11  C   UNL     1      32.704  21.988  31.694  1.00  0.00     0.278 C 
ENDBRANCH   6  10
TORSDOF 2
ENDMDL
MODEL 5
REMARK VINA RESULT:    -3.983     18.652     21.209
REMARK INTER + INTRA:          -4.518
REMARK INTER:                  -4.454
REMARK INTRA:                  -0.064
REMARK UNBOUND:                -0.070
REMARK SMILES COc1ccc(C(=O)[O-])cc1
REMARK SMILES IDX 6 1 5 2 10 3 4 4 11 5 3 6 7 7 8 8 9 9 2 10 1 11
REMARK H PARENT
REMARK Flexibility Score: inf
ROOT
ATOM      1  C   UNL     1      32.608  24.202  31.070  1.00  0.00    -0.003 A 
ATOM      2  C   UNL     1      31.684  25.098  31.635  1.00  0.00     0.014 A 
ATOM      3  C   UNL     1      33.476  24.663  30.066  1.00  0.00     0.014 A 
ATOM      4  C   UNL     1      31.631  26.427  31.205  1.00  0.00     0.047 A 
ATOM      5  C   UNL     1      33.422  25.993  29.636  1.00  0.00     0.047 A 
ATOM      6  C   UNL     1      32.495  26.886  30.205  1.00  0.00     0.118 A 
ENDROOT
BRANCH   1   7
ATOM      7  C   UNL     1      32.669  22.794  31.521  1.00  0.00     0.071 C 
ATOM      8  O   UNL     1      33.719  22.116  31.364  1.00  0.00    -0.545 OA
ATOM      9  O   UNL     1      31.567  22.199  32.125  1.00  0.00    -0.545 OA
ENDBRANCH   1   7
BRANCH   6  10
ATOM     10  O   UNL     1      32.402  28.229  29.808  1.00  0.00    -0.497 OA
ATOM     11  C   UNL     1      33.416  28.927  29.094  1.00  0.00     0.278 C 
ENDBRANCH   6  10
TORSDOF 2
ENDMDL
MODEL 6
REMARK VINA RESULT:    -3.929      1.962      2.483
REMARK INTER + INTRA:          -4.458
REMARK INTER:                  -4.397
REMARK INTRA:                  -0.061
REMARK UNBOUND:                -0.070
REMARK SMILES COc1ccc(C(=O)[O-])cc1
REMARK SMILES IDX 6 1 5 2 10 3 4 4 11 5 3 6 7 7 8 8 9 9 2 10 1 11
REMARK H PARENT
REMARK Flexibility Score: inf
ROOT
ATOM      1  C   UNL     1      34.986  36.125  13.846  1.00  0.00    -0.003 A 
ATOM      2  C   UNL     1      33.836  35.316  13.861  1.00  0.00     0.014 A 
ATOM      3  C   UNL     1      36.115  35.716  14.576  1.00  0.00     0.014 A 
ATOM      4  C   UNL     1      33.818  34.123  14.590  1.00  0.00     0.047 A 
ATOM      5  C   UNL     1      36.095  34.523  15.305  1.00  0.00     0.047 A 
ATOM      6  C   UNL     1      34.942  33.717  15.317  1.00  0.00     0.118 A 
ENDROOT
BRANCH   1   7
ATOM      7  C   UNL     1      35.011  37.388  13.076  1.00  0.00     0.071 C 
ATOM      8  O   UNL     1      36.008  38.155  13.137  1.00  0.00    -0.545 OA
ATOM      9  O   UNL     1      33.933  37.747  12.274  1.00  0.00    -0.545 OA
ENDBRANCH   1   7
BRANCH   6  10
ATOM     10  O   UNL     1      34.874  32.512  16.033  1.00  0.00    -0.497 OA
ATOM     11  C   UNL     1      34.986  32.410  17.448  1.00  0.00     0.278 C 
ENDBRANCH   6  10
TORSDOF 2
ENDMDL
MODEL 7
REMARK VINA RESULT:    -3.896     17.420     19.898
REMARK INTER + INTRA:          -4.421
REMARK INTER:                  -4.355
REMARK INTRA:                  -0.066
REMARK UNBOUND:                -0.070
REMARK SMILES COc1ccc(C(=O)[O-])cc1
REMARK SMILES IDX 6 1 5 2 10 3 4 4 11 5 3 6 7 7 8 8 9 9 2 10 1 11
REMARK H PARENT
REMARK Flexibility Score: inf
ROOT
ATOM      1  C   UNL     1      32.642  25.713  30.592  1.00  0.00    -0.003 A 
ATOM      2  C   UNL     1      33.808  25.720  29.806  1.00  0.00     0.014 A 
ATOM      3  C   UNL     1      31.868  26.884  30.672  1.00  0.00     0.014 A 
ATOM      4  C   UNL     1      34.189  26.874  29.114  1.00  0.00     0.047 A 
ATOM      5  C   UNL     1      32.251  28.037  29.979  1.00  0.00     0.047 A 
ATOM      6  C   UNL     1      33.419  28.039  29.194  1.00  0.00     0.118 A 
ENDROOT
BRANCH   1   7
ATOM      7  C   UNL     1      32.233  24.496  31.327  1.00  0.00     0.071 C 
ATOM      8  O   UNL     1      31.235  24.517  32.096  1.00  0.00    -0.545 OA
ATOM      9  O   UNL     1      32.945  23.311  31.179  1.00  0.00    -0.545 OA
ENDBRANCH   1   7
BRANCH   6  10
ATOM     10  O   UNL     1      33.844  29.170  28.481  1.00  0.00    -0.497 OA
ATOM     11  C   UNL     1      34.267  29.151  27.122  1.00  0.00     0.278 C 
ENDBRANCH   6  10
TORSDOF 2
ENDMDL
MODEL 8
REMARK VINA RESULT:    -3.842     17.396     19.848
REMARK INTER + INTRA:          -4.361
REMARK INTER:                  -4.299
REMARK INTRA:                  -0.062
REMARK UNBOUND:                -0.070
REMARK SMILES COc1ccc(C(=O)[O-])cc1
REMARK SMILES IDX 6 1 5 2 10 3 4 4 11 5 3 6 7 7 8 8 9 9 2 10 1 11
REMARK H PARENT
REMARK Flexibility Score: inf
ROOT
ATOM      1  C   UNL     1      32.471  25.858  30.621  1.00  0.00    -0.003 A 
ATOM      2  C   UNL     1      31.869  27.128  30.643  1.00  0.00     0.014 A 
ATOM      3  C   UNL     1      33.644  25.674  29.868  1.00  0.00     0.014 A 
ATOM      4  C   UNL     1      32.430  28.191  29.929  1.00  0.00     0.047 A 
ATOM      5  C   UNL     1      34.204  26.738  29.154  1.00  0.00     0.047 A 
ATOM      6  C   UNL     1      33.597  28.007  29.180  1.00  0.00     0.118 A 
ENDROOT
BRANCH   1   7
ATOM      7  C   UNL     1      31.882  24.730  31.375  1.00  0.00     0.071 C 
ATOM      8  O   UNL     1      30.861  24.902  32.092  1.00  0.00    -0.545 OA
ATOM      9  O   UNL     1      32.448  23.462  31.303  1.00  0.00    -0.545 OA
ENDBRANCH   1   7
BRANCH   6  10
ATOM     10  O   UNL     1      34.121  29.106  28.480  1.00  0.00    -0.497 OA
ATOM     11  C   UNL     1      34.298  29.149  27.069  1.00  0.00     0.278 C 
ENDBRANCH   6  10
TORSDOF 2
ENDMDL
MODEL 9
REMARK VINA RESULT:    -3.784      1.950      2.780
REMARK INTER + INTRA:          -4.296
REMARK INTER:                  -4.228
REMARK INTRA:                  -0.068
REMARK UNBOUND:                -0.070
REMARK SMILES COc1ccc(C(=O)[O-])cc1
REMARK SMILES IDX 6 1 5 2 10 3 4 4 11 5 3 6 7 7 8 8 9 9 2 10 1 11
REMARK H PARENT
REMARK Flexibility Score: inf
ROOT
ATOM      1  C   UNL     1      34.666  35.632  13.614  1.00  0.00    -0.003 A 
ATOM      2  C   UNL     1      34.053  35.437  12.364  1.00  0.00     0.014 A 
ATOM      3  C   UNL     1      34.328  34.778  14.679  1.00  0.00     0.014 A 
ATOM      4  C   UNL     1      33.123  34.409  12.184  1.00  0.00     0.047 A 
ATOM      5  C   UNL     1      33.397  33.750  14.497  1.00  0.00     0.047 A 
ATOM      6  C   UNL     1      32.786  33.559  13.244  1.00  0.00     0.118 A 
ENDROOT
BRANCH   1   7
ATOM      7  C   UNL     1      35.651  36.718  13.811  1.00  0.00     0.071 C 
ATOM      8  O   UNL     1      36.542  36.621  14.697  1.00  0.00    -0.545 OA
ATOM      9  O   UNL     1      35.607  37.862  13.022  1.00  0.00    -0.545 OA
ENDBRANCH   1   7
BRANCH   6  10
ATOM     10  O   UNL     1      31.847  32.543  13.012  1.00  0.00    -0.497 OA
ATOM     11  C   UNL     1      30.992  32.483  11.875  1.00  0.00     0.278 C 
ENDBRANCH   6  10
TORSDOF 2
ENDMDL
