MODEL 1
REMARK VINA RESULT:    -3.343      0.000      0.000
REMARK INTER + INTRA:          -3.637
REMARK INTER:                  -3.637
REMARK INTRA:                   0.000
REMARK UNBOUND:                 0.000
REMARK SMILES [NH3+]CC(=O)[O-]
REMARK SMILES IDX 2 1 1 2 3 6 4 7 5 8
REMARK H PARENT 1 3 1 4 1 5
REMARK Flexibility Score: inf
ROOT
ATOM      1  C   UNL     1      12.210  28.705  15.150  1.00  0.00     0.312 C 
ENDROOT
BRANCH   1   2
ATOM      2  N   UNL     1      13.392  28.894  15.987  1.00  0.00    -0.353 N 
ATOM      3  H   UNL     1      13.710  29.890  15.941  1.00  0.00     0.344 HD
ATOM      4  H   UNL     1      13.176  28.638  16.978  1.00  0.00     0.344 HD
ATOM      5  H   UNL     1      14.161  28.278  15.639  1.00  0.00     0.344 HD
ENDBRANCH   1   2
BRANCH   1   6
ATOM      6  C   UNL     1      11.546  27.400  15.459  1.00  0.00     0.096 C 
ATOM      7  O   UNL     1      11.022  26.722  14.536  1.00  0.00    -0.544 OA
ATOM      8  O   UNL     1      11.551  26.907  16.758  1.00  0.00    -0.544 OA
ENDBRANCH   1   6
TORSDOF 2
ENDMDL
MODEL 2
REMARK VINA RESULT:    -3.333      0.126      1.454
REMARK INTER + INTRA:          -3.625
REMARK INTER:                  -3.625
REMARK INTRA:                   0.000
REMARK UNBOUND:                 0.000
REMARK SMILES [NH3+]CC(=O)[O-]
REMARK SMILES IDX 2 1 1 2 3 6 4 7 5 8
REMARK H PARENT 1 3 1 4 1 5
REMARK Flexibility Score: inf
ROOT
ATOM      1  C   UNL     1      12.221  28.733  15.165  1.00  0.00     0.312 C 
ENDROOT
BRANCH   1   2
ATOM      2  N   UNL     1      13.377  28.890  16.046  1.00  0.00    -0.353 N 
ATOM      3  H   UNL     1      13.161  28.501  16.993  1.00  0.00     0.344 HD
ATOM      4  H   UNL     1      14.207  28.398  15.641  1.00  0.00     0.344 HD
ATOM      5  H   UNL     1      13.600  29.907  16.140  1.00  0.00     0.344 HD
ENDBRANCH   1   2
BRANCH   1   6
ATOM      6  C   UNL     1      11.531  27.431  15.426  1.00  0.00     0.096 C 
ATOM      7  O   UNL     1      11.450  26.982  16.600  1.00  0.00    -0.544 OA
ATOM      8  O   UNL     1      10.933  26.737  14.382  1.00  0.00    -0.544 OA
ENDBRANCH   1   6
TORSDOF 2
ENDMDL
MODEL 3
REMARK VINA RESULT:    -3.119      7.090      7.446
REMARK INTER + INTRA:          -3.392
REMARK INTER:                  -3.392
REMARK INTRA:                   0.000
REMARK UNBOUND:                 0.000
REMARK SMILES [NH3+]CC(=O)[O-]
REMARK SMILES IDX 2 1 1 2 3 6 4 7 5 8
REMARK H PARENT 1 3 1 4 1 5
REMARK Flexibility Score: inf
ROOT
ATOM      1  C   UNL     1       9.725  21.631  20.097  1.00  0.00     0.312 C 
ENDROOT
BRANCH   1   2
ATOM      2  N   UNL     1       9.376  20.335  19.519  1.00  0.00    -0.353 N 
ATOM      3  H   UNL     1       8.335  20.223  19.491  1.00  0.00     0.344 HD
ATOM      4  H   UNL     1       9.766  20.256  18.551  1.00  0.00     0.344 HD
ATOM      5  H   UNL     1       9.782  19.575  20.110  1.00  0.00     0.344 HD
ENDBRANCH   1   2
BRANCH   1   6
ATOM      6  C   UNL     1       9.384  22.740  19.152  1.00  0.00     0.096 C 
ATOM      7  O   UNL     1       8.604  22.531  18.186  1.00  0.00    -0.544 OA
ATOM      8  O   UNL     1       9.887  24.017  19.366  1.00  0.00    -0.544 OA
ENDBRANCH   1   6
TORSDOF 2
ENDMDL
MODEL 4
REMARK VINA RESULT:    -3.118      7.160      7.599
REMARK INTER + INTRA:          -3.392
REMARK INTER:                  -3.392
REMARK INTRA:                   0.000
REMARK UNBOUND:                 0.000
REMARK SMILES [NH3+]CC(=O)[O-]
REMARK SMILES IDX 2 1 1 2 3 6 4 7 5 8
REMARK H PARENT 1 3 1 4 1 5
REMARK Flexibility Score: inf
ROOT
ATOM      1  C   UNL     1       9.686  21.574  20.076  1.00  0.00     0.312 C 
ENDROOT
BRANCH   1   2
ATOM      2  N   UNL     1       9.327  20.281  19.495  1.00  0.00    -0.353 N 
ATOM      3  H   UNL     1      10.174  19.671  19.424  1.00  0.00     0.344 HD
ATOM      4  H   UNL     1       8.601  19.811  20.084  1.00  0.00     0.344 HD
ATOM      5  H   UNL     1       8.938  20.432  18.536  1.00  0.00     0.344 HD
ENDBRANCH   1   2
BRANCH   1   6
ATOM      6  C   UNL     1       9.330  22.689  19.143  1.00  0.00     0.096 C 
ATOM      7  O   UNL     1       9.772  23.850  19.348  1.00  0.00    -0.544 OA
ATOM      8  O   UNL     1       8.553  22.436  18.020  1.00  0.00    -0.544 OA
ENDBRANCH   1   6
TORSDOF 2
ENDMDL
MODEL 5
REMARK VINA RESULT:    -3.014      6.466      6.804
REMARK INTER + INTRA:          -3.278
REMARK INTER:                  -3.278
REMARK INTRA:                   0.000
REMARK UNBOUND:                 0.000
REMARK SMILES [NH3+]CC(=O)[O-]
REMARK SMILES IDX 2 1 1 2 3 6 4 7 5 8
REMARK H PARENT 1 3 1 4 1 5
REMARK Flexibility Score: inf
ROOT
ATOM      1  C   UNL     1       9.378  22.306  19.930  1.00  0.00     0.312 C 
ENDROOT
BRANCH   1   2
ATOM      2  N   UNL     1       8.625  22.686  21.123  1.00  0.00    -0.353 N 
ATOM      3  H   UNL     1       8.599  23.729  21.215  1.00  0.00     0.344 HD
ATOM      4  H   UNL     1       7.649  22.311  21.068  1.00  0.00     0.344 HD
ATOM      5  H   UNL     1       9.094  22.285  21.967  1.00  0.00     0.344 HD
ENDBRANCH   1   2
BRANCH   1   6
ATOM      6  C   UNL     1       9.540  23.478  19.012  1.00  0.00     0.096 C 
ATOM      7  O   UNL     1       9.007  23.467  17.871  1.00  0.00    -0.544 OA
ATOM      8  O   UNL     1      10.236  24.602  19.435  1.00  0.00    -0.544 OA
ENDBRANCH   1   6
TORSDOF 2
ENDMDL
MODEL 6
REMARK VINA RESULT:    -2.982      5.933      6.308
REMARK INTER + INTRA:          -3.244
REMARK INTER:                  -3.244
REMARK INTRA:                   0.000
REMARK UNBOUND:                 0.000
REMARK SMILES [NH3+]CC(=O)[O-]
REMARK SMILES IDX 2 1 1 2 3 6 4 7 5 8
REMARK H PARENT 1 3 1 4 1 5
REMARK Flexibility Score: inf
ROOT
ATOM      1  C   UNL     1       9.958  24.089  19.705  1.00  0.00     0.312 C 
ENDROOT
BRANCH   1   2
ATOM      2  N   UNL     1      10.890  24.562  18.684  1.00  0.00    -0.353 N 
ATOM      3  H   UNL     1      10.390  24.694  17.774  1.00  0.00     0.344 HD
ATOM      4  H   UNL     1      11.323  25.467  18.984  1.00  0.00     0.344 HD
ATOM      5  H   UNL     1      11.647  23.852  18.554  1.00  0.00     0.344 HD
ENDBRANCH   1   2
BRANCH   1   6
ATOM      6  C   UNL     1       9.383  22.761  19.320  1.00  0.00     0.096 C 
ATOM      7  O   UNL     1       8.736  22.638  18.247  1.00  0.00    -0.544 OA
ATOM      8  O   UNL     1       9.606  21.648  20.121  1.00  0.00    -0.544 OA
ENDBRANCH   1   6
TORSDOF 2
ENDMDL
MODEL 7
REMARK VINA RESULT:    -2.950      5.935      6.449
REMARK INTER + INTRA:          -3.209
REMARK INTER:                  -3.209
REMARK INTRA:                   0.000
REMARK UNBOUND:                 0.000
REMARK SMILES [NH3+]CC(=O)[O-]
REMARK SMILES IDX 2 1 1 2 3 6 4 7 5 8
REMARK H PARENT 1 3 1 4 1 5
REMARK Flexibility Score: inf
ROOT
ATOM      1  C   UNL     1       9.984  24.069  19.697  1.00  0.00     0.312 C 
ENDROOT
BRANCH   1   2
ATOM      2  N   UNL     1      10.829  24.576  18.617  1.00  0.00    -0.353 N 
ATOM      3  H   UNL     1      11.825  24.296  18.779  1.00  0.00     0.344 HD
ATOM      4  H   UNL     1      10.501  24.200  17.697  1.00  0.00     0.344 HD
ATOM      5  H   UNL     1      10.771  25.619  18.597  1.00  0.00     0.344 HD
ENDBRANCH   1   2
BRANCH   1   6
ATOM      6  C   UNL     1       9.432  22.722  19.347  1.00  0.00     0.096 C 
ATOM      7  O   UNL     1       9.605  21.746  20.125  1.00  0.00    -0.544 OA
ATOM      8  O   UNL     1       8.684  22.556  18.189  1.00  0.00    -0.544 OA
ENDBRANCH   1   6
TORSDOF 2
ENDMDL
MODEL 8
REMARK VINA RESULT:    -2.871      2.456      2.896
REMARK INTER + INTRA:          -3.122
REMARK INTER:                  -3.122
REMARK INTRA:                   0.000
REMARK UNBOUND:                 0.000
REMARK SMILES [NH3+]CC(=O)[O-]
REMARK SMILES IDX 2 1 1 2 3 6 4 7 5 8
REMARK H PARENT 1 3 1 4 1 5
REMARK Flexibility Score: inf
ROOT
ATOM      1  C   UNL     1      10.974  26.775  14.400  1.00  0.00     0.312 C 
ENDROOT
BRANCH   1   2
ATOM      2  N   UNL     1      10.237  27.263  13.236  1.00  0.00    -0.353 N 
ATOM      3  H   UNL     1      10.883  27.774  12.590  1.00  0.00     0.344 HD
ATOM      4  H   UNL     1       9.792  26.462  12.731  1.00  0.00     0.344 HD
ATOM      5  H   UNL     1       9.488  27.919  13.555  1.00  0.00     0.344 HD
ENDBRANCH   1   2
BRANCH   1   6
ATOM      6  C   UNL     1      11.666  27.904  15.099  1.00  0.00     0.096 C 
ATOM      7  O   UNL     1      12.143  27.736  16.252  1.00  0.00    -0.544 OA
ATOM      8  O   UNL     1      11.829  29.124  14.456  1.00  0.00    -0.544 OA
ENDBRANCH   1   6
TORSDOF 2
ENDMDL
MODEL 9
REMARK VINA RESULT:    -2.747      4.480      4.916
REMARK INTER + INTRA:          -2.988
REMARK INTER:                  -2.988
REMARK INTRA:                   0.000
REMARK UNBOUND:                 0.000
REMARK SMILES [NH3+]CC(=O)[O-]
REMARK SMILES IDX 2 1 1 2 3 6 4 7 5 8
REMARK H PARENT 1 3 1 4 1 5
REMARK Flexibility Score: inf
ROOT
ATOM      1  C   UNL     1      10.053  24.680  19.425  1.00  0.00     0.312 C 
ENDROOT
BRANCH   1   2
ATOM      2  N   UNL     1      10.830  23.467  19.673  1.00  0.00    -0.353 N 
ATOM      3  H   UNL     1      11.554  23.345  18.927  1.00  0.00     0.344 HD
ATOM      4  H   UNL     1      11.294  23.523  20.610  1.00  0.00     0.344 HD
ATOM      5  H   UNL     1      10.190  22.641  19.662  1.00  0.00     0.344 HD
ENDBRANCH   1   2
BRANCH   1   6
ATOM      6  C   UNL     1      10.388  25.256  18.085  1.00  0.00     0.096 C 
ATOM      7  O   UNL     1      11.584  25.514  17.788  1.00  0.00    -0.544 OA
ATOM      8  O   UNL     1       9.385  25.461  17.145  1.00  0.00    -0.544 OA
ENDBRANCH   1   6
TORSDOF 2
ENDMDL
