MODEL 1
REMARK VINA RESULT:    -6.959      0.000      0.000
REMARK INTER + INTRA:          -7.569
REMARK INTER:                  -7.569
REMARK INTRA:                   0.000
REMARK UNBOUND:                 0.000
REMARK SMILES Cc1cc(O)c2c(c1)C(=O)c1cc(O)cc(O)c1C2=O
REMARK SMILES IDX 1 1 2 2 8 3 7 4 6 5 4 6 3 7 19 8 20 9 18 10 11 11 9 12 10 13
REMARK SMILES IDX 12 14 13 15 15 16 16 17 5 18 17 20 14 22
REMARK H PARENT 5 19 17 21 14 23
REMARK Flexibility Score: inf
ROOT
ATOM      1  C   UNL     1      22.215  48.456   3.255  1.00  0.00     0.044 C 
ATOM      2  C   UNL     1      21.645  48.373   4.641  1.00  0.00    -0.047 A 
ATOM      3  C   UNL     1      20.655  47.430   4.939  1.00  0.00     0.016 A 
ATOM      4  C   UNL     1      20.146  47.315   6.244  1.00  0.00     0.038 A 
ATOM      5  C   UNL     1      20.655  48.139   7.274  1.00  0.00     0.076 A 
ATOM      6  C   UNL     1      21.626  49.124   6.955  1.00  0.00     0.127 A 
ATOM      7  C   UNL     1      22.131  49.207   5.654  1.00  0.00     0.050 A 
ATOM      8  C   UNL     1      20.200  47.885   8.665  1.00  0.00     0.201 C 
ATOM      9  O   UNL     1      20.968  48.135   9.632  1.00  0.00    -0.288 OA
ATOM     10  C   UNL     1      18.921  47.166   8.903  1.00  0.00     0.076 A 
ATOM     11  C   UNL     1      18.415  46.344   7.871  1.00  0.00     0.041 A 
ATOM     12  C   UNL     1      19.076  46.334   6.545  1.00  0.00     0.194 C 
ATOM     13  O   UNL     1      18.710  45.510   5.663  1.00  0.00    -0.289 OA
ATOM     14  C   UNL     1      17.286  45.542   8.107  1.00  0.00     0.059 A 
ATOM     15  C   UNL     1      16.648  45.563   9.349  1.00  0.00     0.120 A 
ATOM     16  C   UNL     1      17.119  46.405  10.357  1.00  0.00     0.093 A 
ATOM     17  C   UNL     1      18.230  47.227  10.141  1.00  0.00     0.131 A 
ENDROOT
BRANCH   6  18
ATOM     18  O   UNL     1      22.089  50.057   7.886  1.00  0.00    -0.507 OA
ATOM     19  H   UNL     1      21.936  49.976   8.882  1.00  0.00     0.293 HD
ENDBRANCH   6  18
BRANCH  17  20
ATOM     20  O   UNL     1      18.588  48.108  11.165  1.00  0.00    -0.507 OA
ATOM     21  H   UNL     1      18.273  49.067  11.211  1.00  0.00     0.293 HD
ENDBRANCH  17  20
BRANCH  15  22
ATOM     22  O   UNL     1      15.535  44.760   9.591  1.00  0.00    -0.508 OA
ATOM     23  H   UNL     1      14.865  44.986  10.317  1.00  0.00     0.293 HD
ENDBRANCH  15  22
TORSDOF 3
ENDMDL
MODEL 2
REMARK VINA RESULT:    -6.847      1.470      5.508
REMARK INTER + INTRA:          -7.448
REMARK INTER:                  -7.448
REMARK INTRA:                   0.000
REMARK UNBOUND:                 0.000
REMARK SMILES Cc1cc(O)c2c(c1)C(=O)c1cc(O)cc(O)c1C2=O
REMARK SMILES IDX 1 1 2 2 8 3 7 4 6 5 4 6 3 7 19 8 20 9 18 10 11 11 9 12 10 13
REMARK SMILES IDX 12 14 13 15 15 16 16 17 5 18 17 20 14 22
REMARK H PARENT 5 19 17 21 14 23
REMARK Flexibility Score: inf
ROOT
ATOM      1  C   UNL     1      15.787  44.904  10.579  1.00  0.00     0.044 C 
ATOM      2  C   UNL     1      16.796  45.734   9.840  1.00  0.00    -0.047 A 
ATOM      3  C   UNL     1      17.122  45.429   8.514  1.00  0.00     0.016 A 
ATOM      4  C   UNL     1      18.033  46.226   7.800  1.00  0.00     0.038 A 
ATOM      5  C   UNL     1      18.606  47.363   8.413  1.00  0.00     0.076 A 
ATOM      6  C   UNL     1      18.305  47.640   9.772  1.00  0.00     0.127 A 
ATOM      7  C   UNL     1      17.382  46.844  10.456  1.00  0.00     0.050 A 
ATOM      8  C   UNL     1      19.446  48.262   7.579  1.00  0.00     0.201 C 
ATOM      9  O   UNL     1      19.500  49.493   7.842  1.00  0.00    -0.288 OA
ATOM     10  C   UNL     1      20.066  47.745   6.332  1.00  0.00     0.076 A 
ATOM     11  C   UNL     1      19.490  46.608   5.721  1.00  0.00     0.041 A 
ATOM     12  C   UNL     1      18.396  45.878   6.405  1.00  0.00     0.194 C 
ATOM     13  O   UNL     1      17.792  44.943   5.810  1.00  0.00    -0.289 OA
ATOM     14  C   UNL     1      19.960  46.172   4.471  1.00  0.00     0.059 A 
ATOM     15  C   UNL     1      21.004  46.846   3.833  1.00  0.00     0.120 A 
ATOM     16  C   UNL     1      21.603  47.943   4.451  1.00  0.00     0.093 A 
ATOM     17  C   UNL     1      21.166  48.384   5.704  1.00  0.00     0.131 A 
ENDROOT
BRANCH   6  18
ATOM     18  O   UNL     1      18.923  48.670  10.487  1.00  0.00    -0.507 OA
ATOM     19  H   UNL     1      19.684  48.522  11.135  1.00  0.00     0.293 HD
ENDBRANCH   6  18
BRANCH  17  20
ATOM     20  O   UNL     1      21.873  49.432   6.301  1.00  0.00    -0.507 OA
ATOM     21  H   UNL     1      22.760  49.772   5.958  1.00  0.00     0.293 HD
ENDBRANCH  17  20
BRANCH  15  22
ATOM     22  O   UNL     1      21.465  46.424   2.587  1.00  0.00    -0.508 OA
ATOM     23  H   UNL     1      21.322  45.475   2.261  1.00  0.00     0.293 HD
ENDBRANCH  15  22
TORSDOF 3
ENDMDL
MODEL 3
REMARK VINA RESULT:    -6.786      1.565      3.421
REMARK INTER + INTRA:          -7.381
REMARK INTER:                  -7.381
REMARK INTRA:                   0.000
REMARK UNBOUND:                 0.000
REMARK SMILES Cc1cc(O)c2c(c1)C(=O)c1cc(O)cc(O)c1C2=O
REMARK SMILES IDX 1 1 2 2 8 3 7 4 6 5 4 6 3 7 19 8 20 9 18 10 11 11 9 12 10 13
REMARK SMILES IDX 12 14 13 15 15 16 16 17 5 18 17 20 14 22
REMARK H PARENT 5 19 17 21 14 23
REMARK Flexibility Score: inf
ROOT
ATOM      1  C   UNL     1      22.858  50.348   3.051  1.00  0.00     0.044 C 
ATOM      2  C   UNL     1      21.999  49.346   3.767  1.00  0.00    -0.047 A 
ATOM      3  C   UNL     1      21.356  49.696   4.959  1.00  0.00     0.016 A 
ATOM      4  C   UNL     1      20.516  48.780   5.614  1.00  0.00     0.038 A 
ATOM      5  C   UNL     1      20.294  47.502   5.053  1.00  0.00     0.076 A 
ATOM      6  C   UNL     1      20.985  47.138   3.868  1.00  0.00     0.127 A 
ATOM      7  C   UNL     1      21.801  48.072   3.224  1.00  0.00     0.050 A 
ATOM      8  C   UNL     1      19.285  46.619   5.694  1.00  0.00     0.201 C 
ATOM      9  O   UNL     1      18.641  45.791   4.996  1.00  0.00    -0.288 OA
ATOM     10  C   UNL     1      18.906  46.842   7.114  1.00  0.00     0.076 A 
ATOM     11  C   UNL     1      19.129  48.121   7.671  1.00  0.00     0.041 A 
ATOM     12  C   UNL     1      19.862  49.148   6.893  1.00  0.00     0.194 C 
ATOM     13  O   UNL     1      19.952  50.328   7.331  1.00  0.00    -0.289 OA
ATOM     14  C   UNL     1      18.659  48.412   8.963  1.00  0.00     0.059 A 
ATOM     15  C   UNL     1      17.985  47.441   9.708  1.00  0.00     0.120 A 
ATOM     16  C   UNL     1      17.800  46.165   9.177  1.00  0.00     0.093 A 
ATOM     17  C   UNL     1      18.275  45.844   7.901  1.00  0.00     0.131 A 
ENDROOT
BRANCH   6  18
ATOM     18  O   UNL     1      20.917  45.855   3.318  1.00  0.00    -0.507 OA
ATOM     19  H   UNL     1      21.382  45.589   2.461  1.00  0.00     0.293 HD
ENDBRANCH   6  18
BRANCH  17  20
ATOM     20  O   UNL     1      18.132  44.521   7.475  1.00  0.00    -0.507 OA
ATOM     21  H   UNL     1      17.249  44.033   7.458  1.00  0.00     0.293 HD
ENDBRANCH  17  20
BRANCH  15  22
ATOM     22  O   UNL     1      17.507  47.730  10.984  1.00  0.00    -0.508 OA
ATOM     23  H   UNL     1      18.090  47.623  11.806  1.00  0.00     0.293 HD
ENDBRANCH  15  22
TORSDOF 3
ENDMDL
MODEL 4
REMARK VINA RESULT:    -6.728      1.703      5.940
REMARK INTER + INTRA:          -7.318
REMARK INTER:                  -7.318
REMARK INTRA:                   0.000
REMARK UNBOUND:                 0.000
REMARK SMILES Cc1cc(O)c2c(c1)C(=O)c1cc(O)cc(O)c1C2=O
REMARK SMILES IDX 1 1 2 2 8 3 7 4 6 5 4 6 3 7 19 8 20 9 18 10 11 11 9 12 10 13
REMARK SMILES IDX 12 14 13 15 15 16 16 17 5 18 17 20 14 22
REMARK H PARENT 5 19 17 21 14 23
REMARK Flexibility Score: inf
ROOT
ATOM      1  C   UNL     1      18.541  49.249  12.602  1.00  0.00     0.044 C 
ATOM      2  C   UNL     1      18.491  48.519  11.291  1.00  0.00    -0.047 A 
ATOM      3  C   UNL     1      19.505  48.705  10.344  1.00  0.00     0.016 A 
ATOM      4  C   UNL     1      19.491  47.994   9.132  1.00  0.00     0.038 A 
ATOM      5  C   UNL     1      18.460  47.063   8.874  1.00  0.00     0.076 A 
ATOM      6  C   UNL     1      17.411  46.913   9.818  1.00  0.00     0.127 A 
ATOM      7  C   UNL     1      17.456  47.617  11.025  1.00  0.00     0.050 A 
ATOM      8  C   UNL     1      18.561  46.225   7.650  1.00  0.00     0.201 C 
ATOM      9  O   UNL     1      18.067  45.066   7.641  1.00  0.00    -0.288 OA
ATOM     10  C   UNL     1      19.404  46.678   6.513  1.00  0.00     0.076 A 
ATOM     11  C   UNL     1      20.433  47.610   6.775  1.00  0.00     0.041 A 
ATOM     12  C   UNL     1      20.552  48.220   8.121  1.00  0.00     0.194 C 
ATOM     13  O   UNL     1      21.542  48.951   8.398  1.00  0.00    -0.289 OA
ATOM     14  C   UNL     1      21.337  47.958   5.757  1.00  0.00     0.059 A 
ATOM     15  C   UNL     1      21.217  47.400   4.482  1.00  0.00     0.120 A 
ATOM     16  C   UNL     1      20.177  46.512   4.208  1.00  0.00     0.093 A 
ATOM     17  C   UNL     1      19.253  46.165   5.199  1.00  0.00     0.131 A 
ENDROOT
BRANCH   6  18
ATOM     18  O   UNL     1      16.294  46.107   9.584  1.00  0.00    -0.507 OA
ATOM     19  H   UNL     1      16.189  45.175   9.962  1.00  0.00     0.293 HD
ENDBRANCH   6  18
BRANCH  17  20
ATOM     20  O   UNL     1      18.187  45.342   4.826  1.00  0.00    -0.507 OA
ATOM     21  H   UNL     1      17.326  45.689   4.429  1.00  0.00     0.293 HD
ENDBRANCH  17  20
BRANCH  15  22
ATOM     22  O   UNL     1      22.119  47.733   3.473  1.00  0.00    -0.508 OA
ATOM     23  H   UNL     1      22.099  47.272   2.571  1.00  0.00     0.293 HD
ENDBRANCH  15  22
TORSDOF 3
ENDMDL
MODEL 5
REMARK VINA RESULT:    -6.535      2.539      6.143
REMARK INTER + INTRA:          -7.108
REMARK INTER:                  -7.108
REMARK INTRA:                   0.000
REMARK UNBOUND:                 0.000
REMARK SMILES Cc1cc(O)c2c(c1)C(=O)c1cc(O)cc(O)c1C2=O
REMARK SMILES IDX 1 1 2 2 8 3 7 4 6 5 4 6 3 7 19 8 20 9 18 10 11 11 9 12 10 13
REMARK SMILES IDX 12 14 13 15 15 16 16 17 5 18 17 20 14 22
REMARK H PARENT 5 19 17 21 14 23
REMARK Flexibility Score: inf
ROOT
ATOM      1  C   UNL     1      17.125  45.126   8.503  1.00  0.00     0.044 C 
ATOM      2  C   UNL     1      17.669  46.385   7.893  1.00  0.00    -0.047 A 
ATOM      3  C   UNL     1      18.607  46.317   6.857  1.00  0.00     0.016 A 
ATOM      4  C   UNL     1      19.089  47.489   6.250  1.00  0.00     0.038 A 
ATOM      5  C   UNL     1      18.606  48.749   6.668  1.00  0.00     0.076 A 
ATOM      6  C   UNL     1      17.690  48.813   7.750  1.00  0.00     0.127 A 
ATOM      7  C   UNL     1      17.209  47.633   8.326  1.00  0.00     0.050 A 
ATOM      8  C   UNL     1      19.028  49.952   5.904  1.00  0.00     0.201 C 
ATOM      9  O   UNL     1      18.258  50.946   5.824  1.00  0.00    -0.288 OA
ATOM     10  C   UNL     1      20.266  49.907   5.083  1.00  0.00     0.076 A 
ATOM     11  C   UNL     1      20.746  48.645   4.667  1.00  0.00     0.041 A 
ATOM     12  C   UNL     1      20.105  47.408   5.173  1.00  0.00     0.194 C 
ATOM     13  O   UNL     1      20.444  46.285   4.708  1.00  0.00    -0.289 OA
ATOM     14  C   UNL     1      21.831  48.569   3.777  1.00  0.00     0.059 A 
ATOM     15  C   UNL     1      22.450  49.732   3.313  1.00  0.00     0.120 A 
ATOM     16  C   UNL     1      22.006  50.978   3.754  1.00  0.00     0.093 A 
ATOM     17  C   UNL     1      20.940  51.080   4.655  1.00  0.00     0.131 A 
ENDROOT
BRANCH   6  18
ATOM     18  O   UNL     1      17.259  50.022   8.304  1.00  0.00    -0.507 OA
ATOM     19  H   UNL     1      17.628  50.923   8.034  1.00  0.00     0.293 HD
ENDBRANCH   6  18
BRANCH  17  20
ATOM     20  O   UNL     1      20.611  52.355   5.121  1.00  0.00    -0.507 OA
ATOM     21  H   UNL     1      19.730  52.578   5.562  1.00  0.00     0.293 HD
ENDBRANCH  17  20
BRANCH  15  22
ATOM     22  O   UNL     1      23.519  49.661   2.421  1.00  0.00    -0.508 OA
ATOM     23  H   UNL     1      23.563  48.948   1.702  1.00  0.00     0.293 HD
ENDBRANCH  15  22
TORSDOF 3
ENDMDL
MODEL 6
REMARK VINA RESULT:    -6.503      2.095      5.415
REMARK INTER + INTRA:          -7.073
REMARK INTER:                  -7.073
REMARK INTRA:                   0.000
REMARK UNBOUND:                 0.000
REMARK SMILES Cc1cc(O)c2c(c1)C(=O)c1cc(O)cc(O)c1C2=O
REMARK SMILES IDX 1 1 2 2 8 3 7 4 6 5 4 6 3 7 19 8 20 9 18 10 11 11 9 12 10 13
REMARK SMILES IDX 12 14 13 15 15 16 16 17 5 18 17 20 14 22
REMARK H PARENT 5 19 17 21 14 23
REMARK Flexibility Score: inf
ROOT
ATOM      1  C   UNL     1      17.517  47.831  11.068  1.00  0.00     0.044 C 
ATOM      2  C   UNL     1      18.208  48.103   9.763  1.00  0.00    -0.047 A 
ATOM      3  C   UNL     1      18.149  47.164   8.727  1.00  0.00     0.016 A 
ATOM      4  C   UNL     1      18.755  47.428   7.487  1.00  0.00     0.038 A 
ATOM      5  C   UNL     1      19.409  48.662   7.271  1.00  0.00     0.076 A 
ATOM      6  C   UNL     1      19.504  49.590   8.341  1.00  0.00     0.127 A 
ATOM      7  C   UNL     1      18.877  49.314   9.559  1.00  0.00     0.050 A 
ATOM      8  C   UNL     1      19.906  48.963   5.904  1.00  0.00     0.201 C 
ATOM      9  O   UNL     1      19.956  50.156   5.502  1.00  0.00    -0.288 OA
ATOM     10  C   UNL     1      20.164  47.852   4.951  1.00  0.00     0.076 A 
ATOM     11  C   UNL     1      19.509  46.619   5.171  1.00  0.00     0.041 A 
ATOM     12  C   UNL     1      18.714  46.415   6.405  1.00  0.00     0.194 C 
ATOM     13  O   UNL     1      18.024  45.368   6.547  1.00  0.00    -0.289 OA
ATOM     14  C   UNL     1      19.618  45.591   4.220  1.00  0.00     0.059 A 
ATOM     15  C   UNL     1      20.382  45.772   3.065  1.00  0.00     0.120 A 
ATOM     16  C   UNL     1      21.064  46.972   2.865  1.00  0.00     0.093 A 
ATOM     17  C   UNL     1      20.987  48.004   3.806  1.00  0.00     0.131 A 
ENDROOT
BRANCH   6  18
ATOM     18  O   UNL     1      20.236  50.776   8.248  1.00  0.00    -0.507 OA
ATOM     19  H   UNL     1      20.307  51.325   7.402  1.00  0.00     0.293 HD
ENDBRANCH   6  18
BRANCH  17  20
ATOM     20  O   UNL     1      21.769  49.140   3.581  1.00  0.00    -0.507 OA
ATOM     21  H   UNL     1      22.555  49.399   4.159  1.00  0.00     0.293 HD
ENDBRANCH  17  20
BRANCH  15  22
ATOM     22  O   UNL     1      20.482  44.758   2.113  1.00  0.00    -0.508 OA
ATOM     23  H   UNL     1      21.285  44.685   1.499  1.00  0.00     0.293 HD
ENDBRANCH  15  22
TORSDOF 3
ENDMDL
MODEL 7
REMARK VINA RESULT:    -6.455      1.955      6.507
REMARK INTER + INTRA:          -7.021
REMARK INTER:                  -7.021
REMARK INTRA:                   0.000
REMARK UNBOUND:                 0.000
REMARK SMILES Cc1cc(O)c2c(c1)C(=O)c1cc(O)cc(O)c1C2=O
REMARK SMILES IDX 1 1 2 2 8 3 7 4 6 5 4 6 3 7 19 8 20 9 18 10 11 11 9 12 10 13
REMARK SMILES IDX 12 14 13 15 15 16 16 17 5 18 17 20 14 22
REMARK H PARENT 5 19 17 21 14 23
REMARK Flexibility Score: inf
ROOT
ATOM      1  C   UNL     1      17.463  46.771  10.381  1.00  0.00     0.044 C 
ATOM      2  C   UNL     1      18.285  46.971   9.140  1.00  0.00    -0.047 A 
ATOM      3  C   UNL     1      19.612  47.405   9.238  1.00  0.00     0.016 A 
ATOM      4  C   UNL     1      20.403  47.554   8.086  1.00  0.00     0.038 A 
ATOM      5  C   UNL     1      19.866  47.238   6.818  1.00  0.00     0.076 A 
ATOM      6  C   UNL     1      18.506  46.842   6.722  1.00  0.00     0.127 A 
ATOM      7  C   UNL     1      17.745  46.683   7.883  1.00  0.00     0.050 A 
ATOM      8  C   UNL     1      20.776  47.265   5.643  1.00  0.00     0.201 C 
ATOM      9  O   UNL     1      20.567  46.494   4.669  1.00  0.00    -0.288 OA
ATOM     10  C   UNL     1      22.030  48.061   5.701  1.00  0.00     0.076 A 
ATOM     11  C   UNL     1      22.564  48.375   6.971  1.00  0.00     0.041 A 
ATOM     12  C   UNL     1      21.798  48.044   8.196  1.00  0.00     0.194 C 
ATOM     13  O   UNL     1      22.323  48.204   9.332  1.00  0.00    -0.289 OA
ATOM     14  C   UNL     1      23.817  49.004   7.067  1.00  0.00     0.059 A 
ATOM     15  C   UNL     1      24.533  49.336   5.914  1.00  0.00     0.120 A 
ATOM     16  C   UNL     1      23.991  49.065   4.658  1.00  0.00     0.093 A 
ATOM     17  C   UNL     1      22.737  48.457   4.536  1.00  0.00     0.131 A 
ENDROOT
BRANCH   6  18
ATOM     18  O   UNL     1      17.866  46.631   5.498  1.00  0.00    -0.507 OA
ATOM     19  H   UNL     1      17.041  46.057   5.390  1.00  0.00     0.293 HD
ENDBRANCH   6  18
BRANCH  17  20
ATOM     20  O   UNL     1      22.220  48.300   3.247  1.00  0.00    -0.507 OA
ATOM     21  H   UNL     1      21.731  49.030   2.750  1.00  0.00     0.293 HD
ENDBRANCH  17  20
BRANCH  15  22
ATOM     22  O   UNL     1      25.782  49.949   6.005  1.00  0.00    -0.508 OA
ATOM     23  H   UNL     1      25.900  50.845   6.464  1.00  0.00     0.293 HD
ENDBRANCH  15  22
TORSDOF 3
ENDMDL
MODEL 8
REMARK VINA RESULT:    -6.438      2.643      4.184
REMARK INTER + INTRA:          -7.002
REMARK INTER:                  -7.002
REMARK INTRA:                   0.000
REMARK UNBOUND:                 0.000
REMARK SMILES Cc1cc(O)c2c(c1)C(=O)c1cc(O)cc(O)c1C2=O
REMARK SMILES IDX 1 1 2 2 8 3 7 4 6 5 4 6 3 7 19 8 20 9 18 10 11 11 9 12 10 13
REMARK SMILES IDX 12 14 13 15 15 16 16 17 5 18 17 20 14 22
REMARK H PARENT 5 19 17 21 14 23
REMARK Flexibility Score: inf
ROOT
ATOM      1  C   UNL     1      25.423  50.051   1.803  1.00  0.00     0.044 C 
ATOM      2  C   UNL     1      24.136  50.031   2.577  1.00  0.00    -0.047 A 
ATOM      3  C   UNL     1      23.839  48.955   3.420  1.00  0.00     0.016 A 
ATOM      4  C   UNL     1      22.658  48.948   4.181  1.00  0.00     0.038 A 
ATOM      5  C   UNL     1      21.772  50.047   4.118  1.00  0.00     0.076 A 
ATOM      6  C   UNL     1      22.057  51.114   3.227  1.00  0.00     0.127 A 
ATOM      7  C   UNL     1      23.247  51.108   2.494  1.00  0.00     0.050 A 
ATOM      8  C   UNL     1      20.613  50.069   5.048  1.00  0.00     0.201 C 
ATOM      9  O   UNL     1      20.153  51.170   5.453  1.00  0.00    -0.288 OA
ATOM     10  C   UNL     1      20.120  48.799   5.643  1.00  0.00     0.076 A 
ATOM     11  C   UNL     1      21.009  47.702   5.704  1.00  0.00     0.041 A 
ATOM     12  C   UNL     1      22.336  47.789   5.049  1.00  0.00     0.194 C 
ATOM     13  O   UNL     1      23.181  46.866   5.209  1.00  0.00    -0.289 OA
ATOM     14  C   UNL     1      20.628  46.531   6.381  1.00  0.00     0.059 A 
ATOM     15  C   UNL     1      19.371  46.438   6.982  1.00  0.00     0.120 A 
ATOM     16  C   UNL     1      18.475  47.503   6.888  1.00  0.00     0.093 A 
ATOM     17  C   UNL     1      18.823  48.671   6.203  1.00  0.00     0.131 A 
ENDROOT
BRANCH   6  18
ATOM     18  O   UNL     1      21.175  52.176   3.015  1.00  0.00    -0.507 OA
ATOM     19  H   UNL     1      20.776  52.400   2.113  1.00  0.00     0.293 HD
ENDBRANCH   6  18
BRANCH  17  20
ATOM     20  O   UNL     1      17.842  49.658   6.074  1.00  0.00    -0.507 OA
ATOM     21  H   UNL     1      16.980  49.524   5.566  1.00  0.00     0.293 HD
ENDBRANCH  17  20
BRANCH  15  22
ATOM     22  O   UNL     1      18.994  45.283   7.666  1.00  0.00    -0.508 OA
ATOM     23  H   UNL     1      19.672  44.575   7.925  1.00  0.00     0.293 HD
ENDBRANCH  15  22
TORSDOF 3
ENDMDL
MODEL 9
REMARK VINA RESULT:    -6.314      2.342      6.520
REMARK INTER + INTRA:          -6.867
REMARK INTER:                  -6.867
REMARK INTRA:                   0.000
REMARK UNBOUND:                 0.000
REMARK SMILES Cc1cc(O)c2c(c1)C(=O)c1cc(O)cc(O)c1C2=O
REMARK SMILES IDX 1 1 2 2 8 3 7 4 6 5 4 6 3 7 19 8 20 9 18 10 11 11 9 12 10 13
REMARK SMILES IDX 12 14 13 15 15 16 16 17 5 18 17 20 14 22
REMARK H PARENT 5 19 17 21 14 23
REMARK Flexibility Score: inf
ROOT
ATOM      1  C   UNL     1      17.340  45.305   8.156  1.00  0.00     0.044 C 
ATOM      2  C   UNL     1      18.239  46.032   7.198  1.00  0.00    -0.047 A 
ATOM      3  C   UNL     1      18.761  47.285   7.536  1.00  0.00     0.016 A 
ATOM      4  C   UNL     1      19.638  47.954   6.665  1.00  0.00     0.038 A 
ATOM      5  C   UNL     1      20.020  47.348   5.447  1.00  0.00     0.076 A 
ATOM      6  C   UNL     1      19.451  46.097   5.090  1.00  0.00     0.127 A 
ATOM      7  C   UNL     1      18.596  45.443   5.981  1.00  0.00     0.050 A 
ATOM      8  C   UNL     1      21.061  48.017   4.625  1.00  0.00     0.201 C 
ATOM      9  O   UNL     1      21.829  47.329   3.902  1.00  0.00    -0.288 OA
ATOM     10  C   UNL     1      21.318  49.471   4.801  1.00  0.00     0.076 A 
ATOM     11  C   UNL     1      20.935  50.074   6.020  1.00  0.00     0.041 A 
ATOM     12  C   UNL     1      20.163  49.295   7.018  1.00  0.00     0.194 C 
ATOM     13  O   UNL     1      19.930  49.784   8.158  1.00  0.00    -0.289 OA
ATOM     14  C   UNL     1      21.283  51.410   6.279  1.00  0.00     0.059 A 
ATOM     15  C   UNL     1      21.993  52.153   5.333  1.00  0.00     0.120 A 
ATOM     16  C   UNL     1      22.337  51.574   4.112  1.00  0.00     0.093 A 
ATOM     17  C   UNL     1      21.984  50.252   3.822  1.00  0.00     0.131 A 
ENDROOT
BRANCH   6  18
ATOM     18  O   UNL     1      19.680  45.490   3.853  1.00  0.00    -0.507 OA
ATOM     19  H   UNL     1      19.528  44.507   3.676  1.00  0.00     0.293 HD
ENDBRANCH   6  18
BRANCH  17  20
ATOM     20  O   UNL     1      22.283  49.771   2.545  1.00  0.00    -0.507 OA
ATOM     21  H   UNL     1      21.579  49.512   1.868  1.00  0.00     0.293 HD
ENDBRANCH  17  20
BRANCH  15  22
ATOM     22  O   UNL     1      22.352  53.475   5.591  1.00  0.00    -0.508 OA
ATOM     23  H   UNL     1      23.200  53.706   6.095  1.00  0.00     0.293 HD
ENDBRANCH  15  22
TORSDOF 3
ENDMDL
