MODEL 1
REMARK VINA RESULT:    -4.332      0.000      0.000
REMARK INTER + INTRA:          -5.206
REMARK INTER:                  -5.092
REMARK INTRA:                  -0.114
REMARK UNBOUND:                -0.114
REMARK SMILES O=C([O-])CCC(=O)[O-]
REMARK SMILES IDX 4 1 2 2 1 3 3 4 5 5 6 6 7 7 8 8
REMARK H PARENT
REMARK Flexibility Score: inf
ROOT
ATOM      1  C   UNL     1      28.528  -0.633  43.370  1.00  0.00     0.059 C 
ENDROOT
BRANCH   1   2
ATOM      2  C   UNL     1      29.320  -1.296  44.455  1.00  0.00     0.042 C 
ATOM      3  O   UNL     1      28.769  -2.125  45.227  1.00  0.00    -0.550 OA
ATOM      4  O   UNL     1      30.657  -0.967  44.640  1.00  0.00    -0.550 OA
ENDBRANCH   1   2
BRANCH   1   5
ATOM      5  C   UNL     1      28.584  -1.429  42.062  1.00  0.00     0.059 C 
BRANCH   5   6
ATOM      6  C   UNL     1      29.576  -0.845  41.102  1.00  0.00     0.042 C 
ATOM      7  O   UNL     1      30.811  -1.009  41.289  1.00  0.00    -0.550 OA
ATOM      8  O   UNL     1      29.135  -0.153  39.981  1.00  0.00    -0.550 OA
ENDBRANCH   5   6
ENDBRANCH   1   5
TORSDOF 3
ENDMDL
MODEL 2
REMARK VINA RESULT:    -4.321      0.917      4.228
REMARK INTER + INTRA:          -5.193
REMARK INTER:                  -5.156
REMARK INTRA:                  -0.037
REMARK UNBOUND:                -0.114
REMARK SMILES O=C([O-])CCC(=O)[O-]
REMARK SMILES IDX 4 1 2 2 1 3 3 4 5 5 6 6 7 7 8 8
REMARK H PARENT
REMARK Flexibility Score: inf
ROOT
ATOM      1  C   UNL     1      29.465  -1.410  42.464  1.00  0.00     0.059 C 
ENDROOT
BRANCH   1   2
ATOM      2  C   UNL     1      30.032  -0.997  41.140  1.00  0.00     0.042 C 
ATOM      3  O   UNL     1      31.279  -0.946  40.972  1.00  0.00    -0.550 OA
ATOM      4  O   UNL     1      29.183  -0.628  40.104  1.00  0.00    -0.550 OA
ENDBRANCH   1   2
BRANCH   1   5
ATOM      5  C   UNL     1      30.262  -0.816  43.630  1.00  0.00     0.059 C 
BRANCH   5   6
ATOM      6  C   UNL     1      29.867  -1.429  44.938  1.00  0.00     0.042 C 
ATOM      7  O   UNL     1      28.818  -2.122  45.022  1.00  0.00    -0.550 OA
ATOM      8  O   UNL     1      30.676  -1.269  46.056  1.00  0.00    -0.550 OA
ENDBRANCH   5   6
ENDBRANCH   1   5
TORSDOF 3
ENDMDL
MODEL 3
REMARK VINA RESULT:    -4.114      2.421      4.632
REMARK INTER + INTRA:          -4.950
REMARK INTER:                  -4.817
REMARK INTRA:                  -0.132
REMARK UNBOUND:                -0.114
REMARK SMILES O=C([O-])CCC(=O)[O-]
REMARK SMILES IDX 4 1 2 2 1 3 3 4 5 5 6 6 7 7 8 8
REMARK H PARENT
REMARK Flexibility Score: inf
ROOT
ATOM      1  C   UNL     1      29.369   0.746  39.115  1.00  0.00     0.059 C 
ENDROOT
BRANCH   1   2
ATOM      2  C   UNL     1      30.798   1.196  39.128  1.00  0.00     0.042 C 
ATOM      3  O   UNL     1      31.666   0.572  38.463  1.00  0.00    -0.550 OA
ATOM      4  O   UNL     1      31.178   2.281  39.909  1.00  0.00    -0.550 OA
ENDBRANCH   1   2
BRANCH   1   5
ATOM      5  C   UNL     1      29.229  -0.703  39.591  1.00  0.00     0.059 C 
BRANCH   5   6
ATOM      6  C   UNL     1      29.337  -0.807  41.082  1.00  0.00     0.042 C 
ATOM      7  O   UNL     1      28.316  -0.653  41.803  1.00  0.00    -0.550 OA
ATOM      8  O   UNL     1      30.556  -1.113  41.673  1.00  0.00    -0.550 OA
ENDBRANCH   5   6
ENDBRANCH   1   5
TORSDOF 3
ENDMDL
MODEL 4
REMARK VINA RESULT:    -4.037      0.900      4.099
REMARK INTER + INTRA:          -4.860
REMARK INTER:                  -4.820
REMARK INTRA:                  -0.040
REMARK UNBOUND:                -0.114
REMARK SMILES O=C([O-])CCC(=O)[O-]
REMARK SMILES IDX 4 1 2 2 1 3 3 4 5 5 6 6 7 7 8 8
REMARK H PARENT
REMARK Flexibility Score: inf
ROOT
ATOM      1  C   UNL     1      29.440  -1.243  42.412  1.00  0.00     0.059 C 
ENDROOT
BRANCH   1   2
ATOM      2  C   UNL     1      30.091  -1.003  41.084  1.00  0.00     0.042 C 
ATOM      3  O   UNL     1      31.339  -0.860  41.006  1.00  0.00    -0.550 OA
ATOM      4  O   UNL     1      29.312  -0.894  39.939  1.00  0.00    -0.550 OA
ENDBRANCH   1   2
BRANCH   1   5
ATOM      5  C   UNL     1      30.300  -0.714  43.566  1.00  0.00     0.059 C 
BRANCH   5   6
ATOM      6  C   UNL     1      29.937  -1.364  44.867  1.00  0.00     0.042 C 
ATOM      7  O   UNL     1      30.661  -1.193  45.883  1.00  0.00    -0.550 OA
ATOM      8  O   UNL     1      28.779  -2.125  44.967  1.00  0.00    -0.550 OA
ENDBRANCH   5   6
ENDBRANCH   1   5
TORSDOF 3
ENDMDL
MODEL 5
REMARK VINA RESULT:    -4.031      2.116      3.098
REMARK INTER + INTRA:          -4.852
REMARK INTER:                  -4.787
REMARK INTRA:                  -0.065
REMARK UNBOUND:                -0.114
REMARK SMILES O=C([O-])CCC(=O)[O-]
REMARK SMILES IDX 4 1 2 2 1 3 3 4 5 5 6 6 7 7 8 8
REMARK H PARENT
REMARK Flexibility Score: inf
ROOT
ATOM      1  C   UNL     1      29.100  -0.349  40.913  1.00  0.00     0.059 C 
ENDROOT
BRANCH   1   2
ATOM      2  C   UNL     1      30.233  -1.006  41.641  1.00  0.00     0.042 C 
ATOM      3  O   UNL     1      30.039  -1.545  42.763  1.00  0.00    -0.550 OA
ATOM      4  O   UNL     1      31.512  -0.986  41.099  1.00  0.00    -0.550 OA
ENDBRANCH   1   2
BRANCH   1   5
ATOM      5  C   UNL     1      29.172  -0.609  39.405  1.00  0.00     0.059 C 
BRANCH   5   6
ATOM      6  C   UNL     1      29.718   0.576  38.667  1.00  0.00     0.042 C 
ATOM      7  O   UNL     1      29.599   0.653  37.415  1.00  0.00    -0.550 OA
ATOM      8  O   UNL     1      30.325   1.613  39.365  1.00  0.00    -0.550 OA
ENDBRANCH   5   6
ENDBRANCH   1   5
TORSDOF 3
ENDMDL
MODEL 6
REMARK VINA RESULT:    -3.971      2.475      3.544
REMARK INTER + INTRA:          -4.781
REMARK INTER:                  -4.723
REMARK INTRA:                  -0.059
REMARK UNBOUND:                -0.114
REMARK SMILES O=C([O-])CCC(=O)[O-]
REMARK SMILES IDX 4 1 2 2 1 3 3 4 5 5 6 6 7 7 8 8
REMARK H PARENT
REMARK Flexibility Score: inf
ROOT
ATOM      1  C   UNL     1      30.641  -1.007  40.295  1.00  0.00     0.059 C 
ENDROOT
BRANCH   1   2
ATOM      2  C   UNL     1      29.926  -0.918  41.609  1.00  0.00     0.042 C 
ATOM      3  O   UNL     1      30.566  -1.031  42.688  1.00  0.00    -0.550 OA
ATOM      4  O   UNL     1      28.547  -0.752  41.640  1.00  0.00    -0.550 OA
ENDBRANCH   1   2
BRANCH   1   5
ATOM      5  C   UNL     1      31.905  -0.141  40.280  1.00  0.00     0.059 C 
BRANCH   5   6
ATOM      6  C   UNL     1      31.758   1.034  39.362  1.00  0.00     0.042 C 
ATOM      7  O   UNL     1      31.845   0.880  38.115  1.00  0.00    -0.550 OA
ATOM      8  O   UNL     1      31.485   2.293  39.881  1.00  0.00    -0.550 OA
ENDBRANCH   5   6
ENDBRANCH   1   5
TORSDOF 3
ENDMDL
MODEL 7
REMARK VINA RESULT:    -3.943      2.431      4.534
REMARK INTER + INTRA:          -4.748
REMARK INTER:                  -4.685
REMARK INTRA:                  -0.064
REMARK UNBOUND:                -0.114
REMARK SMILES O=C([O-])CCC(=O)[O-]
REMARK SMILES IDX 4 1 2 2 1 3 3 4 5 5 6 6 7 7 8 8
REMARK H PARENT
REMARK Flexibility Score: inf
ROOT
ATOM      1  C   UNL     1      31.625  -0.538  40.431  1.00  0.00     0.059 C 
ENDROOT
BRANCH   1   2
ATOM      2  C   UNL     1      31.762   0.675  39.563  1.00  0.00     0.042 C 
ATOM      3  O   UNL     1      31.513   1.819  40.028  1.00  0.00    -0.550 OA
ATOM      4  O   UNL     1      32.125   0.538  38.229  1.00  0.00    -0.550 OA
ENDBRANCH   1   2
BRANCH   1   5
ATOM      5  C   UNL     1      30.164  -0.987  40.547  1.00  0.00     0.059 C 
BRANCH   5   6
ATOM      6  C   UNL     1      29.785  -1.270  41.969  1.00  0.00     0.042 C 
ATOM      7  O   UNL     1      30.600  -1.037  42.901  1.00  0.00    -0.550 OA
ATOM      8  O   UNL     1      28.517  -1.753  42.268  1.00  0.00    -0.550 OA
ENDBRANCH   5   6
ENDBRANCH   1   5
TORSDOF 3
ENDMDL
MODEL 8
REMARK VINA RESULT:    -3.808      2.696      3.816
REMARK INTER + INTRA:          -4.590
REMARK INTER:                  -4.535
REMARK INTRA:                  -0.056
REMARK UNBOUND:                -0.114
REMARK SMILES O=C([O-])CCC(=O)[O-]
REMARK SMILES IDX 4 1 2 2 1 3 3 4 5 5 6 6 7 7 8 8
REMARK H PARENT
REMARK Flexibility Score: inf
ROOT
ATOM      1  C   UNL     1      30.532  -0.440  41.187  1.00  0.00     0.059 C 
ENDROOT
BRANCH   1   2
ATOM      2  C   UNL     1      29.115  -0.770  40.828  1.00  0.00     0.042 C 
ATOM      3  O   UNL     1      28.253  -0.930  41.732  1.00  0.00    -0.550 OA
ATOM      4  O   UNL     1      28.757  -0.942  39.497  1.00  0.00    -0.550 OA
ENDBRANCH   1   2
BRANCH   1   5
ATOM      5  C   UNL     1      31.470  -0.602  39.987  1.00  0.00     0.059 C 
BRANCH   5   6
ATOM      6  C   UNL     1      31.645   0.688  39.244  1.00  0.00     0.042 C 
ATOM      7  O   UNL     1      31.340   0.763  38.025  1.00  0.00    -0.550 OA
ATOM      8  O   UNL     1      32.108   1.817  39.908  1.00  0.00    -0.550 OA
ENDBRANCH   5   6
ENDBRANCH   1   5
TORSDOF 3
ENDMDL
MODEL 9
REMARK VINA RESULT:    -2.953      0.966      1.557
REMARK INTER + INTRA:          -3.585
REMARK INTER:                  -3.541
REMARK INTRA:                  -0.044
REMARK UNBOUND:                -0.114
REMARK SMILES O=C([O-])CCC(=O)[O-]
REMARK SMILES IDX 4 1 2 2 1 3 3 4 5 5 6 6 7 7 8 8
REMARK H PARENT
REMARK Flexibility Score: inf
ROOT
ATOM      1  C   UNL     1      30.315  -0.889  43.913  1.00  0.00     0.059 C 
ENDROOT
BRANCH   1   2
ATOM      2  C   UNL     1      29.857  -1.512  45.197  1.00  0.00     0.042 C 
ATOM      3  O   UNL     1      28.759  -2.125  45.249  1.00  0.00    -0.550 OA
ATOM      4  O   UNL     1      30.626  -1.378  46.347  1.00  0.00    -0.550 OA
ENDBRANCH   1   2
BRANCH   1   5
ATOM      5  C   UNL     1      29.230  -0.961  42.833  1.00  0.00     0.059 C 
BRANCH   5   6
ATOM      6  C   UNL     1      29.822  -0.971  41.457  1.00  0.00     0.042 C 
ATOM      7  O   UNL     1      29.073  -0.921  40.445  1.00  0.00    -0.550 OA
ATOM      8  O   UNL     1      31.201  -0.996  41.291  1.00  0.00    -0.550 OA
ENDBRANCH   5   6
ENDBRANCH   1   5
TORSDOF 3
ENDMDL
