MODEL 1
REMARK VINA RESULT:    -3.076      0.000      0.000
REMARK INTER + INTRA:          -3.936
REMARK INTER:                  -3.796
REMARK INTRA:                  -0.140
REMARK UNBOUND:                -0.140
REMARK SMILES CCCCCC(=O)[O-]
REMARK SMILES IDX 4 1 5 2 6 3 7 4 8 5 3 6 2 7 1 8
REMARK H PARENT
REMARK Flexibility Score: inf
ROOT
ATOM      1  C   UNL     1      37.683  38.659  20.557  1.00  0.00     0.006 C 
ENDROOT
BRANCH   1   2
ATOM      2  C   UNL     1      37.669  39.583  19.337  1.00  0.00     0.053 C 
BRANCH   2   3
ATOM      3  C   UNL     1      38.913  39.399  18.527  1.00  0.00     0.041 C 
ATOM      4  O   UNL     1      39.809  40.284  18.531  1.00  0.00    -0.550 OA
ATOM      5  O   UNL     1      39.062  38.272  17.727  1.00  0.00    -0.550 OA
ENDBRANCH   2   3
ENDBRANCH   1   2
BRANCH   1   6
ATOM      6  C   UNL     1      36.762  37.452  20.343  1.00  0.00     0.000 C 
BRANCH   6   7
ATOM      7  C   UNL     1      37.573  36.155  20.223  1.00  0.00    -0.003 C 
ATOM      8  C   UNL     1      37.096  35.112  21.230  1.00  0.00     0.004 C 
ENDBRANCH   6   7
ENDBRANCH   1   6
TORSDOF 4
ENDMDL
MODEL 2
REMARK VINA RESULT:    -3.039      2.013      2.645
REMARK INTER + INTRA:          -3.890
REMARK INTER:                  -3.791
REMARK INTRA:                  -0.099
REMARK UNBOUND:                -0.140
REMARK SMILES CCCCCC(=O)[O-]
REMARK SMILES IDX 4 1 5 2 6 3 7 4 8 5 3 6 2 7 1 8
REMARK H PARENT
REMARK Flexibility Score: inf
ROOT
ATOM      1  C   UNL     1      36.794  36.852  20.388  1.00  0.00     0.006 C 
ENDROOT
BRANCH   1   2
ATOM      2  C   UNL     1      37.562  38.119  20.775  1.00  0.00     0.053 C 
BRANCH   2   3
ATOM      3  C   UNL     1      36.962  39.317  20.111  1.00  0.00     0.041 C 
ATOM      4  O   UNL     1      35.737  39.574  20.253  1.00  0.00    -0.550 OA
ATOM      5  O   UNL     1      37.744  40.125  19.294  1.00  0.00    -0.550 OA
ENDBRANCH   2   3
ENDBRANCH   1   2
BRANCH   1   6
ATOM      6  C   UNL     1      37.398  35.615  21.065  1.00  0.00     0.000 C 
BRANCH   6   7
ATOM      7  C   UNL     1      38.346  34.875  20.113  1.00  0.00    -0.003 C 
ATOM      8  C   UNL     1      37.853  34.955  18.671  1.00  0.00     0.004 C 
ENDBRANCH   6   7
ENDBRANCH   1   6
TORSDOF 4
ENDMDL
MODEL 3
REMARK VINA RESULT:    -3.032      2.203      2.455
REMARK INTER + INTRA:          -3.881
REMARK INTER:                  -3.728
REMARK INTRA:                  -0.154
REMARK UNBOUND:                -0.140
REMARK SMILES CCCCCC(=O)[O-]
REMARK SMILES IDX 4 1 5 2 6 3 7 4 8 5 3 6 2 7 1 8
REMARK H PARENT
REMARK Flexibility Score: inf
ROOT
ATOM      1  C   UNL     1      38.773  37.246  19.272  1.00  0.00     0.006 C 
ENDROOT
BRANCH   1   2
ATOM      2  C   UNL     1      38.216  38.667  19.144  1.00  0.00     0.053 C 
BRANCH   2   3
ATOM      3  C   UNL     1      37.228  38.942  20.233  1.00  0.00     0.041 C 
ATOM      4  O   UNL     1      37.557  38.795  21.439  1.00  0.00    -0.550 OA
ATOM      5  O   UNL     1      35.928  39.314  19.915  1.00  0.00    -0.550 OA
ENDBRANCH   2   3
ENDBRANCH   1   2
BRANCH   1   6
ATOM      6  C   UNL     1      37.640  36.214  19.319  1.00  0.00     0.000 C 
BRANCH   6   7
ATOM      7  C   UNL     1      37.991  35.053  20.257  1.00  0.00    -0.003 C 
ATOM      8  C   UNL     1      37.017  34.978  21.430  1.00  0.00     0.004 C 
ENDBRANCH   6   7
ENDBRANCH   1   6
TORSDOF 4
ENDMDL
MODEL 4
REMARK VINA RESULT:    -2.900      2.113      3.809
REMARK INTER + INTRA:          -3.718
REMARK INTER:                  -3.487
REMARK INTRA:                  -0.230
REMARK UNBOUND:                -0.140
REMARK SMILES CCCCCC(=O)[O-]
REMARK SMILES IDX 4 1 5 2 6 3 7 4 8 5 3 6 2 7 1 8
REMARK H PARENT
REMARK Flexibility Score: inf
ROOT
ATOM      1  C   UNL     1      36.660  37.548  20.307  1.00  0.00     0.006 C 
ENDROOT
BRANCH   1   2
ATOM      2  C   UNL     1      37.265  36.219  20.767  1.00  0.00     0.053 C 
BRANCH   2   3
ATOM      3  C   UNL     1      38.139  35.644  19.698  1.00  0.00     0.041 C 
ATOM      4  O   UNL     1      37.790  35.710  18.490  1.00  0.00    -0.550 OA
ATOM      5  O   UNL     1      39.317  34.991  20.039  1.00  0.00    -0.550 OA
ENDBRANCH   2   3
ENDBRANCH   1   2
BRANCH   1   6
ATOM      6  C   UNL     1      37.606  38.716  20.607  1.00  0.00     0.000 C 
BRANCH   6   7
ATOM      7  C   UNL     1      37.715  39.660  19.403  1.00  0.00    -0.003 C 
ATOM      8  C   UNL     1      38.830  39.222  18.458  1.00  0.00     0.004 C 
ENDBRANCH   6   7
ENDBRANCH   1   6
TORSDOF 4
ENDMDL
MODEL 5
REMARK VINA RESULT:    -2.780      1.437      2.497
REMARK INTER + INTRA:          -3.570
REMARK INTER:                  -3.406
REMARK INTRA:                  -0.164
REMARK UNBOUND:                -0.140
REMARK SMILES CCCCCC(=O)[O-]
REMARK SMILES IDX 4 1 5 2 6 3 7 4 8 5 3 6 2 7 1 8
REMARK H PARENT
REMARK Flexibility Score: inf
ROOT
ATOM      1  C   UNL     1      37.954  36.554  19.266  1.00  0.00     0.006 C 
ENDROOT
BRANCH   1   2
ATOM      2  C   UNL     1      39.198  37.419  19.045  1.00  0.00     0.053 C 
BRANCH   2   3
ATOM      3  C   UNL     1      39.308  37.818  17.607  1.00  0.00     0.041 C 
ATOM      4  O   UNL     1      39.177  39.025  17.273  1.00  0.00    -0.550 OA
ATOM      5  O   UNL     1      39.509  36.851  16.630  1.00  0.00    -0.550 OA
ENDBRANCH   2   3
ENDBRANCH   1   2
BRANCH   1   6
ATOM      6  C   UNL     1      37.167  37.027  20.494  1.00  0.00     0.000 C 
BRANCH   6   7
ATOM      7  C   UNL     1      37.365  38.530  20.729  1.00  0.00    -0.003 C 
ATOM      8  C   UNL     1      36.210  39.337  20.144  1.00  0.00     0.004 C 
ENDBRANCH   6   7
ENDBRANCH   1   6
TORSDOF 4
ENDMDL
MODEL 6
REMARK VINA RESULT:    -2.686     15.308     16.127
REMARK INTER + INTRA:          -3.455
REMARK INTER:                  -3.306
REMARK INTRA:                  -0.148
REMARK UNBOUND:                -0.140
REMARK SMILES CCCCCC(=O)[O-]
REMARK SMILES IDX 4 1 5 2 6 3 7 4 8 5 3 6 2 7 1 8
REMARK H PARENT
REMARK Flexibility Score: inf
ROOT
ATOM      1  C   UNL     1      21.895  36.758  17.467  1.00  0.00     0.006 C 
ENDROOT
BRANCH   1   2
ATOM      2  C   UNL     1      22.380  35.311  17.584  1.00  0.00     0.053 C 
BRANCH   2   3
ATOM      3  C   UNL     1      23.873  35.253  17.528  1.00  0.00     0.041 C 
ATOM      4  O   UNL     1      24.558  35.589  18.530  1.00  0.00    -0.550 OA
ATOM      5  O   UNL     1      24.512  34.875  16.354  1.00  0.00    -0.550 OA
ENDBRANCH   2   3
ENDBRANCH   1   2
BRANCH   1   6
ATOM      6  C   UNL     1      20.850  37.076  18.544  1.00  0.00     0.000 C 
BRANCH   6   7
ATOM      7  C   UNL     1      20.563  35.845  19.412  1.00  0.00    -0.003 C 
ATOM      8  C   UNL     1      20.043  36.251  20.789  1.00  0.00     0.004 C 
ENDBRANCH   6   7
ENDBRANCH   1   6
TORSDOF 4
ENDMDL
MODEL 7
REMARK VINA RESULT:    -2.639      2.427      3.188
REMARK INTER + INTRA:          -3.396
REMARK INTER:                  -3.264
REMARK INTRA:                  -0.132
REMARK UNBOUND:                -0.140
REMARK SMILES CCCCCC(=O)[O-]
REMARK SMILES IDX 4 1 5 2 6 3 7 4 8 5 3 6 2 7 1 8
REMARK H PARENT
REMARK Flexibility Score: inf
ROOT
ATOM      1  C   UNL     1      38.116  36.439  19.705  1.00  0.00     0.006 C 
ENDROOT
BRANCH   1   2
ATOM      2  C   UNL     1      36.940  37.154  20.376  1.00  0.00     0.053 C 
BRANCH   2   3
ATOM      3  C   UNL     1      37.033  38.631  20.157  1.00  0.00     0.041 C 
ATOM      4  O   UNL     1      38.152  39.172  19.954  1.00  0.00    -0.550 OA
ATOM      5  O   UNL     1      35.890  39.418  20.227  1.00  0.00    -0.550 OA
ENDBRANCH   2   3
ENDBRANCH   1   2
BRANCH   1   6
ATOM      6  C   UNL     1      37.653  35.153  19.009  1.00  0.00     0.000 C 
BRANCH   6   7
ATOM      7  C   UNL     1      38.272  35.030  17.612  1.00  0.00    -0.003 C 
ATOM      8  C   UNL     1      39.043  36.293  17.237  1.00  0.00     0.004 C 
ENDBRANCH   6   7
ENDBRANCH   1   6
TORSDOF 4
ENDMDL
MODEL 8
REMARK VINA RESULT:    -2.610     14.296     15.157
REMARK INTER + INTRA:          -3.360
REMARK INTER:                  -3.263
REMARK INTRA:                  -0.097
REMARK UNBOUND:                -0.140
REMARK SMILES CCCCCC(=O)[O-]
REMARK SMILES IDX 4 1 5 2 6 3 7 4 8 5 3 6 2 7 1 8
REMARK H PARENT
REMARK Flexibility Score: inf
ROOT
ATOM      1  C   UNL     1      23.151  35.992  17.582  1.00  0.00     0.006 C 
ENDROOT
BRANCH   1   2
ATOM      2  C   UNL     1      23.849  35.033  18.549  1.00  0.00     0.053 C 
BRANCH   2   3
ATOM      3  C   UNL     1      25.321  35.299  18.578  1.00  0.00     0.041 C 
ATOM      4  O   UNL     1      25.871  35.702  19.636  1.00  0.00    -0.550 OA
ATOM      5  O   UNL     1      26.078  35.149  17.423  1.00  0.00    -0.550 OA
ENDBRANCH   2   3
ENDBRANCH   1   2
BRANCH   1   6
ATOM      6  C   UNL     1      21.628  35.824  17.645  1.00  0.00     0.000 C 
BRANCH   6   7
ATOM      7  C   UNL     1      20.991  36.908  18.523  1.00  0.00    -0.003 C 
ATOM      8  C   UNL     1      20.333  36.301  19.760  1.00  0.00     0.004 C 
ENDBRANCH   6   7
ENDBRANCH   1   6
TORSDOF 4
ENDMDL
MODEL 9
REMARK VINA RESULT:    -2.473      2.553      4.255
REMARK INTER + INTRA:          -3.191
REMARK INTER:                  -3.029
REMARK INTRA:                  -0.161
REMARK UNBOUND:                -0.140
REMARK SMILES CCCCCC(=O)[O-]
REMARK SMILES IDX 4 1 5 2 6 3 7 4 8 5 3 6 2 7 1 8
REMARK H PARENT
REMARK Flexibility Score: inf
ROOT
ATOM      1  C   UNL     1      39.147  37.120  19.186  1.00  0.00     0.006 C 
ENDROOT
BRANCH   1   2
ATOM      2  C   UNL     1      38.142  35.970  19.300  1.00  0.00     0.053 C 
BRANCH   2   3
ATOM      3  C   UNL     1      37.150  36.247  20.385  1.00  0.00     0.041 C 
ATOM      4  O   UNL     1      36.632  37.389  20.493  1.00  0.00    -0.550 OA
ATOM      5  O   UNL     1      36.834  35.257  21.307  1.00  0.00    -0.550 OA
ENDBRANCH   2   3
ENDBRANCH   1   2
BRANCH   1   6
ATOM      6  C   UNL     1      39.227  37.640  17.746  1.00  0.00     0.000 C 
BRANCH   6   7
ATOM      7  C   UNL     1      39.182  39.172  17.711  1.00  0.00    -0.003 C 
ATOM      8  C   UNL     1      38.600  39.737  19.004  1.00  0.00     0.004 C 
ENDBRANCH   6   7
ENDBRANCH   1   6
TORSDOF 4
ENDMDL
