MODEL 1
REMARK VINA RESULT:     4.389      0.000      0.000
REMARK INTER + INTRA:           6.972
REMARK INTER:                   7.724
REMARK INTRA:                  -0.752
REMARK UNBOUND:                -0.752
REMARK SMILES CCCCCCCCCCCCCCC(=O)[O-]
REMARK SMILES IDX 9 1 10 2 11 3 12 4 13 5 14 6 15 7 16 8 17 9 8 10 7 11 6 12
REMARK SMILES IDX 5 13 4 14 3 15 2 16 1 17
REMARK H PARENT
REMARK Flexibility Score: inf
ROOT
ATOM      1  C   UNL     1      11.798  -1.761 -17.290  1.00  0.00     0.000 C 
ENDROOT
BRANCH   1   2
ATOM      2  C   UNL     1      10.843  -2.472 -16.320  1.00  0.00     0.000 C 
BRANCH   2   3
ATOM      3  C   UNL     1      11.023  -3.996 -16.390  1.00  0.00     0.000 C 
BRANCH   3   4
ATOM      4  C   UNL     1      11.448  -4.480 -17.785  1.00  0.00     0.000 C 
BRANCH   4   5
ATOM      5  C   UNL     1      12.138  -5.855 -17.752  1.00  0.00     0.006 C 
BRANCH   5   6
ATOM      6  C   UNL     1      12.961  -6.121 -19.020  1.00  0.00     0.053 C 
BRANCH   6   7
ATOM      7  C   UNL     1      14.371  -6.508 -18.696  1.00  0.00     0.041 C 
ATOM      8  O   UNL     1      15.323  -6.094 -19.408  1.00  0.00    -0.550 OA
ATOM      9  O   UNL     1      14.637  -7.303 -17.587  1.00  0.00    -0.550 OA
ENDBRANCH   6   7
ENDBRANCH   5   6
ENDBRANCH   4   5
ENDBRANCH   3   4
ENDBRANCH   2   3
ENDBRANCH   1   2
BRANCH   1  10
ATOM     10  C   UNL     1      12.479  -0.534 -16.663  1.00  0.00     0.000 C 
BRANCH  10  11
ATOM     11  C   UNL     1      13.224   0.323 -17.701  1.00  0.00    -0.000 C 
BRANCH  11  12
ATOM     12  C   UNL     1      13.003   1.831 -17.491  1.00  0.00    -0.000 C 
BRANCH  12  13
ATOM     13  C   UNL     1      12.697   2.185 -16.024  1.00  0.00    -0.000 C 
BRANCH  13  14
ATOM     14  C   UNL     1      11.214   2.519 -15.794  1.00  0.00    -0.000 C 
BRANCH  14  15
ATOM     15  C   UNL     1      10.779   2.310 -14.334  1.00  0.00    -0.000 C 
BRANCH  15  16
ATOM     16  C   UNL     1      10.475   0.838 -14.016  1.00  0.00    -0.003 C 
ATOM     17  C   UNL     1       9.376   0.672 -12.967  1.00  0.00     0.004 C 
ENDBRANCH  15  16
ENDBRANCH  14  15
ENDBRANCH  13  14
ENDBRANCH  12  13
ENDBRANCH  11  12
ENDBRANCH  10  11
ENDBRANCH   1  10
TORSDOF 13
ENDMDL
MODEL 2
REMARK VINA RESULT:     5.082      1.094      3.285
REMARK INTER + INTRA:           8.192
REMARK INTER:                   8.726
REMARK INTRA:                  -0.533
REMARK UNBOUND:                -0.752
REMARK SMILES CCCCCCCCCCCCCCC(=O)[O-]
REMARK SMILES IDX 9 1 10 2 11 3 12 4 13 5 14 6 15 7 16 8 17 9 8 10 7 11 6 12
REMARK SMILES IDX 5 13 4 14 3 15 2 16 1 17
REMARK H PARENT
REMARK Flexibility Score: inf
ROOT
ATOM      1  C   UNL     1      11.858  -1.490 -16.711  1.00  0.00     0.000 C 
ENDROOT
BRANCH   1   2
ATOM      2  C   UNL     1      10.689  -2.413 -16.336  1.00  0.00     0.000 C 
BRANCH   2   3
ATOM      3  C   UNL     1      11.130  -3.885 -16.338  1.00  0.00     0.000 C 
BRANCH   3   4
ATOM      4  C   UNL     1      11.458  -4.405 -17.747  1.00  0.00     0.000 C 
BRANCH   4   5
ATOM      5  C   UNL     1      12.055  -5.823 -17.732  1.00  0.00     0.006 C 
BRANCH   5   6
ATOM      6  C   UNL     1      12.872  -6.121 -18.997  1.00  0.00     0.053 C 
BRANCH   6   7
ATOM      7  C   UNL     1      14.287  -6.490 -18.670  1.00  0.00     0.041 C 
ATOM      8  O   UNL     1      14.538  -7.235 -17.687  1.00  0.00    -0.550 OA
ATOM      9  O   UNL     1      15.327  -6.033 -19.471  1.00  0.00    -0.550 OA
ENDBRANCH   6   7
ENDBRANCH   5   6
ENDBRANCH   4   5
ENDBRANCH   3   4
ENDBRANCH   2   3
ENDBRANCH   1   2
BRANCH   1  10
ATOM     10  C   UNL     1      12.300  -0.586 -15.549  1.00  0.00     0.000 C 
BRANCH  10  11
ATOM     11  C   UNL     1      11.158   0.301 -15.023  1.00  0.00    -0.000 C 
BRANCH  11  12
ATOM     12  C   UNL     1      11.411   1.798 -15.268  1.00  0.00    -0.000 C 
BRANCH  12  13
ATOM     13  C   UNL     1      11.881   2.090 -16.705  1.00  0.00    -0.000 C 
BRANCH  13  14
ATOM     14  C   UNL     1      13.407   1.985 -16.859  1.00  0.00    -0.000 C 
BRANCH  14  15
ATOM     15  C   UNL     1      13.828   1.466 -18.245  1.00  0.00    -0.000 C 
BRANCH  15  16
ATOM     16  C   UNL     1      14.881   0.351 -18.161  1.00  0.00    -0.003 C 
ATOM     17  C   UNL     1      15.955   0.465 -19.242  1.00  0.00     0.004 C 
ENDBRANCH  15  16
ENDBRANCH  14  15
ENDBRANCH  13  14
ENDBRANCH  12  13
ENDBRANCH  11  12
ENDBRANCH  10  11
ENDBRANCH   1  10
TORSDOF 13
ENDMDL
MODEL 3
REMARK VINA RESULT:     5.149      3.970      8.141
REMARK INTER + INTRA:           8.310
REMARK INTER:                   8.964
REMARK INTRA:                  -0.654
REMARK UNBOUND:                -0.752
REMARK SMILES CCCCCCCCCCCCCCC(=O)[O-]
REMARK SMILES IDX 9 1 10 2 11 3 12 4 13 5 14 6 15 7 16 8 17 9 8 10 7 11 6 12
REMARK SMILES IDX 5 13 4 14 3 15 2 16 1 17
REMARK H PARENT
REMARK Flexibility Score: inf
ROOT
ATOM      1  C   UNL     1      12.290  -0.149 -17.504  1.00  0.00     0.000 C 
ENDROOT
BRANCH   1   2
ATOM      2  C   UNL     1      13.604   0.628 -17.333  1.00  0.00     0.000 C 
BRANCH   2   3
ATOM      3  C   UNL     1      13.330   2.094 -16.965  1.00  0.00     0.000 C 
BRANCH   3   4
ATOM      4  C   UNL     1      11.837   2.379 -16.732  1.00  0.00     0.000 C 
BRANCH   4   5
ATOM      5  C   UNL     1      11.494   2.560 -15.243  1.00  0.00     0.006 C 
BRANCH   5   6
ATOM      6  C   UNL     1      10.911   1.283 -14.624  1.00  0.00     0.053 C 
BRANCH   6   7
ATOM      7  C   UNL     1      10.051   1.584 -13.435  1.00  0.00     0.041 C 
ATOM      8  O   UNL     1       9.225   0.732 -13.017  1.00  0.00    -0.550 OA
ATOM      9  O   UNL     1      10.183   2.797 -12.770  1.00  0.00    -0.550 OA
ENDBRANCH   6   7
ENDBRANCH   5   6
ENDBRANCH   4   5
ENDBRANCH   3   4
ENDBRANCH   2   3
ENDBRANCH   1   2
BRANCH   1  10
ATOM     10  C   UNL     1      12.184  -1.356 -16.557  1.00  0.00     0.000 C 
BRANCH  10  11
ATOM     11  C   UNL     1      10.919  -2.196 -16.810  1.00  0.00    -0.000 C 
BRANCH  11  12
ATOM     12  C   UNL     1      11.114  -3.679 -16.451  1.00  0.00    -0.000 C 
BRANCH  12  13
ATOM     13  C   UNL     1      11.134  -4.590 -17.692  1.00  0.00    -0.000 C 
BRANCH  13  14
ATOM     14  C   UNL     1      12.141  -5.744 -17.561  1.00  0.00    -0.000 C 
BRANCH  14  15
ATOM     15  C   UNL     1      12.787  -6.123 -18.905  1.00  0.00    -0.000 C 
BRANCH  15  16
ATOM     16  C   UNL     1      14.320  -6.177 -18.826  1.00  0.00    -0.003 C 
ATOM     17  C   UNL     1      14.835  -7.441 -18.140  1.00  0.00     0.004 C 
ENDBRANCH  15  16
ENDBRANCH  14  15
ENDBRANCH  13  14
ENDBRANCH  12  13
ENDBRANCH  11  12
ENDBRANCH  10  11
ENDBRANCH   1  10
TORSDOF 13
ENDMDL
MODEL 4
REMARK VINA RESULT:     5.353      0.933      1.407
REMARK INTER + INTRA:           8.668
REMARK INTER:                   9.110
REMARK INTRA:                  -0.442
REMARK UNBOUND:                -0.752
REMARK SMILES CCCCCCCCCCCCCCC(=O)[O-]
REMARK SMILES IDX 9 1 10 2 11 3 12 4 13 5 14 6 15 7 16 8 17 9 8 10 7 11 6 12
REMARK SMILES IDX 5 13 4 14 3 15 2 16 1 17
REMARK H PARENT
REMARK Flexibility Score: inf
ROOT
ATOM      1  C   UNL     1      10.762  -2.448 -16.547  1.00  0.00     0.000 C 
ENDROOT
BRANCH   1   2
ATOM      2  C   UNL     1      11.205  -3.915 -16.448  1.00  0.00     0.000 C 
BRANCH   2   3
ATOM      3  C   UNL     1      11.377  -4.531 -17.845  1.00  0.00     0.000 C 
BRANCH   3   4
ATOM      4  C   UNL     1      12.234  -5.807 -17.830  1.00  0.00     0.000 C 
BRANCH   4   5
ATOM      5  C   UNL     1      13.021  -6.009 -19.136  1.00  0.00     0.006 C 
BRANCH   5   6
ATOM      6  C   UNL     1      14.519  -6.224 -18.882  1.00  0.00     0.053 C 
BRANCH   6   7
ATOM      7  C   UNL     1      14.765  -7.344 -17.918  1.00  0.00     0.041 C 
ATOM      8  O   UNL     1      14.896  -8.524 -18.336  1.00  0.00    -0.550 OA
ATOM      9  O   UNL     1      14.878  -7.079 -16.559  1.00  0.00    -0.550 OA
ENDBRANCH   6   7
ENDBRANCH   5   6
ENDBRANCH   4   5
ENDBRANCH   3   4
ENDBRANCH   2   3
ENDBRANCH   1   2
BRANCH   1  10
ATOM     10  C   UNL     1      11.906  -1.460 -16.265  1.00  0.00     0.000 C 
BRANCH  10  11
ATOM     11  C   UNL     1      12.137  -0.477 -17.426  1.00  0.00    -0.000 C 
BRANCH  11  12
ATOM     12  C   UNL     1      13.263   0.529 -17.133  1.00  0.00    -0.000 C 
BRANCH  12  13
ATOM     13  C   UNL     1      12.738   1.846 -16.533  1.00  0.00    -0.000 C 
BRANCH  13  14
ATOM     14  C   UNL     1      11.321   1.706 -15.952  1.00  0.00    -0.000 C 
BRANCH  14  15
ATOM     15  C   UNL     1      11.025   2.744 -14.856  1.00  0.00    -0.000 C 
BRANCH  15  16
ATOM     16  C   UNL     1      10.589   2.095 -13.533  1.00  0.00    -0.003 C 
ATOM     17  C   UNL     1       9.858   0.768 -13.736  1.00  0.00     0.004 C 
ENDBRANCH  15  16
ENDBRANCH  14  15
ENDBRANCH  13  14
ENDBRANCH  12  13
ENDBRANCH  11  12
ENDBRANCH  10  11
ENDBRANCH   1  10
TORSDOF 13
ENDMDL
MODEL 5
REMARK VINA RESULT:     5.487      1.901      3.700
REMARK INTER + INTRA:           8.904
REMARK INTER:                   9.113
REMARK INTRA:                  -0.209
REMARK UNBOUND:                -0.752
REMARK SMILES CCCCCCCCCCCCCCC(=O)[O-]
REMARK SMILES IDX 9 1 10 2 11 3 12 4 13 5 14 6 15 7 16 8 17 9 8 10 7 11 6 12
REMARK SMILES IDX 5 13 4 14 3 15 2 16 1 17
REMARK H PARENT
REMARK Flexibility Score: inf
ROOT
ATOM      1  C   UNL     1      10.743  -3.586 -15.991  1.00  0.00     0.000 C 
ENDROOT
BRANCH   1   2
ATOM      2  C   UNL     1      10.896  -4.934 -16.710  1.00  0.00     0.000 C 
BRANCH   2   3
ATOM      3  C   UNL     1      11.873  -4.818 -17.889  1.00  0.00     0.000 C 
BRANCH   3   4
ATOM      4  C   UNL     1      12.447  -6.178 -18.321  1.00  0.00     0.000 C 
BRANCH   4   5
ATOM      5  C   UNL     1      13.500  -6.050 -19.435  1.00  0.00     0.006 C 
BRANCH   5   6
ATOM      6  C   UNL     1      14.918  -6.352 -18.929  1.00  0.00     0.053 C 
BRANCH   6   7
ATOM      7  C   UNL     1      14.921  -7.445 -17.905  1.00  0.00     0.041 C 
ATOM      8  O   UNL     1      14.947  -8.651 -18.264  1.00  0.00    -0.550 OA
ATOM      9  O   UNL     1      14.926  -7.130 -16.552  1.00  0.00    -0.550 OA
ENDBRANCH   6   7
ENDBRANCH   5   6
ENDBRANCH   4   5
ENDBRANCH   3   4
ENDBRANCH   2   3
ENDBRANCH   1   2
BRANCH   1  10
ATOM     10  C   UNL     1      11.030  -2.385 -16.907  1.00  0.00     0.000 C 
BRANCH  10  11
ATOM     11  C   UNL     1      11.808  -1.267 -16.192  1.00  0.00    -0.000 C 
BRANCH  11  12
ATOM     12  C   UNL     1      12.492  -0.301 -17.174  1.00  0.00    -0.000 C 
BRANCH  12  13
ATOM     13  C   UNL     1      12.540   1.144 -16.644  1.00  0.00    -0.000 C 
BRANCH  13  14
ATOM     14  C   UNL     1      13.641   1.982 -17.315  1.00  0.00    -0.000 C 
BRANCH  14  15
ATOM     15  C   UNL     1      14.070   1.414 -18.679  1.00  0.00    -0.000 C 
BRANCH  15  16
ATOM     16  C   UNL     1      15.214   0.397 -18.560  1.00  0.00    -0.003 C 
ATOM     17  C   UNL     1      16.360   0.677 -19.532  1.00  0.00     0.004 C 
ENDBRANCH  15  16
ENDBRANCH  14  15
ENDBRANCH  13  14
ENDBRANCH  12  13
ENDBRANCH  11  12
ENDBRANCH  10  11
ENDBRANCH   1  10
TORSDOF 13
ENDMDL
MODEL 6
REMARK VINA RESULT:     5.661      2.616      7.132
REMARK INTER + INTRA:           9.211
REMARK INTER:                   9.746
REMARK INTRA:                  -0.535
REMARK UNBOUND:                -0.752
REMARK SMILES CCCCCCCCCCCCCCC(=O)[O-]
REMARK SMILES IDX 9 1 10 2 11 3 12 4 13 5 14 6 15 7 16 8 17 9 8 10 7 11 6 12
REMARK SMILES IDX 5 13 4 14 3 15 2 16 1 17
REMARK H PARENT
REMARK Flexibility Score: inf
ROOT
ATOM      1  C   UNL     1      12.251  -0.518 -15.632  1.00  0.00     0.000 C 
ENDROOT
BRANCH   1   2
ATOM      2  C   UNL     1      11.098   0.328 -15.073  1.00  0.00     0.000 C 
BRANCH   2   3
ATOM      3  C   UNL     1      11.376   1.827 -15.259  1.00  0.00     0.000 C 
BRANCH   3   4
ATOM      4  C   UNL     1      11.811   2.177 -16.692  1.00  0.00     0.000 C 
BRANCH   4   5
ATOM      5  C   UNL     1      13.338   2.129 -16.876  1.00  0.00     0.006 C 
BRANCH   5   6
ATOM      6  C   UNL     1      13.738   1.549 -18.240  1.00  0.00     0.053 C 
BRANCH   6   7
ATOM      7  C   UNL     1      14.958   0.685 -18.140  1.00  0.00     0.041 C 
ATOM      8  O   UNL     1      15.338   0.250 -17.023  1.00  0.00    -0.550 OA
ATOM      9  O   UNL     1      15.657   0.335 -19.289  1.00  0.00    -0.550 OA
ENDBRANCH   6   7
ENDBRANCH   5   6
ENDBRANCH   4   5
ENDBRANCH   3   4
ENDBRANCH   2   3
ENDBRANCH   1   2
BRANCH   1  10
ATOM     10  C   UNL     1      11.811  -1.441 -16.780  1.00  0.00     0.000 C 
BRANCH  10  11
ATOM     11  C   UNL     1      10.669  -2.388 -16.372  1.00  0.00    -0.000 C 
BRANCH  11  12
ATOM     12  C   UNL     1      11.101  -3.864 -16.359  1.00  0.00    -0.000 C 
BRANCH  12  13
ATOM     13  C   UNL     1      11.511  -4.372 -17.753  1.00  0.00    -0.000 C 
BRANCH  13  14
ATOM     14  C   UNL     1      12.007  -5.828 -17.728  1.00  0.00    -0.000 C 
BRANCH  14  15
ATOM     15  C   UNL     1      12.853  -6.187 -18.962  1.00  0.00    -0.000 C 
BRANCH  15  16
ATOM     16  C   UNL     1      14.360  -6.190 -18.662  1.00  0.00    -0.003 C 
ATOM     17  C   UNL     1      14.849  -7.523 -18.095  1.00  0.00     0.004 C 
ENDBRANCH  15  16
ENDBRANCH  14  15
ENDBRANCH  13  14
ENDBRANCH  12  13
ENDBRANCH  11  12
ENDBRANCH  10  11
ENDBRANCH   1  10
TORSDOF 13
ENDMDL
MODEL 7
REMARK VINA RESULT:     6.633      1.641      3.289
REMARK INTER + INTRA:          10.922
REMARK INTER:                  11.320
REMARK INTRA:                  -0.399
REMARK UNBOUND:                -0.752
REMARK SMILES CCCCCCCCCCCCCCC(=O)[O-]
REMARK SMILES IDX 9 1 10 2 11 3 12 4 13 5 14 6 15 7 16 8 17 9 8 10 7 11 6 12
REMARK SMILES IDX 5 13 4 14 3 15 2 16 1 17
REMARK H PARENT
REMARK Flexibility Score: inf
ROOT
ATOM      1  C   UNL     1      11.634  -1.935 -17.002  1.00  0.00     0.000 C 
ENDROOT
BRANCH   1   2
ATOM      2  C   UNL     1      10.681  -2.851 -16.219  1.00  0.00     0.000 C 
BRANCH   2   3
ATOM      3  C   UNL     1      11.094  -4.323 -16.362  1.00  0.00     0.000 C 
BRANCH   3   4
ATOM      4  C   UNL     1      11.482  -4.695 -17.802  1.00  0.00     0.000 C 
BRANCH   4   5
ATOM      5  C   UNL     1      12.234  -6.034 -17.888  1.00  0.00     0.006 C 
BRANCH   5   6
ATOM      6  C   UNL     1      13.105  -6.130 -19.148  1.00  0.00     0.053 C 
BRANCH   6   7
ATOM      7  C   UNL     1      14.511  -6.529 -18.822  1.00  0.00     0.041 C 
ATOM      8  O   UNL     1      15.479  -5.992 -19.422  1.00  0.00    -0.550 OA
ATOM      9  O   UNL     1      14.754  -7.475 -17.833  1.00  0.00    -0.550 OA
ENDBRANCH   6   7
ENDBRANCH   5   6
ENDBRANCH   4   5
ENDBRANCH   3   4
ENDBRANCH   2   3
ENDBRANCH   1   2
BRANCH   1  10
ATOM     10  C   UNL     1      12.012  -0.664 -16.224  1.00  0.00     0.000 C 
BRANCH  10  11
ATOM     11  C   UNL     1      12.127   0.572 -17.132  1.00  0.00    -0.000 C 
BRANCH  11  12
ATOM     12  C   UNL     1      12.838   1.749 -16.441  1.00  0.00    -0.000 C 
BRANCH  12  13
ATOM     13  C   UNL     1      14.247   2.002 -17.006  1.00  0.00    -0.000 C 
BRANCH  13  14
ATOM     14  C   UNL     1      14.705   0.894 -17.969  1.00  0.00    -0.000 C 
BRANCH  14  15
ATOM     15  C   UNL     1      14.401   1.225 -19.441  1.00  0.00    -0.000 C 
BRANCH  15  16
ATOM     16  C   UNL     1      13.616   2.535 -19.599  1.00  0.00    -0.003 C 
ATOM     17  C   UNL     1      12.540   2.455 -20.682  1.00  0.00     0.004 C 
ENDBRANCH  15  16
ENDBRANCH  14  15
ENDBRANCH  13  14
ENDBRANCH  12  13
ENDBRANCH  11  12
ENDBRANCH  10  11
ENDBRANCH   1  10
TORSDOF 13
ENDMDL
