MODEL 1
REMARK VINA RESULT:    -5.771      0.000      0.000
REMARK INTER + INTRA:          -5.295
REMARK INTER:                  -6.277
REMARK INTRA:                   0.982
REMARK UNBOUND:                 0.982
REMARK SMILES CC1(C)CC[C@@]2(C(=O)[O-])CC[C@]3(C)C(=CC[C@@H]4[C@]5(C)CC[C@@H](O)C(C)(C)[C@@H]5CC[C@@]43C)[C@@H]2C1
REMARK SMILES IDX 6 1 5 2 10 3 32 4 4 5 11 6 14 7 33 8 2 9 12 10 15 11 1 12
REMARK SMILES IDX 3 13 13 14 30 15 16 16 17 17 29 18 31 19 18 20 28 21 27 22
REMARK SMILES IDX 20 23 19 24 24 25 21 26 22 27 25 28 26 29 7 30 8 31 9 32
REMARK SMILES IDX 23 33
REMARK H PARENT 23 34
REMARK Flexibility Score: inf
ROOT
ATOM      1  C   UNL     1       7.370   8.239 -14.378  1.00  0.00     0.017 C 
ATOM      2  C   UNL     1       6.200   7.532 -13.642  1.00  0.00     0.014 C 
ATOM      3  C   UNL     1       6.932   8.700 -15.803  1.00  0.00     0.014 C 
ATOM      4  C   UNL     1       7.674   9.536 -13.565  1.00  0.00     0.028 C 
ATOM      5  C   UNL     1       6.574   7.189 -12.178  1.00  0.00     0.007 C 
ATOM      6  C   UNL     1       7.935   9.639 -16.560  1.00  0.00     0.013 C 
ATOM      7  C   UNL     1       8.441  10.629 -14.323  1.00  0.00    -0.064 C 
ATOM      8  C   UNL     1       8.119   9.282 -12.115  1.00  0.00     0.015 C 
ATOM      9  C   UNL     1       7.083   8.404 -11.334  1.00  0.00    -0.035 C 
ATOM     10  C   UNL     1       9.054  10.338 -15.706  1.00  0.00    -0.006 C 
ATOM     11  C   UNL     1       8.044  11.888 -14.042  1.00  0.00    -0.027 C 
ATOM     12  C   UNL     1       5.875   9.264 -10.887  1.00  0.00     0.011 C 
ATOM     13  C   UNL     1       7.768   7.866 -10.060  1.00  0.00     0.011 C 
ATOM     14  C   UNL     1      10.250   9.331 -15.543  1.00  0.00     0.017 C 
ATOM     15  C   UNL     1       9.610  11.713 -16.384  1.00  0.00    -0.020 C 
ATOM     16  C   UNL     1       7.529  12.727 -15.167  1.00  0.00     0.032 C 
ATOM     17  C   UNL     1       8.573  12.943 -16.287  1.00  0.00     0.006 C 
ATOM     18  C   UNL     1      10.106  11.455 -17.843  1.00  0.00     0.008 C 
ATOM     19  C   UNL     1      10.893  12.175 -15.582  1.00  0.00     0.012 C 
ATOM     20  C   UNL     1       7.960  13.659 -17.607  1.00  0.00    -0.025 C 
ATOM     21  C   UNL     1       9.141  11.848 -18.942  1.00  0.00     0.005 C 
ATOM     22  C   UNL     1       8.831  13.364 -18.897  1.00  0.00     0.003 C 
ATOM     23  C   UNL     1       6.474  13.236 -17.881  1.00  0.00     0.010 C 
ATOM     24  C   UNL     1       7.958  15.194 -17.295  1.00  0.00     0.012 C 
ATOM     25  C   UNL     1       8.216  13.889 -20.277  1.00  0.00    -0.006 C 
ATOM     26  C   UNL     1       5.875  13.760 -19.196  1.00  0.00     0.033 C 
ATOM     27  C   UNL     1       6.741  13.402 -20.412  1.00  0.00     0.120 C 
ATOM     28  C   UNL     1       9.013  13.337 -21.500  1.00  0.00     0.014 C 
ATOM     29  C   UNL     1       8.325  15.442 -20.391  1.00  0.00     0.014 C 
ENDROOT
BRANCH   1  30
ATOM     30  C   UNL     1       8.475   7.193 -14.490  1.00  0.00     0.048 C 
ATOM     31  O   UNL     1       9.646   7.414 -14.085  1.00  0.00    -0.550 OA
ATOM     32  O   UNL     1       8.170   5.917 -14.953  1.00  0.00    -0.550 OA
ENDBRANCH   1  30
BRANCH  27  33
ATOM     33  O   UNL     1       6.146  13.861 -21.604  1.00  0.00    -0.393 OA
ATOM     34  H   UNL     1       6.258  14.845 -21.648  1.00  0.00     0.210 HD
ENDBRANCH  27  33
TORSDOF 2
ENDMDL
MODEL 2
REMARK VINA RESULT:    -5.036      2.336      3.450
REMARK INTER + INTRA:          -4.496
REMARK INTER:                  -4.965
REMARK INTRA:                   0.469
REMARK UNBOUND:                 0.982
REMARK SMILES CC1(C)CC[C@@]2(C(=O)[O-])CC[C@]3(C)C(=CC[C@@H]4[C@]5(C)CC[C@@H](O)C(C)(C)[C@@H]5CC[C@@]43C)[C@@H]2C1
REMARK SMILES IDX 6 1 5 2 10 3 32 4 4 5 11 6 14 7 33 8 2 9 12 10 15 11 1 12
REMARK SMILES IDX 3 13 13 14 30 15 16 16 17 17 29 18 31 19 18 20 28 21 27 22
REMARK SMILES IDX 20 23 19 24 24 25 21 26 22 27 25 28 26 29 7 30 8 31 9 32
REMARK SMILES IDX 23 33
REMARK H PARENT 23 34
REMARK Flexibility Score: inf
ROOT
ATOM      1  C   UNL     1       8.910   9.429 -17.328  1.00  0.00     0.017 C 
ATOM      2  C   UNL     1       8.175   8.173 -17.874  1.00  0.00     0.014 C 
ATOM      3  C   UNL     1       8.889  10.584 -18.377  1.00  0.00     0.014 C 
ATOM      4  C   UNL     1       8.075   9.923 -16.106  1.00  0.00     0.028 C 
ATOM      5  C   UNL     1       8.068   7.065 -16.796  1.00  0.00     0.007 C 
ATOM      6  C   UNL     1       9.378  11.984 -17.866  1.00  0.00     0.013 C 
ATOM      7  C   UNL     1       8.306  11.383 -15.691  1.00  0.00    -0.064 C 
ATOM      8  C   UNL     1       7.973   8.905 -14.957  1.00  0.00     0.015 C 
ATOM      9  C   UNL     1       7.416   7.526 -15.450  1.00  0.00    -0.035 C 
ATOM     10  C   UNL     1       9.457  12.199 -16.312  1.00  0.00    -0.006 C 
ATOM     11  C   UNL     1       7.194  12.034 -15.291  1.00  0.00    -0.027 C 
ATOM     12  C   UNL     1       5.878   7.595 -15.619  1.00  0.00     0.011 C 
ATOM     13  C   UNL     1       7.719   6.467 -14.369  1.00  0.00     0.011 C 
ATOM     14  C   UNL     1      10.831  11.627 -15.805  1.00  0.00     0.017 C 
ATOM     15  C   UNL     1       9.345  13.766 -15.877  1.00  0.00    -0.020 C 
ATOM     16  C   UNL     1       6.785  13.255 -16.050  1.00  0.00     0.032 C 
ATOM     17  C   UNL     1       7.857  14.370 -16.024  1.00  0.00     0.006 C 
ATOM     18  C   UNL     1      10.421  14.628 -16.610  1.00  0.00     0.008 C 
ATOM     19  C   UNL     1       9.697  13.878 -14.339  1.00  0.00     0.012 C 
ATOM     20  C   UNL     1       7.524  15.605 -17.022  1.00  0.00    -0.025 C 
ATOM     21  C   UNL     1       9.930  15.405 -17.814  1.00  0.00     0.005 C 
ATOM     22  C   UNL     1       8.827  16.415 -17.414  1.00  0.00     0.003 C 
ATOM     23  C   UNL     1       6.795  15.136 -18.330  1.00  0.00     0.010 C 
ATOM     24  C   UNL     1       6.529  16.526 -16.238  1.00  0.00     0.012 C 
ATOM     25  C   UNL     1       8.625  17.548 -18.525  1.00  0.00    -0.006 C 
ATOM     26  C   UNL     1       6.579  16.230 -19.388  1.00  0.00     0.033 C 
ATOM     27  C   UNL     1       7.886  16.946 -19.758  1.00  0.00     0.120 C 
ATOM     28  C   UNL     1       9.994  18.111 -19.018  1.00  0.00     0.014 C 
ATOM     29  C   UNL     1       7.865  18.782 -17.942  1.00  0.00     0.014 C 
ENDROOT
BRANCH   1  30
ATOM     30  C   UNL     1      10.348   8.985 -17.077  1.00  0.00     0.048 C 
ATOM     31  O   UNL     1      11.218   9.000 -17.986  1.00  0.00    -0.550 OA
ATOM     32  O   UNL     1      10.750   8.653 -15.787  1.00  0.00    -0.550 OA
ENDBRANCH   1  30
BRANCH  27  33
ATOM     33  O   UNL     1       7.662  17.914 -20.757  1.00  0.00    -0.393 OA
ATOM     34  H   UNL     1       7.133  17.494 -21.484  1.00  0.00     0.210 HD
ENDBRANCH  27  33
TORSDOF 2
ENDMDL
MODEL 3
REMARK VINA RESULT:    -4.991      1.477      2.438
REMARK INTER + INTRA:          -4.447
REMARK INTER:                  -5.016
REMARK INTRA:                   0.569
REMARK UNBOUND:                 0.982
REMARK SMILES CC1(C)CC[C@@]2(C(=O)[O-])CC[C@]3(C)C(=CC[C@@H]4[C@]5(C)CC[C@@H](O)C(C)(C)[C@@H]5CC[C@@]43C)[C@@H]2C1
REMARK SMILES IDX 6 1 5 2 10 3 32 4 4 5 11 6 14 7 33 8 2 9 12 10 15 11 1 12
REMARK SMILES IDX 3 13 13 14 30 15 16 16 17 17 29 18 31 19 18 20 28 21 27 22
REMARK SMILES IDX 20 23 19 24 24 25 21 26 22 27 25 28 26 29 7 30 8 31 9 32
REMARK SMILES IDX 23 33
REMARK H PARENT 23 34
REMARK Flexibility Score: inf
ROOT
ATOM      1  C   UNL     1       9.008   9.047 -16.165  1.00  0.00     0.017 C 
ATOM      2  C   UNL     1       8.345   7.642 -16.175  1.00  0.00     0.014 C 
ATOM      3  C   UNL     1       9.055   9.650 -17.603  1.00  0.00     0.014 C 
ATOM      4  C   UNL     1       8.064   9.966 -15.328  1.00  0.00     0.028 C 
ATOM      5  C   UNL     1       8.168   7.087 -14.740  1.00  0.00     0.007 C 
ATOM      6  C   UNL     1       9.473  11.159 -17.702  1.00  0.00     0.013 C 
ATOM      7  C   UNL     1       8.233  11.474 -15.556  1.00  0.00    -0.064 C 
ATOM      8  C   UNL     1       7.884   9.522 -13.866  1.00  0.00     0.015 C 
ATOM      9  C   UNL     1       7.396   8.037 -13.765  1.00  0.00    -0.035 C 
ATOM     10  C   UNL     1       9.417  12.012 -16.383  1.00  0.00    -0.006 C 
ATOM     11  C   UNL     1       7.079  12.174 -15.547  1.00  0.00    -0.027 C 
ATOM     12  C   UNL     1       5.876   7.948 -14.052  1.00  0.00     0.011 C 
ATOM     13  C   UNL     1       7.626   7.549 -12.319  1.00  0.00     0.011 C 
ATOM     14  C   UNL     1      10.753  11.779 -15.589  1.00  0.00     0.017 C 
ATOM     15  C   UNL     1       9.239  13.608 -16.663  1.00  0.00    -0.020 C 
ATOM     16  C   UNL     1       6.713  12.939 -16.778  1.00  0.00     0.032 C 
ATOM     17  C   UNL     1       7.759  14.015 -17.154  1.00  0.00     0.006 C 
ATOM     18  C   UNL     1      10.358  14.136 -17.616  1.00  0.00     0.008 C 
ATOM     19  C   UNL     1       9.458  14.376 -15.297  1.00  0.00     0.012 C 
ATOM     20  C   UNL     1       7.489  14.696 -18.601  1.00  0.00    -0.025 C 
ATOM     21  C   UNL     1       9.956  14.307 -19.066  1.00  0.00     0.005 C 
ATOM     22  C   UNL     1       8.805  15.332 -19.209  1.00  0.00     0.003 C 
ATOM     23  C   UNL     1       6.882  13.682 -19.634  1.00  0.00     0.010 C 
ATOM     24  C   UNL     1       6.414  15.808 -18.353  1.00  0.00     0.012 C 
ATOM     25  C   UNL     1       8.677  15.880 -20.707  1.00  0.00    -0.006 C 
ATOM     26  C   UNL     1       6.735  14.216 -21.068  1.00  0.00     0.033 C 
ATOM     27  C   UNL     1       8.055  14.776 -21.616  1.00  0.00     0.120 C 
ATOM     28  C   UNL     1      10.072  16.254 -21.296  1.00  0.00     0.014 C 
ATOM     29  C   UNL     1       7.848  17.203 -20.756  1.00  0.00     0.014 C 
ENDROOT
BRANCH   1  30
ATOM     30  C   UNL     1      10.428   8.826 -15.650  1.00  0.00     0.048 C 
ATOM     31  O   UNL     1      10.670   8.616 -14.433  1.00  0.00    -0.550 OA
ATOM     32  O   UNL     1      11.482   8.745 -16.554  1.00  0.00    -0.550 OA
ENDBRANCH   1  30
BRANCH  27  33
ATOM     33  O   UNL     1       7.899  15.221 -22.944  1.00  0.00    -0.393 OA
ATOM     34  H   UNL     1       7.638  16.177 -22.923  1.00  0.00     0.210 HD
ENDBRANCH  27  33
TORSDOF 2
ENDMDL
MODEL 4
REMARK VINA RESULT:    -4.071      2.212      7.815
REMARK INTER + INTRA:          -3.447
REMARK INTER:                  -6.280
REMARK INTRA:                   2.833
REMARK UNBOUND:                 0.982
REMARK SMILES CC1(C)CC[C@@]2(C(=O)[O-])CC[C@]3(C)C(=CC[C@@H]4[C@]5(C)CC[C@@H](O)C(C)(C)[C@@H]5CC[C@@]43C)[C@@H]2C1
REMARK SMILES IDX 6 1 5 2 10 3 32 4 4 5 11 6 14 7 33 8 2 9 12 10 15 11 1 12
REMARK SMILES IDX 3 13 13 14 30 15 16 16 17 17 29 18 31 19 18 20 28 21 27 22
REMARK SMILES IDX 20 23 19 24 24 25 21 26 22 27 25 28 26 29 7 30 8 31 9 32
REMARK SMILES IDX 23 33
REMARK H PARENT 23 34
REMARK Flexibility Score: inf
ROOT
ATOM      1  C   UNL     1       7.215  14.664 -18.347  1.00  0.00     0.017 C 
ATOM      2  C   UNL     1       7.328  15.295 -19.762  1.00  0.00     0.014 C 
ATOM      3  C   UNL     1       6.630  13.220 -18.428  1.00  0.00     0.014 C 
ATOM      4  C   UNL     1       8.676  14.524 -17.817  1.00  0.00     0.028 C 
ATOM      5  C   UNL     1       8.031  16.675 -19.715  1.00  0.00     0.007 C 
ATOM      6  C   UNL     1       6.691  12.379 -17.104  1.00  0.00     0.013 C 
ATOM      7  C   UNL     1       8.873  13.517 -16.674  1.00  0.00    -0.064 C 
ATOM      8  C   UNL     1       9.427  15.859 -17.675  1.00  0.00     0.015 C 
ATOM      9  C   UNL     1       9.432  16.668 -19.016  1.00  0.00    -0.035 C 
ATOM     10  C   UNL     1       7.656  12.884 -15.972  1.00  0.00    -0.006 C 
ATOM     11  C   UNL     1      10.021  12.811 -16.742  1.00  0.00    -0.027 C 
ATOM     12  C   UNL     1      10.491  16.094 -19.990  1.00  0.00     0.011 C 
ATOM     13  C   UNL     1       9.830  18.125 -18.701  1.00  0.00     0.011 C 
ATOM     14  C   UNL     1       6.905  13.986 -15.140  1.00  0.00     0.017 C 
ATOM     15  C   UNL     1       8.134  11.695 -14.964  1.00  0.00    -0.020 C 
ATOM     16  C   UNL     1       9.923  11.322 -16.835  1.00  0.00     0.032 C 
ATOM     17  C   UNL     1       9.207  10.687 -15.621  1.00  0.00     0.006 C 
ATOM     18  C   UNL     1       6.903  10.953 -14.352  1.00  0.00     0.008 C 
ATOM     19  C   UNL     1       8.875  12.360 -13.734  1.00  0.00     0.012 C 
ATOM     20  C   UNL     1       8.898   9.106 -15.811  1.00  0.00    -0.025 C 
ATOM     21  C   UNL     1       6.549   9.631 -15.000  1.00  0.00     0.005 C 
ATOM     22  C   UNL     1       7.714   8.619 -14.880  1.00  0.00     0.003 C 
ATOM     23  C   UNL     1       8.567   8.738 -17.300  1.00  0.00     0.010 C 
ATOM     24  C   UNL     1      10.225   8.366 -15.433  1.00  0.00     0.012 C 
ATOM     25  C   UNL     1       7.225   7.114 -15.117  1.00  0.00    -0.006 C 
ATOM     26  C   UNL     1       8.120   7.286 -17.533  1.00  0.00     0.033 C 
ATOM     27  C   UNL     1       6.941   6.890 -16.633  1.00  0.00     0.120 C 
ATOM     28  C   UNL     1       5.908   6.815 -14.335  1.00  0.00     0.014 C 
ATOM     29  C   UNL     1       8.265   6.088 -14.566  1.00  0.00     0.014 C 
ENDROOT
BRANCH   1  30
ATOM     30  C   UNL     1       6.258  15.566 -17.572  1.00  0.00     0.048 C 
ATOM     31  O   UNL     1       5.875  15.285 -16.407  1.00  0.00    -0.550 OA
ATOM     32  O   UNL     1       5.875  16.789 -18.113  1.00  0.00    -0.550 OA
ENDBRANCH   1  30
BRANCH  27  33
ATOM     33  O   UNL     1       6.529   5.568 -16.897  1.00  0.00    -0.393 OA
ATOM     34  H   UNL     1       7.161   5.172 -17.552  1.00  0.00     0.210 HD
ENDBRANCH  27  33
TORSDOF 2
ENDMDL
MODEL 5
REMARK VINA RESULT:    -3.324      2.566      8.334
REMARK INTER + INTRA:          -2.634
REMARK INTER:                  -3.138
REMARK INTRA:                   0.504
REMARK UNBOUND:                 0.982
REMARK SMILES CC1(C)CC[C@@]2(C(=O)[O-])CC[C@]3(C)C(=CC[C@@H]4[C@]5(C)CC[C@@H](O)C(C)(C)[C@@H]5CC[C@@]43C)[C@@H]2C1
REMARK SMILES IDX 6 1 5 2 10 3 32 4 4 5 11 6 14 7 33 8 2 9 12 10 15 11 1 12
REMARK SMILES IDX 3 13 13 14 30 15 16 16 17 17 29 18 31 19 18 20 28 21 27 22
REMARK SMILES IDX 20 23 19 24 24 25 21 26 22 27 25 28 26 29 7 30 8 31 9 32
REMARK SMILES IDX 23 33
REMARK H PARENT 23 34
REMARK Flexibility Score: inf
ROOT
ATOM      1  C   UNL     1       8.866  16.923 -18.793  1.00  0.00     0.017 C 
ATOM      2  C   UNL     1       9.311  18.295 -18.215  1.00  0.00     0.014 C 
ATOM      3  C   UNL     1       9.827  15.786 -18.328  1.00  0.00     0.014 C 
ATOM      4  C   UNL     1       7.474  16.616 -18.158  1.00  0.00     0.028 C 
ATOM      5  C   UNL     1       8.293  19.412 -18.554  1.00  0.00     0.007 C 
ATOM      6  C   UNL     1       9.358  14.321 -18.636  1.00  0.00     0.013 C 
ATOM      7  C   UNL     1       7.042  15.143 -18.187  1.00  0.00    -0.064 C 
ATOM      8  C   UNL     1       6.383  17.645 -18.500  1.00  0.00     0.015 C 
ATOM      9  C   UNL     1       6.819  19.102 -18.127  1.00  0.00    -0.035 C 
ATOM     10  C   UNL     1       7.845  14.109 -19.001  1.00  0.00    -0.006 C 
ATOM     11  C   UNL     1       6.388  14.729 -17.081  1.00  0.00    -0.027 C 
ATOM     12  C   UNL     1       6.663  19.338 -16.604  1.00  0.00     0.011 C 
ATOM     13  C   UNL     1       5.880  20.089 -18.850  1.00  0.00     0.011 C 
ATOM     14  C   UNL     1       7.663  14.401 -20.535  1.00  0.00     0.017 C 
ATOM     15  C   UNL     1       7.317  12.600 -18.684  1.00  0.00    -0.020 C 
ATOM     16  C   UNL     1       6.983  13.607 -16.293  1.00  0.00     0.032 C 
ATOM     17  C   UNL     1       7.123  12.302 -17.111  1.00  0.00     0.006 C 
ATOM     18  C   UNL     1       8.212  11.534 -19.394  1.00  0.00     0.008 C 
ATOM     19  C   UNL     1       5.881  12.434 -19.327  1.00  0.00     0.012 C 
ATOM     20  C   UNL     1       7.966  11.149 -16.343  1.00  0.00    -0.025 C 
ATOM     21  C   UNL     1       9.246  10.860 -18.518  1.00  0.00     0.005 C 
ATOM     22  C   UNL     1       8.577  10.093 -17.352  1.00  0.00     0.003 C 
ATOM     23  C   UNL     1       9.117  11.742 -15.457  1.00  0.00     0.010 C 
ATOM     24  C   UNL     1       6.948  10.451 -15.378  1.00  0.00     0.012 C 
ATOM     25  C   UNL     1       9.563   9.012 -16.704  1.00  0.00    -0.006 C 
ATOM     26  C   UNL     1      10.050  10.703 -14.814  1.00  0.00     0.033 C 
ATOM     27  C   UNL     1      10.646   9.738 -15.850  1.00  0.00     0.120 C 
ATOM     28  C   UNL     1      10.298   8.184 -17.803  1.00  0.00     0.014 C 
ATOM     29  C   UNL     1       8.774   7.959 -15.863  1.00  0.00     0.014 C 
ENDROOT
BRANCH   1  30
ATOM     30  C   UNL     1       8.940  17.075 -20.310  1.00  0.00     0.048 C 
ATOM     31  O   UNL     1       9.973  16.768 -20.960  1.00  0.00    -0.550 OA
ATOM     32  O   UNL     1       7.807  17.460 -21.019  1.00  0.00    -0.550 OA
ENDBRANCH   1  30
BRANCH  27  33
ATOM     33  O   UNL     1      11.526   8.825 -15.236  1.00  0.00    -0.393 OA
ATOM     34  H   UNL     1      11.891   8.226 -15.938  1.00  0.00     0.210 HD
ENDBRANCH  27  33
TORSDOF 2
ENDMDL
MODEL 6
REMARK VINA RESULT:    -3.164      2.286      4.189
REMARK INTER + INTRA:          -2.460
REMARK INTER:                  -2.845
REMARK INTRA:                   0.385
REMARK UNBOUND:                 0.982
REMARK SMILES CC1(C)CC[C@@]2(C(=O)[O-])CC[C@]3(C)C(=CC[C@@H]4[C@]5(C)CC[C@@H](O)C(C)(C)[C@@H]5CC[C@@]43C)[C@@H]2C1
REMARK SMILES IDX 6 1 5 2 10 3 32 4 4 5 11 6 14 7 33 8 2 9 12 10 15 11 1 12
REMARK SMILES IDX 3 13 13 14 30 15 16 16 17 17 29 18 31 19 18 20 28 21 27 22
REMARK SMILES IDX 20 23 19 24 24 25 21 26 22 27 25 28 26 29 7 30 8 31 9 32
REMARK SMILES IDX 23 33
REMARK H PARENT 23 34
REMARK Flexibility Score: inf
ROOT
ATOM      1  C   UNL     1       8.090  10.652 -14.560  1.00  0.00     0.017 C 
ATOM      2  C   UNL     1       8.943  10.120 -13.376  1.00  0.00     0.014 C 
ATOM      3  C   UNL     1       8.250  12.196 -14.711  1.00  0.00     0.014 C 
ATOM      4  C   UNL     1       8.693  10.014 -15.851  1.00  0.00     0.028 C 
ATOM      5  C   UNL     1       8.902   8.573 -13.296  1.00  0.00     0.007 C 
ATOM      6  C   UNL     1       7.641  12.827 -16.011  1.00  0.00     0.013 C 
ATOM      7  C   UNL     1       8.351  10.729 -17.166  1.00  0.00    -0.064 C 
ATOM      8  C   UNL     1       8.632   8.477 -15.883  1.00  0.00     0.015 C 
ATOM      9  C   UNL     1       9.306   7.842 -14.620  1.00  0.00    -0.035 C 
ATOM     10  C   UNL     1       7.296  11.852 -17.194  1.00  0.00    -0.006 C 
ATOM     11  C   UNL     1       9.361  10.766 -18.061  1.00  0.00    -0.027 C 
ATOM     12  C   UNL     1      10.848   7.854 -14.767  1.00  0.00     0.011 C 
ATOM     13  C   UNL     1       8.858   6.368 -14.523  1.00  0.00     0.011 C 
ATOM     14  C   UNL     1       5.875  11.236 -16.926  1.00  0.00     0.017 C 
ATOM     15  C   UNL     1       7.287  12.589 -18.648  1.00  0.00    -0.020 C 
ATOM     16  C   UNL     1       9.854  12.106 -18.506  1.00  0.00     0.032 C 
ATOM     17  C   UNL     1       8.759  12.954 -19.194  1.00  0.00     0.006 C 
ATOM     18  C   UNL     1       6.322  13.818 -18.645  1.00  0.00     0.008 C 
ATOM     19  C   UNL     1       6.679  11.583 -19.707  1.00  0.00     0.012 C 
ATOM     20  C   UNL     1       9.217  14.484 -19.480  1.00  0.00    -0.025 C 
ATOM     21  C   UNL     1       6.984  15.169 -18.479  1.00  0.00     0.005 C 
ATOM     22  C   UNL     1       7.974  15.453 -19.635  1.00  0.00     0.003 C 
ATOM     23  C   UNL     1      10.168  15.041 -18.363  1.00  0.00     0.010 C 
ATOM     24  C   UNL     1      10.039  14.439 -20.812  1.00  0.00     0.012 C 
ATOM     25  C   UNL     1       8.324  17.009 -19.753  1.00  0.00    -0.006 C 
ATOM     26  C   UNL     1      10.525  16.530 -18.489  1.00  0.00     0.033 C 
ATOM     27  C   UNL     1       9.277  17.420 -18.590  1.00  0.00     0.120 C 
ATOM     28  C   UNL     1       7.041  17.889 -19.652  1.00  0.00     0.014 C 
ATOM     29  C   UNL     1       8.938  17.346 -21.149  1.00  0.00     0.014 C 
ENDROOT
BRANCH   1  30
ATOM     30  C   UNL     1       6.644  10.315 -14.207  1.00  0.00     0.048 C 
ATOM     31  O   UNL     1       6.111   9.228 -14.552  1.00  0.00    -0.550 OA
ATOM     32  O   UNL     1       5.916  11.175 -13.392  1.00  0.00    -0.550 OA
ENDBRANCH   1  30
BRANCH  27  33
ATOM     33  O   UNL     1       9.636  18.781 -18.664  1.00  0.00    -0.393 OA
ATOM     34  H   UNL     1      10.301  18.966 -17.952  1.00  0.00     0.210 HD
ENDBRANCH  27  33
TORSDOF 2
ENDMDL
MODEL 7
REMARK VINA RESULT:    -2.797      2.078      2.950
REMARK INTER + INTRA:          -2.061
REMARK INTER:                  -3.323
REMARK INTRA:                   1.261
REMARK UNBOUND:                 0.982
REMARK SMILES CC1(C)CC[C@@]2(C(=O)[O-])CC[C@]3(C)C(=CC[C@@H]4[C@]5(C)CC[C@@H](O)C(C)(C)[C@@H]5CC[C@@]43C)[C@@H]2C1
REMARK SMILES IDX 6 1 5 2 10 3 32 4 4 5 11 6 14 7 33 8 2 9 12 10 15 11 1 12
REMARK SMILES IDX 3 13 13 14 30 15 16 16 17 17 29 18 31 19 18 20 28 21 27 22
REMARK SMILES IDX 20 23 19 24 24 25 21 26 22 27 25 28 26 29 7 30 8 31 9 32
REMARK SMILES IDX 23 33
REMARK H PARENT 23 34
REMARK Flexibility Score: inf
ROOT
ATOM      1  C   UNL     1       6.973   8.830 -16.729  1.00  0.00     0.017 C 
ATOM      2  C   UNL     1       5.875   7.952 -16.067  1.00  0.00     0.014 C 
ATOM      3  C   UNL     1       6.354  10.126 -17.337  1.00  0.00     0.014 C 
ATOM      4  C   UNL     1       7.917   9.287 -15.574  1.00  0.00     0.028 C 
ATOM      5  C   UNL     1       6.488   6.728 -15.341  1.00  0.00     0.007 C 
ATOM      6  C   UNL     1       7.377  11.215 -17.818  1.00  0.00     0.013 C 
ATOM      7  C   UNL     1       8.781  10.520 -15.873  1.00  0.00    -0.064 C 
ATOM      8  C   UNL     1       8.621   8.133 -14.839  1.00  0.00     0.015 C 
ATOM      9  C   UNL     1       7.597   7.081 -14.294  1.00  0.00    -0.035 C 
ATOM     10  C   UNL     1       8.856  11.096 -17.301  1.00  0.00    -0.006 C 
ATOM     11  C   UNL     1       8.939  11.360 -14.828  1.00  0.00    -0.027 C 
ATOM     12  C   UNL     1       6.933   7.597 -12.993  1.00  0.00     0.011 C 
ATOM     13  C   UNL     1       8.369   5.791 -13.943  1.00  0.00     0.011 C 
ATOM     14  C   UNL     1       9.622  10.084 -18.228  1.00  0.00     0.017 C 
ATOM     15  C   UNL     1       9.649  12.519 -17.301  1.00  0.00    -0.020 C 
ATOM     16  C   UNL     1       8.465  12.769 -14.982  1.00  0.00     0.032 C 
ATOM     17  C   UNL     1       9.174  13.522 -16.132  1.00  0.00     0.006 C 
ATOM     18  C   UNL     1       9.610  13.180 -18.716  1.00  0.00     0.008 C 
ATOM     19  C   UNL     1      11.179  12.232 -17.017  1.00  0.00     0.012 C 
ATOM     20  C   UNL     1       8.516  14.969 -16.453  1.00  0.00    -0.025 C 
ATOM     21  C   UNL     1       8.584  14.278 -18.897  1.00  0.00     0.005 C 
ATOM     22  C   UNL     1       8.845  15.454 -17.924  1.00  0.00     0.003 C 
ATOM     23  C   UNL     1       6.961  14.979 -16.244  1.00  0.00     0.010 C 
ATOM     24  C   UNL     1       9.133  15.958 -15.406  1.00  0.00     0.012 C 
ATOM     25  C   UNL     1       8.103  16.792 -18.391  1.00  0.00    -0.006 C 
ATOM     26  C   UNL     1       6.250  16.273 -16.669  1.00  0.00     0.033 C 
ATOM     27  C   UNL     1       6.573  16.663 -18.119  1.00  0.00     0.120 C 
ATOM     28  C   UNL     1       8.295  17.044 -19.919  1.00  0.00     0.014 C 
ATOM     29  C   UNL     1       8.710  18.049 -17.693  1.00  0.00     0.014 C 
ENDROOT
BRANCH   1  30
ATOM     30  C   UNL     1       7.569   7.971 -17.840  1.00  0.00     0.048 C 
ATOM     31  O   UNL     1       6.853   7.440 -18.728  1.00  0.00    -0.550 OA
ATOM     32  O   UNL     1       8.951   7.850 -17.950  1.00  0.00    -0.550 OA
ENDBRANCH   1  30
BRANCH  27  33
ATOM     33  O   UNL     1       5.876  17.830 -18.491  1.00  0.00    -0.393 OA
ATOM     34  H   UNL     1       5.204  18.028 -17.789  1.00  0.00     0.210 HD
ENDBRANCH  27  33
TORSDOF 2
ENDMDL
