MODEL 1
REMARK VINA RESULT:    -3.626      0.000      0.000
REMARK INTER + INTRA:          -4.568
REMARK INTER:                  -4.474
REMARK INTRA:                  -0.093
REMARK UNBOUND:                -0.093
REMARK SMILES CCCCCC(=O)[O-]
REMARK SMILES IDX 4 1 5 2 6 3 7 4 8 5 3 6 2 7 1 8
REMARK H PARENT
REMARK Flexibility Score: inf
ROOT
ATOM      1  C   UNL     1       1.560  24.392  24.523  1.00  0.00     0.006 C 
ENDROOT
BRANCH   1   2
ATOM      2  C   UNL     1       1.229  24.311  26.016  1.00  0.00     0.053 C 
BRANCH   2   3
ATOM      3  C   UNL     1      -0.041  25.045  26.311  1.00  0.00     0.041 C 
ATOM      4  O   UNL     1      -0.064  26.304  26.292  1.00  0.00    -0.550 OA
ATOM      5  O   UNL     1      -1.187  24.341  26.656  1.00  0.00    -0.550 OA
ENDBRANCH   2   3
ENDBRANCH   1   2
BRANCH   1   6
ATOM      6  C   UNL     1       1.444  23.011  23.859  1.00  0.00     0.000 C 
BRANCH   6   7
ATOM      7  C   UNL     1       1.837  23.034  22.375  1.00  0.00    -0.003 C 
ATOM      8  C   UNL     1       2.254  24.424  21.895  1.00  0.00     0.004 C 
ENDBRANCH   6   7
ENDBRANCH   1   6
TORSDOF 4
ENDMDL
MODEL 2
REMARK VINA RESULT:    -3.618      0.091      1.149
REMARK INTER + INTRA:          -4.557
REMARK INTER:                  -4.467
REMARK INTRA:                  -0.090
REMARK UNBOUND:                -0.093
REMARK SMILES CCCCCC(=O)[O-]
REMARK SMILES IDX 4 1 5 2 6 3 7 4 8 5 3 6 2 7 1 8
REMARK H PARENT
REMARK Flexibility Score: inf
ROOT
ATOM      1  C   UNL     1       1.510  24.325  24.489  1.00  0.00     0.006 C 
ENDROOT
BRANCH   1   2
ATOM      2  C   UNL     1       1.192  24.198  25.982  1.00  0.00     0.053 C 
BRANCH   2   3
ATOM      3  C   UNL     1      -0.025  24.997  26.328  1.00  0.00     0.041 C 
ATOM      4  O   UNL     1      -1.091  24.416  26.659  1.00  0.00    -0.550 OA
ATOM      5  O   UNL     1       0.005  26.383  26.238  1.00  0.00    -0.550 OA
ENDBRANCH   2   3
ENDBRANCH   1   2
BRANCH   1   6
ATOM      6  C   UNL     1       1.462  22.954  23.799  1.00  0.00     0.000 C 
BRANCH   6   7
ATOM      7  C   UNL     1       1.867  23.022  22.319  1.00  0.00    -0.003 C 
ATOM      8  C   UNL     1       2.274  24.429  21.882  1.00  0.00     0.004 C 
ENDBRANCH   6   7
ENDBRANCH   1   6
TORSDOF 4
ENDMDL
MODEL 3
REMARK VINA RESULT:    -3.586      1.158      1.671
REMARK INTER + INTRA:          -4.518
REMARK INTER:                  -4.343
REMARK INTRA:                  -0.175
REMARK UNBOUND:                -0.093
REMARK SMILES CCCCCC(=O)[O-]
REMARK SMILES IDX 4 1 5 2 6 3 7 4 8 5 3 6 2 7 1 8
REMARK H PARENT
REMARK Flexibility Score: inf
ROOT
ATOM      1  C   UNL     1       2.115  24.356  24.441  1.00  0.00     0.006 C 
ENDROOT
BRANCH   1   2
ATOM      2  C   UNL     1       0.994  25.106  25.165  1.00  0.00     0.053 C 
BRANCH   2   3
ATOM      3  C   UNL     1       0.142  24.151  25.942  1.00  0.00     0.041 C 
ATOM      4  O   UNL     1      -0.826  24.577  26.624  1.00  0.00    -0.550 OA
ATOM      5  O   UNL     1       0.447  22.796  25.951  1.00  0.00    -0.550 OA
ENDBRANCH   2   3
ENDBRANCH   1   2
BRANCH   1   6
ATOM      6  C   UNL     1       2.195  24.777  22.966  1.00  0.00     0.000 C 
BRANCH   6   7
ATOM      7  C   UNL     1       2.183  23.578  22.007  1.00  0.00    -0.003 C 
ATOM      8  C   UNL     1       1.493  22.351  22.603  1.00  0.00     0.004 C 
ENDBRANCH   6   7
ENDBRANCH   1   6
TORSDOF 4
ENDMDL
MODEL 4
REMARK VINA RESULT:    -3.397      2.947      4.402
REMARK INTER + INTRA:          -4.285
REMARK INTER:                  -4.143
REMARK INTRA:                  -0.142
REMARK UNBOUND:                -0.093
REMARK SMILES CCCCCC(=O)[O-]
REMARK SMILES IDX 4 1 5 2 6 3 7 4 8 5 3 6 2 7 1 8
REMARK H PARENT
REMARK Flexibility Score: inf
ROOT
ATOM      1  C   UNL     1       1.425  23.589  24.885  1.00  0.00     0.006 C 
ENDROOT
BRANCH   1   2
ATOM      2  C   UNL     1       1.497  23.117  23.430  1.00  0.00     0.053 C 
BRANCH   2   3
ATOM      3  C   UNL     1       2.472  23.948  22.657  1.00  0.00     0.041 C 
ATOM      4  O   UNL     1       2.084  24.631  21.674  1.00  0.00    -0.550 OA
ATOM      5  O   UNL     1       3.820  23.930  22.993  1.00  0.00    -0.550 OA
ENDBRANCH   2   3
ENDBRANCH   1   2
BRANCH   1   6
ATOM      6  C   UNL     1       1.126  25.094  24.961  1.00  0.00     0.000 C 
BRANCH   6   7
ATOM      7  C   UNL     1      -0.060  25.416  25.881  1.00  0.00    -0.003 C 
ATOM      8  C   UNL     1      -0.574  24.189  26.634  1.00  0.00     0.004 C 
ENDBRANCH   6   7
ENDBRANCH   1   6
TORSDOF 4
ENDMDL
MODEL 5
REMARK VINA RESULT:    -3.350     17.556     18.279
REMARK INTER + INTRA:          -4.226
REMARK INTER:                  -4.178
REMARK INTRA:                  -0.048
REMARK UNBOUND:                -0.093
REMARK SMILES CCCCCC(=O)[O-]
REMARK SMILES IDX 4 1 5 2 6 3 7 4 8 5 3 6 2 7 1 8
REMARK H PARENT
REMARK Flexibility Score: inf
ROOT
ATOM      1  C   UNL     1     -11.172  22.921  12.556  1.00  0.00     0.006 C 
ENDROOT
BRANCH   1   2
ATOM      2  C   UNL     1     -10.449  23.686  11.444  1.00  0.00     0.053 C 
BRANCH   2   3
ATOM      3  C   UNL     1     -11.410  24.071  10.363  1.00  0.00     0.041 C 
ATOM      4  O   UNL     1     -11.037  24.087   9.160  1.00  0.00    -0.550 OA
ATOM      5  O   UNL     1     -12.703  24.459  10.687  1.00  0.00    -0.550 OA
ENDBRANCH   2   3
ENDBRANCH   1   2
BRANCH   1   6
ATOM      6  C   UNL     1     -11.504  23.847  13.735  1.00  0.00     0.000 C 
BRANCH   6   7
ATOM      7  C   UNL     1     -12.441  23.189  14.759  1.00  0.00    -0.003 C 
ATOM      8  C   UNL     1     -12.866  21.779  14.350  1.00  0.00     0.004 C 
ENDBRANCH   6   7
ENDBRANCH   1   6
TORSDOF 4
ENDMDL
MODEL 6
REMARK VINA RESULT:    -3.327      2.807      3.111
REMARK INTER + INTRA:          -4.198
REMARK INTER:                  -3.995
REMARK INTRA:                  -0.203
REMARK UNBOUND:                -0.093
REMARK SMILES CCCCCC(=O)[O-]
REMARK SMILES IDX 4 1 5 2 6 3 7 4 8 5 3 6 2 7 1 8
REMARK H PARENT
REMARK Flexibility Score: inf
ROOT
ATOM      1  C   UNL     1       1.433  23.682  24.281  1.00  0.00     0.006 C 
ENDROOT
BRANCH   1   2
ATOM      2  C   UNL     1       1.915  22.918  25.517  1.00  0.00     0.053 C 
BRANCH   2   3
ATOM      3  C   UNL     1       3.321  23.302  25.855  1.00  0.00     0.041 C 
ATOM      4  O   UNL     1       3.923  22.732  26.803  1.00  0.00    -0.550 OA
ATOM      5  O   UNL     1       3.950  24.323  25.155  1.00  0.00    -0.550 OA
ENDBRANCH   2   3
ENDBRANCH   1   2
BRANCH   1   6
ATOM      6  C   UNL     1       1.598  22.833  23.011  1.00  0.00     0.000 C 
BRANCH   6   7
ATOM      7  C   UNL     1       2.204  23.626  21.844  1.00  0.00    -0.003 C 
ATOM      8  C   UNL     1       2.288  25.125  22.129  1.00  0.00     0.004 C 
ENDBRANCH   6   7
ENDBRANCH   1   6
TORSDOF 4
ENDMDL
MODEL 7
REMARK VINA RESULT:    -3.245     16.764     17.519
REMARK INTER + INTRA:          -4.097
REMARK INTER:                  -3.911
REMARK INTRA:                  -0.187
REMARK UNBOUND:                -0.093
REMARK SMILES CCCCCC(=O)[O-]
REMARK SMILES IDX 4 1 5 2 6 3 7 4 8 5 3 6 2 7 1 8
REMARK H PARENT
REMARK Flexibility Score: inf
ROOT
ATOM      1  C   UNL     1     -11.684  22.500  12.988  1.00  0.00     0.006 C 
ENDROOT
BRANCH   1   2
ATOM      2  C   UNL     1     -12.015  23.618  11.996  1.00  0.00     0.053 C 
BRANCH   2   3
ATOM      3  C   UNL     1     -10.833  23.915  11.127  1.00  0.00     0.041 C 
ATOM      4  O   UNL     1     -10.981  24.068   9.886  1.00  0.00    -0.550 OA
ATOM      5  O   UNL     1      -9.561  23.975  11.681  1.00  0.00    -0.550 OA
ENDBRANCH   2   3
ENDBRANCH   1   2
BRANCH   1   6
ATOM      6  C   UNL     1     -12.172  22.857  14.400  1.00  0.00     0.000 C 
BRANCH   6   7
ATOM      7  C   UNL     1     -11.985  24.345  14.732  1.00  0.00    -0.003 C 
ATOM      8  C   UNL     1     -10.715  24.616  15.538  1.00  0.00     0.004 C 
ENDBRANCH   6   7
ENDBRANCH   1   6
TORSDOF 4
ENDMDL
MODEL 8
REMARK VINA RESULT:    -3.227      3.216      4.323
REMARK INTER + INTRA:          -4.075
REMARK INTER:                  -3.951
REMARK INTRA:                  -0.124
REMARK UNBOUND:                -0.093
REMARK SMILES CCCCCC(=O)[O-]
REMARK SMILES IDX 4 1 5 2 6 3 7 4 8 5 3 6 2 7 1 8
REMARK H PARENT
REMARK Flexibility Score: inf
ROOT
ATOM      1  C   UNL     1       2.857  24.589  22.867  1.00  0.00     0.006 C 
ENDROOT
BRANCH   1   2
ATOM      2  C   UNL     1       2.291  23.531  21.915  1.00  0.00     0.053 C 
BRANCH   2   3
ATOM      3  C   UNL     1       1.501  22.512  22.673  1.00  0.00     0.041 C 
ATOM      4  O   UNL     1       1.159  21.435  22.120  1.00  0.00    -0.550 OA
ATOM      5  O   UNL     1       1.099  22.774  23.977  1.00  0.00    -0.550 OA
ENDBRANCH   2   3
ENDBRANCH   1   2
BRANCH   1   6
ATOM      6  C   UNL     1       4.234  24.169  23.399  1.00  0.00     0.000 C 
BRANCH   6   7
ATOM      7  C   UNL     1       4.272  24.071  24.932  1.00  0.00    -0.003 C 
ATOM      8  C   UNL     1       5.552  24.653  25.530  1.00  0.00     0.004 C 
ENDBRANCH   6   7
ENDBRANCH   1   6
TORSDOF 4
ENDMDL
MODEL 9
REMARK VINA RESULT:    -3.200     17.122     17.831
REMARK INTER + INTRA:          -4.041
REMARK INTER:                  -3.915
REMARK INTRA:                  -0.126
REMARK UNBOUND:                -0.093
REMARK SMILES CCCCCC(=O)[O-]
REMARK SMILES IDX 4 1 5 2 6 3 7 4 8 5 3 6 2 7 1 8
REMARK H PARENT
REMARK Flexibility Score: inf
ROOT
ATOM      1  C   UNL     1     -10.698  23.062  12.352  1.00  0.00     0.006 C 
ENDROOT
BRANCH   1   2
ATOM      2  C   UNL     1     -12.153  22.720  12.685  1.00  0.00     0.053 C 
BRANCH   2   3
ATOM      3  C   UNL     1     -12.365  22.721  14.166  1.00  0.00     0.041 C 
ATOM      4  O   UNL     1     -11.930  23.671  14.868  1.00  0.00    -0.550 OA
ATOM      5  O   UNL     1     -13.002  21.648  14.778  1.00  0.00    -0.550 OA
ENDBRANCH   2   3
ENDBRANCH   1   2
BRANCH   1   6
ATOM      6  C   UNL     1     -10.612  23.910  11.074  1.00  0.00     0.000 C 
BRANCH   6   7
ATOM      7  C   UNL     1     -11.912  23.881  10.256  1.00  0.00    -0.003 C 
ATOM      8  C   UNL     1     -11.661  23.767   8.752  1.00  0.00     0.004 C 
ENDBRANCH   6   7
ENDBRANCH   1   6
TORSDOF 4
ENDMDL
