MODEL 1
REMARK VINA RESULT:    -2.247      0.000      0.000
REMARK INTER + INTRA:          -2.830
REMARK INTER:                  -2.772
REMARK INTRA:                  -0.058
REMARK UNBOUND:                -0.058
REMARK SMILES CCCCCC(=O)[O-]
REMARK SMILES IDX 4 1 5 2 6 3 7 4 8 5 3 6 2 7 1 8
REMARK H PARENT
REMARK Flexibility Score: inf
ROOT
ATOM      1  C   UNL     1      -7.023  28.557 -20.075  1.00  0.00     0.006 C 
ENDROOT
BRANCH   1   2
ATOM      2  C   UNL     1      -6.388  28.621 -18.680  1.00  0.00     0.053 C 
BRANCH   2   3
ATOM      3  C   UNL     1      -7.409  28.892 -17.617  1.00  0.00     0.041 C 
ATOM      4  O   UNL     1      -7.156  28.623 -16.413  1.00  0.00    -0.550 OA
ATOM      5  O   UNL     1      -8.625  29.474 -17.952  1.00  0.00    -0.550 OA
ENDBRANCH   2   3
ENDBRANCH   1   2
BRANCH   1   6
ATOM      6  C   UNL     1      -5.996  28.812 -21.192  1.00  0.00     0.000 C 
BRANCH   6   7
ATOM      7  C   UNL     1      -6.192  27.877 -22.396  1.00  0.00    -0.003 C 
ATOM      8  C   UNL     1      -4.875  27.498 -23.071  1.00  0.00     0.004 C 
ENDBRANCH   6   7
ENDBRANCH   1   6
TORSDOF 4
ENDMDL
MODEL 2
REMARK VINA RESULT:    -1.660      1.851      2.855
REMARK INTER + INTRA:          -2.106
REMARK INTER:                  -2.007
REMARK INTRA:                  -0.099
REMARK UNBOUND:                -0.058
REMARK SMILES CCCCCC(=O)[O-]
REMARK SMILES IDX 4 1 5 2 6 3 7 4 8 5 3 6 2 7 1 8
REMARK H PARENT
REMARK Flexibility Score: inf
ROOT
ATOM      1  C   UNL     1      -7.490  28.734 -17.143  1.00  0.00     0.006 C 
ENDROOT
BRANCH   1   2
ATOM      2  C   UNL     1      -8.630  29.709 -17.463  1.00  0.00     0.053 C 
BRANCH   2   3
ATOM      3  C   UNL     1      -8.942  30.599 -16.299  1.00  0.00     0.041 C 
ATOM      4  O   UNL     1      -8.937  30.135 -15.128  1.00  0.00    -0.550 OA
ATOM      5  O   UNL     1      -9.205  31.948 -16.504  1.00  0.00    -0.550 OA
ENDBRANCH   2   3
ENDBRANCH   1   2
BRANCH   1   6
ATOM      6  C   UNL     1      -6.508  28.582 -18.317  1.00  0.00     0.000 C 
BRANCH   6   7
ATOM      7  C   UNL     1      -7.147  28.936 -19.669  1.00  0.00    -0.003 C 
ATOM      8  C   UNL     1      -6.259  28.569 -20.857  1.00  0.00     0.004 C 
ENDBRANCH   6   7
ENDBRANCH   1   6
TORSDOF 4
ENDMDL
MODEL 3
REMARK VINA RESULT:    -0.799      2.550      5.208
REMARK INTER + INTRA:          -1.043
REMARK INTER:                  -0.958
REMARK INTRA:                  -0.084
REMARK UNBOUND:                -0.058
REMARK SMILES CCCCCC(=O)[O-]
REMARK SMILES IDX 4 1 5 2 6 3 7 4 8 5 3 6 2 7 1 8
REMARK H PARENT
REMARK Flexibility Score: inf
ROOT
ATOM      1  C   UNL     1      -7.865  29.250 -17.287  1.00  0.00     0.006 C 
ENDROOT
BRANCH   1   2
ATOM      2  C   UNL     1      -6.659  28.608 -17.985  1.00  0.00     0.053 C 
BRANCH   2   3
ATOM      3  C   UNL     1      -6.801  28.638 -19.477  1.00  0.00     0.041 C 
ATOM      4  O   UNL     1      -6.057  27.921 -20.198  1.00  0.00    -0.550 OA
ATOM      5  O   UNL     1      -7.776  29.430 -20.068  1.00  0.00    -0.550 OA
ENDBRANCH   2   3
ENDBRANCH   1   2
BRANCH   1   6
ATOM      6  C   UNL     1      -7.848  29.016 -15.767  1.00  0.00     0.000 C 
BRANCH   6   7
ATOM      7  C   UNL     1      -8.701  30.040 -15.004  1.00  0.00    -0.003 C 
ATOM      8  C   UNL     1      -9.311  31.101 -15.920  1.00  0.00     0.004 C 
ENDBRANCH   6   7
ENDBRANCH   1   6
TORSDOF 4
ENDMDL
MODEL 4
REMARK VINA RESULT:    -0.722      3.124      5.631
REMARK INTER + INTRA:          -0.948
REMARK INTER:                  -0.870
REMARK INTRA:                  -0.078
REMARK UNBOUND:                -0.058
REMARK SMILES CCCCCC(=O)[O-]
REMARK SMILES IDX 4 1 5 2 6 3 7 4 8 5 3 6 2 7 1 8
REMARK H PARENT
REMARK Flexibility Score: inf
ROOT
ATOM      1  C   UNL     1      -8.376  29.639 -16.044  1.00  0.00     0.006 C 
ENDROOT
BRANCH   1   2
ATOM      2  C   UNL     1      -8.334  29.382 -17.556  1.00  0.00     0.053 C 
BRANCH   2   3
ATOM      3  C   UNL     1      -7.054  28.723 -17.972  1.00  0.00     0.041 C 
ATOM      4  O   UNL     1      -6.307  28.190 -17.110  1.00  0.00    -0.550 OA
ATOM      5  O   UNL     1      -6.705  28.667 -19.315  1.00  0.00    -0.550 OA
ENDBRANCH   2   3
ENDBRANCH   1   2
BRANCH   1   6
ATOM      6  C   UNL     1      -9.417  30.706 -15.664  1.00  0.00     0.000 C 
BRANCH   6   7
ATOM      7  C   UNL     1      -9.021  32.111 -16.142  1.00  0.00    -0.003 C 
ATOM      8  C   UNL     1      -8.626  33.037 -14.992  1.00  0.00     0.004 C 
ENDBRANCH   6   7
ENDBRANCH   1   6
TORSDOF 4
ENDMDL
MODEL 5
REMARK VINA RESULT:    -0.609      2.506      4.872
REMARK INTER + INTRA:          -0.809
REMARK INTER:                  -0.726
REMARK INTRA:                  -0.083
REMARK UNBOUND:                -0.058
REMARK SMILES CCCCCC(=O)[O-]
REMARK SMILES IDX 4 1 5 2 6 3 7 4 8 5 3 6 2 7 1 8
REMARK H PARENT
REMARK Flexibility Score: inf
ROOT
ATOM      1  C   UNL     1      -7.199  28.898 -18.534  1.00  0.00     0.006 C 
ENDROOT
BRANCH   1   2
ATOM      2  C   UNL     1      -6.144  28.208 -19.408  1.00  0.00     0.053 C 
BRANCH   2   3
ATOM      3  C   UNL     1      -6.299  28.569 -20.855  1.00  0.00     0.041 C 
ATOM      4  O   UNL     1      -7.077  29.499 -21.196  1.00  0.00    -0.550 OA
ATOM      5  O   UNL     1      -5.559  27.901 -21.822  1.00  0.00    -0.550 OA
ENDBRANCH   2   3
ENDBRANCH   1   2
BRANCH   1   6
ATOM      6  C   UNL     1      -7.010  28.585 -17.040  1.00  0.00     0.000 C 
BRANCH   6   7
ATOM      7  C   UNL     1      -8.058  29.276 -16.156  1.00  0.00    -0.003 C 
ATOM      8  C   UNL     1      -9.095  30.053 -16.966  1.00  0.00     0.004 C 
ENDBRANCH   6   7
ENDBRANCH   1   6
TORSDOF 4
ENDMDL
MODEL 6
REMARK VINA RESULT:    -0.439     14.773     15.275
REMARK INTER + INTRA:          -0.599
REMARK INTER:                  -0.525
REMARK INTRA:                  -0.075
REMARK UNBOUND:                -0.058
REMARK SMILES CCCCCC(=O)[O-]
REMARK SMILES IDX 4 1 5 2 6 3 7 4 8 5 3 6 2 7 1 8
REMARK H PARENT
REMARK Flexibility Score: inf
ROOT
ATOM      1  C   UNL     1      -8.925  25.186  -4.926  1.00  0.00     0.006 C 
ENDROOT
BRANCH   1   2
ATOM      2  C   UNL     1      -9.355  26.618  -5.268  1.00  0.00     0.053 C 
BRANCH   2   3
ATOM      3  C   UNL     1     -10.703  26.944  -4.701  1.00  0.00     0.041 C 
ATOM      4  O   UNL     1     -10.844  27.929  -3.928  1.00  0.00    -0.550 OA
ATOM      5  O   UNL     1     -11.809  26.181  -5.052  1.00  0.00    -0.550 OA
ENDBRANCH   2   3
ENDBRANCH   1   2
BRANCH   1   6
ATOM      6  C   UNL     1      -7.898  24.632  -5.929  1.00  0.00     0.000 C 
BRANCH   6   7
ATOM      7  C   UNL     1      -6.768  23.851  -5.244  1.00  0.00    -0.003 C 
ATOM      8  C   UNL     1      -5.436  24.599  -5.262  1.00  0.00     0.004 C 
ENDBRANCH   6   7
ENDBRANCH   1   6
TORSDOF 4
ENDMDL
MODEL 7
REMARK VINA RESULT:     0.374     14.681     15.632
REMARK INTER + INTRA:           0.404
REMARK INTER:                   0.447
REMARK INTRA:                  -0.042
REMARK UNBOUND:                -0.058
REMARK SMILES CCCCCC(=O)[O-]
REMARK SMILES IDX 4 1 5 2 6 3 7 4 8 5 3 6 2 7 1 8
REMARK H PARENT
REMARK Flexibility Score: inf
ROOT
ATOM      1  C   UNL     1      -8.507  25.016  -4.719  1.00  0.00     0.006 C 
ENDROOT
BRANCH   1   2
ATOM      2  C   UNL     1      -7.631  24.631  -5.919  1.00  0.00     0.053 C 
BRANCH   2   3
ATOM      3  C   UNL     1      -6.281  24.144  -5.487  1.00  0.00     0.041 C 
ATOM      4  O   UNL     1      -6.108  22.931  -5.197  1.00  0.00    -0.550 OA
ATOM      5  O   UNL     1      -5.207  25.023  -5.439  1.00  0.00    -0.550 OA
ENDBRANCH   2   3
ENDBRANCH   1   2
BRANCH   1   6
ATOM      6  C   UNL     1      -9.790  25.748  -5.148  1.00  0.00     0.000 C 
BRANCH   6   7
ATOM      7  C   UNL     1      -9.887  27.161  -4.555  1.00  0.00    -0.003 C 
ATOM      8  C   UNL     1     -11.331  27.619  -4.350  1.00  0.00     0.004 C 
ENDBRANCH   6   7
ENDBRANCH   1   6
TORSDOF 4
ENDMDL
