MODEL 1
REMARK VINA RESULT:    -7.028      0.000      0.000
REMARK INTER + INTRA:         -11.627
REMARK INTER:                 -10.932
REMARK INTRA:                  -0.695
REMARK UNBOUND:                -0.695
REMARK SMILES COc1cc(CNC(=O)CCCCC=CC(C)C)ccc1O
REMARK SMILES IDX 11 1 12 2 13 3 14 4 15 5 16 6 17 7 18 8 10 9 8 10 9 11 7 12
REMARK SMILES IDX 6 14 5 15 4 16 19 17 3 18 20 19 21 20 2 21 1 22 22 23
REMARK H PARENT 7 13 22 24
REMARK Flexibility Score: inf
ROOT
ATOM      1  C   UNL     1      -1.867 -18.642  34.249  1.00  0.00     0.010 C 
ENDROOT
BRANCH   1   2
ATOM      2  C   UNL     1      -3.344 -18.733  33.848  1.00  0.00     0.005 C 
BRANCH   2   3
ATOM      3  C   UNL     1      -3.921 -17.342  33.558  1.00  0.00     0.027 C 
BRANCH   3   4
ATOM      4  C   UNL     1      -5.026 -17.004  34.520  1.00  0.00    -0.031 C 
ATOM      5  C   UNL     1      -5.462 -17.893  35.429  1.00  0.00    -0.028 C 
BRANCH   5   6
ATOM      6  C   UNL     1      -6.571 -17.583  36.409  1.00  0.00     0.005 C 
ATOM      7  C   UNL     1      -6.278 -18.182  37.790  1.00  0.00     0.012 C 
ATOM      8  C   UNL     1      -7.934 -18.047  35.880  1.00  0.00     0.012 C 
ENDBRANCH   5   6
ENDBRANCH   3   4
ENDBRANCH   2   3
ENDBRANCH   1   2
BRANCH   1   9
ATOM      9  C   UNL     1      -1.276 -17.283  33.865  1.00  0.00     0.100 C 
BRANCH   9  10
ATOM     10  C   UNL     1       0.176 -17.422  33.517  1.00  0.00     0.220 C 
ATOM     11  O   UNL     1       0.626 -18.547  33.170  1.00  0.00    -0.275 OA
ATOM     12  N   UNL     1       1.033 -16.271  33.533  1.00  0.00    -0.352 N 
ATOM     13  H   UNL     1       0.627 -15.338  33.769  1.00  0.00     0.163 HD
BRANCH  12  14
ATOM     14  C   UNL     1       2.457 -16.347  33.209  1.00  0.00     0.151 C 
BRANCH  14  15
ATOM     15  C   UNL     1       2.668 -16.168  31.728  1.00  0.00    -0.025 A 
ATOM     16  C   UNL     1       1.630 -15.672  30.925  1.00  0.00     0.056 A 
ATOM     17  C   UNL     1       3.907 -16.472  31.144  1.00  0.00     0.009 A 
ATOM     18  C   UNL     1       1.822 -15.481  29.541  1.00  0.00     0.160 A 
ATOM     19  C   UNL     1       4.104 -16.286  29.775  1.00  0.00     0.050 A 
ATOM     20  C   UNL     1       3.071 -15.794  28.971  1.00  0.00     0.157 A 
BRANCH  18  21
ATOM     21  O   UNL     1       0.804 -14.983  28.711  1.00  0.00    -0.493 OA
ATOM     22  C   UNL     1      -0.511 -14.659  29.152  1.00  0.00     0.278 C 
ENDBRANCH  18  21
BRANCH  20  23
ATOM     23  O   UNL     1       3.305 -15.620  27.606  1.00  0.00    -0.504 OA
ATOM     24  H   UNL     1       2.690 -16.004  26.899  1.00  0.00     0.293 HD
ENDBRANCH  20  23
ENDBRANCH  14  15
ENDBRANCH  12  14
ENDBRANCH   9  10
ENDBRANCH   1   9
TORSDOF 10
ENDMDL
MODEL 2
REMARK VINA RESULT:    -6.963      4.821      9.424
REMARK INTER + INTRA:         -11.525
REMARK INTER:                 -10.997
REMARK INTRA:                  -0.527
REMARK UNBOUND:                -0.695
REMARK SMILES COc1cc(CNC(=O)CCCCC=CC(C)C)ccc1O
REMARK SMILES IDX 11 1 12 2 13 3 14 4 15 5 16 6 17 7 18 8 10 9 8 10 9 11 7 12
REMARK SMILES IDX 6 14 5 15 4 16 19 17 3 18 20 19 21 20 2 21 1 22 22 23
REMARK H PARENT 7 13 22 24
REMARK Flexibility Score: inf
ROOT
ATOM      1  C   UNL     1       3.941 -17.776  31.984  1.00  0.00     0.010 C 
ENDROOT
BRANCH   1   2
ATOM      2  C   UNL     1       4.230 -16.372  31.439  1.00  0.00     0.005 C 
BRANCH   2   3
ATOM      3  C   UNL     1       4.076 -16.332  29.914  1.00  0.00     0.027 C 
BRANCH   3   4
ATOM      4  C   UNL     1       2.865 -15.536  29.514  1.00  0.00    -0.031 C 
ATOM      5  C   UNL     1       2.209 -15.782  28.367  1.00  0.00    -0.028 C 
BRANCH   5   6
ATOM      6  C   UNL     1       0.989 -14.999  27.939  1.00  0.00     0.005 C 
ATOM      7  C   UNL     1       0.019 -14.793  29.108  1.00  0.00     0.012 C 
ATOM      8  C   UNL     1       0.288 -15.661  26.745  1.00  0.00     0.012 C 
ENDBRANCH   5   6
ENDBRANCH   3   4
ENDBRANCH   2   3
ENDBRANCH   1   2
BRANCH   1   9
ATOM      9  C   UNL     1       3.284 -17.704  33.366  1.00  0.00     0.100 C 
BRANCH   9  10
ATOM     10  C   UNL     1       2.217 -18.751  33.494  1.00  0.00     0.220 C 
ATOM     11  O   UNL     1       1.475 -19.004  32.507  1.00  0.00    -0.275 OA
ATOM     12  N   UNL     1       2.078 -19.489  34.716  1.00  0.00    -0.352 N 
ATOM     13  H   UNL     1       2.740 -19.302  35.502  1.00  0.00     0.163 HD
BRANCH  12  14
ATOM     14  C   UNL     1       1.054 -20.516  34.901  1.00  0.00     0.151 C 
BRANCH  14  15
ATOM     15  C   UNL     1       1.482 -21.501  35.957  1.00  0.00    -0.025 A 
ATOM     16  C   UNL     1       0.677 -22.613  36.248  1.00  0.00     0.056 A 
ATOM     17  C   UNL     1       2.694 -21.329  36.642  1.00  0.00     0.009 A 
ATOM     18  C   UNL     1       1.075 -23.553  37.221  1.00  0.00     0.160 A 
ATOM     19  C   UNL     1       3.094 -22.256  37.606  1.00  0.00     0.050 A 
ATOM     20  C   UNL     1       2.294 -23.364  37.900  1.00  0.00     0.157 A 
BRANCH  18  21
ATOM     21  O   UNL     1       0.293 -24.678  37.532  1.00  0.00    -0.493 OA
ATOM     22  C   UNL     1      -0.920 -25.026  36.872  1.00  0.00     0.278 C 
ENDBRANCH  18  21
BRANCH  20  23
ATOM     23  O   UNL     1       2.728 -24.270  38.869  1.00  0.00    -0.504 OA
ATOM     24  H   UNL     1       3.569 -24.116  39.413  1.00  0.00     0.293 HD
ENDBRANCH  20  23
ENDBRANCH  14  15
ENDBRANCH  12  14
ENDBRANCH   9  10
ENDBRANCH   1   9
TORSDOF 10
ENDMDL
MODEL 3
REMARK VINA RESULT:    -6.819      2.998      7.543
REMARK INTER + INTRA:         -11.301
REMARK INTER:                 -10.507
REMARK INTRA:                  -0.794
REMARK UNBOUND:                -0.695
REMARK SMILES COc1cc(CNC(=O)CCCCC=CC(C)C)ccc1O
REMARK SMILES IDX 11 1 12 2 13 3 14 4 15 5 16 6 17 7 18 8 10 9 8 10 9 11 7 12
REMARK SMILES IDX 6 14 5 15 4 16 19 17 3 18 20 19 21 20 2 21 1 22 22 23
REMARK H PARENT 7 13 22 24
REMARK Flexibility Score: inf
ROOT
ATOM      1  C   UNL     1       4.666 -14.897  30.917  1.00  0.00     0.010 C 
ENDROOT
BRANCH   1   2
ATOM      2  C   UNL     1       4.796 -16.086  29.958  1.00  0.00     0.005 C 
BRANCH   2   3
ATOM      3  C   UNL     1       3.534 -16.957  29.985  1.00  0.00     0.027 C 
BRANCH   3   4
ATOM      4  C   UNL     1       2.327 -16.171  29.555  1.00  0.00    -0.031 C 
ATOM      5  C   UNL     1       2.140 -15.815  28.272  1.00  0.00    -0.028 C 
BRANCH   5   6
ATOM      6  C   UNL     1       0.937 -15.025  27.809  1.00  0.00     0.005 C 
ATOM      7  C   UNL     1      -0.046 -14.781  28.960  1.00  0.00     0.012 C 
ATOM      8  C   UNL     1       0.244 -15.704  26.621  1.00  0.00     0.012 C 
ENDBRANCH   5   6
ENDBRANCH   3   4
ENDBRANCH   2   3
ENDBRANCH   1   2
BRANCH   1   9
ATOM      9  C   UNL     1       5.089 -15.287  32.336  1.00  0.00     0.100 C 
BRANCH   9  10
ATOM     10  C   UNL     1       3.889 -15.414  33.226  1.00  0.00     0.220 C 
ATOM     11  O   UNL     1       4.041 -15.402  34.477  1.00  0.00    -0.275 OA
ATOM     12  N   UNL     1       2.576 -15.499  32.654  1.00  0.00    -0.352 N 
ATOM     13  H   UNL     1       2.469 -15.450  31.616  1.00  0.00     0.163 HD
BRANCH  12  14
ATOM     14  C   UNL     1       1.371 -15.629  33.471  1.00  0.00     0.151 C 
BRANCH  14  15
ATOM     15  C   UNL     1       0.878 -17.053  33.458  1.00  0.00    -0.025 A 
ATOM     16  C   UNL     1      -0.441 -17.343  33.841  1.00  0.00     0.056 A 
ATOM     17  C   UNL     1       1.721 -18.094  33.043  1.00  0.00     0.009 A 
ATOM     18  C   UNL     1      -0.921 -18.669  33.814  1.00  0.00     0.160 A 
ATOM     19  C   UNL     1       1.252 -19.409  33.014  1.00  0.00     0.050 A 
ATOM     20  C   UNL     1      -0.060 -19.702  33.397  1.00  0.00     0.157 A 
BRANCH  18  21
ATOM     21  O   UNL     1      -2.236 -18.991  34.188  1.00  0.00    -0.493 OA
ATOM     22  C   UNL     1      -3.389 -18.243  33.813  1.00  0.00     0.278 C 
ENDBRANCH  18  21
BRANCH  20  23
ATOM     23  O   UNL     1      -0.493 -21.028  33.354  1.00  0.00    -0.504 OA
ATOM     24  H   UNL     1       0.022 -21.779  33.798  1.00  0.00     0.293 HD
ENDBRANCH  20  23
ENDBRANCH  14  15
ENDBRANCH  12  14
ENDBRANCH   9  10
ENDBRANCH   1   9
TORSDOF 10
ENDMDL
MODEL 4
REMARK VINA RESULT:    -6.648      1.610      2.253
REMARK INTER + INTRA:         -11.035
REMARK INTER:                 -10.386
REMARK INTRA:                  -0.648
REMARK UNBOUND:                -0.695
REMARK SMILES COc1cc(CNC(=O)CCCCC=CC(C)C)ccc1O
REMARK SMILES IDX 11 1 12 2 13 3 14 4 15 5 16 6 17 7 18 8 10 9 8 10 9 11 7 12
REMARK SMILES IDX 6 14 5 15 4 16 19 17 3 18 20 19 21 20 2 21 1 22 22 23
REMARK H PARENT 7 13 22 24
REMARK Flexibility Score: inf
ROOT
ATOM      1  C   UNL     1      -1.481 -17.952  33.875  1.00  0.00     0.010 C 
ENDROOT
BRANCH   1   2
ATOM      2  C   UNL     1      -2.945 -18.407  33.875  1.00  0.00     0.005 C 
BRANCH   2   3
ATOM      3  C   UNL     1      -3.876 -17.266  33.443  1.00  0.00     0.027 C 
BRANCH   3   4
ATOM      4  C   UNL     1      -4.863 -16.936  34.527  1.00  0.00    -0.031 C 
ATOM      5  C   UNL     1      -5.609 -17.888  35.113  1.00  0.00    -0.028 C 
BRANCH   5   6
ATOM      6  C   UNL     1      -6.610 -17.587  36.206  1.00  0.00     0.005 C 
ATOM      7  C   UNL     1      -6.127 -18.109  37.564  1.00  0.00     0.012 C 
ATOM      8  C   UNL     1      -8.000 -18.137  35.861  1.00  0.00     0.012 C 
ENDBRANCH   5   6
ENDBRANCH   3   4
ENDBRANCH   2   3
ENDBRANCH   1   2
BRANCH   1   9
ATOM      9  C   UNL     1      -0.568 -19.040  34.448  1.00  0.00     0.100 C 
BRANCH   9  10
ATOM     10  C   UNL     1       0.695 -19.140  33.647  1.00  0.00     0.220 C 
ATOM     11  O   UNL     1       0.635 -19.469  32.432  1.00  0.00    -0.275 OA
ATOM     12  N   UNL     1       1.957 -18.816  34.250  1.00  0.00    -0.352 N 
ATOM     13  H   UNL     1       1.977 -18.491  35.242  1.00  0.00     0.163 HD
BRANCH  12  14
ATOM     14  C   UNL     1       3.220 -18.900  33.520  1.00  0.00     0.151 C 
BRANCH  14  15
ATOM     15  C   UNL     1       3.541 -17.580  32.869  1.00  0.00    -0.025 A 
ATOM     16  C   UNL     1       3.629 -17.489  31.472  1.00  0.00     0.056 A 
ATOM     17  C   UNL     1       3.729 -16.429  33.649  1.00  0.00     0.009 A 
ATOM     18  C   UNL     1       3.908 -16.255  30.849  1.00  0.00     0.160 A 
ATOM     19  C   UNL     1       4.007 -15.204  33.039  1.00  0.00     0.050 A 
ATOM     20  C   UNL     1       4.098 -15.110  31.647  1.00  0.00     0.157 A 
BRANCH  18  21
ATOM     21  O   UNL     1       4.000 -16.131  29.452  1.00  0.00    -0.493 OA
ATOM     22  C   UNL     1       2.921 -15.751  28.603  1.00  0.00     0.278 C 
ENDBRANCH  18  21
BRANCH  20  23
ATOM     23  O   UNL     1       4.375 -13.869  31.073  1.00  0.00    -0.504 OA
ATOM     24  H   UNL     1       4.707 -13.776  30.120  1.00  0.00     0.293 HD
ENDBRANCH  20  23
ENDBRANCH  14  15
ENDBRANCH  12  14
ENDBRANCH   9  10
ENDBRANCH   1   9
TORSDOF 10
ENDMDL
MODEL 5
REMARK VINA RESULT:    -6.522      3.780      5.445
REMARK INTER + INTRA:         -10.839
REMARK INTER:                 -10.234
REMARK INTRA:                  -0.605
REMARK UNBOUND:                -0.695
REMARK SMILES COc1cc(CNC(=O)CCCCC=CC(C)C)ccc1O
REMARK SMILES IDX 11 1 12 2 13 3 14 4 15 5 16 6 17 7 18 8 10 9 8 10 9 11 7 12
REMARK SMILES IDX 6 14 5 15 4 16 19 17 3 18 20 19 21 20 2 21 1 22 22 23
REMARK H PARENT 7 13 22 24
REMARK Flexibility Score: inf
ROOT
ATOM      1  C   UNL     1       0.612 -20.221  33.150  1.00  0.00     0.010 C 
ENDROOT
BRANCH   1   2
ATOM      2  C   UNL     1       0.593 -21.325  34.213  1.00  0.00     0.005 C 
BRANCH   2   3
ATOM      3  C   UNL     1       1.210 -20.834  35.529  1.00  0.00     0.027 C 
BRANCH   3   4
ATOM      4  C   UNL     1       1.444 -21.978  36.475  1.00  0.00    -0.031 C 
ATOM      5  C   UNL     1       2.587 -22.089  37.175  1.00  0.00    -0.028 C 
BRANCH   5   6
ATOM      6  C   UNL     1       2.851 -23.227  38.134  1.00  0.00     0.005 C 
ATOM      7  C   UNL     1       4.281 -23.761  37.986  1.00  0.00     0.012 C 
ATOM      8  C   UNL     1       1.819 -24.350  37.971  1.00  0.00     0.012 C 
ENDBRANCH   5   6
ENDBRANCH   3   4
ENDBRANCH   2   3
ENDBRANCH   1   2
BRANCH   1   9
ATOM      9  C   UNL     1      -0.115 -18.968  33.646  1.00  0.00     0.100 C 
BRANCH   9  10
ATOM     10  C   UNL     1       0.708 -17.744  33.379  1.00  0.00     0.220 C 
ATOM     11  O   UNL     1       0.209 -16.604  33.581  1.00  0.00    -0.275 OA
ATOM     12  N   UNL     1       2.069 -17.873  32.943  1.00  0.00    -0.352 N 
ATOM     13  H   UNL     1       2.481 -18.827  32.836  1.00  0.00     0.163 HD
BRANCH  12  14
ATOM     14  C   UNL     1       2.917 -16.715  32.663  1.00  0.00     0.151 C 
BRANCH  14  15
ATOM     15  C   UNL     1       2.875 -16.376  31.196  1.00  0.00    -0.025 A 
ATOM     16  C   UNL     1       1.715 -15.818  30.637  1.00  0.00     0.056 A 
ATOM     17  C   UNL     1       3.998 -16.590  30.382  1.00  0.00     0.009 A 
ATOM     18  C   UNL     1       1.668 -15.477  29.269  1.00  0.00     0.160 A 
ATOM     19  C   UNL     1       3.959 -16.255  29.028  1.00  0.00     0.050 A 
ATOM     20  C   UNL     1       2.803 -15.702  28.467  1.00  0.00     0.157 A 
BRANCH  18  21
ATOM     21  O   UNL     1       0.523 -14.915  28.681  1.00  0.00    -0.493 OA
ATOM     22  C   UNL     1      -0.666 -14.579  29.390  1.00  0.00     0.278 C 
ENDBRANCH  18  21
BRANCH  20  23
ATOM     23  O   UNL     1       2.803 -15.379  27.109  1.00  0.00    -0.504 OA
ATOM     24  H   UNL     1       3.471 -14.732  26.708  1.00  0.00     0.293 HD
ENDBRANCH  20  23
ENDBRANCH  14  15
ENDBRANCH  12  14
ENDBRANCH   9  10
ENDBRANCH   1   9
TORSDOF 10
ENDMDL
MODEL 6
REMARK VINA RESULT:    -6.449      4.758      7.935
REMARK INTER + INTRA:         -10.726
REMARK INTER:                  -9.864
REMARK INTRA:                  -0.863
REMARK UNBOUND:                -0.695
REMARK SMILES COc1cc(CNC(=O)CCCCC=CC(C)C)ccc1O
REMARK SMILES IDX 11 1 12 2 13 3 14 4 15 5 16 6 17 7 18 8 10 9 8 10 9 11 7 12
REMARK SMILES IDX 6 14 5 15 4 16 19 17 3 18 20 19 21 20 2 21 1 22 22 23
REMARK H PARENT 7 13 22 24
REMARK Flexibility Score: inf
ROOT
ATOM      1  C   UNL     1       3.705 -14.821  31.608  1.00  0.00     0.010 C 
ENDROOT
BRANCH   1   2
ATOM      2  C   UNL     1       4.636 -15.535  30.620  1.00  0.00     0.005 C 
BRANCH   2   3
ATOM      3  C   UNL     1       3.857 -16.530  29.751  1.00  0.00     0.027 C 
BRANCH   3   4
ATOM      4  C   UNL     1       2.489 -16.002  29.419  1.00  0.00    -0.031 C 
ATOM      5  C   UNL     1       2.196 -15.529  28.195  1.00  0.00    -0.028 C 
BRANCH   5   6
ATOM      6  C   UNL     1       0.830 -14.991  27.832  1.00  0.00     0.005 C 
ATOM      7  C   UNL     1      -0.095 -14.947  29.053  1.00  0.00     0.012 C 
ATOM      8  C   UNL     1       0.199 -15.791  26.685  1.00  0.00     0.012 C 
ENDBRANCH   5   6
ENDBRANCH   3   4
ENDBRANCH   2   3
ENDBRANCH   1   2
BRANCH   1   9
ATOM      9  C   UNL     1       4.385 -14.637  32.967  1.00  0.00     0.100 C 
BRANCH   9  10
ATOM     10  C   UNL     1       4.250 -15.881  33.794  1.00  0.00     0.220 C 
ATOM     11  O   UNL     1       3.837 -15.795  34.982  1.00  0.00    -0.275 OA
ATOM     12  N   UNL     1       4.544 -17.162  33.218  1.00  0.00    -0.352 N 
ATOM     13  H   UNL     1       4.830 -17.215  32.215  1.00  0.00     0.163 HD
BRANCH  12  14
ATOM     14  C   UNL     1       4.436 -18.407  33.976  1.00  0.00     0.151 C 
BRANCH  14  15
ATOM     15  C   UNL     1       3.057 -18.996  33.826  1.00  0.00    -0.025 A 
ATOM     16  C   UNL     1       2.524 -19.803  34.843  1.00  0.00     0.056 A 
ATOM     17  C   UNL     1       2.288 -18.726  32.685  1.00  0.00     0.009 A 
ATOM     18  C   UNL     1       1.227 -20.345  34.723  1.00  0.00     0.160 A 
ATOM     19  C   UNL     1       1.004 -19.259  32.560  1.00  0.00     0.050 A 
ATOM     20  C   UNL     1       0.470 -20.065  33.570  1.00  0.00     0.157 A 
BRANCH  18  21
ATOM     21  O   UNL     1       0.664 -21.153  35.725  1.00  0.00    -0.493 OA
ATOM     22  C   UNL     1       1.414 -21.967  36.622  1.00  0.00     0.278 C 
ENDBRANCH  18  21
BRANCH  20  23
ATOM     23  O   UNL     1      -0.818 -20.579  33.410  1.00  0.00    -0.504 OA
ATOM     24  H   UNL     1      -1.438 -20.737  34.196  1.00  0.00     0.293 HD
ENDBRANCH  20  23
ENDBRANCH  14  15
ENDBRANCH  12  14
ENDBRANCH   9  10
ENDBRANCH   1   9
TORSDOF 10
ENDMDL
MODEL 7
REMARK VINA RESULT:    -6.407      4.606      5.714
REMARK INTER + INTRA:         -10.660
REMARK INTER:                  -9.869
REMARK INTRA:                  -0.791
REMARK UNBOUND:                -0.695
REMARK SMILES COc1cc(CNC(=O)CCCCC=CC(C)C)ccc1O
REMARK SMILES IDX 11 1 12 2 13 3 14 4 15 5 16 6 17 7 18 8 10 9 8 10 9 11 7 12
REMARK SMILES IDX 6 14 5 15 4 16 19 17 3 18 20 19 21 20 2 21 1 22 22 23
REMARK H PARENT 7 13 22 24
REMARK Flexibility Score: inf
ROOT
ATOM      1  C   UNL     1       3.109 -18.591  34.233  1.00  0.00     0.010 C 
ENDROOT
BRANCH   1   2
ATOM      2  C   UNL     1       1.903 -19.058  33.409  1.00  0.00     0.005 C 
BRANCH   2   3
ATOM      3  C   UNL     1       1.049 -20.057  34.200  1.00  0.00     0.027 C 
BRANCH   3   4
ATOM      4  C   UNL     1       1.809 -20.602  35.377  1.00  0.00    -0.031 C 
ATOM      5  C   UNL     1       1.288 -21.556  36.168  1.00  0.00    -0.028 C 
BRANCH   5   6
ATOM      6  C   UNL     1       2.027 -22.124  37.359  1.00  0.00     0.005 C 
ATOM      7  C   UNL     1       3.545 -21.983  37.193  1.00  0.00     0.012 C 
ATOM      8  C   UNL     1       1.630 -23.583  37.622  1.00  0.00     0.012 C 
ENDBRANCH   5   6
ENDBRANCH   3   4
ENDBRANCH   2   3
ENDBRANCH   1   2
BRANCH   1   9
ATOM      9  C   UNL     1       4.397 -18.654  33.407  1.00  0.00     0.100 C 
BRANCH   9  10
ATOM     10  C   UNL     1       4.466 -17.498  32.455  1.00  0.00     0.220 C 
ATOM     11  O   UNL     1       4.813 -16.364  32.880  1.00  0.00    -0.275 OA
ATOM     12  N   UNL     1       4.186 -17.697  31.061  1.00  0.00    -0.352 N 
ATOM     13  H   UNL     1       3.955 -18.657  30.721  1.00  0.00     0.163 HD
BRANCH  12  14
ATOM     14  C   UNL     1       4.233 -16.607  30.088  1.00  0.00     0.151 C 
BRANCH  14  15
ATOM     15  C   UNL     1       2.855 -16.040  29.867  1.00  0.00    -0.025 A 
ATOM     16  C   UNL     1       2.450 -15.659  28.579  1.00  0.00     0.056 A 
ATOM     17  C   UNL     1       1.958 -15.910  30.939  1.00  0.00     0.009 A 
ATOM     18  C   UNL     1       1.156 -15.145  28.355  1.00  0.00     0.160 A 
ATOM     19  C   UNL     1       0.676 -15.401  30.724  1.00  0.00     0.050 A 
ATOM     20  C   UNL     1       0.270 -15.018  29.442  1.00  0.00     0.157 A 
BRANCH  18  21
ATOM     21  O   UNL     1       0.720 -14.758  27.077  1.00  0.00    -0.493 OA
ATOM     22  C   UNL     1       0.182 -15.647  26.104  1.00  0.00     0.278 C 
ENDBRANCH  18  21
BRANCH  20  23
ATOM     23  O   UNL     1      -1.020 -14.516  29.267  1.00  0.00    -0.504 OA
ATOM     24  H   UNL     1      -1.196 -13.540  29.062  1.00  0.00     0.293 HD
ENDBRANCH  20  23
ENDBRANCH  14  15
ENDBRANCH  12  14
ENDBRANCH   9  10
ENDBRANCH   1   9
TORSDOF 10
ENDMDL
MODEL 8
REMARK VINA RESULT:    -6.202      4.485      7.101
REMARK INTER + INTRA:         -10.342
REMARK INTER:                  -9.644
REMARK INTRA:                  -0.698
REMARK UNBOUND:                -0.695
REMARK SMILES COc1cc(CNC(=O)CCCCC=CC(C)C)ccc1O
REMARK SMILES IDX 11 1 12 2 13 3 14 4 15 5 16 6 17 7 18 8 10 9 8 10 9 11 7 12
REMARK SMILES IDX 6 14 5 15 4 16 19 17 3 18 20 19 21 20 2 21 1 22 22 23
REMARK H PARENT 7 13 22 24
REMARK Flexibility Score: inf
ROOT
ATOM      1  C   UNL     1      -2.019 -17.283  33.882  1.00  0.00     0.010 C 
ENDROOT
BRANCH   1   2
ATOM      2  C   UNL     1      -3.506 -17.014  33.625  1.00  0.00     0.005 C 
BRANCH   2   3
ATOM      3  C   UNL     1      -4.292 -18.327  33.516  1.00  0.00     0.027 C 
BRANCH   3   4
ATOM      4  C   UNL     1      -5.426 -18.361  34.503  1.00  0.00    -0.031 C 
ATOM      5  C   UNL     1      -5.680 -17.322  35.318  1.00  0.00    -0.028 C 
BRANCH   5   6
ATOM      6  C   UNL     1      -6.812 -17.327  36.320  1.00  0.00     0.005 C 
ATOM      7  C   UNL     1      -6.320 -17.731  37.715  1.00  0.00     0.012 C 
ATOM      8  C   UNL     1      -7.968 -18.223  35.857  1.00  0.00     0.012 C 
ENDBRANCH   5   6
ENDBRANCH   3   4
ENDBRANCH   2   3
ENDBRANCH   1   2
BRANCH   1   9
ATOM      9  C   UNL     1      -1.780 -18.753  34.240  1.00  0.00     0.100 C 
BRANCH   9  10
ATOM     10  C   UNL     1      -0.326 -19.094  34.112  1.00  0.00     0.220 C 
ATOM     11  O   UNL     1       0.334 -18.644  33.136  1.00  0.00    -0.275 OA
ATOM     12  N   UNL     1       0.319 -19.885  35.121  1.00  0.00    -0.352 N 
ATOM     13  H   UNL     1      -0.233 -20.199  35.950  1.00  0.00     0.163 HD
BRANCH  12  14
ATOM     14  C   UNL     1       1.732 -20.253  35.047  1.00  0.00     0.151 C 
BRANCH  14  15
ATOM     15  C   UNL     1       2.046 -21.336  36.045  1.00  0.00    -0.025 A 
ATOM     16  C   UNL     1       1.094 -22.327  36.329  1.00  0.00     0.056 A 
ATOM     17  C   UNL     1       3.297 -21.379  36.679  1.00  0.00     0.009 A 
ATOM     18  C   UNL     1       1.383 -23.358  37.247  1.00  0.00     0.160 A 
ATOM     19  C   UNL     1       3.589 -22.397  37.589  1.00  0.00     0.050 A 
ATOM     20  C   UNL     1       2.642 -23.384  37.876  1.00  0.00     0.157 A 
BRANCH  18  21
ATOM     21  O   UNL     1       0.452 -24.366  37.551  1.00  0.00    -0.493 OA
ATOM     22  C   UNL     1      -0.622 -24.756  36.700  1.00  0.00     0.278 C 
ENDBRANCH  18  21
BRANCH  20  23
ATOM     23  O   UNL     1       2.971 -24.387  38.790  1.00  0.00    -0.504 OA
ATOM     24  H   UNL     1       2.271 -24.988  39.208  1.00  0.00     0.293 HD
ENDBRANCH  20  23
ENDBRANCH  14  15
ENDBRANCH  12  14
ENDBRANCH   9  10
ENDBRANCH   1   9
TORSDOF 10
ENDMDL
MODEL 9
REMARK VINA RESULT:    -6.168      1.674      2.703
REMARK INTER + INTRA:         -10.289
REMARK INTER:                  -9.834
REMARK INTRA:                  -0.455
REMARK UNBOUND:                -0.695
REMARK SMILES COc1cc(CNC(=O)CCCCC=CC(C)C)ccc1O
REMARK SMILES IDX 11 1 12 2 13 3 14 4 15 5 16 6 17 7 18 8 10 9 8 10 9 11 7 12
REMARK SMILES IDX 6 14 5 15 4 16 19 17 3 18 20 19 21 20 2 21 1 22 22 23
REMARK H PARENT 7 13 22 24
REMARK Flexibility Score: inf
ROOT
ATOM      1  C   UNL     1       1.020 -20.026  32.836  1.00  0.00     0.010 C 
ENDROOT
BRANCH   1   2
ATOM      2  C   UNL     1      -0.441 -20.234  33.252  1.00  0.00     0.005 C 
BRANCH   2   3
ATOM      3  C   UNL     1      -0.840 -19.257  34.366  1.00  0.00     0.027 C 
BRANCH   3   4
ATOM      4  C   UNL     1      -2.239 -18.746  34.160  1.00  0.00    -0.031 C 
ATOM      5  C   UNL     1      -2.478 -17.460  33.849  1.00  0.00    -0.028 C 
BRANCH   5   6
ATOM      6  C   UNL     1      -3.873 -16.916  33.636  1.00  0.00     0.005 C 
ATOM      7  C   UNL     1      -4.908 -17.702  34.449  1.00  0.00     0.012 C 
ATOM      8  C   UNL     1      -4.242 -16.886  32.147  1.00  0.00     0.012 C 
ENDBRANCH   5   6
ENDBRANCH   3   4
ENDBRANCH   2   3
ENDBRANCH   1   2
BRANCH   1   9
ATOM      9  C   UNL     1       1.832 -19.401  33.974  1.00  0.00     0.100 C 
BRANCH   9  10
ATOM     10  C   UNL     1       2.302 -18.030  33.591  1.00  0.00     0.220 C 
ATOM     11  O   UNL     1       3.513 -17.720  33.756  1.00  0.00    -0.275 OA
ATOM     12  N   UNL     1       1.389 -17.096  32.997  1.00  0.00    -0.352 N 
ATOM     13  H   UNL     1       0.404 -17.393  32.817  1.00  0.00     0.163 HD
BRANCH  12  14
ATOM     14  C   UNL     1       1.789 -15.745  32.608  1.00  0.00     0.151 C 
BRANCH  14  15
ATOM     15  C   UNL     1       2.081 -15.687  31.132  1.00  0.00    -0.025 A 
ATOM     16  C   UNL     1       1.071 -15.318  30.230  1.00  0.00     0.056 A 
ATOM     17  C   UNL     1       3.365 -15.976  30.648  1.00  0.00     0.009 A 
ATOM     18  C   UNL     1       1.336 -15.241  28.847  1.00  0.00     0.160 A 
ATOM     19  C   UNL     1       3.635 -15.902  29.280  1.00  0.00     0.050 A 
ATOM     20  C   UNL     1       2.630 -15.537  28.379  1.00  0.00     0.157 A 
BRANCH  18  21
ATOM     21  O   UNL     1       0.347 -14.873  27.920  1.00  0.00    -0.493 OA
ATOM     22  C   UNL     1      -0.002 -15.632  26.766  1.00  0.00     0.278 C 
ENDBRANCH  18  21
BRANCH  20  23
ATOM     23  O   UNL     1       2.937 -15.472  27.019  1.00  0.00    -0.504 OA
ATOM     24  H   UNL     1       3.153 -14.598  26.555  1.00  0.00     0.293 HD
ENDBRANCH  20  23
ENDBRANCH  14  15
ENDBRANCH  12  14
ENDBRANCH   9  10
ENDBRANCH   1   9
TORSDOF 10
ENDMDL
