MODEL 1
REMARK VINA RESULT:    -4.377      0.000      0.000
REMARK INTER + INTRA:          -8.165
REMARK INTER:                  -6.936
REMARK INTRA:                  -1.229
REMARK UNBOUND:                -1.229
REMARK SMILES CCCCCCCCCCCC(=O)[O-]
REMARK SMILES IDX 7 1 8 2 9 3 10 4 11 5 12 6 13 7 14 8 6 9 5 10 4 11 3 12 2 13
REMARK SMILES IDX 1 14
REMARK H PARENT
REMARK Flexibility Score: inf
ROOT
ATOM      1  C   UNL     1      57.244  -4.241  30.380  1.00  0.00     0.000 C 
ENDROOT
BRANCH   1   2
ATOM      2  C   UNL     1      56.582  -3.869  31.718  1.00  0.00     0.000 C 
BRANCH   2   3
ATOM      3  C   UNL     1      55.069  -4.153  31.800  1.00  0.00     0.000 C 
BRANCH   3   4
ATOM      4  C   UNL     1      54.173  -2.904  31.919  1.00  0.00     0.006 C 
BRANCH   4   5
ATOM      5  C   UNL     1      54.732  -1.653  31.225  1.00  0.00     0.053 C 
BRANCH   5   6
ATOM      6  C   UNL     1      54.286  -1.557  29.798  1.00  0.00     0.041 C 
ATOM      7  O   UNL     1      53.105  -1.211  29.526  1.00  0.00    -0.550 OA
ATOM      8  O   UNL     1      55.161  -1.883  28.770  1.00  0.00    -0.550 OA
ENDBRANCH   5   6
ENDBRANCH   4   5
ENDBRANCH   3   4
ENDBRANCH   2   3
ENDBRANCH   1   2
BRANCH   1   9
ATOM      9  C   UNL     1      58.546  -3.470  30.123  1.00  0.00     0.000 C 
BRANCH   9  10
ATOM     10  C   UNL     1      58.951  -2.650  31.353  1.00  0.00    -0.000 C 
BRANCH  10  11
ATOM     11  C   UNL     1      59.223  -1.186  30.974  1.00  0.00    -0.000 C 
BRANCH  11  12
ATOM     12  C   UNL     1      58.301  -0.676  29.851  1.00  0.00    -0.000 C 
BRANCH  12  13
ATOM     13  C   UNL     1      57.521   0.606  30.187  1.00  0.00    -0.003 C 
ATOM     14  C   UNL     1      57.098   1.392  28.946  1.00  0.00     0.004 C 
ENDBRANCH  12  13
ENDBRANCH  11  12
ENDBRANCH  10  11
ENDBRANCH   9  10
ENDBRANCH   1   9
TORSDOF 10
ENDMDL
MODEL 2
REMARK VINA RESULT:    -4.318      1.271      3.689
REMARK INTER + INTRA:          -8.072
REMARK INTER:                  -6.608
REMARK INTRA:                  -1.464
REMARK UNBOUND:                -1.229
REMARK SMILES CCCCCCCCCCCC(=O)[O-]
REMARK SMILES IDX 7 1 8 2 9 3 10 4 11 5 12 6 13 7 14 8 6 9 5 10 4 11 3 12 2 13
REMARK SMILES IDX 1 14
REMARK H PARENT
REMARK Flexibility Score: inf
ROOT
ATOM      1  C   UNL     1      59.738  -1.293  29.934  1.00  0.00     0.000 C 
ENDROOT
BRANCH   1   2
ATOM      2  C   UNL     1      58.721  -0.162  29.700  1.00  0.00     0.000 C 
BRANCH   2   3
ATOM      3  C   UNL     1      57.893   0.238  30.939  1.00  0.00     0.000 C 
BRANCH   3   4
ATOM      4  C   UNL     1      56.405  -0.166  30.891  1.00  0.00     0.006 C 
BRANCH   4   5
ATOM      5  C   UNL     1      55.987  -0.898  29.606  1.00  0.00     0.053 C 
BRANCH   5   6
ATOM      6  C   UNL     1      54.562  -1.357  29.662  1.00  0.00     0.041 C 
ATOM      7  O   UNL     1      53.956  -1.668  28.602  1.00  0.00    -0.550 OA
ATOM      8  O   UNL     1      53.893  -1.409  30.878  1.00  0.00    -0.550 OA
ENDBRANCH   5   6
ENDBRANCH   4   5
ENDBRANCH   3   4
ENDBRANCH   2   3
ENDBRANCH   1   2
BRANCH   1   9
ATOM      9  C   UNL     1      59.408  -2.566  29.142  1.00  0.00     0.000 C 
BRANCH   9  10
ATOM     10  C   UNL     1      59.224  -3.765  30.080  1.00  0.00    -0.000 C 
BRANCH  10  11
ATOM     11  C   UNL     1      58.952  -3.302  31.519  1.00  0.00    -0.000 C 
BRANCH  11  12
ATOM     12  C   UNL     1      57.487  -3.505  31.948  1.00  0.00    -0.000 C 
BRANCH  12  13
ATOM     13  C   UNL     1      56.643  -4.354  30.982  1.00  0.00    -0.003 C 
ATOM     14  C   UNL     1      55.337  -4.848  31.605  1.00  0.00     0.004 C 
ENDBRANCH  12  13
ENDBRANCH  11  12
ENDBRANCH  10  11
ENDBRANCH   9  10
ENDBRANCH   1   9
TORSDOF 10
ENDMDL
MODEL 3
REMARK VINA RESULT:    -4.257      2.150      5.201
REMARK INTER + INTRA:          -7.974
REMARK INTER:                  -6.846
REMARK INTRA:                  -1.128
REMARK UNBOUND:                -1.229
REMARK SMILES CCCCCCCCCCCC(=O)[O-]
REMARK SMILES IDX 7 1 8 2 9 3 10 4 11 5 12 6 13 7 14 8 6 9 5 10 4 11 3 12 2 13
REMARK SMILES IDX 1 14
REMARK H PARENT
REMARK Flexibility Score: inf
ROOT
ATOM      1  C   UNL     1      55.408  -1.410  28.702  1.00  0.00     0.000 C 
ENDROOT
BRANCH   1   2
ATOM      2  C   UNL     1      55.721   0.006  28.189  1.00  0.00     0.000 C 
BRANCH   2   3
ATOM      3  C   UNL     1      57.009   0.637  28.757  1.00  0.00     0.000 C 
BRANCH   3   4
ATOM      4  C   UNL     1      57.226   0.432  30.270  1.00  0.00     0.006 C 
BRANCH   4   5
ATOM      5  C   UNL     1      58.620  -0.095  30.646  1.00  0.00     0.053 C 
BRANCH   5   6
ATOM      6  C   UNL     1      59.126  -1.096  29.654  1.00  0.00     0.041 C 
ATOM      7  O   UNL     1      58.656  -2.265  29.639  1.00  0.00    -0.550 OA
ATOM      8  O   UNL     1      60.141  -0.751  28.771  1.00  0.00    -0.550 OA
ENDBRANCH   5   6
ENDBRANCH   4   5
ENDBRANCH   3   4
ENDBRANCH   2   3
ENDBRANCH   1   2
BRANCH   1   9
ATOM      9  C   UNL     1      53.937  -1.589  29.103  1.00  0.00     0.000 C 
BRANCH   9  10
ATOM     10  C   UNL     1      53.769  -1.511  30.625  1.00  0.00    -0.000 C 
BRANCH  10  11
ATOM     11  C   UNL     1      54.926  -2.219  31.344  1.00  0.00    -0.000 C 
BRANCH  11  12
ATOM     12  C   UNL     1      54.474  -3.468  32.124  1.00  0.00    -0.000 C 
BRANCH  12  13
ATOM     13  C   UNL     1      55.226  -4.761  31.767  1.00  0.00    -0.003 C 
ATOM     14  C   UNL     1      56.231  -4.574  30.630  1.00  0.00     0.004 C 
ENDBRANCH  12  13
ENDBRANCH  11  12
ENDBRANCH  10  11
ENDBRANCH   9  10
ENDBRANCH   1   9
TORSDOF 10
ENDMDL
MODEL 4
REMARK VINA RESULT:    -4.138      1.770      3.969
REMARK INTER + INTRA:          -7.786
REMARK INTER:                  -6.394
REMARK INTRA:                  -1.392
REMARK UNBOUND:                -1.229
REMARK SMILES CCCCCCCCCCCC(=O)[O-]
REMARK SMILES IDX 7 1 8 2 9 3 10 4 11 5 12 6 13 7 14 8 6 9 5 10 4 11 3 12 2 13
REMARK SMILES IDX 1 14
REMARK H PARENT
REMARK Flexibility Score: inf
ROOT
ATOM      1  C   UNL     1      58.400  -3.886  29.588  1.00  0.00     0.000 C 
ENDROOT
BRANCH   1   2
ATOM      2  C   UNL     1      59.531  -2.843  29.576  1.00  0.00     0.000 C 
BRANCH   2   3
ATOM      3  C   UNL     1      59.697  -2.045  30.885  1.00  0.00     0.000 C 
BRANCH   3   4
ATOM      4  C   UNL     1      59.000  -0.669  30.906  1.00  0.00     0.006 C 
BRANCH   4   5
ATOM      5  C   UNL     1      58.610  -0.133  29.521  1.00  0.00     0.053 C 
BRANCH   5   6
ATOM      6  C   UNL     1      57.521   0.892  29.603  1.00  0.00     0.041 C 
ATOM      7  O   UNL     1      56.839   1.007  30.656  1.00  0.00    -0.550 OA
ATOM      8  O   UNL     1      57.236   1.696  28.507  1.00  0.00    -0.550 OA
ENDBRANCH   5   6
ENDBRANCH   4   5
ENDBRANCH   3   4
ENDBRANCH   2   3
ENDBRANCH   1   2
BRANCH   1   9
ATOM      9  C   UNL     1      57.747  -4.043  30.968  1.00  0.00     0.000 C 
BRANCH   9  10
ATOM     10  C   UNL     1      56.306  -4.551  30.840  1.00  0.00    -0.000 C 
BRANCH  10  11
ATOM     11  C   UNL     1      55.327  -3.623  31.573  1.00  0.00    -0.000 C 
BRANCH  11  12
ATOM     12  C   UNL     1      55.497  -2.143  31.181  1.00  0.00    -0.000 C 
BRANCH  12  13
ATOM     13  C   UNL     1      54.560  -1.659  30.061  1.00  0.00    -0.003 C 
ATOM     14  C   UNL     1      55.155  -1.838  28.664  1.00  0.00     0.004 C 
ENDBRANCH  12  13
ENDBRANCH  11  12
ENDBRANCH  10  11
ENDBRANCH   9  10
ENDBRANCH   1   9
TORSDOF 10
ENDMDL
MODEL 5
REMARK VINA RESULT:    -4.118      1.946      3.982
REMARK INTER + INTRA:          -7.754
REMARK INTER:                  -6.303
REMARK INTRA:                  -1.452
REMARK UNBOUND:                -1.229
REMARK SMILES CCCCCCCCCCCC(=O)[O-]
REMARK SMILES IDX 7 1 8 2 9 3 10 4 11 5 12 6 13 7 14 8 6 9 5 10 4 11 3 12 2 13
REMARK SMILES IDX 1 14
REMARK H PARENT
REMARK Flexibility Score: inf
ROOT
ATOM      1  C   UNL     1      56.170  -4.639  30.605  1.00  0.00     0.000 C 
ENDROOT
BRANCH   1   2
ATOM      2  C   UNL     1      57.455  -4.011  30.037  1.00  0.00     0.000 C 
BRANCH   2   3
ATOM      3  C   UNL     1      58.454  -3.498  31.094  1.00  0.00     0.000 C 
BRANCH   3   4
ATOM      4  C   UNL     1      59.114  -2.143  30.769  1.00  0.00     0.006 C 
BRANCH   4   5
ATOM      5  C   UNL     1      58.216  -1.170  29.989  1.00  0.00     0.053 C 
BRANCH   5   6
ATOM      6  C   UNL     1      58.033   0.127  30.715  1.00  0.00     0.041 C 
ATOM      7  O   UNL     1      58.518   0.281  31.868  1.00  0.00    -0.550 OA
ATOM      8  O   UNL     1      57.300   1.154  30.135  1.00  0.00    -0.550 OA
ENDBRANCH   5   6
ENDBRANCH   4   5
ENDBRANCH   3   4
ENDBRANCH   2   3
ENDBRANCH   1   2
BRANCH   1   9
ATOM      9  C   UNL     1      55.739  -4.013  31.939  1.00  0.00     0.000 C 
BRANCH   9  10
ATOM     10  C   UNL     1      54.462  -3.181  31.769  1.00  0.00    -0.000 C 
BRANCH  10  11
ATOM     11  C   UNL     1      54.796  -1.733  31.380  1.00  0.00    -0.000 C 
BRANCH  11  12
ATOM     12  C   UNL     1      54.080  -1.276  30.096  1.00  0.00    -0.000 C 
BRANCH  12  13
ATOM     13  C   UNL     1      54.756  -1.717  28.786  1.00  0.00    -0.003 C 
ATOM     14  C   UNL     1      55.151  -0.541  27.891  1.00  0.00     0.004 C 
ENDBRANCH  12  13
ENDBRANCH  11  12
ENDBRANCH  10  11
ENDBRANCH   9  10
ENDBRANCH   1   9
TORSDOF 10
ENDMDL
MODEL 6
REMARK VINA RESULT:    -4.071      2.322      4.082
REMARK INTER + INTRA:          -7.679
REMARK INTER:                  -6.505
REMARK INTRA:                  -1.174
REMARK UNBOUND:                -1.229
REMARK SMILES CCCCCCCCCCCC(=O)[O-]
REMARK SMILES IDX 7 1 8 2 9 3 10 4 11 5 12 6 13 7 14 8 6 9 5 10 4 11 3 12 2 13
REMARK SMILES IDX 1 14
REMARK H PARENT
REMARK Flexibility Score: inf
ROOT
ATOM      1  C   UNL     1      54.188  -3.154  31.893  1.00  0.00     0.000 C 
ENDROOT
BRANCH   1   2
ATOM      2  C   UNL     1      55.261  -4.247  32.039  1.00  0.00     0.000 C 
BRANCH   2   3
ATOM      3  C   UNL     1      56.157  -4.452  30.801  1.00  0.00     0.000 C 
BRANCH   3   4
ATOM      4  C   UNL     1      57.632  -4.040  30.984  1.00  0.00     0.006 C 
BRANCH   4   5
ATOM      5  C   UNL     1      58.466  -4.073  29.694  1.00  0.00     0.053 C 
BRANCH   5   6
ATOM      6  C   UNL     1      59.397  -2.904  29.598  1.00  0.00     0.041 C 
ATOM      7  O   UNL     1      59.258  -1.919  30.371  1.00  0.00    -0.550 OA
ATOM      8  O   UNL     1      60.397  -2.886  28.635  1.00  0.00    -0.550 OA
ENDBRANCH   5   6
ENDBRANCH   4   5
ENDBRANCH   3   4
ENDBRANCH   2   3
ENDBRANCH   1   2
BRANCH   1   9
ATOM      9  C   UNL     1      54.741  -1.848  31.307  1.00  0.00     0.000 C 
BRANCH   9  10
ATOM     10  C   UNL     1      53.838  -1.322  30.185  1.00  0.00    -0.000 C 
BRANCH  10  11
ATOM     11  C   UNL     1      54.567  -1.345  28.834  1.00  0.00    -0.000 C 
BRANCH  11  12
ATOM     12  C   UNL     1      56.088  -1.140  28.969  1.00  0.00    -0.000 C 
BRANCH  12  13
ATOM     13  C   UNL     1      56.565   0.308  28.766  1.00  0.00    -0.003 C 
ATOM     14  C   UNL     1      57.112   0.942  30.045  1.00  0.00     0.004 C 
ENDBRANCH  12  13
ENDBRANCH  11  12
ENDBRANCH  10  11
ENDBRANCH   9  10
ENDBRANCH   1   9
TORSDOF 10
ENDMDL
MODEL 7
REMARK VINA RESULT:    -4.054      1.305      2.175
REMARK INTER + INTRA:          -7.653
REMARK INTER:                  -6.485
REMARK INTRA:                  -1.168
REMARK UNBOUND:                -1.229
REMARK SMILES CCCCCCCCCCCC(=O)[O-]
REMARK SMILES IDX 7 1 8 2 9 3 10 4 11 5 12 6 13 7 14 8 6 9 5 10 4 11 3 12 2 13
REMARK SMILES IDX 1 14
REMARK H PARENT
REMARK Flexibility Score: inf
ROOT
ATOM      1  C   UNL     1      57.509  -4.215  30.591  1.00  0.00     0.000 C 
ENDROOT
BRANCH   1   2
ATOM      2  C   UNL     1      56.009  -4.536  30.708  1.00  0.00     0.000 C 
BRANCH   2   3
ATOM      3  C   UNL     1      55.344  -4.078  32.022  1.00  0.00     0.000 C 
BRANCH   3   4
ATOM      4  C   UNL     1      54.185  -3.074  31.854  1.00  0.00     0.006 C 
BRANCH   4   5
ATOM      5  C   UNL     1      54.606  -1.705  31.299  1.00  0.00     0.053 C 
BRANCH   5   6
ATOM      6  C   UNL     1      54.146  -1.508  29.887  1.00  0.00     0.041 C 
ATOM      7  O   UNL     1      54.949  -1.674  28.931  1.00  0.00    -0.550 OA
ATOM      8  O   UNL     1      52.842  -1.108  29.628  1.00  0.00    -0.550 OA
ENDBRANCH   5   6
ENDBRANCH   4   5
ENDBRANCH   3   4
ENDBRANCH   2   3
ENDBRANCH   1   2
BRANCH   1   9
ATOM      9  C   UNL     1      58.039  -3.394  31.775  1.00  0.00     0.000 C 
BRANCH   9  10
ATOM     10  C   UNL     1      58.220  -1.922  31.386  1.00  0.00    -0.000 C 
BRANCH  10  11
ATOM     11  C   UNL     1      58.308  -1.762  29.861  1.00  0.00    -0.000 C 
BRANCH  11  12
ATOM     12  C   UNL     1      59.376  -0.742  29.426  1.00  0.00    -0.000 C 
BRANCH  12  13
ATOM     13  C   UNL     1      60.585  -1.345  28.690  1.00  0.00    -0.003 C 
ATOM     14  C   UNL     1      60.542  -2.872  28.621  1.00  0.00     0.004 C 
ENDBRANCH  12  13
ENDBRANCH  11  12
ENDBRANCH  10  11
ENDBRANCH   9  10
ENDBRANCH   1   9
TORSDOF 10
ENDMDL
MODEL 8
REMARK VINA RESULT:    -3.993      2.722      4.648
REMARK INTER + INTRA:          -7.556
REMARK INTER:                  -6.085
REMARK INTRA:                  -1.471
REMARK UNBOUND:                -1.229
REMARK SMILES CCCCCCCCCCCC(=O)[O-]
REMARK SMILES IDX 7 1 8 2 9 3 10 4 11 5 12 6 13 7 14 8 6 9 5 10 4 11 3 12 2 13
REMARK SMILES IDX 1 14
REMARK H PARENT
REMARK Flexibility Score: inf
ROOT
ATOM      1  C   UNL     1      57.302  -4.202  30.640  1.00  0.00     0.000 C 
ENDROOT
BRANCH   1   2
ATOM      2  C   UNL     1      57.864  -3.559  31.919  1.00  0.00     0.000 C 
BRANCH   2   3
ATOM      3  C   UNL     1      58.360  -2.108  31.757  1.00  0.00     0.000 C 
BRANCH   3   4
ATOM      4  C   UNL     1      58.097  -1.476  30.375  1.00  0.00     0.006 C 
BRANCH   4   5
ATOM      5  C   UNL     1      59.359  -0.974  29.656  1.00  0.00     0.053 C 
BRANCH   5   6
ATOM      6  C   UNL     1      60.378  -2.059  29.489  1.00  0.00     0.041 C 
ATOM      7  O   UNL     1      61.496  -1.972  30.064  1.00  0.00    -0.550 OA
ATOM      8  O   UNL     1      60.108  -3.150  28.673  1.00  0.00    -0.550 OA
ENDBRANCH   5   6
ENDBRANCH   4   5
ENDBRANCH   3   4
ENDBRANCH   2   3
ENDBRANCH   1   2
BRANCH   1   9
ATOM      9  C   UNL     1      55.825  -4.600  30.770  1.00  0.00     0.000 C 
BRANCH   9  10
ATOM     10  C   UNL     1      55.243  -4.125  32.106  1.00  0.00    -0.000 C 
BRANCH  10  11
ATOM     11  C   UNL     1      54.081  -3.146  31.884  1.00  0.00    -0.000 C 
BRANCH  11  12
ATOM     12  C   UNL     1      54.532  -1.806  31.275  1.00  0.00    -0.000 C 
BRANCH  12  13
ATOM     13  C   UNL     1      53.832  -1.425  29.959  1.00  0.00    -0.003 C 
ATOM     14  C   UNL     1      54.729  -1.592  28.733  1.00  0.00     0.004 C 
ENDBRANCH  12  13
ENDBRANCH  11  12
ENDBRANCH  10  11
ENDBRANCH   9  10
ENDBRANCH   1   9
TORSDOF 10
ENDMDL
MODEL 9
REMARK VINA RESULT:    -3.987      1.895      3.556
REMARK INTER + INTRA:          -7.547
REMARK INTER:                  -6.389
REMARK INTRA:                  -1.158
REMARK UNBOUND:                -1.229
REMARK SMILES CCCCCCCCCCCC(=O)[O-]
REMARK SMILES IDX 7 1 8 2 9 3 10 4 11 5 12 6 13 7 14 8 6 9 5 10 4 11 3 12 2 13
REMARK SMILES IDX 1 14
REMARK H PARENT
REMARK Flexibility Score: inf
ROOT
ATOM      1  C   UNL     1      54.874  -0.949  28.268  1.00  0.00     0.000 C 
ENDROOT
BRANCH   1   2
ATOM      2  C   UNL     1      53.861  -1.669  29.174  1.00  0.00     0.000 C 
BRANCH   2   3
ATOM      3  C   UNL     1      53.884  -1.236  30.654  1.00  0.00     0.000 C 
BRANCH   3   4
ATOM      4  C   UNL     1      54.066  -2.383  31.669  1.00  0.00     0.006 C 
BRANCH   4   5
ATOM      5  C   UNL     1      55.505  -2.909  31.781  1.00  0.00     0.053 C 
BRANCH   5   6
ATOM      6  C   UNL     1      55.625  -4.321  31.297  1.00  0.00     0.041 C 
ATOM      7  O   UNL     1      56.037  -4.557  30.130  1.00  0.00    -0.550 OA
ATOM      8  O   UNL     1      55.249  -5.375  32.119  1.00  0.00    -0.550 OA
ENDBRANCH   5   6
ENDBRANCH   4   5
ENDBRANCH   3   4
ENDBRANCH   2   3
ENDBRANCH   1   2
BRANCH   1   9
ATOM      9  C   UNL     1      56.271  -0.846  28.898  1.00  0.00     0.000 C 
BRANCH   9  10
ATOM     10  C   UNL     1      56.807   0.588  28.817  1.00  0.00    -0.000 C 
BRANCH  10  11
ATOM     11  C   UNL     1      57.404   1.030  30.160  1.00  0.00    -0.000 C 
BRANCH  11  12
ATOM     12  C   UNL     1      57.525  -0.125  31.172  1.00  0.00    -0.000 C 
BRANCH  12  13
ATOM     13  C   UNL     1      58.966  -0.518  31.536  1.00  0.00    -0.003 C 
ATOM     14  C   UNL     1      59.653  -1.349  30.451  1.00  0.00     0.004 C 
ENDBRANCH  12  13
ENDBRANCH  11  12
ENDBRANCH  10  11
ENDBRANCH   9  10
ENDBRANCH   1   9
TORSDOF 10
ENDMDL
