MODEL 1
REMARK VINA RESULT:    -3.730      0.000      0.000
REMARK INTER + INTRA:          -5.156
REMARK INTER:                  -4.820
REMARK INTRA:                  -0.336
REMARK UNBOUND:                -0.336
REMARK SMILES CCCCCCC(=O)[O-]
REMARK SMILES IDX 5 1 6 2 7 3 8 4 9 5 4 6 3 7 2 8 1 9
REMARK H PARENT
REMARK Flexibility Score: inf
ROOT
ATOM      1  C   UNL     1     -38.031  18.599 -28.515  1.00  0.00     0.006 C 
ENDROOT
BRANCH   1   2
ATOM      2  C   UNL     1     -37.088  18.520 -29.730  1.00  0.00     0.053 C 
BRANCH   2   3
ATOM      3  C   UNL     1     -37.420  17.376 -30.638  1.00  0.00     0.041 C 
ATOM      4  O   UNL     1     -38.293  17.511 -31.537  1.00  0.00    -0.550 OA
ATOM      5  O   UNL     1     -36.741  16.170 -30.519  1.00  0.00    -0.550 OA
ENDBRANCH   2   3
ENDBRANCH   1   2
BRANCH   1   6
ATOM      6  C   UNL     1     -39.320  19.402 -28.774  1.00  0.00     0.000 C 
BRANCH   6   7
ATOM      7  C   UNL     1     -39.167  20.610 -29.717  1.00  0.00    -0.000 C 
BRANCH   7   8
ATOM      8  C   UNL     1     -38.713  21.914 -29.036  1.00  0.00    -0.003 C 
ATOM      9  C   UNL     1     -37.243  22.243 -29.297  1.00  0.00     0.004 C 
ENDBRANCH   7   8
ENDBRANCH   6   7
ENDBRANCH   1   6
TORSDOF 5
ENDMDL
MODEL 2
REMARK VINA RESULT:    -3.689      2.892      4.398
REMARK INTER + INTRA:          -5.103
REMARK INTER:                  -4.779
REMARK INTRA:                  -0.324
REMARK UNBOUND:                -0.336
REMARK SMILES CCCCCCC(=O)[O-]
REMARK SMILES IDX 5 1 6 2 7 3 8 4 9 5 4 6 3 7 2 8 1 9
REMARK H PARENT
REMARK Flexibility Score: inf
ROOT
ATOM      1  C   UNL     1     -38.976  19.014 -28.627  1.00  0.00     0.006 C 
ENDROOT
BRANCH   1   2
ATOM      2  C   UNL     1     -38.898  19.917 -29.871  1.00  0.00     0.053 C 
BRANCH   2   3
ATOM      3  C   UNL     1     -39.235  21.345 -29.564  1.00  0.00     0.041 C 
ATOM      4  O   UNL     1     -38.424  22.065 -28.923  1.00  0.00    -0.550 OA
ATOM      5  O   UNL     1     -40.429  21.892 -30.017  1.00  0.00    -0.550 OA
ENDBRANCH   2   3
ENDBRANCH   1   2
BRANCH   1   6
ATOM      6  C   UNL     1     -37.644  18.330 -28.264  1.00  0.00     0.000 C 
BRANCH   6   7
ATOM      7  C   UNL     1     -36.403  18.873 -28.996  1.00  0.00    -0.000 C 
BRANCH   7   8
ATOM      8  C   UNL     1     -35.728  17.878 -29.959  1.00  0.00    -0.003 C 
ATOM      9  C   UNL     1     -36.650  16.732 -30.375  1.00  0.00     0.004 C 
ENDBRANCH   7   8
ENDBRANCH   6   7
ENDBRANCH   1   6
TORSDOF 5
ENDMDL
MODEL 3
REMARK VINA RESULT:    -3.686      2.854      4.035
REMARK INTER + INTRA:          -5.100
REMARK INTER:                  -4.732
REMARK INTRA:                  -0.368
REMARK UNBOUND:                -0.336
REMARK SMILES CCCCCCC(=O)[O-]
REMARK SMILES IDX 5 1 6 2 7 3 8 4 9 5 4 6 3 7 2 8 1 9
REMARK H PARENT
REMARK Flexibility Score: inf
ROOT
ATOM      1  C   UNL     1     -37.809  19.723 -31.741  1.00  0.00     0.006 C 
ENDROOT
BRANCH   1   2
ATOM      2  C   UNL     1     -36.469  20.267 -31.214  1.00  0.00     0.053 C 
BRANCH   2   3
ATOM      3  C   UNL     1     -36.602  21.632 -30.612  1.00  0.00     0.041 C 
ATOM      4  O   UNL     1     -35.879  22.580 -31.020  1.00  0.00    -0.550 OA
ATOM      5  O   UNL     1     -37.552  21.870 -29.627  1.00  0.00    -0.550 OA
ENDBRANCH   2   3
ENDBRANCH   1   2
BRANCH   1   6
ATOM      6  C   UNL     1     -38.282  18.434 -31.039  1.00  0.00     0.000 C 
BRANCH   6   7
ATOM      7  C   UNL     1     -37.591  18.123 -29.698  1.00  0.00    -0.000 C 
BRANCH   7   8
ATOM      8  C   UNL     1     -38.314  18.666 -28.451  1.00  0.00    -0.003 C 
ATOM      9  C   UNL     1     -39.797  18.943 -28.696  1.00  0.00     0.004 C 
ENDBRANCH   7   8
ENDBRANCH   6   7
ENDBRANCH   1   6
TORSDOF 5
ENDMDL
MODEL 4
REMARK VINA RESULT:    -3.668      1.913      2.607
REMARK INTER + INTRA:          -5.076
REMARK INTER:                  -4.754
REMARK INTRA:                  -0.322
REMARK UNBOUND:                -0.336
REMARK SMILES CCCCCCC(=O)[O-]
REMARK SMILES IDX 5 1 6 2 7 3 8 4 9 5 4 6 3 7 2 8 1 9
REMARK H PARENT
REMARK Flexibility Score: inf
ROOT
ATOM      1  C   UNL     1     -37.998  17.542 -31.314  1.00  0.00     0.006 C 
ENDROOT
BRANCH   1   2
ATOM      2  C   UNL     1     -37.049  17.116 -30.179  1.00  0.00     0.053 C 
BRANCH   2   3
ATOM      3  C   UNL     1     -35.674  16.787 -30.676  1.00  0.00     0.041 C 
ATOM      4  O   UNL     1     -34.783  17.676 -30.716  1.00  0.00    -0.550 OA
ATOM      5  O   UNL     1     -35.364  15.488 -31.060  1.00  0.00    -0.550 OA
ENDBRANCH   2   3
ENDBRANCH   1   2
BRANCH   1   6
ATOM      6  C   UNL     1     -38.250  19.061 -31.384  1.00  0.00     0.000 C 
BRANCH   6   7
ATOM      7  C   UNL     1     -38.003  19.831 -30.073  1.00  0.00    -0.000 C 
BRANCH   7   8
ATOM      8  C   UNL     1     -39.276  20.248 -29.313  1.00  0.00    -0.003 C 
ATOM      9  C   UNL     1     -39.920  19.093 -28.548  1.00  0.00     0.004 C 
ENDBRANCH   7   8
ENDBRANCH   6   7
ENDBRANCH   1   6
TORSDOF 5
ENDMDL
MODEL 5
REMARK VINA RESULT:    -3.644      1.084      2.412
REMARK INTER + INTRA:          -5.045
REMARK INTER:                  -4.639
REMARK INTRA:                  -0.406
REMARK UNBOUND:                -0.336
REMARK SMILES CCCCCCC(=O)[O-]
REMARK SMILES IDX 5 1 6 2 7 3 8 4 9 5 4 6 3 7 2 8 1 9
REMARK H PARENT
REMARK Flexibility Score: inf
ROOT
ATOM      1  C   UNL     1     -36.447  19.655 -31.101  1.00  0.00     0.006 C 
ENDROOT
BRANCH   1   2
ATOM      2  C   UNL     1     -36.496  18.460 -30.132  1.00  0.00     0.053 C 
BRANCH   2   3
ATOM      3  C   UNL     1     -37.230  17.287 -30.706  1.00  0.00     0.041 C 
ATOM      4  O   UNL     1     -36.839  16.114 -30.468  1.00  0.00    -0.550 OA
ATOM      5  O   UNL     1     -38.370  17.486 -31.474  1.00  0.00    -0.550 OA
ENDBRANCH   2   3
ENDBRANCH   1   2
BRANCH   1   6
ATOM      6  C   UNL     1     -37.419  20.796 -30.739  1.00  0.00     0.000 C 
BRANCH   6   7
ATOM      7  C   UNL     1     -38.016  20.728 -29.321  1.00  0.00    -0.000 C 
BRANCH   7   8
ATOM      8  C   UNL     1     -39.520  20.402 -29.264  1.00  0.00    -0.003 C 
ATOM      9  C   UNL     1     -39.823  19.115 -28.497  1.00  0.00     0.004 C 
ENDBRANCH   7   8
ENDBRANCH   6   7
ENDBRANCH   1   6
TORSDOF 5
ENDMDL
MODEL 6
REMARK VINA RESULT:    -3.607      1.825      3.337
REMARK INTER + INTRA:          -4.997
REMARK INTER:                  -4.593
REMARK INTRA:                  -0.404
REMARK UNBOUND:                -0.336
REMARK SMILES CCCCCCC(=O)[O-]
REMARK SMILES IDX 5 1 6 2 7 3 8 4 9 5 4 6 3 7 2 8 1 9
REMARK H PARENT
REMARK Flexibility Score: inf
ROOT
ATOM      1  C   UNL     1     -38.655  21.023 -29.498  1.00  0.00     0.006 C 
ENDROOT
BRANCH   1   2
ATOM      2  C   UNL     1     -38.825  21.194 -31.019  1.00  0.00     0.053 C 
BRANCH   2   3
ATOM      3  C   UNL     1     -37.846  20.372 -31.800  1.00  0.00     0.041 C 
ATOM      4  O   UNL     1     -38.024  19.132 -31.936  1.00  0.00    -0.550 OA
ATOM      5  O   UNL     1     -36.756  20.979 -32.410  1.00  0.00    -0.550 OA
ENDBRANCH   2   3
ENDBRANCH   1   2
BRANCH   1   6
ATOM      6  C   UNL     1     -39.611  19.987 -28.873  1.00  0.00     0.000 C 
BRANCH   6   7
ATOM      7  C   UNL     1     -38.965  18.642 -28.489  1.00  0.00    -0.000 C 
BRANCH   7   8
ATOM      8  C   UNL     1     -37.432  18.673 -28.347  1.00  0.00    -0.003 C 
ATOM      9  C   UNL     1     -36.743  17.516 -29.069  1.00  0.00     0.004 C 
ENDBRANCH   7   8
ENDBRANCH   6   7
ENDBRANCH   1   6
TORSDOF 5
ENDMDL
MODEL 7
REMARK VINA RESULT:    -3.603      2.483      4.443
REMARK INTER + INTRA:          -4.992
REMARK INTER:                  -4.700
REMARK INTRA:                  -0.292
REMARK UNBOUND:                -0.336
REMARK SMILES CCCCCCC(=O)[O-]
REMARK SMILES IDX 5 1 6 2 7 3 8 4 9 5 4 6 3 7 2 8 1 9
REMARK H PARENT
REMARK Flexibility Score: inf
ROOT
ATOM      1  C   UNL     1     -37.919  19.004 -31.136  1.00  0.00     0.006 C 
ENDROOT
BRANCH   1   2
ATOM      2  C   UNL     1     -37.902  19.599 -29.716  1.00  0.00     0.053 C 
BRANCH   2   3
ATOM      3  C   UNL     1     -39.277  19.902 -29.206  1.00  0.00     0.041 C 
ATOM      4  O   UNL     1     -39.849  19.108 -28.411  1.00  0.00    -0.550 OA
ATOM      5  O   UNL     1     -39.916  21.078 -29.577  1.00  0.00    -0.550 OA
ENDBRANCH   2   3
ENDBRANCH   1   2
BRANCH   1   6
ATOM      6  C   UNL     1     -37.894  17.463 -31.169  1.00  0.00     0.000 C 
BRANCH   6   7
ATOM      7  C   UNL     1     -36.865  16.800 -30.235  1.00  0.00    -0.000 C 
BRANCH   7   8
ATOM      8  C   UNL     1     -35.519  16.446 -30.895  1.00  0.00    -0.003 C 
ATOM      9  C   UNL     1     -34.460  17.531 -30.710  1.00  0.00     0.004 C 
ENDBRANCH   7   8
ENDBRANCH   6   7
ENDBRANCH   1   6
TORSDOF 5
ENDMDL
MODEL 8
REMARK VINA RESULT:    -3.568      2.082      2.504
REMARK INTER + INTRA:          -4.947
REMARK INTER:                  -4.543
REMARK INTRA:                  -0.404
REMARK UNBOUND:                -0.336
REMARK SMILES CCCCCCC(=O)[O-]
REMARK SMILES IDX 5 1 6 2 7 3 8 4 9 5 4 6 3 7 2 8 1 9
REMARK H PARENT
REMARK Flexibility Score: inf
ROOT
ATOM      1  C   UNL     1     -38.171  18.246 -30.860  1.00  0.00     0.006 C 
ENDROOT
BRANCH   1   2
ATOM      2  C   UNL     1     -36.917  18.031 -29.993  1.00  0.00     0.053 C 
BRANCH   2   3
ATOM      3  C   UNL     1     -37.172  18.305 -28.542  1.00  0.00     0.041 C 
ATOM      4  O   UNL     1     -38.341  18.540 -28.136  1.00  0.00    -0.550 OA
ATOM      5  O   UNL     1     -36.124  18.263 -27.631  1.00  0.00    -0.550 OA
ENDBRANCH   2   3
ENDBRANCH   1   2
BRANCH   1   6
ATOM      6  C   UNL     1     -38.041  19.396 -31.878  1.00  0.00     0.000 C 
BRANCH   6   7
ATOM      7  C   UNL     1     -37.922  20.805 -31.269  1.00  0.00    -0.000 C 
BRANCH   7   8
ATOM      8  C   UNL     1     -39.062  21.198 -30.311  1.00  0.00    -0.003 C 
ATOM      9  C   UNL     1     -38.573  21.970 -29.086  1.00  0.00     0.004 C 
ENDBRANCH   7   8
ENDBRANCH   6   7
ENDBRANCH   1   6
TORSDOF 5
ENDMDL
MODEL 9
REMARK VINA RESULT:    -3.527      2.688      3.992
REMARK INTER + INTRA:          -4.894
REMARK INTER:                  -4.511
REMARK INTRA:                  -0.383
REMARK UNBOUND:                -0.336
REMARK SMILES CCCCCCC(=O)[O-]
REMARK SMILES IDX 5 1 6 2 7 3 8 4 9 5 4 6 3 7 2 8 1 9
REMARK H PARENT
REMARK Flexibility Score: inf
ROOT
ATOM      1  C   UNL     1     -37.367  19.658 -31.504  1.00  0.00     0.006 C 
ENDROOT
BRANCH   1   2
ATOM      2  C   UNL     1     -38.339  20.851 -31.465  1.00  0.00     0.053 C 
BRANCH   2   3
ATOM      3  C   UNL     1     -38.691  21.257 -30.067  1.00  0.00     0.041 C 
ATOM      4  O   UNL     1     -39.835  21.009 -29.603  1.00  0.00    -0.550 OA
ATOM      5  O   UNL     1     -37.744  21.876 -29.261  1.00  0.00    -0.550 OA
ENDBRANCH   2   3
ENDBRANCH   1   2
BRANCH   1   6
ATOM      6  C   UNL     1     -38.012  18.310 -31.123  1.00  0.00     0.000 C 
BRANCH   6   7
ATOM      7  C   UNL     1     -37.321  17.550 -29.976  1.00  0.00    -0.000 C 
BRANCH   7   8
ATOM      8  C   UNL     1     -37.471  18.194 -28.585  1.00  0.00    -0.003 C 
ATOM      9  C   UNL     1     -36.143  18.677 -28.005  1.00  0.00     0.004 C 
ENDBRANCH   7   8
ENDBRANCH   6   7
ENDBRANCH   1   6
TORSDOF 5
ENDMDL
