MODEL 1
REMARK VINA RESULT:    -5.129      0.000      0.000
REMARK INTER + INTRA:         -11.313
REMARK INTER:                  -9.326
REMARK INTRA:                  -1.987
REMARK UNBOUND:                -1.987
REMARK SMILES CCCCCCCCCCCCCC[C@@H](C)C(=O)[O-]
REMARK SMILES IDX 9 1 10 2 11 3 12 4 13 5 14 6 15 7 16 8 17 9 18 10 19 11 8 12
REMARK SMILES IDX 7 13 6 14 5 15 4 16 3 17 2 18 1 19
REMARK H PARENT
REMARK Flexibility Score: inf
ROOT
ATOM      1  C   UNL     1     -27.419 -34.708 -13.219  1.00  0.00     0.000 C 
ENDROOT
BRANCH   1   2
ATOM      2  C   UNL     1     -27.008 -34.657 -11.737  1.00  0.00     0.000 C 
BRANCH   2   3
ATOM      3  C   UNL     1     -25.547 -35.057 -11.448  1.00  0.00     0.000 C 
BRANCH   3   4
ATOM      4  C   UNL     1     -24.733 -35.508 -12.674  1.00  0.00     0.000 C 
BRANCH   4   5
ATOM      5  C   UNL     1     -23.238 -35.694 -12.363  1.00  0.00     0.001 C 
BRANCH   5   6
ATOM      6  C   UNL     1     -22.380 -34.500 -12.825  1.00  0.00     0.009 C 
BRANCH   6   7
ATOM      7  C   UNL     1     -21.120 -34.896 -13.627  1.00  0.00     0.032 C 
ATOM      8  C   UNL     1     -20.625 -33.711 -14.465  1.00  0.00     0.014 C 
BRANCH   7   9
ATOM      9  C   UNL     1     -20.016 -35.381 -12.725  1.00  0.00     0.044 C 
ATOM     10  O   UNL     1     -19.136 -36.171 -13.159  1.00  0.00    -0.550 OA
ATOM     11  O   UNL     1     -19.963 -34.952 -11.405  1.00  0.00    -0.550 OA
ENDBRANCH   7   9
ENDBRANCH   6   7
ENDBRANCH   5   6
ENDBRANCH   4   5
ENDBRANCH   3   4
ENDBRANCH   2   3
ENDBRANCH   1   2
BRANCH   1  12
ATOM     12  C   UNL     1     -27.806 -33.331 -13.778  1.00  0.00     0.000 C 
BRANCH  12  13
ATOM     13  C   UNL     1     -28.480 -32.471 -12.702  1.00  0.00    -0.000 C 
BRANCH  13  14
ATOM     14  C   UNL     1     -28.003 -31.014 -12.783  1.00  0.00    -0.000 C 
BRANCH  14  15
ATOM     15  C   UNL     1     -28.000 -30.308 -11.415  1.00  0.00    -0.000 C 
BRANCH  15  16
ATOM     16  C   UNL     1     -26.606 -30.112 -10.787  1.00  0.00    -0.000 C 
BRANCH  16  17
ATOM     17  C   UNL     1     -25.888 -31.409 -10.364  1.00  0.00    -0.000 C 
BRANCH  17  18
ATOM     18  C   UNL     1     -24.471 -31.580 -10.939  1.00  0.00    -0.003 C 
ATOM     19  C   UNL     1     -24.447 -31.602 -12.466  1.00  0.00     0.004 C 
ENDBRANCH  17  18
ENDBRANCH  16  17
ENDBRANCH  15  16
ENDBRANCH  14  15
ENDBRANCH  13  14
ENDBRANCH  12  13
ENDBRANCH   1  12
TORSDOF 14
ENDMDL
MODEL 2
REMARK VINA RESULT:    -4.881      1.024      3.212
REMARK INTER + INTRA:         -10.863
REMARK INTER:                  -8.870
REMARK INTRA:                  -1.994
REMARK UNBOUND:                -1.987
REMARK SMILES CCCCCCCCCCCCCC[C@@H](C)C(=O)[O-]
REMARK SMILES IDX 9 1 10 2 11 3 12 4 13 5 14 6 15 7 16 8 17 9 18 10 19 11 8 12
REMARK SMILES IDX 7 13 6 14 5 15 4 16 3 17 2 18 1 19
REMARK H PARENT
REMARK Flexibility Score: inf
ROOT
ATOM      1  C   UNL     1     -25.648 -31.398 -10.371  1.00  0.00     0.000 C 
ENDROOT
BRANCH   1   2
ATOM      2  C   UNL     1     -24.382 -32.043 -10.963  1.00  0.00     0.000 C 
BRANCH   2   3
ATOM      3  C   UNL     1     -24.109 -31.711 -12.445  1.00  0.00     0.000 C 
BRANCH   3   4
ATOM      4  C   UNL     1     -22.667 -31.280 -12.768  1.00  0.00     0.000 C 
BRANCH   4   5
ATOM      5  C   UNL     1     -21.647 -32.414 -12.573  1.00  0.00     0.001 C 
BRANCH   5   6
ATOM      6  C   UNL     1     -22.006 -33.683 -13.370  1.00  0.00     0.009 C 
BRANCH   6   7
ATOM      7  C   UNL     1     -20.786 -34.472 -13.894  1.00  0.00     0.032 C 
ATOM      8  C   UNL     1     -19.622 -33.522 -14.194  1.00  0.00     0.014 C 
BRANCH   7   9
ATOM      9  C   UNL     1     -20.345 -35.527 -12.914  1.00  0.00     0.044 C 
ATOM     10  O   UNL     1     -21.088 -35.858 -11.952  1.00  0.00    -0.550 OA
ATOM     11  O   UNL     1     -19.111 -36.146 -13.071  1.00  0.00    -0.550 OA
ENDBRANCH   7   9
ENDBRANCH   6   7
ENDBRANCH   5   6
ENDBRANCH   4   5
ENDBRANCH   3   4
ENDBRANCH   2   3
ENDBRANCH   1   2
BRANCH   1  12
ATOM     12  C   UNL     1     -26.421 -30.553 -11.393  1.00  0.00     0.000 C 
BRANCH  12  13
ATOM     13  C   UNL     1     -27.884 -31.005 -11.486  1.00  0.00    -0.000 C 
BRANCH  13  14
ATOM     14  C   UNL     1     -28.256 -31.373 -12.929  1.00  0.00    -0.000 C 
BRANCH  14  15
ATOM     15  C   UNL     1     -28.061 -32.869 -13.234  1.00  0.00    -0.000 C 
BRANCH  15  16
ATOM     16  C   UNL     1     -28.177 -33.804 -12.013  1.00  0.00    -0.000 C 
BRANCH  16  17
ATOM     17  C   UNL     1     -26.908 -34.615 -11.686  1.00  0.00    -0.000 C 
BRANCH  17  18
ATOM     18  C   UNL     1     -26.147 -35.147 -12.913  1.00  0.00    -0.003 C 
ATOM     19  C   UNL     1     -24.782 -35.734 -12.558  1.00  0.00     0.004 C 
ENDBRANCH  17  18
ENDBRANCH  16  17
ENDBRANCH  15  16
ENDBRANCH  14  15
ENDBRANCH  13  14
ENDBRANCH  12  13
ENDBRANCH   1  12
TORSDOF 14
ENDMDL
MODEL 3
REMARK VINA RESULT:    -4.843      2.629      6.112
REMARK INTER + INTRA:         -10.794
REMARK INTER:                  -8.721
REMARK INTRA:                  -2.073
REMARK UNBOUND:                -1.987
REMARK SMILES CCCCCCCCCCCCCC[C@@H](C)C(=O)[O-]
REMARK SMILES IDX 9 1 10 2 11 3 12 4 13 5 14 6 15 7 16 8 17 9 18 10 19 11 8 12
REMARK SMILES IDX 7 13 6 14 5 15 4 16 3 17 2 18 1 19
REMARK H PARENT
REMARK Flexibility Score: inf
ROOT
ATOM      1  C   UNL     1     -24.858 -31.413 -10.510  1.00  0.00     0.000 C 
ENDROOT
BRANCH   1   2
ATOM      2  C   UNL     1     -25.791 -30.206 -10.716  1.00  0.00     0.000 C 
BRANCH   2   3
ATOM      3  C   UNL     1     -27.172 -30.540 -11.318  1.00  0.00     0.000 C 
BRANCH   3   4
ATOM      4  C   UNL     1     -27.147 -31.097 -12.753  1.00  0.00     0.000 C 
BRANCH   4   5
ATOM      5  C   UNL     1     -28.322 -32.045 -13.045  1.00  0.00     0.001 C 
BRANCH   5   6
ATOM      6  C   UNL     1     -28.212 -33.382 -12.287  1.00  0.00     0.009 C 
BRANCH   6   7
ATOM      7  C   UNL     1     -26.841 -34.081 -12.425  1.00  0.00     0.032 C 
ATOM      8  C   UNL     1     -26.436 -34.734 -11.099  1.00  0.00     0.014 C 
BRANCH   7   9
ATOM      9  C   UNL     1     -26.851 -35.113 -13.522  1.00  0.00     0.044 C 
ATOM     10  O   UNL     1     -25.885 -35.909 -13.661  1.00  0.00    -0.550 OA
ATOM     11  O   UNL     1     -27.936 -35.194 -14.386  1.00  0.00    -0.550 OA
ENDBRANCH   7   9
ENDBRANCH   6   7
ENDBRANCH   5   6
ENDBRANCH   4   5
ENDBRANCH   3   4
ENDBRANCH   2   3
ENDBRANCH   1   2
BRANCH   1  12
ATOM     12  C   UNL     1     -23.372 -31.030 -10.533  1.00  0.00     0.000 C 
BRANCH  12  13
ATOM     13  C   UNL     1     -22.554 -32.051 -11.332  1.00  0.00    -0.000 C 
BRANCH  13  14
ATOM     14  C   UNL     1     -23.411 -32.713 -12.421  1.00  0.00    -0.000 C 
BRANCH  14  15
ATOM     15  C   UNL     1     -23.037 -34.186 -12.664  1.00  0.00    -0.000 C 
BRANCH  15  16
ATOM     16  C   UNL     1     -21.571 -34.546 -12.350  1.00  0.00    -0.000 C 
BRANCH  16  17
ATOM     17  C   UNL     1     -20.679 -34.794 -13.583  1.00  0.00    -0.000 C 
BRANCH  17  18
ATOM     18  C   UNL     1     -19.932 -33.552 -14.100  1.00  0.00    -0.003 C 
ATOM     19  C   UNL     1     -20.672 -32.842 -15.232  1.00  0.00     0.004 C 
ENDBRANCH  17  18
ENDBRANCH  16  17
ENDBRANCH  15  16
ENDBRANCH  14  15
ENDBRANCH  13  14
ENDBRANCH  12  13
ENDBRANCH   1  12
TORSDOF 14
ENDMDL
MODEL 4
REMARK VINA RESULT:    -4.816      2.266      6.139
REMARK INTER + INTRA:         -10.745
REMARK INTER:                  -8.951
REMARK INTRA:                  -1.794
REMARK UNBOUND:                -1.987
REMARK SMILES CCCCCCCCCCCCCC[C@@H](C)C(=O)[O-]
REMARK SMILES IDX 9 1 10 2 11 3 12 4 13 5 14 6 15 7 16 8 17 9 18 10 19 11 8 12
REMARK SMILES IDX 7 13 6 14 5 15 4 16 3 17 2 18 1 19
REMARK H PARENT
REMARK Flexibility Score: inf
ROOT
ATOM      1  C   UNL     1     -24.046 -31.989 -11.047  1.00  0.00     0.000 C 
ENDROOT
BRANCH   1   2
ATOM      2  C   UNL     1     -25.361 -31.410 -10.494  1.00  0.00     0.000 C 
BRANCH   2   3
ATOM      3  C   UNL     1     -26.307 -30.804 -11.551  1.00  0.00     0.000 C 
BRANCH   3   4
ATOM      4  C   UNL     1     -27.760 -31.308 -11.500  1.00  0.00     0.000 C 
BRANCH   4   5
ATOM      5  C   UNL     1     -28.264 -31.817 -12.861  1.00  0.00     0.001 C 
BRANCH   5   6
ATOM      6  C   UNL     1     -27.288 -32.807 -13.526  1.00  0.00     0.009 C 
BRANCH   6   7
ATOM      7  C   UNL     1     -27.548 -34.289 -13.174  1.00  0.00     0.032 C 
ATOM      8  C   UNL     1     -27.665 -35.130 -14.450  1.00  0.00     0.014 C 
BRANCH   7   9
ATOM      9  C   UNL     1     -26.465 -34.848 -12.290  1.00  0.00     0.044 C 
ATOM     10  O   UNL     1     -26.536 -34.731 -11.037  1.00  0.00    -0.550 OA
ATOM     11  O   UNL     1     -25.379 -35.504 -12.856  1.00  0.00    -0.550 OA
ENDBRANCH   7   9
ENDBRANCH   6   7
ENDBRANCH   5   6
ENDBRANCH   4   5
ENDBRANCH   3   4
ENDBRANCH   2   3
ENDBRANCH   1   2
BRANCH   1  12
ATOM     12  C   UNL     1     -23.882 -31.759 -12.556  1.00  0.00     0.000 C 
BRANCH  12  13
ATOM     13  C   UNL     1     -22.604 -30.965 -12.855  1.00  0.00    -0.000 C 
BRANCH  13  14
ATOM     14  C   UNL     1     -21.358 -31.847 -12.695  1.00  0.00    -0.000 C 
BRANCH  14  15
ATOM     15  C   UNL     1     -20.868 -32.437 -14.029  1.00  0.00    -0.000 C 
BRANCH  15  16
ATOM     16  C   UNL     1     -20.900 -33.977 -14.112  1.00  0.00    -0.000 C 
BRANCH  16  17
ATOM     17  C   UNL     1     -21.614 -34.681 -12.941  1.00  0.00    -0.000 C 
BRANCH  17  18
ATOM     18  C   UNL     1     -20.758 -35.719 -12.193  1.00  0.00    -0.003 C 
ATOM     19  C   UNL     1     -19.367 -35.892 -12.801  1.00  0.00     0.004 C 
ENDBRANCH  17  18
ENDBRANCH  16  17
ENDBRANCH  15  16
ENDBRANCH  14  15
ENDBRANCH  13  14
ENDBRANCH  12  13
ENDBRANCH   1  12
TORSDOF 14
ENDMDL
MODEL 5
REMARK VINA RESULT:    -4.609      1.725      2.150
REMARK INTER + INTRA:         -10.368
REMARK INTER:                  -8.421
REMARK INTRA:                  -1.947
REMARK UNBOUND:                -1.987
REMARK SMILES CCCCCCCCCCCCCC[C@@H](C)C(=O)[O-]
REMARK SMILES IDX 9 1 10 2 11 3 12 4 13 5 14 6 15 7 16 8 17 9 18 10 19 11 8 12
REMARK SMILES IDX 7 13 6 14 5 15 4 16 3 17 2 18 1 19
REMARK H PARENT
REMARK Flexibility Score: inf
ROOT
ATOM      1  C   UNL     1     -26.997 -35.144 -13.355  1.00  0.00     0.000 C 
ENDROOT
BRANCH   1   2
ATOM      2  C   UNL     1     -25.871 -34.838 -12.350  1.00  0.00     0.000 C 
BRANCH   2   3
ATOM      3  C   UNL     1     -24.573 -35.646 -12.555  1.00  0.00     0.000 C 
BRANCH   3   4
ATOM      4  C   UNL     1     -23.294 -34.806 -12.727  1.00  0.00     0.000 C 
BRANCH   4   5
ATOM      5  C   UNL     1     -22.015 -35.588 -12.384  1.00  0.00     0.001 C 
BRANCH   5   6
ATOM      6  C   UNL     1     -20.730 -34.818 -12.747  1.00  0.00     0.009 C 
BRANCH   6   7
ATOM      7  C   UNL     1     -20.910 -33.286 -12.835  1.00  0.00     0.032 C 
ATOM      8  C   UNL     1     -20.193 -32.595 -11.671  1.00  0.00     0.014 C 
BRANCH   7   9
ATOM      9  C   UNL     1     -20.402 -32.742 -14.144  1.00  0.00     0.044 C 
ATOM     10  O   UNL     1     -19.756 -31.660 -14.180  1.00  0.00    -0.550 OA
ATOM     11  O   UNL     1     -20.643 -33.436 -15.323  1.00  0.00    -0.550 OA
ENDBRANCH   7   9
ENDBRANCH   6   7
ENDBRANCH   5   6
ENDBRANCH   4   5
ENDBRANCH   3   4
ENDBRANCH   2   3
ENDBRANCH   1   2
BRANCH   1  12
ATOM     12  C   UNL     1     -27.711 -33.879 -13.851  1.00  0.00     0.000 C 
BRANCH  12  13
ATOM     13  C   UNL     1     -28.437 -33.171 -12.701  1.00  0.00    -0.000 C 
BRANCH  13  14
ATOM     14  C   UNL     1     -28.592 -31.671 -12.989  1.00  0.00    -0.000 C 
BRANCH  14  15
ATOM     15  C   UNL     1     -27.950 -30.785 -11.907  1.00  0.00    -0.000 C 
BRANCH  15  16
ATOM     16  C   UNL     1     -26.492 -31.139 -11.555  1.00  0.00    -0.000 C 
BRANCH  16  17
ATOM     17  C   UNL     1     -25.479 -30.966 -12.705  1.00  0.00    -0.000 C 
BRANCH  17  18
ATOM     18  C   UNL     1     -24.011 -31.213 -12.316  1.00  0.00    -0.003 C 
ATOM     19  C   UNL     1     -23.846 -31.639 -10.858  1.00  0.00     0.004 C 
ENDBRANCH  17  18
ENDBRANCH  16  17
ENDBRANCH  15  16
ENDBRANCH  14  15
ENDBRANCH  13  14
ENDBRANCH  12  13
ENDBRANCH   1  12
TORSDOF 14
ENDMDL
MODEL 6
REMARK VINA RESULT:    -4.557      1.864      3.989
REMARK INTER + INTRA:         -10.274
REMARK INTER:                  -8.450
REMARK INTRA:                  -1.824
REMARK UNBOUND:                -1.987
REMARK SMILES CCCCCCCCCCCCCC[C@@H](C)C(=O)[O-]
REMARK SMILES IDX 9 1 10 2 11 3 12 4 13 5 14 6 15 7 16 8 17 9 18 10 19 11 8 12
REMARK SMILES IDX 7 13 6 14 5 15 4 16 3 17 2 18 1 19
REMARK H PARENT
REMARK Flexibility Score: inf
ROOT
ATOM      1  C   UNL     1     -23.795 -35.511 -12.588  1.00  0.00     0.000 C 
ENDROOT
BRANCH   1   2
ATOM      2  C   UNL     1     -22.415 -34.947 -12.973  1.00  0.00     0.000 C 
BRANCH   2   3
ATOM      3  C   UNL     1     -21.256 -35.357 -12.042  1.00  0.00     0.000 C 
BRANCH   3   4
ATOM      4  C   UNL     1     -19.987 -35.861 -12.753  1.00  0.00     0.000 C 
BRANCH   4   5
ATOM      5  C   UNL     1     -19.491 -34.898 -13.844  1.00  0.00     0.001 C 
BRANCH   5   6
ATOM      6  C   UNL     1     -19.141 -33.502 -13.293  1.00  0.00     0.009 C 
BRANCH   6   7
ATOM      7  C   UNL     1     -19.841 -32.335 -14.025  1.00  0.00     0.032 C 
ATOM      8  C   UNL     1     -20.570 -32.846 -15.273  1.00  0.00     0.014 C 
BRANCH   7   9
ATOM      9  C   UNL     1     -20.809 -31.615 -13.125  1.00  0.00     0.044 C 
ATOM     10  O   UNL     1     -20.796 -31.815 -11.881  1.00  0.00    -0.550 OA
ATOM     11  O   UNL     1     -21.724 -30.720 -13.666  1.00  0.00    -0.550 OA
ENDBRANCH   7   9
ENDBRANCH   6   7
ENDBRANCH   5   6
ENDBRANCH   4   5
ENDBRANCH   3   4
ENDBRANCH   2   3
ENDBRANCH   1   2
BRANCH   1  12
ATOM     12  C   UNL     1     -24.741 -34.440 -12.029  1.00  0.00     0.000 C 
BRANCH  12  13
ATOM     13  C   UNL     1     -24.150 -33.037 -12.207  1.00  0.00    -0.000 C 
BRANCH  13  14
ATOM     14  C   UNL     1     -25.258 -31.976 -12.271  1.00  0.00    -0.000 C 
BRANCH  14  15
ATOM     15  C   UNL     1     -26.429 -32.276 -11.318  1.00  0.00    -0.000 C 
BRANCH  15  16
ATOM     16  C   UNL     1     -27.831 -32.039 -11.914  1.00  0.00    -0.000 C 
BRANCH  16  17
ATOM     17  C   UNL     1     -28.095 -32.729 -13.267  1.00  0.00    -0.000 C 
BRANCH  17  18
ATOM     18  C   UNL     1     -28.203 -34.263 -13.199  1.00  0.00    -0.003 C 
ATOM     19  C   UNL     1     -27.641 -34.954 -14.440  1.00  0.00     0.004 C 
ENDBRANCH  17  18
ENDBRANCH  16  17
ENDBRANCH  15  16
ENDBRANCH  14  15
ENDBRANCH  13  14
ENDBRANCH  12  13
ENDBRANCH   1  12
TORSDOF 14
ENDMDL
MODEL 7
REMARK VINA RESULT:    -4.552      1.675      2.966
REMARK INTER + INTRA:         -10.264
REMARK INTER:                  -8.459
REMARK INTRA:                  -1.804
REMARK UNBOUND:                -1.987
REMARK SMILES CCCCCCCCCCCCCC[C@@H](C)C(=O)[O-]
REMARK SMILES IDX 9 1 10 2 11 3 12 4 13 5 14 6 15 7 16 8 17 9 18 10 19 11 8 12
REMARK SMILES IDX 7 13 6 14 5 15 4 16 3 17 2 18 1 19
REMARK H PARENT
REMARK Flexibility Score: inf
ROOT
ATOM      1  C   UNL     1     -25.171 -35.969 -13.117  1.00  0.00     0.000 C 
ENDROOT
BRANCH   1   2
ATOM      2  C   UNL     1     -24.021 -35.627 -12.153  1.00  0.00     0.000 C 
BRANCH   2   3
ATOM      3  C   UNL     1     -22.818 -34.908 -12.798  1.00  0.00     0.000 C 
BRANCH   3   4
ATOM      4  C   UNL     1     -21.434 -35.456 -12.404  1.00  0.00     0.000 C 
BRANCH   4   5
ATOM      5  C   UNL     1     -20.407 -35.361 -13.545  1.00  0.00     0.001 C 
BRANCH   5   6
ATOM      6  C   UNL     1     -19.394 -34.218 -13.341  1.00  0.00     0.009 C 
BRANCH   6   7
ATOM      7  C   UNL     1     -19.767 -32.901 -14.059  1.00  0.00     0.032 C 
ATOM      8  C   UNL     1     -20.633 -33.189 -15.290  1.00  0.00     0.014 C 
BRANCH   7   9
ATOM      9  C   UNL     1     -20.486 -31.951 -13.139  1.00  0.00     0.044 C 
ATOM     10  O   UNL     1     -20.375 -32.064 -11.889  1.00  0.00    -0.550 OA
ATOM     11  O   UNL     1     -21.276 -30.939 -13.669  1.00  0.00    -0.550 OA
ENDBRANCH   7   9
ENDBRANCH   6   7
ENDBRANCH   5   6
ENDBRANCH   4   5
ENDBRANCH   3   4
ENDBRANCH   2   3
ENDBRANCH   1   2
BRANCH   1  12
ATOM     12  C   UNL     1     -26.477 -35.241 -12.768  1.00  0.00     0.000 C 
BRANCH  12  13
ATOM     13  C   UNL     1     -27.378 -35.107 -14.002  1.00  0.00    -0.000 C 
BRANCH  13  14
ATOM     14  C   UNL     1     -27.856 -33.659 -14.179  1.00  0.00    -0.000 C 
BRANCH  14  15
ATOM     15  C   UNL     1     -28.001 -32.909 -12.843  1.00  0.00    -0.000 C 
BRANCH  15  16
ATOM     16  C   UNL     1     -27.351 -31.512 -12.806  1.00  0.00    -0.000 C 
BRANCH  16  17
ATOM     17  C   UNL     1     -25.818 -31.506 -12.639  1.00  0.00    -0.000 C 
BRANCH  17  18
ATOM     18  C   UNL     1     -25.311 -32.116 -11.320  1.00  0.00    -0.003 C 
ATOM     19  C   UNL     1     -23.835 -31.821 -11.058  1.00  0.00     0.004 C 
ENDBRANCH  17  18
ENDBRANCH  16  17
ENDBRANCH  15  16
ENDBRANCH  14  15
ENDBRANCH  13  14
ENDBRANCH  12  13
ENDBRANCH   1  12
TORSDOF 14
ENDMDL
MODEL 8
REMARK VINA RESULT:    -4.507      2.014      4.869
REMARK INTER + INTRA:         -10.184
REMARK INTER:                  -8.148
REMARK INTRA:                  -2.036
REMARK UNBOUND:                -1.987
REMARK SMILES CCCCCCCCCCCCCC[C@@H](C)C(=O)[O-]
REMARK SMILES IDX 9 1 10 2 11 3 12 4 13 5 14 6 15 7 16 8 17 9 18 10 19 11 8 12
REMARK SMILES IDX 7 13 6 14 5 15 4 16 3 17 2 18 1 19
REMARK H PARENT
REMARK Flexibility Score: inf
ROOT
ATOM      1  C   UNL     1     -27.588 -34.691 -12.173  1.00  0.00     0.000 C 
ENDROOT
BRANCH   1   2
ATOM      2  C   UNL     1     -28.117 -33.248 -12.259  1.00  0.00     0.000 C 
BRANCH   2   3
ATOM      3  C   UNL     1     -27.140 -32.228 -12.881  1.00  0.00     0.000 C 
BRANCH   3   4
ATOM      4  C   UNL     1     -26.647 -31.123 -11.930  1.00  0.00     0.000 C 
BRANCH   4   5
ATOM      5  C   UNL     1     -25.873 -31.677 -10.722  1.00  0.00     0.001 C 
BRANCH   5   6
ATOM      6  C   UNL     1     -24.683 -30.786 -10.317  1.00  0.00     0.009 C 
BRANCH   6   7
ATOM      7  C   UNL     1     -23.325 -31.233 -10.905  1.00  0.00     0.032 C 
ATOM      8  C   UNL     1     -23.076 -30.552 -12.255  1.00  0.00     0.014 C 
BRANCH   7   9
ATOM      9  C   UNL     1     -22.188 -30.935  -9.964  1.00  0.00     0.044 C 
ATOM     10  O   UNL     1     -21.006 -31.250 -10.269  1.00  0.00    -0.550 OA
ATOM     11  O   UNL     1     -22.439 -30.304  -8.752  1.00  0.00    -0.550 OA
ENDBRANCH   7   9
ENDBRANCH   6   7
ENDBRANCH   5   6
ENDBRANCH   4   5
ENDBRANCH   3   4
ENDBRANCH   2   3
ENDBRANCH   1   2
BRANCH   1  12
ATOM     12  C   UNL     1     -27.038 -35.205 -13.511  1.00  0.00     0.000 C 
BRANCH  12  13
ATOM     13  C   UNL     1     -25.676 -35.884 -13.320  1.00  0.00    -0.000 C 
BRANCH  13  14
ATOM     14  C   UNL     1     -24.939 -35.308 -12.103  1.00  0.00    -0.000 C 
BRANCH  14  15
ATOM     15  C   UNL     1     -23.864 -34.276 -12.487  1.00  0.00    -0.000 C 
BRANCH  15  16
ATOM     16  C   UNL     1     -22.485 -34.871 -12.834  1.00  0.00    -0.000 C 
BRANCH  16  17
ATOM     17  C   UNL     1     -21.276 -34.098 -12.270  1.00  0.00    -0.000 C 
BRANCH  17  18
ATOM     18  C   UNL     1     -20.562 -33.187 -13.283  1.00  0.00    -0.003 C 
ATOM     19  C   UNL     1     -20.700 -33.676 -14.724  1.00  0.00     0.004 C 
ENDBRANCH  17  18
ENDBRANCH  16  17
ENDBRANCH  15  16
ENDBRANCH  14  15
ENDBRANCH  13  14
ENDBRANCH  12  13
ENDBRANCH   1  12
TORSDOF 14
ENDMDL
MODEL 9
REMARK VINA RESULT:    -4.505      1.637      3.524
REMARK INTER + INTRA:         -10.180
REMARK INTER:                  -7.975
REMARK INTRA:                  -2.205
REMARK UNBOUND:                -1.987
REMARK SMILES CCCCCCCCCCCCCC[C@@H](C)C(=O)[O-]
REMARK SMILES IDX 9 1 10 2 11 3 12 4 13 5 14 6 15 7 16 8 17 9 18 10 19 11 8 12
REMARK SMILES IDX 7 13 6 14 5 15 4 16 3 17 2 18 1 19
REMARK H PARENT
REMARK Flexibility Score: inf
ROOT
ATOM      1  C   UNL     1     -24.346 -31.469 -12.552  1.00  0.00     0.000 C 
ENDROOT
BRANCH   1   2
ATOM      2  C   UNL     1     -24.041 -31.971 -11.130  1.00  0.00     0.000 C 
BRANCH   2   3
ATOM      3  C   UNL     1     -22.832 -31.302 -10.444  1.00  0.00     0.000 C 
BRANCH   3   4
ATOM      4  C   UNL     1     -21.568 -31.176 -11.313  1.00  0.00     0.000 C 
BRANCH   4   5
ATOM      5  C   UNL     1     -20.577 -32.332 -11.097  1.00  0.00     0.001 C 
BRANCH   5   6
ATOM      6  C   UNL     1     -20.094 -32.959 -12.420  1.00  0.00     0.009 C 
BRANCH   6   7
ATOM      7  C   UNL     1     -21.230 -33.488 -13.325  1.00  0.00     0.032 C 
ATOM      8  C   UNL     1     -20.754 -33.586 -14.779  1.00  0.00     0.014 C 
BRANCH   7   9
ATOM      9  C   UNL     1     -21.732 -34.828 -12.859  1.00  0.00     0.044 C 
ATOM     10  O   UNL     1     -20.924 -35.760 -12.600  1.00  0.00    -0.550 OA
ATOM     11  O   UNL     1     -23.097 -35.043 -12.710  1.00  0.00    -0.550 OA
ENDBRANCH   7   9
ENDBRANCH   6   7
ENDBRANCH   5   6
ENDBRANCH   4   5
ENDBRANCH   3   4
ENDBRANCH   2   3
ENDBRANCH   1   2
BRANCH   1  12
ATOM     12  C   UNL     1     -25.603 -30.590 -12.617  1.00  0.00     0.000 C 
BRANCH  12  13
ATOM     13  C   UNL     1     -26.423 -30.709 -11.327  1.00  0.00    -0.000 C 
BRANCH  13  14
ATOM     14  C   UNL     1     -27.926 -30.783 -11.635  1.00  0.00    -0.000 C 
BRANCH  14  15
ATOM     15  C   UNL     1     -28.235 -31.574 -12.919  1.00  0.00    -0.000 C 
BRANCH  15  16
ATOM     16  C   UNL     1     -28.538 -33.071 -12.704  1.00  0.00    -0.000 C 
BRANCH  16  17
ATOM     17  C   UNL     1     -27.733 -34.038 -13.594  1.00  0.00    -0.000 C 
BRANCH  17  18
ATOM     18  C   UNL     1     -26.499 -34.662 -12.918  1.00  0.00    -0.003 C 
ATOM     19  C   UNL     1     -26.585 -34.647 -11.393  1.00  0.00     0.004 C 
ENDBRANCH  17  18
ENDBRANCH  16  17
ENDBRANCH  15  16
ENDBRANCH  14  15
ENDBRANCH  13  14
ENDBRANCH  12  13
ENDBRANCH   1  12
TORSDOF 14
ENDMDL
