MODEL 1
REMARK VINA RESULT:    -7.519      0.000      0.000
REMARK INTER + INTRA:          -9.966
REMARK INTER:                  -9.498
REMARK INTRA:                  -0.469
REMARK UNBOUND:                -0.469
REMARK SMILES Oc1cc(O)cc(CCc2ccccc2O)c1
REMARK SMILES IDX 9 1 10 2 12 3 13 4 11 5 14 6 15 7 16 8 8 10 7 11 6 12 17 13
REMARK SMILES IDX 4 14 2 15 3 16 5 17 1 19
REMARK H PARENT 16 9 5 18 1 20
REMARK Flexibility Score: inf
ROOT
ATOM      1  C   UNL     1       2.514  31.366  78.882  1.00  0.00     0.044 C 
ENDROOT
BRANCH   1   2
ATOM      2  C   UNL     1       1.672  32.431  78.226  1.00  0.00    -0.006 A 
ATOM      3  C   UNL     1      -0.259  33.035  76.876  1.00  0.00     0.001 A 
ATOM      4  C   UNL     1       0.117  34.378  76.932  1.00  0.00     0.004 A 
ATOM      5  C   UNL     1       0.517  32.064  77.515  1.00  0.00     0.007 A 
ATOM      6  C   UNL     1       1.272  34.754  77.623  1.00  0.00     0.046 A 
ATOM      7  C   UNL     1       2.056  33.786  78.267  1.00  0.00     0.118 A 
BRANCH   7   8
ATOM      8  O   UNL     1       3.216  34.167  78.943  1.00  0.00    -0.508 OA
ATOM      9  H   UNL     1       3.436  33.809  79.864  1.00  0.00     0.293 HD
ENDBRANCH   7   8
ENDBRANCH   1   2
BRANCH   1  10
ATOM     10  C   UNL     1       1.629  30.343  79.600  1.00  0.00     0.040 C 
BRANCH  10  11
ATOM     11  C   UNL     1       2.267  28.981  79.575  1.00  0.00    -0.040 A 
ATOM     12  C   UNL     1       3.265  28.684  78.631  1.00  0.00     0.050 A 
ATOM     13  C   UNL     1       1.913  28.015  80.530  1.00  0.00     0.050 A 
ATOM     14  C   UNL     1       3.883  27.430  78.626  1.00  0.00     0.119 A 
ATOM     15  C   UNL     1       2.531  26.757  80.527  1.00  0.00     0.119 A 
ATOM     16  C   UNL     1       3.513  26.466  79.573  1.00  0.00     0.092 A 
BRANCH  14  17
ATOM     17  O   UNL     1       4.865  27.152  77.678  1.00  0.00    -0.508 OA
ATOM     18  H   UNL     1       5.660  26.563  77.896  1.00  0.00     0.293 HD
ENDBRANCH  14  17
BRANCH  15  19
ATOM     19  O   UNL     1       2.181  25.790  81.468  1.00  0.00    -0.508 OA
ATOM     20  H   UNL     1       1.483  25.084  81.264  1.00  0.00     0.293 HD
ENDBRANCH  15  19
ENDBRANCH  10  11
ENDBRANCH   1  10
TORSDOF 6
ENDMDL
MODEL 2
REMARK VINA RESULT:    -7.495      1.961      6.596
REMARK INTER + INTRA:          -9.935
REMARK INTER:                  -9.418
REMARK INTRA:                  -0.517
REMARK UNBOUND:                -0.469
REMARK SMILES Oc1cc(O)cc(CCc2ccccc2O)c1
REMARK SMILES IDX 9 1 10 2 12 3 13 4 11 5 14 6 15 7 16 8 8 10 7 11 6 12 17 13
REMARK SMILES IDX 4 14 2 15 3 16 5 17 1 19
REMARK H PARENT 16 9 5 18 1 20
REMARK Flexibility Score: inf
ROOT
ATOM      1  C   UNL     1       1.477  30.091  79.772  1.00  0.00     0.044 C 
ENDROOT
BRANCH   1   2
ATOM      2  C   UNL     1       1.908  28.648  79.847  1.00  0.00    -0.006 A 
ATOM      3  C   UNL     1       2.537  26.590  78.715  1.00  0.00     0.001 A 
ATOM      4  C   UNL     1       2.644  25.940  79.946  1.00  0.00     0.004 A 
ATOM      5  C   UNL     1       2.166  27.936  78.664  1.00  0.00     0.007 A 
ATOM      6  C   UNL     1       2.375  26.633  81.129  1.00  0.00     0.046 A 
ATOM      7  C   UNL     1       2.002  27.984  81.087  1.00  0.00     0.118 A 
BRANCH   7   8
ATOM      8  O   UNL     1       1.721  28.666  82.272  1.00  0.00    -0.508 OA
ATOM      9  H   UNL     1       1.605  28.176  83.151  1.00  0.00     0.293 HD
ENDBRANCH   7   8
ENDBRANCH   1   2
BRANCH   1  10
ATOM     10  C   UNL     1       2.501  30.920  78.990  1.00  0.00     0.040 C 
BRANCH  10  11
ATOM     11  C   UNL     1       1.811  31.807  77.990  1.00  0.00    -0.040 A 
ATOM     12  C   UNL     1       1.201  31.251  76.853  1.00  0.00     0.050 A 
ATOM     13  C   UNL     1       1.719  33.190  78.214  1.00  0.00     0.050 A 
ATOM     14  C   UNL     1       0.530  32.069  75.938  1.00  0.00     0.119 A 
ATOM     15  C   UNL     1       1.047  34.013  77.298  1.00  0.00     0.119 A 
ATOM     16  C   UNL     1       0.457  33.450  76.161  1.00  0.00     0.092 A 
BRANCH  14  17
ATOM     17  O   UNL     1      -0.061  31.500  74.813  1.00  0.00    -0.508 OA
ATOM     18  H   UNL     1      -0.919  31.871  74.420  1.00  0.00     0.293 HD
ENDBRANCH  14  17
BRANCH  15  19
ATOM     19  O   UNL     1       0.958  35.387  77.509  1.00  0.00    -0.508 OA
ATOM     20  H   UNL     1       0.982  35.780  78.443  1.00  0.00     0.293 HD
ENDBRANCH  15  19
ENDBRANCH  10  11
ENDBRANCH   1  10
TORSDOF 6
ENDMDL
MODEL 3
REMARK VINA RESULT:    -7.452      1.932      6.634
REMARK INTER + INTRA:          -9.881
REMARK INTER:                  -9.365
REMARK INTRA:                  -0.517
REMARK UNBOUND:                -0.469
REMARK SMILES Oc1cc(O)cc(CCc2ccccc2O)c1
REMARK SMILES IDX 9 1 10 2 12 3 13 4 11 5 14 6 15 7 16 8 8 10 7 11 6 12 17 13
REMARK SMILES IDX 4 14 2 15 3 16 5 17 1 19
REMARK H PARENT 16 9 5 18 1 20
REMARK Flexibility Score: inf
ROOT
ATOM      1  C   UNL     1       1.491  29.932  79.783  1.00  0.00     0.044 C 
ENDROOT
BRANCH   1   2
ATOM      2  C   UNL     1       1.912  28.484  79.786  1.00  0.00    -0.006 A 
ATOM      3  C   UNL     1       2.464  26.462  78.553  1.00  0.00     0.001 A 
ATOM      4  C   UNL     1       2.627  25.769  79.754  1.00  0.00     0.004 A 
ATOM      5  C   UNL     1       2.103  27.812  78.567  1.00  0.00     0.007 A 
ATOM      6  C   UNL     1       2.425  26.422  80.972  1.00  0.00     0.046 A 
ATOM      7  C   UNL     1       2.062  27.777  80.996  1.00  0.00     0.118 A 
BRANCH   7   8
ATOM      8  O   UNL     1       1.847  28.418  82.216  1.00  0.00    -0.508 OA
ATOM      9  H   UNL     1       2.601  28.875  82.716  1.00  0.00     0.293 HD
ENDBRANCH   7   8
ENDBRANCH   1   2
BRANCH   1  10
ATOM     10  C   UNL     1       2.504  30.787  79.017  1.00  0.00     0.040 C 
BRANCH  10  11
ATOM     11  C   UNL     1       1.802  31.704  78.053  1.00  0.00    -0.040 A 
ATOM     12  C   UNL     1       1.793  33.091  78.274  1.00  0.00     0.050 A 
ATOM     13  C   UNL     1       1.201  31.187  76.894  1.00  0.00     0.050 A 
ATOM     14  C   UNL     1       1.170  33.949  77.362  1.00  0.00     0.119 A 
ATOM     15  C   UNL     1       0.575  32.045  75.978  1.00  0.00     0.119 A 
ATOM     16  C   UNL     1       0.559  33.424  76.216  1.00  0.00     0.092 A 
BRANCH  14  17
ATOM     17  O   UNL     1       1.166  35.321  77.602  1.00  0.00    -0.508 OA
ATOM     18  H   UNL     1       0.373  35.780  78.034  1.00  0.00     0.293 HD
ENDBRANCH  14  17
BRANCH  15  19
ATOM     19  O   UNL     1      -0.030  31.539  74.829  1.00  0.00    -0.508 OA
ATOM     20  H   UNL     1      -1.038  31.508  74.734  1.00  0.00     0.293 HD
ENDBRANCH  15  19
ENDBRANCH  10  11
ENDBRANCH   1  10
TORSDOF 6
ENDMDL
MODEL 4
REMARK VINA RESULT:    -7.448      0.077      2.035
REMARK INTER + INTRA:          -9.876
REMARK INTER:                  -9.410
REMARK INTRA:                  -0.465
REMARK UNBOUND:                -0.469
REMARK SMILES Oc1cc(O)cc(CCc2ccccc2O)c1
REMARK SMILES IDX 9 1 10 2 12 3 13 4 11 5 14 6 15 7 16 8 8 10 7 11 6 12 17 13
REMARK SMILES IDX 4 14 2 15 3 16 5 17 1 19
REMARK H PARENT 16 9 5 18 1 20
REMARK Flexibility Score: inf
ROOT
ATOM      1  C   UNL     1       2.499  31.369  78.882  1.00  0.00     0.044 C 
ENDROOT
BRANCH   1   2
ATOM      2  C   UNL     1       1.657  32.434  78.228  1.00  0.00    -0.006 A 
ATOM      3  C   UNL     1      -0.283  33.041  76.892  1.00  0.00     0.001 A 
ATOM      4  C   UNL     1       0.101  34.382  76.935  1.00  0.00     0.004 A 
ATOM      5  C   UNL     1       0.493  32.070  77.530  1.00  0.00     0.007 A 
ATOM      6  C   UNL     1       1.264  34.756  77.613  1.00  0.00     0.046 A 
ATOM      7  C   UNL     1       2.049  33.788  78.256  1.00  0.00     0.118 A 
BRANCH   7   8
ATOM      8  O   UNL     1       3.218  34.166  78.918  1.00  0.00    -0.508 OA
ATOM      9  H   UNL     1       4.058  33.602  78.878  1.00  0.00     0.293 HD
ENDBRANCH   7   8
ENDBRANCH   1   2
BRANCH   1  10
ATOM     10  C   UNL     1       1.614  30.338  79.589  1.00  0.00     0.040 C 
BRANCH  10  11
ATOM     11  C   UNL     1       2.273  28.986  79.587  1.00  0.00    -0.040 A 
ATOM     12  C   UNL     1       1.931  28.032  80.560  1.00  0.00     0.050 A 
ATOM     13  C   UNL     1       3.190  28.645  78.580  1.00  0.00     0.050 A 
ATOM     14  C   UNL     1       2.517  26.761  80.542  1.00  0.00     0.119 A 
ATOM     15  C   UNL     1       3.778  27.373  78.559  1.00  0.00     0.119 A 
ATOM     16  C   UNL     1       3.443  26.434  79.542  1.00  0.00     0.092 A 
BRANCH  14  17
ATOM     17  O   UNL     1       2.171  25.831  81.519  1.00  0.00    -0.508 OA
ATOM     18  H   UNL     1       2.863  25.443  82.149  1.00  0.00     0.293 HD
ENDBRANCH  14  17
BRANCH  15  19
ATOM     19  O   UNL     1       4.695  27.030  77.567  1.00  0.00    -0.508 OA
ATOM     20  H   UNL     1       5.566  26.565  77.792  1.00  0.00     0.293 HD
ENDBRANCH  15  19
ENDBRANCH  10  11
ENDBRANCH   1  10
TORSDOF 6
ENDMDL
MODEL 5
REMARK VINA RESULT:    -7.349      1.601      6.668
REMARK INTER + INTRA:          -9.752
REMARK INTER:                  -9.383
REMARK INTRA:                  -0.368
REMARK UNBOUND:                -0.469
REMARK SMILES Oc1cc(O)cc(CCc2ccccc2O)c1
REMARK SMILES IDX 9 1 10 2 12 3 13 4 11 5 14 6 15 7 16 8 8 10 7 11 6 12 17 13
REMARK SMILES IDX 4 14 2 15 3 16 5 17 1 19
REMARK H PARENT 16 9 5 18 1 20
REMARK Flexibility Score: inf
ROOT
ATOM      1  C   UNL     1       2.094  29.858  79.407  1.00  0.00     0.044 C 
ENDROOT
BRANCH   1   2
ATOM      2  C   UNL     1       2.698  28.482  79.293  1.00  0.00    -0.006 A 
ATOM      3  C   UNL     1       2.691  26.134  79.928  1.00  0.00     0.001 A 
ATOM      4  C   UNL     1       3.838  25.919  79.162  1.00  0.00     0.004 A 
ATOM      5  C   UNL     1       2.126  27.410  79.999  1.00  0.00     0.007 A 
ATOM      6  C   UNL     1       4.426  26.980  78.468  1.00  0.00     0.046 A 
ATOM      7  C   UNL     1       3.865  28.264  78.533  1.00  0.00     0.118 A 
BRANCH   7   8
ATOM      8  O   UNL     1       4.466  29.321  77.850  1.00  0.00    -0.508 OA
ATOM      9  H   UNL     1       5.304  29.771  78.198  1.00  0.00     0.293 HD
ENDBRANCH   7   8
ENDBRANCH   1   2
BRANCH   1  10
ATOM     10  C   UNL     1       1.303  30.208  78.143  1.00  0.00     0.040 C 
BRANCH  10  11
ATOM     11  C   UNL     1       1.291  31.696  77.920  1.00  0.00    -0.040 A 
ATOM     12  C   UNL     1       0.268  32.289  77.162  1.00  0.00     0.050 A 
ATOM     13  C   UNL     1       2.268  32.509  78.516  1.00  0.00     0.050 A 
ATOM     14  C   UNL     1       0.235  33.676  76.981  1.00  0.00     0.119 A 
ATOM     15  C   UNL     1       2.238  33.899  78.336  1.00  0.00     0.119 A 
ATOM     16  C   UNL     1       1.223  34.479  77.566  1.00  0.00     0.092 A 
BRANCH  14  17
ATOM     17  O   UNL     1      -0.783  34.245  76.220  1.00  0.00    -0.508 OA
ATOM     18  H   UNL     1      -1.759  34.075  76.430  1.00  0.00     0.293 HD
ENDBRANCH  14  17
BRANCH  15  19
ATOM     19  O   UNL     1       3.208  34.713  78.917  1.00  0.00    -0.508 OA
ATOM     20  H   UNL     1       4.022  34.319  79.375  1.00  0.00     0.293 HD
ENDBRANCH  15  19
ENDBRANCH  10  11
ENDBRANCH   1  10
TORSDOF 6
ENDMDL
MODEL 6
REMARK VINA RESULT:    -7.322      1.624      6.639
REMARK INTER + INTRA:          -9.717
REMARK INTER:                  -9.343
REMARK INTRA:                  -0.374
REMARK UNBOUND:                -0.469
REMARK SMILES Oc1cc(O)cc(CCc2ccccc2O)c1
REMARK SMILES IDX 9 1 10 2 12 3 13 4 11 5 14 6 15 7 16 8 8 10 7 11 6 12 17 13
REMARK SMILES IDX 4 14 2 15 3 16 5 17 1 19
REMARK H PARENT 16 9 5 18 1 20
REMARK Flexibility Score: inf
ROOT
ATOM      1  C   UNL     1       2.021  29.902  79.428  1.00  0.00     0.044 C 
ENDROOT
BRANCH   1   2
ATOM      2  C   UNL     1       2.661  28.546  79.275  1.00  0.00    -0.006 A 
ATOM      3  C   UNL     1       2.729  26.186  79.858  1.00  0.00     0.001 A 
ATOM      4  C   UNL     1       3.870  26.019  79.072  1.00  0.00     0.004 A 
ATOM      5  C   UNL     1       2.129  27.443  79.965  1.00  0.00     0.007 A 
ATOM      6  C   UNL     1       4.418  27.111  78.393  1.00  0.00     0.046 A 
ATOM      7  C   UNL     1       3.823  28.377  78.495  1.00  0.00     0.118 A 
BRANCH   7   8
ATOM      8  O   UNL     1       4.384  29.466  77.827  1.00  0.00    -0.508 OA
ATOM      9  H   UNL     1       4.298  30.410  78.183  1.00  0.00     0.293 HD
ENDBRANCH   7   8
ENDBRANCH   1   2
BRANCH   1  10
ATOM     10  C   UNL     1       1.215  30.263  78.177  1.00  0.00     0.040 C 
BRANCH  10  11
ATOM     11  C   UNL     1       1.188  31.753  77.975  1.00  0.00    -0.040 A 
ATOM     12  C   UNL     1       2.207  32.558  78.512  1.00  0.00     0.050 A 
ATOM     13  C   UNL     1       0.178  32.345  77.200  1.00  0.00     0.050 A 
ATOM     14  C   UNL     1       2.203  33.941  78.297  1.00  0.00     0.119 A 
ATOM     15  C   UNL     1       0.171  33.731  76.984  1.00  0.00     0.119 A 
ATOM     16  C   UNL     1       1.183  34.526  77.536  1.00  0.00     0.092 A 
BRANCH  14  17
ATOM     17  O   UNL     1       3.218  34.723  78.843  1.00  0.00    -0.508 OA
ATOM     18  H   UNL     1       3.131  35.135  79.765  1.00  0.00     0.293 HD
ENDBRANCH  14  17
BRANCH  15  19
ATOM     19  O   UNL     1      -0.832  34.327  76.223  1.00  0.00    -0.508 OA
ATOM     20  H   UNL     1      -1.775  34.428  76.579  1.00  0.00     0.293 HD
ENDBRANCH  15  19
ENDBRANCH  10  11
ENDBRANCH   1  10
TORSDOF 6
ENDMDL
MODEL 7
REMARK VINA RESULT:    -7.270      2.243      7.001
REMARK INTER + INTRA:          -9.651
REMARK INTER:                  -9.236
REMARK INTRA:                  -0.415
REMARK UNBOUND:                -0.469
REMARK SMILES Oc1cc(O)cc(CCc2ccccc2O)c1
REMARK SMILES IDX 9 1 10 2 12 3 13 4 11 5 14 6 15 7 16 8 8 10 7 11 6 12 17 13
REMARK SMILES IDX 4 14 2 15 3 16 5 17 1 19
REMARK H PARENT 16 9 5 18 1 20
REMARK Flexibility Score: inf
ROOT
ATOM      1  C   UNL     1       2.120  28.089  78.150  1.00  0.00     0.044 C 
ENDROOT
BRANCH   1   2
ATOM      2  C   UNL     1       1.983  26.799  78.918  1.00  0.00    -0.006 A 
ATOM      3  C   UNL     1       2.438  25.496  80.921  1.00  0.00     0.001 A 
ATOM      4  C   UNL     1       1.810  24.389  80.348  1.00  0.00     0.004 A 
ATOM      5  C   UNL     1       2.529  26.695  80.208  1.00  0.00     0.007 A 
ATOM      6  C   UNL     1       1.276  24.474  79.060  1.00  0.00     0.046 A 
ATOM      7  C   UNL     1       1.364  25.673  78.337  1.00  0.00     0.118 A 
BRANCH   7   8
ATOM      8  O   UNL     1       0.842  25.747  77.045  1.00  0.00    -0.508 OA
ATOM      9  H   UNL     1      -0.088  25.408  76.828  1.00  0.00     0.293 HD
ENDBRANCH   7   8
ENDBRANCH   1   2
BRANCH   1  10
ATOM     10  C   UNL     1       2.121  29.287  79.104  1.00  0.00     0.040 C 
BRANCH  10  11
ATOM     11  C   UNL     1       1.820  30.558  78.358  1.00  0.00    -0.040 A 
ATOM     12  C   UNL     1       2.282  31.792  78.846  1.00  0.00     0.050 A 
ATOM     13  C   UNL     1       1.125  30.516  77.138  1.00  0.00     0.050 A 
ATOM     14  C   UNL     1       2.033  32.972  78.137  1.00  0.00     0.119 A 
ATOM     15  C   UNL     1       0.873  31.697  76.426  1.00  0.00     0.119 A 
ATOM     16  C   UNL     1       1.325  32.923  76.928  1.00  0.00     0.092 A 
BRANCH  14  17
ATOM     17  O   UNL     1       2.493  34.186  78.641  1.00  0.00    -0.508 OA
ATOM     18  H   UNL     1       3.481  34.407  78.668  1.00  0.00     0.293 HD
ENDBRANCH  14  17
BRANCH  15  19
ATOM     19  O   UNL     1       0.179  31.665  75.218  1.00  0.00    -0.508 OA
ATOM     20  H   UNL     1      -0.113  32.517  74.754  1.00  0.00     0.293 HD
ENDBRANCH  15  19
ENDBRANCH  10  11
ENDBRANCH   1  10
TORSDOF 6
ENDMDL
MODEL 8
REMARK VINA RESULT:    -7.122      2.207      6.942
REMARK INTER + INTRA:          -9.465
REMARK INTER:                  -9.077
REMARK INTRA:                  -0.388
REMARK UNBOUND:                -0.469
REMARK SMILES Oc1cc(O)cc(CCc2ccccc2O)c1
REMARK SMILES IDX 9 1 10 2 12 3 13 4 11 5 14 6 15 7 16 8 8 10 7 11 6 12 17 13
REMARK SMILES IDX 4 14 2 15 3 16 5 17 1 19
REMARK H PARENT 16 9 5 18 1 20
REMARK Flexibility Score: inf
ROOT
ATOM      1  C   UNL     1       2.327  28.146  78.383  1.00  0.00     0.044 C 
ENDROOT
BRANCH   1   2
ATOM      2  C   UNL     1       2.105  26.830  79.085  1.00  0.00    -0.006 A 
ATOM      3  C   UNL     1       2.448  25.411  81.031  1.00  0.00     0.001 A 
ATOM      4  C   UNL     1       1.773  24.368  80.395  1.00  0.00     0.004 A 
ATOM      5  C   UNL     1       2.619  26.635  80.378  1.00  0.00     0.007 A 
ATOM      6  C   UNL     1       1.270  24.544  79.103  1.00  0.00     0.046 A 
ATOM      7  C   UNL     1       1.437  25.769  78.441  1.00  0.00     0.118 A 
BRANCH   7   8
ATOM      8  O   UNL     1       0.946  25.932  77.145  1.00  0.00    -0.508 OA
ATOM      9  H   UNL     1       1.229  25.321  76.388  1.00  0.00     0.293 HD
ENDBRANCH   7   8
ENDBRANCH   1   2
BRANCH   1  10
ATOM     10  C   UNL     1       1.787  29.305  79.226  1.00  0.00     0.040 C 
BRANCH  10  11
ATOM     11  C   UNL     1       1.666  30.553  78.393  1.00  0.00    -0.040 A 
ATOM     12  C   UNL     1       1.006  30.515  77.154  1.00  0.00     0.050 A 
ATOM     13  C   UNL     1       2.160  31.775  78.875  1.00  0.00     0.050 A 
ATOM     14  C   UNL     1       0.862  31.681  76.393  1.00  0.00     0.119 A 
ATOM     15  C   UNL     1       2.019  32.945  78.114  1.00  0.00     0.119 A 
ATOM     16  C   UNL     1       1.372  32.894  76.874  1.00  0.00     0.092 A 
BRANCH  14  17
ATOM     17  O   UNL     1       0.211  31.622  75.164  1.00  0.00    -0.508 OA
ATOM     18  H   UNL     1      -0.782  31.435  75.099  1.00  0.00     0.293 HD
ENDBRANCH  14  17
BRANCH  15  19
ATOM     19  O   UNL     1       2.513  34.161  78.582  1.00  0.00    -0.508 OA
ATOM     20  H   UNL     1       3.063  34.770  77.988  1.00  0.00     0.293 HD
ENDBRANCH  15  19
ENDBRANCH  10  11
ENDBRANCH   1  10
TORSDOF 6
ENDMDL
MODEL 9
REMARK VINA RESULT:    -6.880      2.434      6.931
REMARK INTER + INTRA:          -9.158
REMARK INTER:                  -8.612
REMARK INTRA:                  -0.546
REMARK UNBOUND:                -0.469
REMARK SMILES Oc1cc(O)cc(CCc2ccccc2O)c1
REMARK SMILES IDX 9 1 10 2 12 3 13 4 11 5 14 6 15 7 16 8 8 10 7 11 6 12 17 13
REMARK SMILES IDX 4 14 2 15 3 16 5 17 1 19
REMARK H PARENT 16 9 5 18 1 20
REMARK Flexibility Score: inf
ROOT
ATOM      1  C   UNL     1       3.194  26.196  79.030  1.00  0.00     0.044 C 
ENDROOT
BRANCH   1   2
ATOM      2  C   UNL     1       4.318  25.892  79.988  1.00  0.00    -0.006 A 
ATOM      3  C   UNL     1       6.684  25.491  80.379  1.00  0.00     0.001 A 
ATOM      4  C   UNL     1       6.426  25.258  81.731  1.00  0.00     0.004 A 
ATOM      5  C   UNL     1       5.636  25.802  79.510  1.00  0.00     0.007 A 
ATOM      6  C   UNL     1       5.118  25.330  82.217  1.00  0.00     0.046 A 
ATOM      7  C   UNL     1       4.059  25.640  81.351  1.00  0.00     0.118 A 
BRANCH   7   8
ATOM      8  O   UNL     1       2.753  25.695  81.840  1.00  0.00    -0.508 OA
ATOM      9  H   UNL     1       1.964  25.864  81.228  1.00  0.00     0.293 HD
ENDBRANCH   7   8
ENDBRANCH   1   2
BRANCH   1  10
ATOM     10  C   UNL     1       3.575  27.351  78.099  1.00  0.00     0.040 C 
BRANCH  10  11
ATOM     11  C   UNL     1       2.905  28.625  78.536  1.00  0.00    -0.040 A 
ATOM     12  C   UNL     1       3.019  29.787  77.755  1.00  0.00     0.050 A 
ATOM     13  C   UNL     1       2.113  28.648  79.695  1.00  0.00     0.050 A 
ATOM     14  C   UNL     1       2.369  30.965  78.140  1.00  0.00     0.119 A 
ATOM     15  C   UNL     1       1.461  29.827  80.084  1.00  0.00     0.119 A 
ATOM     16  C   UNL     1       1.593  30.984  79.307  1.00  0.00     0.092 A 
BRANCH  14  17
ATOM     17  O   UNL     1       2.499  32.109  77.357  1.00  0.00    -0.508 OA
ATOM     18  H   UNL     1       2.291  33.030  77.725  1.00  0.00     0.293 HD
ENDBRANCH  14  17
BRANCH  15  19
ATOM     19  O   UNL     1       0.680  29.860  81.236  1.00  0.00    -0.508 OA
ATOM     20  H   UNL     1      -0.093  29.219  81.369  1.00  0.00     0.293 HD
ENDBRANCH  15  19
ENDBRANCH  10  11
ENDBRANCH   1  10
TORSDOF 6
ENDMDL
