MODEL 1
REMARK VINA RESULT:     8.787      0.000      0.000
REMARK INTER + INTRA:          16.194
REMARK INTER:                  16.493
REMARK INTRA:                  -0.299
REMARK UNBOUND:                -0.299
REMARK SMILES CCCCCCCCC=CCCCCCCCC(=O)[O-]
REMARK SMILES IDX 10 1 9 2 11 3 12 4 13 5 14 6 15 7 16 8 17 9 18 10 19 11
REMARK SMILES IDX 20 12 8 13 7 14 6 15 5 16 4 17 3 18 2 19 1 20
REMARK H PARENT
REMARK Flexibility Score: inf
ROOT
ATOM      1  C   UNL     1     -13.194  18.639 -14.903  1.00  0.00    -0.031 C 
ATOM      2  C   UNL     1     -12.102  19.091 -14.268  1.00  0.00    -0.031 C 
ENDROOT
BRANCH   1   3
ATOM      3  C   UNL     1     -13.105  17.962 -16.244  1.00  0.00     0.027 C 
BRANCH   3   4
ATOM      4  C   UNL     1     -14.485  17.704 -16.873  1.00  0.00     0.004 C 
BRANCH   4   5
ATOM      5  C   UNL     1     -14.539  17.908 -18.402  1.00  0.00     0.000 C 
BRANCH   5   6
ATOM      6  C   UNL     1     -14.163  19.320 -18.884  1.00  0.00     0.000 C 
BRANCH   6   7
ATOM      7  C   UNL     1     -14.557  19.576 -20.346  1.00  0.00     0.000 C 
BRANCH   7   8
ATOM      8  C   UNL     1     -14.162  20.995 -20.781  1.00  0.00     0.006 C 
BRANCH   8   9
ATOM      9  C   UNL     1     -13.996  21.111 -22.302  1.00  0.00     0.053 C 
BRANCH   9  10
ATOM     10  C   UNL     1     -13.301  19.915 -22.878  1.00  0.00     0.041 C 
ATOM     11  O   UNL     1     -12.067  19.957 -23.124  1.00  0.00    -0.550 OA
ATOM     12  O   UNL     1     -14.011  18.744 -23.112  1.00  0.00    -0.550 OA
ENDBRANCH   9  10
ENDBRANCH   8   9
ENDBRANCH   7   8
ENDBRANCH   6   7
ENDBRANCH   5   6
ENDBRANCH   4   5
ENDBRANCH   3   4
ENDBRANCH   1   3
BRANCH   2  13
ATOM     13  C   UNL     1     -12.218  19.762 -12.928  1.00  0.00     0.027 C 
BRANCH  13  14
ATOM     14  C   UNL     1     -13.259  19.059 -12.045  1.00  0.00     0.004 C 
BRANCH  14  15
ATOM     15  C   UNL     1     -13.034  19.316 -10.546  1.00  0.00     0.000 C 
BRANCH  15  16
ATOM     16  C   UNL     1     -12.936  18.018  -9.732  1.00  0.00     0.000 C 
BRANCH  16  17
ATOM     17  C   UNL     1     -12.631  18.320  -8.257  1.00  0.00    -0.000 C 
BRANCH  17  18
ATOM     18  C   UNL     1     -13.455  19.495  -7.701  1.00  0.00    -0.000 C 
BRANCH  18  19
ATOM     19  C   UNL     1     -12.623  20.634  -7.086  1.00  0.00    -0.003 C 
ATOM     20  C   UNL     1     -11.793  21.393  -8.120  1.00  0.00     0.004 C 
ENDBRANCH  18  19
ENDBRANCH  17  18
ENDBRANCH  16  17
ENDBRANCH  15  16
ENDBRANCH  14  15
ENDBRANCH  13  14
ENDBRANCH   2  13
TORSDOF 15
ENDMDL
MODEL 2
REMARK VINA RESULT:     9.259      1.355      1.709
REMARK INTER + INTRA:          17.080
REMARK INTER:                  17.316
REMARK INTRA:                  -0.236
REMARK UNBOUND:                -0.299
REMARK SMILES CCCCCCCCC=CCCCCCCCC(=O)[O-]
REMARK SMILES IDX 10 1 9 2 11 3 12 4 13 5 14 6 15 7 16 8 17 9 18 10 19 11
REMARK SMILES IDX 20 12 8 13 7 14 6 15 5 16 4 17 3 18 2 19 1 20
REMARK H PARENT
REMARK Flexibility Score: inf
ROOT
ATOM      1  C   UNL     1     -12.032  19.347 -15.387  1.00  0.00    -0.031 C 
ATOM      2  C   UNL     1     -11.807  19.335 -14.065  1.00  0.00    -0.031 C 
ENDROOT
BRANCH   1   3
ATOM      3  C   UNL     1     -10.954  18.992 -16.376  1.00  0.00     0.027 C 
BRANCH   3   4
ATOM      4  C   UNL     1     -11.011  19.850 -17.651  1.00  0.00     0.004 C 
BRANCH   4   5
ATOM      5  C   UNL     1     -11.639  19.142 -18.870  1.00  0.00     0.000 C 
BRANCH   5   6
ATOM      6  C   UNL     1     -12.247  20.081 -19.926  1.00  0.00     0.000 C 
BRANCH   6   7
ATOM      7  C   UNL     1     -13.765  19.904 -20.081  1.00  0.00     0.000 C 
BRANCH   7   8
ATOM      8  C   UNL     1     -14.324  20.854 -21.149  1.00  0.00     0.006 C 
BRANCH   8   9
ATOM      9  C   UNL     1     -14.033  20.362 -22.573  1.00  0.00     0.053 C 
BRANCH   9  10
ATOM     10  C   UNL     1     -12.592  20.546 -22.940  1.00  0.00     0.041 C 
ATOM     11  O   UNL     1     -11.849  19.544 -23.112  1.00  0.00    -0.550 OA
ATOM     12  O   UNL     1     -12.078  21.823 -23.124  1.00  0.00    -0.550 OA
ENDBRANCH   9  10
ENDBRANCH   8   9
ENDBRANCH   7   8
ENDBRANCH   6   7
ENDBRANCH   5   6
ENDBRANCH   4   5
ENDBRANCH   3   4
ENDBRANCH   1   3
BRANCH   2  13
ATOM     13  C   UNL     1     -12.901  19.693 -13.098  1.00  0.00     0.027 C 
BRANCH  13  14
ATOM     14  C   UNL     1     -13.075  18.602 -12.031  1.00  0.00     0.004 C 
BRANCH  14  15
ATOM     15  C   UNL     1     -12.953  19.150 -10.600  1.00  0.00     0.000 C 
BRANCH  15  16
ATOM     16  C   UNL     1     -12.688  18.048  -9.564  1.00  0.00     0.000 C 
BRANCH  16  17
ATOM     17  C   UNL     1     -12.609  18.635  -8.147  1.00  0.00    -0.000 C 
BRANCH  17  18
ATOM     18  C   UNL     1     -13.527  19.856  -7.951  1.00  0.00    -0.000 C 
BRANCH  18  19
ATOM     19  C   UNL     1     -12.833  21.099  -7.369  1.00  0.00    -0.003 C 
ATOM     20  C   UNL     1     -11.415  21.298  -7.904  1.00  0.00     0.004 C 
ENDBRANCH  18  19
ENDBRANCH  17  18
ENDBRANCH  16  17
ENDBRANCH  15  16
ENDBRANCH  14  15
ENDBRANCH  13  14
ENDBRANCH   2  13
TORSDOF 15
ENDMDL
MODEL 3
REMARK VINA RESULT:     9.866      5.192     11.230
REMARK INTER + INTRA:          18.219
REMARK INTER:                  18.663
REMARK INTRA:                  -0.445
REMARK UNBOUND:                -0.299
REMARK SMILES CCCCCCCCC=CCCCCCCCC(=O)[O-]
REMARK SMILES IDX 10 1 9 2 11 3 12 4 13 5 14 6 15 7 16 8 17 9 18 10 19 11
REMARK SMILES IDX 20 12 8 13 7 14 6 15 5 16 4 17 3 18 2 19 1 20
REMARK H PARENT
REMARK Flexibility Score: inf
ROOT
ATOM      1  C   UNL     1     -11.674  19.172 -15.633  1.00  0.00    -0.031 C 
ATOM      2  C   UNL     1     -10.640  19.550 -16.400  1.00  0.00    -0.031 C 
ENDROOT
BRANCH   1   3
ATOM      3  C   UNL     1     -11.480  18.736 -14.205  1.00  0.00     0.027 C 
BRANCH   3   4
ATOM      4  C   UNL     1     -12.295  19.580 -13.211  1.00  0.00     0.004 C 
BRANCH   4   5
ATOM      5  C   UNL     1     -13.101  18.758 -12.184  1.00  0.00     0.000 C 
BRANCH   5   6
ATOM      6  C   UNL     1     -13.101  19.323 -10.753  1.00  0.00     0.000 C 
BRANCH   6   7
ATOM      7  C   UNL     1     -12.599  18.312  -9.711  1.00  0.00     0.000 C 
BRANCH   7   8
ATOM      8  C   UNL     1     -13.115  18.667  -8.309  1.00  0.00     0.006 C 
BRANCH   8   9
ATOM      9  C   UNL     1     -13.498  20.148  -8.189  1.00  0.00     0.053 C 
BRANCH   9  10
ATOM     10  C   UNL     1     -12.391  20.961  -7.589  1.00  0.00     0.041 C 
ATOM     11  O   UNL     1     -12.405  21.243  -6.362  1.00  0.00    -0.550 OA
ATOM     12  O   UNL     1     -11.329  21.380  -8.380  1.00  0.00    -0.550 OA
ENDBRANCH   9  10
ENDBRANCH   8   9
ENDBRANCH   7   8
ENDBRANCH   6   7
ENDBRANCH   5   6
ENDBRANCH   4   5
ENDBRANCH   3   4
ENDBRANCH   1   3
BRANCH   2  13
ATOM     13  C   UNL     1     -10.860  19.983 -17.823  1.00  0.00     0.027 C 
BRANCH  13  14
ATOM     14  C   UNL     1     -11.938  19.125 -18.501  1.00  0.00     0.004 C 
BRANCH  14  15
ATOM     15  C   UNL     1     -12.311  19.641 -19.901  1.00  0.00     0.000 C 
BRANCH  15  16
ATOM     16  C   UNL     1     -13.827  19.644 -20.146  1.00  0.00     0.000 C 
BRANCH  16  17
ATOM     17  C   UNL     1     -14.246  20.872 -20.968  1.00  0.00    -0.000 C 
BRANCH  17  18
ATOM     18  C   UNL     1     -14.426  20.561 -22.464  1.00  0.00    -0.000 C 
BRANCH  18  19
ATOM     19  C   UNL     1     -13.241  19.828 -23.119  1.00  0.00    -0.003 C 
ATOM     20  C   UNL     1     -11.957  20.655 -23.125  1.00  0.00     0.004 C 
ENDBRANCH  18  19
ENDBRANCH  17  18
ENDBRANCH  16  17
ENDBRANCH  15  16
ENDBRANCH  14  15
ENDBRANCH  13  14
ENDBRANCH   2  13
TORSDOF 15
ENDMDL
MODEL 4
REMARK VINA RESULT:    10.283      5.044     11.187
REMARK INTER + INTRA:          19.001
REMARK INTER:                  19.725
REMARK INTRA:                  -0.723
REMARK UNBOUND:                -0.299
REMARK SMILES CCCCCCCCC=CCCCCCCCC(=O)[O-]
REMARK SMILES IDX 10 1 9 2 11 3 12 4 13 5 14 6 15 7 16 8 17 9 18 10 19 11
REMARK SMILES IDX 20 12 8 13 7 14 6 15 5 16 4 17 3 18 2 19 1 20
REMARK H PARENT
REMARK Flexibility Score: inf
ROOT
ATOM      1  C   UNL     1     -13.085  18.752 -14.963  1.00  0.00    -0.031 C 
ATOM      2  C   UNL     1     -13.157  18.361 -16.245  1.00  0.00    -0.031 C 
ENDROOT
BRANCH   1   3
ATOM      3  C   UNL     1     -11.842  19.385 -14.399  1.00  0.00     0.027 C 
BRANCH   3   4
ATOM      4  C   UNL     1     -11.822  19.386 -12.861  1.00  0.00     0.004 C 
BRANCH   4   5
ATOM      5  C   UNL     1     -13.129  18.897 -12.204  1.00  0.00     0.000 C 
BRANCH   5   6
ATOM      6  C   UNL     1     -13.433  19.509 -10.825  1.00  0.00     0.000 C 
BRANCH   6   7
ATOM      7  C   UNL     1     -13.539  18.455  -9.713  1.00  0.00     0.000 C 
BRANCH   7   8
ATOM      8  C   UNL     1     -12.436  18.651  -8.663  1.00  0.00     0.006 C 
BRANCH   8   9
ATOM      9  C   UNL     1     -12.929  19.439  -7.443  1.00  0.00     0.053 C 
BRANCH   9  10
ATOM     10  C   UNL     1     -12.376  20.832  -7.422  1.00  0.00     0.041 C 
ATOM     11  O   UNL     1     -11.683  21.254  -8.385  1.00  0.00    -0.550 OA
ATOM     12  O   UNL     1     -12.653  21.673  -6.353  1.00  0.00    -0.550 OA
ENDBRANCH   9  10
ENDBRANCH   8   9
ENDBRANCH   7   8
ENDBRANCH   6   7
ENDBRANCH   5   6
ENDBRANCH   4   5
ENDBRANCH   3   4
ENDBRANCH   1   3
BRANCH   2  13
ATOM     13  C   UNL     1     -14.411  17.732 -16.785  1.00  0.00     0.027 C 
BRANCH  13  14
ATOM     14  C   UNL     1     -14.431  17.767 -18.320  1.00  0.00     0.004 C 
BRANCH  14  15
ATOM     15  C   UNL     1     -14.667  19.180 -18.876  1.00  0.00     0.000 C 
BRANCH  15  16
ATOM     16  C   UNL     1     -13.930  19.425 -20.201  1.00  0.00     0.000 C 
BRANCH  16  17
ATOM     17  C   UNL     1     -14.256  20.819 -20.759  1.00  0.00    -0.000 C 
BRANCH  17  18
ATOM     18  C   UNL     1     -14.260  20.864 -22.298  1.00  0.00    -0.000 C 
BRANCH  18  19
ATOM     19  C   UNL     1     -13.449  19.748 -22.980  1.00  0.00    -0.003 C 
ATOM     20  C   UNL     1     -11.958  20.067 -23.077  1.00  0.00     0.004 C 
ENDBRANCH  18  19
ENDBRANCH  17  18
ENDBRANCH  16  17
ENDBRANCH  15  16
ENDBRANCH  14  15
ENDBRANCH  13  14
ENDBRANCH   2  13
TORSDOF 15
ENDMDL
MODEL 5
REMARK VINA RESULT:    10.445      1.682      2.124
REMARK INTER + INTRA:          19.306
REMARK INTER:                  19.873
REMARK INTRA:                  -0.568
REMARK UNBOUND:                -0.299
REMARK SMILES CCCCCCCCC=CCCCCCCCC(=O)[O-]
REMARK SMILES IDX 10 1 9 2 11 3 12 4 13 5 14 6 15 7 16 8 17 9 18 10 19 11
REMARK SMILES IDX 20 12 8 13 7 14 6 15 5 16 4 17 3 18 2 19 1 20
REMARK H PARENT
REMARK Flexibility Score: inf
ROOT
ATOM      1  C   UNL     1     -11.667  19.051 -15.464  1.00  0.00    -0.031 C 
ATOM      2  C   UNL     1     -11.697  19.513 -14.205  1.00  0.00    -0.031 C 
ENDROOT
BRANCH   1   3
ATOM      3  C   UNL     1     -10.542  19.392 -16.404  1.00  0.00     0.027 C 
BRANCH   3   4
ATOM      4  C   UNL     1     -11.035  20.044 -17.708  1.00  0.00     0.004 C 
BRANCH   4   5
ATOM      5  C   UNL     1     -11.580  19.049 -18.754  1.00  0.00     0.000 C 
BRANCH   5   6
ATOM      6  C   UNL     1     -12.124  19.693 -20.041  1.00  0.00     0.000 C 
BRANCH   6   7
ATOM      7  C   UNL     1     -11.187  19.507 -21.244  1.00  0.00     0.000 C 
BRANCH   7   8
ATOM      8  C   UNL     1     -11.932  19.752 -22.564  1.00  0.00     0.006 C 
BRANCH   8   9
ATOM      9  C   UNL     1     -12.962  20.882 -22.448  1.00  0.00     0.053 C 
BRANCH   9  10
ATOM     10  C   UNL     1     -14.352  20.351 -22.269  1.00  0.00     0.041 C 
ATOM     11  O   UNL     1     -14.713  19.306 -22.872  1.00  0.00    -0.550 OA
ATOM     12  O   UNL     1     -15.237  20.992 -21.412  1.00  0.00    -0.550 OA
ENDBRANCH   9  10
ENDBRANCH   8   9
ENDBRANCH   7   8
ENDBRANCH   6   7
ENDBRANCH   5   6
ENDBRANCH   4   5
ENDBRANCH   3   4
ENDBRANCH   1   3
BRANCH   2  13
ATOM     13  C   UNL     1     -12.831  19.157 -13.284  1.00  0.00     0.027 C 
BRANCH  13  14
ATOM     14  C   UNL     1     -12.522  19.573 -11.839  1.00  0.00     0.004 C 
BRANCH  14  15
ATOM     15  C   UNL     1     -13.347  18.785 -10.808  1.00  0.00     0.000 C 
BRANCH  15  16
ATOM     16  C   UNL     1     -12.472  17.942  -9.870  1.00  0.00     0.000 C 
BRANCH  16  17
ATOM     17  C   UNL     1     -12.764  18.278  -8.400  1.00  0.00    -0.000 C 
BRANCH  17  18
ATOM     18  C   UNL     1     -13.548  19.591  -8.228  1.00  0.00    -0.000 C 
BRANCH  18  19
ATOM     19  C   UNL     1     -12.837  20.664  -7.385  1.00  0.00    -0.003 C 
ATOM     20  C   UNL     1     -11.696  21.352  -8.133  1.00  0.00     0.004 C 
ENDBRANCH  18  19
ENDBRANCH  17  18
ENDBRANCH  16  17
ENDBRANCH  15  16
ENDBRANCH  14  15
ENDBRANCH  13  14
ENDBRANCH   2  13
TORSDOF 15
ENDMDL
MODEL 6
REMARK VINA RESULT:    10.664      5.278     11.262
REMARK INTER + INTRA:          19.717
REMARK INTER:                  19.356
REMARK INTRA:                   0.361
REMARK UNBOUND:                -0.299
REMARK SMILES CCCCCCCCC=CCCCCCCCC(=O)[O-]
REMARK SMILES IDX 10 1 9 2 11 3 12 4 13 5 14 6 15 7 16 8 17 9 18 10 19 11
REMARK SMILES IDX 20 12 8 13 7 14 6 15 5 16 4 17 3 18 2 19 1 20
REMARK H PARENT
REMARK Flexibility Score: inf
ROOT
ATOM      1  C   UNL     1     -11.584  18.996 -15.908  1.00  0.00    -0.031 C 
ATOM      2  C   UNL     1     -10.986  19.541 -16.977  1.00  0.00    -0.031 C 
ENDROOT
BRANCH   1   3
ATOM      3  C   UNL     1     -11.399  19.561 -14.525  1.00  0.00     0.027 C 
BRANCH   3   4
ATOM      4  C   UNL     1     -12.660  19.427 -13.654  1.00  0.00     0.004 C 
BRANCH   4   5
ATOM      5  C   UNL     1     -12.386  19.370 -12.137  1.00  0.00     0.000 C 
BRANCH   5   6
ATOM      6  C   UNL     1     -13.451  18.625 -11.311  1.00  0.00     0.000 C 
BRANCH   6   7
ATOM      7  C   UNL     1     -12.843  17.630 -10.312  1.00  0.00     0.000 C 
BRANCH   7   8
ATOM      8  C   UNL     1     -12.596  18.298  -8.952  1.00  0.00     0.006 C 
BRANCH   8   9
ATOM      9  C   UNL     1     -13.116  19.741  -8.911  1.00  0.00     0.053 C 
BRANCH   9  10
ATOM     10  C   UNL     1     -12.656  20.462  -7.681  1.00  0.00     0.041 C 
ATOM     11  O   UNL     1     -13.043  20.084  -6.543  1.00  0.00    -0.550 OA
ATOM     12  O   UNL     1     -11.776  21.531  -7.789  1.00  0.00    -0.550 OA
ENDBRANCH   9  10
ENDBRANCH   8   9
ENDBRANCH   7   8
ENDBRANCH   6   7
ENDBRANCH   5   6
ENDBRANCH   4   5
ENDBRANCH   3   4
ENDBRANCH   1   3
BRANCH   2  13
ATOM     13  C   UNL     1     -11.189  18.959 -18.348  1.00  0.00     0.027 C 
BRANCH  13  14
ATOM     14  C   UNL     1     -11.860  19.972 -19.286  1.00  0.00     0.004 C 
BRANCH  14  15
ATOM     15  C   UNL     1     -12.293  19.345 -20.622  1.00  0.00     0.000 C 
BRANCH  15  16
ATOM     16  C   UNL     1     -11.462  19.851 -21.810  1.00  0.00     0.000 C 
BRANCH  16  17
ATOM     17  C   UNL     1     -12.243  19.707 -23.124  1.00  0.00    -0.000 C 
BRANCH  17  18
ATOM     18  C   UNL     1     -13.764  19.864 -22.941  1.00  0.00    -0.000 C 
BRANCH  18  19
ATOM     19  C   UNL     1     -14.198  21.151 -22.218  1.00  0.00    -0.003 C 
ATOM     20  C   UNL     1     -14.930  20.880 -20.905  1.00  0.00     0.004 C 
ENDBRANCH  18  19
ENDBRANCH  17  18
ENDBRANCH  16  17
ENDBRANCH  15  16
ENDBRANCH  14  15
ENDBRANCH  13  14
ENDBRANCH   2  13
TORSDOF 15
ENDMDL
