MODEL 1
REMARK VINA RESULT:     0.493      0.000      0.000
REMARK INTER + INTRA:          -0.093
REMARK INTER:                   0.955
REMARK INTRA:                  -1.048
REMARK UNBOUND:                -1.048
REMARK SMILES CCCCCCCCCCCCCCCCCC(=O)[O-]
REMARK SMILES IDX 10 1 11 2 12 3 13 4 14 5 15 6 16 7 17 8 18 9 19 10 20 11
REMARK SMILES IDX 9 12 8 13 7 14 6 15 5 16 4 17 3 18 2 19 1 20
REMARK H PARENT
REMARK Flexibility Score: inf
ROOT
ATOM      1  C   UNL     1      -4.876  35.367  21.471  1.00  0.00     0.000 C 
ENDROOT
BRANCH   1   2
ATOM      2  C   UNL     1      -4.645  34.484  22.710  1.00  0.00     0.000 C 
BRANCH   2   3
ATOM      3  C   UNL     1      -5.961  34.044  23.373  1.00  0.00     0.000 C 
BRANCH   3   4
ATOM      4  C   UNL     1      -6.125  34.609  24.795  1.00  0.00     0.000 C 
BRANCH   4   5
ATOM      5  C   UNL     1      -5.111  35.723  25.107  1.00  0.00     0.000 C 
BRANCH   5   6
ATOM      6  C   UNL     1      -5.744  37.125  25.071  1.00  0.00     0.000 C 
BRANCH   6   7
ATOM      7  C   UNL     1      -5.876  37.688  23.644  1.00  0.00     0.006 C 
BRANCH   7   8
ATOM      8  C   UNL     1      -5.563  39.190  23.531  1.00  0.00     0.053 C 
BRANCH   8   9
ATOM      9  C   UNL     1      -5.517  39.664  22.111  1.00  0.00     0.041 C 
ATOM     10  O   UNL     1      -5.430  40.894  21.857  1.00  0.00    -0.550 OA
ATOM     11  O   UNL     1      -5.534  38.747  21.067  1.00  0.00    -0.550 OA
ENDBRANCH   8   9
ENDBRANCH   7   8
ENDBRANCH   6   7
ENDBRANCH   5   6
ENDBRANCH   4   5
ENDBRANCH   3   4
ENDBRANCH   2   3
ENDBRANCH   1   2
BRANCH   1  12
ATOM     12  C   UNL     1      -6.121  34.948  20.673  1.00  0.00     0.000 C 
BRANCH  12  13
ATOM     13  C   UNL     1      -5.778  34.418  19.270  1.00  0.00    -0.000 C 
BRANCH  13  14
ATOM     14  C   UNL     1      -4.694  35.254  18.564  1.00  0.00    -0.000 C 
BRANCH  14  15
ATOM     15  C   UNL     1      -3.936  34.523  17.439  1.00  0.00    -0.000 C 
BRANCH  15  16
ATOM     16  C   UNL     1      -4.033  35.245  16.085  1.00  0.00    -0.000 C 
BRANCH  16  17
ATOM     17  C   UNL     1      -2.703  35.892  15.666  1.00  0.00    -0.000 C 
BRANCH  17  18
ATOM     18  C   UNL     1      -2.736  36.443  14.229  1.00  0.00    -0.000 C 
BRANCH  18  19
ATOM     19  C   UNL     1      -4.085  37.085  13.877  1.00  0.00    -0.003 C 
ATOM     20  C   UNL     1      -4.159  38.559  14.273  1.00  0.00     0.004 C 
ENDBRANCH  18  19
ENDBRANCH  17  18
ENDBRANCH  16  17
ENDBRANCH  15  16
ENDBRANCH  14  15
ENDBRANCH  13  14
ENDBRANCH  12  13
ENDBRANCH   1  12
TORSDOF 16
ENDMDL
MODEL 2
REMARK VINA RESULT:     0.566      1.943      3.338
REMARK INTER + INTRA:           0.047
REMARK INTER:                  -1.843
REMARK INTRA:                   1.890
REMARK UNBOUND:                -1.048
REMARK SMILES CCCCCCCCCCCCCCCCCC(=O)[O-]
REMARK SMILES IDX 10 1 11 2 12 3 13 4 14 5 15 6 16 7 17 8 18 9 19 10 20 11
REMARK SMILES IDX 9 12 8 13 7 14 6 15 5 16 4 17 3 18 2 19 1 20
REMARK H PARENT
REMARK Flexibility Score: inf
ROOT
ATOM      1  C   UNL     1      -5.113  35.033  19.685  1.00  0.00     0.000 C 
ENDROOT
BRANCH   1   2
ATOM      2  C   UNL     1      -4.703  36.503  19.483  1.00  0.00     0.000 C 
BRANCH   2   3
ATOM      3  C   UNL     1      -5.704  37.486  20.112  1.00  0.00     0.000 C 
BRANCH   3   4
ATOM      4  C   UNL     1      -5.400  37.772  21.593  1.00  0.00     0.000 C 
BRANCH   4   5
ATOM      5  C   UNL     1      -6.125  36.803  22.542  1.00  0.00     0.000 C 
BRANCH   5   6
ATOM      6  C   UNL     1      -5.609  35.359  22.420  1.00  0.00     0.000 C 
BRANCH   6   7
ATOM      7  C   UNL     1      -5.526  34.634  23.776  1.00  0.00     0.006 C 
BRANCH   7   8
ATOM      8  C   UNL     1      -6.105  35.438  24.953  1.00  0.00     0.053 C 
BRANCH   8   9
ATOM      9  C   UNL     1      -5.274  36.637  25.296  1.00  0.00     0.041 C 
ATOM     10  O   UNL     1      -5.625  37.782  24.907  1.00  0.00    -0.550 OA
ATOM     11  O   UNL     1      -4.132  36.496  26.074  1.00  0.00    -0.550 OA
ENDBRANCH   8   9
ENDBRANCH   7   8
ENDBRANCH   6   7
ENDBRANCH   5   6
ENDBRANCH   4   5
ENDBRANCH   3   4
ENDBRANCH   2   3
ENDBRANCH   1   2
BRANCH   1  12
ATOM     12  C   UNL     1      -5.380  34.308  18.356  1.00  0.00     0.000 C 
BRANCH  12  13
ATOM     13  C   UNL     1      -4.116  34.173  17.488  1.00  0.00    -0.000 C 
BRANCH  13  14
ATOM     14  C   UNL     1      -3.926  35.357  16.522  1.00  0.00    -0.000 C 
BRANCH  14  15
ATOM     15  C   UNL     1      -2.534  35.448  15.868  1.00  0.00    -0.000 C 
BRANCH  15  16
ATOM     16  C   UNL     1      -2.576  36.051  14.454  1.00  0.00    -0.000 C 
BRANCH  16  17
ATOM     17  C   UNL     1      -3.904  36.767  14.158  1.00  0.00    -0.000 C 
BRANCH  17  18
ATOM     18  C   UNL     1      -3.866  38.263  14.520  1.00  0.00    -0.000 C 
BRANCH  18  19
ATOM     19  C   UNL     1      -5.016  39.053  13.875  1.00  0.00    -0.003 C 
ATOM     20  C   UNL     1      -5.080  40.501  14.358  1.00  0.00     0.004 C 
ENDBRANCH  18  19
ENDBRANCH  17  18
ENDBRANCH  16  17
ENDBRANCH  15  16
ENDBRANCH  14  15
ENDBRANCH  13  14
ENDBRANCH  12  13
ENDBRANCH   1  12
TORSDOF 16
ENDMDL
MODEL 3
REMARK VINA RESULT:     1.298      2.463      7.203
REMARK INTER + INTRA:           1.464
REMARK INTER:                   2.510
REMARK INTRA:                  -1.047
REMARK UNBOUND:                -1.048
REMARK SMILES CCCCCCCCCCCCCCCCCC(=O)[O-]
REMARK SMILES IDX 10 1 11 2 12 3 13 4 14 5 15 6 16 7 17 8 18 9 19 10 20 11
REMARK SMILES IDX 9 12 8 13 7 14 6 15 5 16 4 17 3 18 2 19 1 20
REMARK H PARENT
REMARK Flexibility Score: inf
ROOT
ATOM      1  C   UNL     1      -4.865  35.244  21.974  1.00  0.00     0.000 C 
ENDROOT
BRANCH   1   2
ATOM      2  C   UNL     1      -4.713  34.549  20.609  1.00  0.00     0.000 C 
BRANCH   2   3
ATOM      3  C   UNL     1      -5.865  34.882  19.647  1.00  0.00     0.000 C 
BRANCH   3   4
ATOM      4  C   UNL     1      -5.509  34.594  18.178  1.00  0.00     0.000 C 
BRANCH   4   5
ATOM      5  C   UNL     1      -4.205  35.280  17.740  1.00  0.00     0.000 C 
BRANCH   5   6
ATOM      6  C   UNL     1      -3.785  34.894  16.312  1.00  0.00     0.000 C 
BRANCH   6   7
ATOM      7  C   UNL     1      -2.426  35.492  15.902  1.00  0.00     0.006 C 
BRANCH   7   8
ATOM      8  C   UNL     1      -2.461  36.280  14.582  1.00  0.00     0.053 C 
BRANCH   8   9
ATOM      9  C   UNL     1      -3.752  37.015  14.383  1.00  0.00     0.041 C 
ATOM     10  O   UNL     1      -3.827  38.244  14.646  1.00  0.00    -0.550 OA
ATOM     11  O   UNL     1      -4.862  36.353  13.875  1.00  0.00    -0.550 OA
ENDBRANCH   8   9
ENDBRANCH   7   8
ENDBRANCH   6   7
ENDBRANCH   5   6
ENDBRANCH   4   5
ENDBRANCH   3   4
ENDBRANCH   2   3
ENDBRANCH   1   2
BRANCH   1  12
ATOM     12  C   UNL     1      -6.123  34.788  22.730  1.00  0.00     0.000 C 
BRANCH  12  13
ATOM     13  C   UNL     1      -5.841  34.454  24.206  1.00  0.00    -0.000 C 
BRANCH  13  14
ATOM     14  C   UNL     1      -5.464  35.694  25.038  1.00  0.00    -0.000 C 
BRANCH  14  15
ATOM     15  C   UNL     1      -6.053  37.023  24.530  1.00  0.00    -0.000 C 
BRANCH  15  16
ATOM     16  C   UNL     1      -5.058  38.192  24.621  1.00  0.00    -0.000 C 
BRANCH  16  17
ATOM     17  C   UNL     1      -5.383  39.320  23.629  1.00  0.00    -0.000 C 
BRANCH  17  18
ATOM     18  C   UNL     1      -5.990  38.800  22.314  1.00  0.00    -0.000 C 
BRANCH  18  19
ATOM     19  C   UNL     1      -5.019  38.920  21.130  1.00  0.00    -0.003 C 
ATOM     20  C   UNL     1      -5.480  38.130  19.905  1.00  0.00     0.004 C 
ENDBRANCH  18  19
ENDBRANCH  17  18
ENDBRANCH  16  17
ENDBRANCH  15  16
ENDBRANCH  14  15
ENDBRANCH  13  14
ENDBRANCH  12  13
ENDBRANCH   1  12
TORSDOF 16
ENDMDL
MODEL 4
REMARK VINA RESULT:     1.522      1.972      3.342
REMARK INTER + INTRA:           1.898
REMARK INTER:                   1.317
REMARK INTRA:                   0.581
REMARK UNBOUND:                -1.048
REMARK SMILES CCCCCCCCCCCCCCCCCC(=O)[O-]
REMARK SMILES IDX 10 1 11 2 12 3 13 4 14 5 15 6 16 7 17 8 18 9 19 10 20 11
REMARK SMILES IDX 9 12 8 13 7 14 6 15 5 16 4 17 3 18 2 19 1 20
REMARK H PARENT
REMARK Flexibility Score: inf
ROOT
ATOM      1  C   UNL     1      -5.307  36.491  20.984  1.00  0.00     0.000 C 
ENDROOT
BRANCH   1   2
ATOM      2  C   UNL     1      -5.029  37.825  20.265  1.00  0.00     0.000 C 
BRANCH   2   3
ATOM      3  C   UNL     1      -5.675  39.024  20.979  1.00  0.00     0.000 C 
BRANCH   3   4
ATOM      4  C   UNL     1      -5.226  39.151  22.445  1.00  0.00     0.000 C 
BRANCH   4   5
ATOM      5  C   UNL     1      -5.593  37.916  23.284  1.00  0.00     0.000 C 
BRANCH   5   6
ATOM      6  C   UNL     1      -4.636  37.701  24.470  1.00  0.00     0.000 C 
BRANCH   6   7
ATOM      7  C   UNL     1      -5.106  36.591  25.427  1.00  0.00     0.006 C 
BRANCH   7   8
ATOM      8  C   UNL     1      -6.119  35.614  24.806  1.00  0.00     0.053 C 
BRANCH   8   9
ATOM      9  C   UNL     1      -5.471  34.606  23.906  1.00  0.00     0.041 C 
ATOM     10  O   UNL     1      -6.064  33.531  23.630  1.00  0.00    -0.550 OA
ATOM     11  O   UNL     1      -4.228  34.869  23.344  1.00  0.00    -0.550 OA
ENDBRANCH   8   9
ENDBRANCH   7   8
ENDBRANCH   6   7
ENDBRANCH   5   6
ENDBRANCH   4   5
ENDBRANCH   3   4
ENDBRANCH   2   3
ENDBRANCH   1   2
BRANCH   1  12
ATOM     12  C   UNL     1      -6.000  35.465  20.072  1.00  0.00     0.000 C 
BRANCH  12  13
ATOM     13  C   UNL     1      -5.013  34.728  19.149  1.00  0.00    -0.000 C 
BRANCH  13  14
ATOM     14  C   UNL     1      -4.868  35.399  17.771  1.00  0.00    -0.000 C 
BRANCH  14  15
ATOM     15  C   UNL     1      -3.815  34.764  16.844  1.00  0.00    -0.000 C 
BRANCH  15  16
ATOM     16  C   UNL     1      -2.987  35.807  16.075  1.00  0.00    -0.000 C 
BRANCH  16  17
ATOM     17  C   UNL     1      -3.234  35.751  14.558  1.00  0.00    -0.000 C 
BRANCH  17  18
ATOM     18  C   UNL     1      -3.350  37.148  13.922  1.00  0.00    -0.000 C 
BRANCH  18  19
ATOM     19  C   UNL     1      -4.784  37.697  13.970  1.00  0.00    -0.003 C 
ATOM     20  C   UNL     1      -4.835  39.222  13.875  1.00  0.00     0.004 C 
ENDBRANCH  18  19
ENDBRANCH  17  18
ENDBRANCH  16  17
ENDBRANCH  15  16
ENDBRANCH  14  15
ENDBRANCH  13  14
ENDBRANCH  12  13
ENDBRANCH   1  12
TORSDOF 16
ENDMDL
MODEL 5
REMARK VINA RESULT:     1.820      2.069      3.211
REMARK INTER + INTRA:           2.474
REMARK INTER:                   2.903
REMARK INTRA:                  -0.429
REMARK UNBOUND:                -1.048
REMARK SMILES CCCCCCCCCCCCCCCCCC(=O)[O-]
REMARK SMILES IDX 10 1 11 2 12 3 13 4 14 5 15 6 16 7 17 8 18 9 19 10 20 11
REMARK SMILES IDX 9 12 8 13 7 14 6 15 5 16 4 17 3 18 2 19 1 20
REMARK H PARENT
REMARK Flexibility Score: inf
ROOT
ATOM      1  C   UNL     1      -4.486  35.488  21.204  1.00  0.00     0.000 C 
ENDROOT
BRANCH   1   2
ATOM      2  C   UNL     1      -5.819  36.234  21.010  1.00  0.00     0.000 C 
BRANCH   2   3
ATOM      3  C   UNL     1      -5.750  37.281  19.885  1.00  0.00     0.000 C 
BRANCH   3   4
ATOM      4  C   UNL     1      -4.969  38.541  20.299  1.00  0.00     0.000 C 
BRANCH   4   5
ATOM      5  C   UNL     1      -5.651  39.309  21.442  1.00  0.00     0.000 C 
BRANCH   5   6
ATOM      6  C   UNL     1      -4.901  39.170  22.778  1.00  0.00     0.000 C 
BRANCH   6   7
ATOM      7  C   UNL     1      -5.759  38.534  23.886  1.00  0.00     0.006 C 
BRANCH   7   8
ATOM      8  C   UNL     1      -5.825  36.998  23.825  1.00  0.00     0.053 C 
BRANCH   8   9
ATOM      9  C   UNL     1      -5.472  36.353  25.130  1.00  0.00     0.041 C 
ATOM     10  O   UNL     1      -4.610  36.878  25.883  1.00  0.00    -0.550 OA
ATOM     11  O   UNL     1      -6.121  35.193  25.534  1.00  0.00    -0.550 OA
ENDBRANCH   8   9
ENDBRANCH   7   8
ENDBRANCH   6   7
ENDBRANCH   5   6
ENDBRANCH   4   5
ENDBRANCH   3   4
ENDBRANCH   2   3
ENDBRANCH   1   2
BRANCH   1  12
ATOM     12  C   UNL     1      -4.064  34.703  19.951  1.00  0.00     0.000 C 
BRANCH  12  13
ATOM     13  C   UNL     1      -5.261  34.301  19.070  1.00  0.00    -0.000 C 
BRANCH  13  14
ATOM     14  C   UNL     1      -4.906  34.235  17.573  1.00  0.00    -0.000 C 
BRANCH  14  15
ATOM     15  C   UNL     1      -4.103  35.436  17.040  1.00  0.00    -0.000 C 
BRANCH  15  16
ATOM     16  C   UNL     1      -2.857  35.017  16.242  1.00  0.00    -0.000 C 
BRANCH  16  17
ATOM     17  C   UNL     1      -2.345  36.135  15.320  1.00  0.00    -0.000 C 
BRANCH  17  18
ATOM     18  C   UNL     1      -2.994  36.100  13.924  1.00  0.00    -0.000 C 
BRANCH  18  19
ATOM     19  C   UNL     1      -4.325  36.865  13.875  1.00  0.00    -0.003 C 
ATOM     20  C   UNL     1      -4.199  38.300  14.385  1.00  0.00     0.004 C 
ENDBRANCH  18  19
ENDBRANCH  17  18
ENDBRANCH  16  17
ENDBRANCH  15  16
ENDBRANCH  14  15
ENDBRANCH  13  14
ENDBRANCH  12  13
ENDBRANCH   1  12
TORSDOF 16
ENDMDL
MODEL 6
REMARK VINA RESULT:     2.016      2.664      3.674
REMARK INTER + INTRA:           2.854
REMARK INTER:                   3.477
REMARK INTRA:                  -0.623
REMARK UNBOUND:                -1.048
REMARK SMILES CCCCCCCCCCCCCCCCCC(=O)[O-]
REMARK SMILES IDX 10 1 11 2 12 3 13 4 14 5 15 6 16 7 17 8 18 9 19 10 20 11
REMARK SMILES IDX 9 12 8 13 7 14 6 15 5 16 4 17 3 18 2 19 1 20
REMARK H PARENT
REMARK Flexibility Score: inf
ROOT
ATOM      1  C   UNL     1      -5.369  37.901  19.998  1.00  0.00     0.000 C 
ENDROOT
BRANCH   1   2
ATOM      2  C   UNL     1      -6.076  38.762  21.060  1.00  0.00     0.000 C 
BRANCH   2   3
ATOM      3  C   UNL     1      -5.093  39.369  22.076  1.00  0.00     0.000 C 
BRANCH   3   4
ATOM      4  C   UNL     1      -5.386  38.925  23.519  1.00  0.00     0.000 C 
BRANCH   4   5
ATOM      5  C   UNL     1      -5.816  37.451  23.608  1.00  0.00     0.000 C 
BRANCH   5   6
ATOM      6  C   UNL     1      -5.926  36.954  25.059  1.00  0.00     0.000 C 
BRANCH   6   7
ATOM      7  C   UNL     1      -4.568  36.545  25.659  1.00  0.00     0.006 C 
BRANCH   7   8
ATOM      8  C   UNL     1      -3.867  37.665  26.446  1.00  0.00     0.053 C 
BRANCH   8   9
ATOM      9  C   UNL     1      -2.528  37.249  26.973  1.00  0.00     0.041 C 
ATOM     10  O   UNL     1      -2.367  36.097  27.454  1.00  0.00    -0.550 OA
ATOM     11  O   UNL     1      -1.447  38.119  26.901  1.00  0.00    -0.550 OA
ENDBRANCH   8   9
ENDBRANCH   7   8
ENDBRANCH   6   7
ENDBRANCH   5   6
ENDBRANCH   4   5
ENDBRANCH   3   4
ENDBRANCH   2   3
ENDBRANCH   1   2
BRANCH   1  12
ATOM     12  C   UNL     1      -5.046  36.486  20.506  1.00  0.00     0.000 C 
BRANCH  12  13
ATOM     13  C   UNL     1      -5.498  35.386  19.528  1.00  0.00    -0.000 C 
BRANCH  13  14
ATOM     14  C   UNL     1      -4.316  34.658  18.861  1.00  0.00    -0.000 C 
BRANCH  14  15
ATOM     15  C   UNL     1      -4.415  34.523  17.330  1.00  0.00    -0.000 C 
BRANCH  15  16
ATOM     16  C   UNL     1      -3.860  35.748  16.584  1.00  0.00    -0.000 C 
BRANCH  16  17
ATOM     17  C   UNL     1      -2.655  35.400  15.695  1.00  0.00    -0.000 C 
BRANCH  17  18
ATOM     18  C   UNL     1      -2.696  36.113  14.331  1.00  0.00    -0.000 C 
BRANCH  18  19
ATOM     19  C   UNL     1      -4.074  36.716  14.025  1.00  0.00    -0.003 C 
ATOM     20  C   UNL     1      -4.132  38.221  14.286  1.00  0.00     0.004 C 
ENDBRANCH  18  19
ENDBRANCH  17  18
ENDBRANCH  16  17
ENDBRANCH  15  16
ENDBRANCH  14  15
ENDBRANCH  13  14
ENDBRANCH  12  13
ENDBRANCH   1  12
TORSDOF 16
ENDMDL
MODEL 7
REMARK VINA RESULT:     2.523      1.242      2.278
REMARK INTER + INTRA:           3.836
REMARK INTER:                   3.631
REMARK INTRA:                   0.204
REMARK UNBOUND:                -1.048
REMARK SMILES CCCCCCCCCCCCCCCCCC(=O)[O-]
REMARK SMILES IDX 10 1 11 2 12 3 13 4 14 5 15 6 16 7 17 8 18 9 19 10 20 11
REMARK SMILES IDX 9 12 8 13 7 14 6 15 5 16 4 17 3 18 2 19 1 20
REMARK H PARENT
REMARK Flexibility Score: inf
ROOT
ATOM      1  C   UNL     1      -5.774  35.510  23.047  1.00  0.00     0.000 C 
ENDROOT
BRANCH   1   2
ATOM      2  C   UNL     1      -6.125  35.144  24.501  1.00  0.00     0.000 C 
BRANCH   2   3
ATOM      3  C   UNL     1      -5.625  36.192  25.509  1.00  0.00     0.000 C 
BRANCH   3   4
ATOM      4  C   UNL     1      -4.742  37.268  24.854  1.00  0.00     0.000 C 
BRANCH   4   5
ATOM      5  C   UNL     1      -5.491  38.592  24.633  1.00  0.00     0.000 C 
BRANCH   5   6
ATOM      6  C   UNL     1      -4.851  39.458  23.535  1.00  0.00     0.000 C 
BRANCH   6   7
ATOM      7  C   UNL     1      -5.622  39.407  22.203  1.00  0.00     0.006 C 
BRANCH   7   8
ATOM      8  C   UNL     1      -5.421  38.102  21.413  1.00  0.00     0.053 C 
BRANCH   8   9
ATOM      9  C   UNL     1      -5.440  38.318  19.930  1.00  0.00     0.041 C 
ATOM     10  O   UNL     1      -6.072  39.290  19.440  1.00  0.00    -0.550 OA
ATOM     11  O   UNL     1      -4.731  37.467  19.092  1.00  0.00    -0.550 OA
ENDBRANCH   8   9
ENDBRANCH   7   8
ENDBRANCH   6   7
ENDBRANCH   5   6
ENDBRANCH   4   5
ENDBRANCH   3   4
ENDBRANCH   2   3
ENDBRANCH   1   2
BRANCH   1  12
ATOM     12  C   UNL     1      -4.975  34.404  22.339  1.00  0.00     0.000 C 
BRANCH  12  13
ATOM     13  C   UNL     1      -4.498  34.822  20.936  1.00  0.00    -0.000 C 
BRANCH  13  14
ATOM     14  C   UNL     1      -5.608  34.724  19.874  1.00  0.00    -0.000 C 
BRANCH  14  15
ATOM     15  C   UNL     1      -5.169  34.125  18.525  1.00  0.00    -0.000 C 
BRANCH  15  16
ATOM     16  C   UNL     1      -4.656  35.186  17.537  1.00  0.00    -0.000 C 
BRANCH  16  17
ATOM     17  C   UNL     1      -3.582  34.634  16.585  1.00  0.00    -0.000 C 
BRANCH  17  18
ATOM     18  C   UNL     1      -2.845  35.743  15.812  1.00  0.00    -0.000 C 
BRANCH  18  19
ATOM     19  C   UNL     1      -3.423  35.962  14.406  1.00  0.00    -0.003 C 
ATOM     20  C   UNL     1      -3.852  37.409  14.163  1.00  0.00     0.004 C 
ENDBRANCH  18  19
ENDBRANCH  17  18
ENDBRANCH  16  17
ENDBRANCH  15  16
ENDBRANCH  14  15
ENDBRANCH  13  14
ENDBRANCH  12  13
ENDBRANCH   1  12
TORSDOF 16
ENDMDL
