MODEL 1
REMARK VINA RESULT:    -2.845      0.000      0.000
REMARK INTER + INTRA:          -8.060
REMARK INTER:                  -5.173
REMARK INTRA:                  -2.887
REMARK UNBOUND:                -2.887
REMARK SMILES CCCCCC=CCC=CCCCCCCCC(=O)[O-]
REMARK SMILES IDX 11 1 12 2 13 3 14 4 15 5 16 6 17 7 18 8 19 9 20 10 10 11
REMARK SMILES IDX 9 12 8 13 7 14 6 15 5 16 4 17 3 18 2 19 1 20
REMARK H PARENT
REMARK Flexibility Score: inf
ROOT
ATOM      1  C   UNL     1     124.580 126.067 121.976  1.00  0.00     0.027 C 
ENDROOT
BRANCH   1   2
ATOM      2  C   UNL     1     124.745 126.453 123.454  1.00  0.00     0.004 C 
BRANCH   2   3
ATOM      3  C   UNL     1     124.867 127.971 123.658  1.00  0.00     0.000 C 
BRANCH   3   4
ATOM      4  C   UNL     1     123.736 128.542 124.527  1.00  0.00     0.000 C 
BRANCH   4   5
ATOM      5  C   UNL     1     122.396 128.501 123.781  1.00  0.00     0.000 C 
BRANCH   5   6
ATOM      6  C   UNL     1     121.258 128.066 124.716  1.00  0.00     0.006 C 
BRANCH   6   7
ATOM      7  C   UNL     1     121.673 126.911 125.636  1.00  0.00     0.053 C 
BRANCH   7   8
ATOM      8  C   UNL     1     121.254 127.152 127.054  1.00  0.00     0.041 C 
ATOM      9  O   UNL     1     121.035 128.323 127.460  1.00  0.00    -0.550 OA
ATOM     10  O   UNL     1     121.075 126.078 127.918  1.00  0.00    -0.550 OA
ENDBRANCH   7   8
ENDBRANCH   6   7
ENDBRANCH   5   6
ENDBRANCH   4   5
ENDBRANCH   3   4
ENDBRANCH   2   3
ENDBRANCH   1   2
BRANCH   1  11
ATOM     11  C   UNL     1     123.369 125.196 121.777  1.00  0.00    -0.031 C 
ATOM     12  C   UNL     1     122.528 124.922 122.786  1.00  0.00    -0.027 C 
BRANCH  12  13
ATOM     13  C   UNL     1     121.325 124.042 122.591  1.00  0.00     0.054 C 
BRANCH  13  14
ATOM     14  C   UNL     1     121.425 122.788 123.421  1.00  0.00    -0.027 C 
ATOM     15  C   UNL     1     121.812 121.588 122.950  1.00  0.00    -0.031 C 
BRANCH  15  16
ATOM     16  C   UNL     1     122.274 121.332 121.535  1.00  0.00     0.027 C 
BRANCH  16  17
ATOM     17  C   UNL     1     123.769 121.632 121.358  1.00  0.00     0.004 C 
BRANCH  17  18
ATOM     18  C   UNL     1     124.589 121.250 122.603  1.00  0.00     0.000 C 
BRANCH  18  19
ATOM     19  C   UNL     1     125.385 122.434 123.172  1.00  0.00    -0.003 C 
ATOM     20  C   UNL     1     124.994 122.772 124.610  1.00  0.00     0.004 C 
ENDBRANCH  18  19
ENDBRANCH  17  18
ENDBRANCH  16  17
ENDBRANCH  15  16
ENDBRANCH  13  14
ENDBRANCH  12  13
ENDBRANCH   1  11
TORSDOF 14
ENDMDL
MODEL 2
REMARK VINA RESULT:    -2.768      3.027      4.866
REMARK INTER + INTRA:          -7.921
REMARK INTER:                  -5.648
REMARK INTRA:                  -2.273
REMARK UNBOUND:                -2.887
REMARK SMILES CCCCCC=CCC=CCCCCCCCC(=O)[O-]
REMARK SMILES IDX 11 1 12 2 13 3 14 4 15 5 16 6 17 7 18 8 19 9 20 10 10 11
REMARK SMILES IDX 9 12 8 13 7 14 6 15 5 16 4 17 3 18 2 19 1 20
REMARK H PARENT
REMARK Flexibility Score: inf
ROOT
ATOM      1  C   UNL     1     124.967 124.592 126.385  1.00  0.00     0.027 C 
ENDROOT
BRANCH   1   2
ATOM      2  C   UNL     1     124.824 123.542 127.498  1.00  0.00     0.004 C 
BRANCH   2   3
ATOM      3  C   UNL     1     124.117 124.096 128.744  1.00  0.00     0.000 C 
BRANCH   3   4
ATOM      4  C   UNL     1     123.751 125.581 128.604  1.00  0.00     0.000 C 
BRANCH   4   5
ATOM      5  C   UNL     1     122.237 125.789 128.742  1.00  0.00     0.000 C 
BRANCH   5   6
ATOM      6  C   UNL     1     121.646 124.843 129.799  1.00  0.00     0.006 C 
BRANCH   6   7
ATOM      7  C   UNL     1     121.053 125.603 130.991  1.00  0.00     0.053 C 
BRANCH   7   8
ATOM      8  C   UNL     1     121.745 125.254 132.273  1.00  0.00     0.041 C 
ATOM      9  O   UNL     1     121.085 125.142 133.339  1.00  0.00    -0.550 OA
ATOM     10  O   UNL     1     123.114 125.020 132.283  1.00  0.00    -0.550 OA
ENDBRANCH   7   8
ENDBRANCH   6   7
ENDBRANCH   5   6
ENDBRANCH   4   5
ENDBRANCH   3   4
ENDBRANCH   2   3
ENDBRANCH   1   2
BRANCH   1  11
ATOM     11  C   UNL     1     124.551 124.028 125.053  1.00  0.00    -0.031 C 
ATOM     12  C   UNL     1     124.117 122.765 124.931  1.00  0.00    -0.027 C 
BRANCH  12  13
ATOM     13  C   UNL     1     123.714 122.196 123.599  1.00  0.00     0.054 C 
BRANCH  13  14
ATOM     14  C   UNL     1     122.240 121.885 123.561  1.00  0.00    -0.027 C 
ATOM     15  C   UNL     1     121.298 122.707 123.063  1.00  0.00    -0.031 C 
BRANCH  15  16
ATOM     16  C   UNL     1     121.582 124.033 122.399  1.00  0.00     0.027 C 
BRANCH  16  17
ATOM     17  C   UNL     1     120.875 125.193 123.113  1.00  0.00     0.004 C 
BRANCH  17  18
ATOM     18  C   UNL     1     121.164 125.206 124.624  1.00  0.00     0.000 C 
BRANCH  18  19
ATOM     19  C   UNL     1     121.766 126.537 125.099  1.00  0.00    -0.003 C 
ATOM     20  C   UNL     1     122.713 127.156 124.071  1.00  0.00     0.004 C 
ENDBRANCH  18  19
ENDBRANCH  17  18
ENDBRANCH  16  17
ENDBRANCH  15  16
ENDBRANCH  13  14
ENDBRANCH  12  13
ENDBRANCH   1  11
TORSDOF 14
ENDMDL
MODEL 3
REMARK VINA RESULT:    -2.755      3.664      5.127
REMARK INTER + INTRA:          -7.897
REMARK INTER:                  -6.074
REMARK INTRA:                  -1.823
REMARK UNBOUND:                -2.887
REMARK SMILES CCCCCC=CCC=CCCCCCCCC(=O)[O-]
REMARK SMILES IDX 11 1 12 2 13 3 14 4 15 5 16 6 17 7 18 8 19 9 20 10 10 11
REMARK SMILES IDX 9 12 8 13 7 14 6 15 5 16 4 17 3 18 2 19 1 20
REMARK H PARENT
REMARK Flexibility Score: inf
ROOT
ATOM      1  C   UNL     1     122.189 126.201 126.362  1.00  0.00     0.027 C 
ENDROOT
BRANCH   1   2
ATOM      2  C   UNL     1     121.080 126.936 127.131  1.00  0.00     0.004 C 
BRANCH   2   3
ATOM      3  C   UNL     1     120.920 126.422 128.570  1.00  0.00     0.000 C 
BRANCH   3   4
ATOM      4  C   UNL     1     122.021 125.427 128.967  1.00  0.00     0.000 C 
BRANCH   4   5
ATOM      5  C   UNL     1     121.673 124.719 130.283  1.00  0.00     0.000 C 
BRANCH   5   6
ATOM      6  C   UNL     1     122.943 124.249 131.008  1.00  0.00     0.006 C 
BRANCH   6   7
ATOM      7  C   UNL     1     122.708 122.970 131.821  1.00  0.00     0.053 C 
BRANCH   7   8
ATOM      8  C   UNL     1     122.751 123.232 133.295  1.00  0.00     0.041 C 
ATOM      9  O   UNL     1     121.682 123.363 133.947  1.00  0.00    -0.550 OA
ATOM     10  O   UNL     1     123.972 123.300 133.954  1.00  0.00    -0.550 OA
ENDBRANCH   7   8
ENDBRANCH   6   7
ENDBRANCH   5   6
ENDBRANCH   4   5
ENDBRANCH   3   4
ENDBRANCH   2   3
ENDBRANCH   1   2
BRANCH   1  11
ATOM     11  C   UNL     1     121.642 125.534 125.129  1.00  0.00    -0.031 C 
ATOM     12  C   UNL     1     121.517 126.197 123.970  1.00  0.00    -0.027 C 
BRANCH  12  13
ATOM     13  C   UNL     1     120.958 125.535 122.740  1.00  0.00     0.054 C 
BRANCH  13  14
ATOM     14  C   UNL     1     122.056 124.971 121.877  1.00  0.00    -0.027 C 
ATOM     15  C   UNL     1     122.335 123.659 121.754  1.00  0.00    -0.031 C 
BRANCH  15  16
ATOM     16  C   UNL     1     121.543 122.551 122.406  1.00  0.00     0.027 C 
BRANCH  16  17
ATOM     17  C   UNL     1     122.215 122.046 123.690  1.00  0.00     0.004 C 
BRANCH  17  18
ATOM     18  C   UNL     1     123.748 122.166 123.629  1.00  0.00     0.000 C 
BRANCH  18  19
ATOM     19  C   UNL     1     124.327 122.939 124.823  1.00  0.00    -0.003 C 
ATOM     20  C   UNL     1     125.055 124.216 124.402  1.00  0.00     0.004 C 
ENDBRANCH  18  19
ENDBRANCH  17  18
ENDBRANCH  16  17
ENDBRANCH  15  16
ENDBRANCH  13  14
ENDBRANCH  12  13
ENDBRANCH   1  11
TORSDOF 14
ENDMDL
MODEL 4
REMARK VINA RESULT:    -2.668      3.475      5.577
REMARK INTER + INTRA:          -7.738
REMARK INTER:                  -5.708
REMARK INTRA:                  -2.031
REMARK UNBOUND:                -2.887
REMARK SMILES CCCCCC=CCC=CCCCCCCCC(=O)[O-]
REMARK SMILES IDX 11 1 12 2 13 3 14 4 15 5 16 6 17 7 18 8 19 9 20 10 10 11
REMARK SMILES IDX 9 12 8 13 7 14 6 15 5 16 4 17 3 18 2 19 1 20
REMARK H PARENT
REMARK Flexibility Score: inf
ROOT
ATOM      1  C   UNL     1     125.319 123.136 126.083  1.00  0.00     0.027 C 
ENDROOT
BRANCH   1   2
ATOM      2  C   UNL     1     124.812 123.011 127.527  1.00  0.00     0.004 C 
BRANCH   2   3
ATOM      3  C   UNL     1     124.681 121.549 127.983  1.00  0.00     0.000 C 
BRANCH   3   4
ATOM      4  C   UNL     1     124.928 121.376 129.489  1.00  0.00     0.000 C 
BRANCH   4   5
ATOM      5  C   UNL     1     124.826 122.722 130.220  1.00  0.00     0.000 C 
BRANCH   5   6
ATOM      6  C   UNL     1     124.255 122.538 131.634  1.00  0.00     0.006 C 
BRANCH   6   7
ATOM      7  C   UNL     1     122.747 122.814 131.691  1.00  0.00     0.053 C 
BRANCH   7   8
ATOM      8  C   UNL     1     122.417 124.199 131.226  1.00  0.00     0.041 C 
ATOM      9  O   UNL     1     121.638 124.372 130.253  1.00  0.00    -0.550 OA
ATOM     10  O   UNL     1     122.946 125.299 131.890  1.00  0.00    -0.550 OA
ENDBRANCH   7   8
ENDBRANCH   6   7
ENDBRANCH   5   6
ENDBRANCH   4   5
ENDBRANCH   3   4
ENDBRANCH   2   3
ENDBRANCH   1   2
BRANCH   1  11
ATOM     11  C   UNL     1     124.251 122.744 125.098  1.00  0.00    -0.031 C 
ATOM     12  C   UNL     1     124.554 122.384 123.841  1.00  0.00    -0.027 C 
BRANCH  12  13
ATOM     13  C   UNL     1     123.487 122.005 122.852  1.00  0.00     0.054 C 
BRANCH  13  14
ATOM     14  C   UNL     1     122.139 121.899 123.517  1.00  0.00    -0.027 C 
ATOM     15  C   UNL     1     121.139 122.787 123.362  1.00  0.00    -0.031 C 
BRANCH  15  16
ATOM     16  C   UNL     1     121.190 123.983 122.442  1.00  0.00     0.027 C 
BRANCH  16  17
ATOM     17  C   UNL     1     121.400 125.292 123.216  1.00  0.00     0.004 C 
BRANCH  17  18
ATOM     18  C   UNL     1     122.876 125.725 123.234  1.00  0.00     0.000 C 
BRANCH  18  19
ATOM     19  C   UNL     1     123.282 126.383 124.561  1.00  0.00    -0.003 C 
ATOM     20  C   UNL     1     122.425 125.917 125.738  1.00  0.00     0.004 C 
ENDBRANCH  18  19
ENDBRANCH  17  18
ENDBRANCH  16  17
ENDBRANCH  15  16
ENDBRANCH  13  14
ENDBRANCH  12  13
ENDBRANCH   1  11
TORSDOF 14
ENDMDL
MODEL 5
REMARK VINA RESULT:    -2.628      2.272      3.574
REMARK INTER + INTRA:          -7.666
REMARK INTER:                  -5.717
REMARK INTRA:                  -1.949
REMARK UNBOUND:                -2.887
REMARK SMILES CCCCCC=CCC=CCCCCCCCC(=O)[O-]
REMARK SMILES IDX 11 1 12 2 13 3 14 4 15 5 16 6 17 7 18 8 19 9 20 10 10 11
REMARK SMILES IDX 9 12 8 13 7 14 6 15 5 16 4 17 3 18 2 19 1 20
REMARK H PARENT
REMARK Flexibility Score: inf
ROOT
ATOM      1  C   UNL     1     121.311 126.241 123.549  1.00  0.00     0.027 C 
ENDROOT
BRANCH   1   2
ATOM      2  C   UNL     1     121.656 127.096 124.778  1.00  0.00     0.004 C 
BRANCH   2   3
ATOM      3  C   UNL     1     122.008 126.246 126.008  1.00  0.00     0.000 C 
BRANCH   3   4
ATOM      4  C   UNL     1     121.100 126.544 127.211  1.00  0.00     0.000 C 
BRANCH   4   5
ATOM      5  C   UNL     1     121.870 126.399 128.530  1.00  0.00     0.000 C 
BRANCH   5   6
ATOM      6  C   UNL     1     120.919 126.060 129.688  1.00  0.00     0.006 C 
BRANCH   6   7
ATOM      7  C   UNL     1     121.167 124.654 130.249  1.00  0.00     0.053 C 
BRANCH   7   8
ATOM      8  C   UNL     1     122.536 124.527 130.844  1.00  0.00     0.041 C 
ATOM      9  O   UNL     1     122.889 125.278 131.790  1.00  0.00    -0.550 OA
ATOM     10  O   UNL     1     123.411 123.555 130.373  1.00  0.00    -0.550 OA
ENDBRANCH   7   8
ENDBRANCH   6   7
ENDBRANCH   5   6
ENDBRANCH   4   5
ENDBRANCH   3   4
ENDBRANCH   2   3
ENDBRANCH   1   2
BRANCH   1  11
ATOM     11  C   UNL     1     121.460 124.774 123.851  1.00  0.00    -0.031 C 
ATOM     12  C   UNL     1     121.286 123.842 122.901  1.00  0.00    -0.027 C 
BRANCH  12  13
ATOM     13  C   UNL     1     121.422 122.375 123.204  1.00  0.00     0.054 C 
BRANCH  13  14
ATOM     14  C   UNL     1     121.741 121.588 121.960  1.00  0.00    -0.027 C 
ATOM     15  C   UNL     1     122.982 121.238 121.575  1.00  0.00    -0.031 C 
BRANCH  15  16
ATOM     16  C   UNL     1     124.236 121.517 122.368  1.00  0.00     0.027 C 
BRANCH  16  17
ATOM     17  C   UNL     1     124.822 122.899 122.046  1.00  0.00     0.004 C 
BRANCH  17  18
ATOM     18  C   UNL     1     124.989 123.766 123.306  1.00  0.00     0.000 C 
BRANCH  18  19
ATOM     19  C   UNL     1     125.027 122.932 124.596  1.00  0.00    -0.003 C 
ATOM     20  C   UNL     1     124.528 123.707 125.815  1.00  0.00     0.004 C 
ENDBRANCH  18  19
ENDBRANCH  17  18
ENDBRANCH  16  17
ENDBRANCH  15  16
ENDBRANCH  13  14
ENDBRANCH  12  13
ENDBRANCH   1  11
TORSDOF 14
ENDMDL
MODEL 6
REMARK VINA RESULT:    -2.537      4.142      5.893
REMARK INTER + INTRA:          -7.501
REMARK INTER:                  -5.752
REMARK INTRA:                  -1.749
REMARK UNBOUND:                -2.887
REMARK SMILES CCCCCC=CCC=CCCCCCCCC(=O)[O-]
REMARK SMILES IDX 11 1 12 2 13 3 14 4 15 5 16 6 17 7 18 8 19 9 20 10 10 11
REMARK SMILES IDX 9 12 8 13 7 14 6 15 5 16 4 17 3 18 2 19 1 20
REMARK H PARENT
REMARK Flexibility Score: inf
ROOT
ATOM      1  C   UNL     1     125.170 123.721 126.929  1.00  0.00     0.027 C 
ENDROOT
BRANCH   1   2
ATOM      2  C   UNL     1     124.566 124.839 127.793  1.00  0.00     0.004 C 
BRANCH   2   3
ATOM      3  C   UNL     1     123.895 124.304 129.067  1.00  0.00     0.000 C 
BRANCH   3   4
ATOM      4  C   UNL     1     122.876 125.291 129.656  1.00  0.00     0.000 C 
BRANCH   4   5
ATOM      5  C   UNL     1     121.794 124.553 130.455  1.00  0.00     0.000 C 
BRANCH   5   6
ATOM      6  C   UNL     1     122.393 123.368 131.227  1.00  0.00     0.006 C 
BRANCH   6   7
ATOM      7  C   UNL     1     122.567 123.677 132.719  1.00  0.00     0.053 C 
BRANCH   7   8
ATOM      8  C   UNL     1     123.427 122.658 133.402  1.00  0.00     0.041 C 
ATOM      9  O   UNL     1     123.230 122.370 134.611  1.00  0.00    -0.550 OA
ATOM     10  O   UNL     1     124.426 122.003 132.691  1.00  0.00    -0.550 OA
ENDBRANCH   7   8
ENDBRANCH   6   7
ENDBRANCH   5   6
ENDBRANCH   4   5
ENDBRANCH   3   4
ENDBRANCH   2   3
ENDBRANCH   1   2
BRANCH   1  11
ATOM     11  C   UNL     1     124.547 123.700 125.559  1.00  0.00    -0.031 C 
ATOM     12  C   UNL     1     124.281 122.546 124.928  1.00  0.00    -0.027 C 
BRANCH  12  13
ATOM     13  C   UNL     1     123.672 122.524 123.554  1.00  0.00     0.054 C 
BRANCH  13  14
ATOM     14  C   UNL     1     122.272 121.967 123.586  1.00  0.00    -0.027 C 
ATOM     15  C   UNL     1     121.174 122.636 123.190  1.00  0.00    -0.031 C 
BRANCH  15  16
ATOM     16  C   UNL     1     121.185 124.020 122.585  1.00  0.00     0.027 C 
BRANCH  16  17
ATOM     17  C   UNL     1     120.876 125.103 123.627  1.00  0.00     0.004 C 
BRANCH  17  18
ATOM     18  C   UNL     1     121.891 126.259 123.582  1.00  0.00     0.000 C 
BRANCH  18  19
ATOM     19  C   UNL     1     122.441 126.617 124.971  1.00  0.00    -0.003 C 
ATOM     20  C   UNL     1     121.523 126.159 126.104  1.00  0.00     0.004 C 
ENDBRANCH  18  19
ENDBRANCH  17  18
ENDBRANCH  16  17
ENDBRANCH  15  16
ENDBRANCH  13  14
ENDBRANCH  12  13
ENDBRANCH   1  11
TORSDOF 14
ENDMDL
MODEL 7
REMARK VINA RESULT:    -2.536      2.873      4.280
REMARK INTER + INTRA:          -7.498
REMARK INTER:                  -4.819
REMARK INTRA:                  -2.679
REMARK UNBOUND:                -2.887
REMARK SMILES CCCCCC=CCC=CCCCCCCCC(=O)[O-]
REMARK SMILES IDX 11 1 12 2 13 3 14 4 15 5 16 6 17 7 18 8 19 9 20 10 10 11
REMARK SMILES IDX 9 12 8 13 7 14 6 15 5 16 4 17 3 18 2 19 1 20
REMARK H PARENT
REMARK Flexibility Score: inf
ROOT
ATOM      1  C   UNL     1     121.485 125.358 123.318  1.00  0.00     0.027 C 
ENDROOT
BRANCH   1   2
ATOM      2  C   UNL     1     121.276 125.521 124.831  1.00  0.00     0.004 C 
BRANCH   2   3
ATOM      3  C   UNL     1     122.535 126.030 125.550  1.00  0.00     0.000 C 
BRANCH   3   4
ATOM      4  C   UNL     1     123.796 125.918 124.680  1.00  0.00     0.000 C 
BRANCH   4   5
ATOM      5  C   UNL     1     124.937 125.242 125.452  1.00  0.00     0.000 C 
BRANCH   5   6
ATOM      6  C   UNL     1     124.689 123.732 125.590  1.00  0.00     0.006 C 
BRANCH   6   7
ATOM      7  C   UNL     1     124.846 123.249 127.037  1.00  0.00     0.053 C 
BRANCH   7   8
ATOM      8  C   UNL     1     126.069 122.402 127.211  1.00  0.00     0.041 C 
ATOM      9  O   UNL     1     126.105 121.236 126.739  1.00  0.00    -0.550 OA
ATOM     10  O   UNL     1     127.182 122.915 127.866  1.00  0.00    -0.550 OA
ENDBRANCH   7   8
ENDBRANCH   6   7
ENDBRANCH   5   6
ENDBRANCH   4   5
ENDBRANCH   3   4
ENDBRANCH   2   3
ENDBRANCH   1   2
BRANCH   1  11
ATOM     11  C   UNL     1     121.323 123.922 122.900  1.00  0.00    -0.031 C 
ATOM     12  C   UNL     1     121.934 122.927 123.560  1.00  0.00    -0.027 C 
BRANCH  12  13
ATOM     13  C   UNL     1     121.784 121.492 123.135  1.00  0.00     0.054 C 
BRANCH  13  14
ATOM     14  C   UNL     1     121.781 121.364 121.634  1.00  0.00    -0.027 C 
ATOM     15  C   UNL     1     122.886 121.237 120.875  1.00  0.00    -0.031 C 
BRANCH  15  16
ATOM     16  C   UNL     1     124.290 121.128 121.418  1.00  0.00     0.027 C 
BRANCH  16  17
ATOM     17  C   UNL     1     125.168 122.307 120.976  1.00  0.00     0.004 C 
BRANCH  17  18
ATOM     18  C   UNL     1     125.021 123.522 121.909  1.00  0.00     0.000 C 
BRANCH  18  19
ATOM     19  C   UNL     1     124.503 124.769 121.178  1.00  0.00    -0.003 C 
ATOM     20  C   UNL     1     125.425 125.977 121.346  1.00  0.00     0.004 C 
ENDBRANCH  18  19
ENDBRANCH  17  18
ENDBRANCH  16  17
ENDBRANCH  15  16
ENDBRANCH  13  14
ENDBRANCH  12  13
ENDBRANCH   1  11
TORSDOF 14
ENDMDL
MODEL 8
REMARK VINA RESULT:    -2.512      9.958     12.895
REMARK INTER + INTRA:          -7.454
REMARK INTER:                  -4.972
REMARK INTRA:                  -2.482
REMARK UNBOUND:                -2.887
REMARK SMILES CCCCCC=CCC=CCCCCCCCC(=O)[O-]
REMARK SMILES IDX 11 1 12 2 13 3 14 4 15 5 16 6 17 7 18 8 19 9 20 10 10 11
REMARK SMILES IDX 9 12 8 13 7 14 6 15 5 16 4 17 3 18 2 19 1 20
REMARK H PARENT
REMARK Flexibility Score: inf
ROOT
ATOM      1  C   UNL     1     123.875 128.075 136.539  1.00  0.00     0.027 C 
ENDROOT
BRANCH   1   2
ATOM      2  C   UNL     1     122.700 128.546 137.409  1.00  0.00     0.004 C 
BRANCH   2   3
ATOM      3  C   UNL     1     123.047 128.569 138.906  1.00  0.00     0.000 C 
BRANCH   3   4
ATOM      4  C   UNL     1     123.140 127.160 139.511  1.00  0.00     0.000 C 
BRANCH   4   5
ATOM      5  C   UNL     1     121.773 126.463 139.495  1.00  0.00     0.000 C 
BRANCH   5   6
ATOM      6  C   UNL     1     121.918 124.975 139.142  1.00  0.00     0.006 C 
BRANCH   6   7
ATOM      7  C   UNL     1     123.378 124.579 138.889  1.00  0.00     0.053 C 
BRANCH   7   8
ATOM      8  C   UNL     1     123.574 123.096 138.974  1.00  0.00     0.041 C 
ATOM      9  O   UNL     1     124.273 122.499 138.114  1.00  0.00    -0.550 OA
ATOM     10  O   UNL     1     123.012 122.380 140.024  1.00  0.00    -0.550 OA
ENDBRANCH   7   8
ENDBRANCH   6   7
ENDBRANCH   5   6
ENDBRANCH   4   5
ENDBRANCH   3   4
ENDBRANCH   2   3
ENDBRANCH   1   2
BRANCH   1  11
ATOM     11  C   UNL     1     123.545 126.786 135.836  1.00  0.00    -0.031 C 
ATOM     12  C   UNL     1     122.296 126.296 135.821  1.00  0.00    -0.027 C 
BRANCH  12  13
ATOM     13  C   UNL     1     121.968 125.001 135.130  1.00  0.00     0.054 C 
BRANCH  13  14
ATOM     14  C   UNL     1     123.148 124.065 135.134  1.00  0.00    -0.027 C 
ATOM     15  C   UNL     1     123.318 123.045 134.272  1.00  0.00    -0.031 C 
BRANCH  15  16
ATOM     16  C   UNL     1     122.389 122.730 133.124  1.00  0.00     0.027 C 
BRANCH  16  17
ATOM     17  C   UNL     1     123.039 123.025 131.764  1.00  0.00     0.004 C 
BRANCH  17  18
ATOM     18  C   UNL     1     122.241 124.059 130.951  1.00  0.00     0.000 C 
BRANCH  18  19
ATOM     19  C   UNL     1     122.277 125.460 131.581  1.00  0.00    -0.003 C 
ATOM     20  C   UNL     1     120.884 126.057 131.772  1.00  0.00     0.004 C 
ENDBRANCH  18  19
ENDBRANCH  17  18
ENDBRANCH  16  17
ENDBRANCH  15  16
ENDBRANCH  13  14
ENDBRANCH  12  13
ENDBRANCH   1  11
TORSDOF 14
ENDMDL
