MODEL 1
REMARK VINA RESULT:    -4.172      0.000      0.000
REMARK INTER + INTRA:          -7.165
REMARK INTER:                  -6.367
REMARK INTRA:                  -0.798
REMARK UNBOUND:                -0.798
REMARK SMILES O=C([O-])CCCCCCCCC(=O)[O-]
REMARK SMILES IDX 7 1 6 2 5 3 4 4 2 5 1 6 3 7 8 8 9 9 10 10 11 11 12 12 13 13
REMARK SMILES IDX 14 14
REMARK H PARENT
REMARK Flexibility Score: inf
ROOT
ATOM      1  C   UNL     1      38.197  21.349 -22.786  1.00  0.00     0.000 C 
ENDROOT
BRANCH   1   2
ATOM      2  C   UNL     1      38.495  20.898 -24.225  1.00  0.00     0.000 C 
BRANCH   2   3
ATOM      3  C   UNL     1      39.922  21.258 -24.673  1.00  0.00     0.006 C 
BRANCH   3   4
ATOM      4  C   UNL     1      40.143  22.776 -24.737  1.00  0.00     0.053 C 
BRANCH   4   5
ATOM      5  C   UNL     1      41.331  23.202 -23.930  1.00  0.00     0.041 C 
ATOM      6  O   UNL     1      42.231  22.371 -23.641  1.00  0.00    -0.550 OA
ATOM      7  O   UNL     1      41.427  24.509 -23.470  1.00  0.00    -0.550 OA
ENDBRANCH   4   5
ENDBRANCH   3   4
ENDBRANCH   2   3
ENDBRANCH   1   2
BRANCH   1   8
ATOM      8  C   UNL     1      37.071  20.532 -22.131  1.00  0.00     0.000 C 
BRANCH   8   9
ATOM      9  C   UNL     1      37.141  19.038 -22.486  1.00  0.00     0.000 C 
BRANCH   9  10
ATOM     10  C   UNL     1      38.008  18.237 -21.504  1.00  0.00     0.006 C 
BRANCH  10  11
ATOM     11  C   UNL     1      39.357  17.875 -22.134  1.00  0.00     0.053 C 
BRANCH  11  12
ATOM     12  C   UNL     1      40.458  18.670 -21.507  1.00  0.00     0.041 C 
ATOM     13  O   UNL     1      41.466  19.002 -22.185  1.00  0.00    -0.550 OA
ATOM     14  O   UNL     1      40.397  19.000 -20.159  1.00  0.00    -0.550 OA
ENDBRANCH  11  12
ENDBRANCH  10  11
ENDBRANCH   9  10
ENDBRANCH   8   9
ENDBRANCH   1   8
TORSDOF 9
ENDMDL
MODEL 2
REMARK VINA RESULT:    -4.150      2.399      4.511
REMARK INTER + INTRA:          -7.132
REMARK INTER:                  -6.223
REMARK INTRA:                  -0.909
REMARK UNBOUND:                -0.798
REMARK SMILES O=C([O-])CCCCCCCCC(=O)[O-]
REMARK SMILES IDX 7 1 6 2 5 3 4 4 2 5 1 6 3 7 8 8 9 9 10 10 11 11 12 12 13 13
REMARK SMILES IDX 14 14
REMARK H PARENT
REMARK Flexibility Score: inf
ROOT
ATOM      1  C   UNL     1      38.996  18.501 -20.529  1.00  0.00     0.000 C 
ENDROOT
BRANCH   1   2
ATOM      2  C   UNL     1      38.025  18.118 -21.657  1.00  0.00     0.000 C 
BRANCH   2   3
ATOM      3  C   UNL     1      37.142  19.297 -22.101  1.00  0.00     0.006 C 
BRANCH   3   4
ATOM      4  C   UNL     1      37.498  20.596 -21.365  1.00  0.00     0.053 C 
BRANCH   4   5
ATOM      5  C   UNL     1      36.670  21.751 -21.839  1.00  0.00     0.041 C 
ATOM      6  O   UNL     1      35.914  22.360 -21.037  1.00  0.00    -0.550 OA
ATOM      7  O   UNL     1      36.709  22.134 -23.174  1.00  0.00    -0.550 OA
ENDBRANCH   4   5
ENDBRANCH   3   4
ENDBRANCH   2   3
ENDBRANCH   1   2
BRANCH   1   8
ATOM      8  C   UNL     1      40.469  18.450 -20.972  1.00  0.00     0.000 C 
BRANCH   8   9
ATOM      9  C   UNL     1      40.622  18.271 -22.491  1.00  0.00     0.000 C 
BRANCH   9  10
ATOM     10  C   UNL     1      41.354  19.448 -23.153  1.00  0.00     0.006 C 
BRANCH  10  11
ATOM     11  C   UNL     1      40.359  20.504 -23.647  1.00  0.00     0.053 C 
BRANCH  11  12
ATOM     12  C   UNL     1      40.838  21.878 -23.299  1.00  0.00     0.041 C 
ATOM     13  O   UNL     1      40.707  22.316 -22.125  1.00  0.00    -0.550 OA
ATOM     14  O   UNL     1      41.383  22.694 -24.282  1.00  0.00    -0.550 OA
ENDBRANCH  11  12
ENDBRANCH  10  11
ENDBRANCH   9  10
ENDBRANCH   8   9
ENDBRANCH   1   8
TORSDOF 9
ENDMDL
MODEL 3
REMARK VINA RESULT:    -4.148     18.315     19.816
REMARK INTER + INTRA:          -7.129
REMARK INTER:                  -6.273
REMARK INTRA:                  -0.856
REMARK UNBOUND:                -0.798
REMARK SMILES O=C([O-])CCCCCCCCC(=O)[O-]
REMARK SMILES IDX 7 1 6 2 5 3 4 4 2 5 1 6 3 7 8 8 9 9 10 10 11 11 12 12 13 13
REMARK SMILES IDX 14 14
REMARK H PARENT
REMARK Flexibility Score: inf
ROOT
ATOM      1  C   UNL     1      47.612  34.655 -16.373  1.00  0.00     0.000 C 
ENDROOT
BRANCH   1   2
ATOM      2  C   UNL     1      47.579  36.005 -17.108  1.00  0.00     0.000 C 
BRANCH   2   3
ATOM      3  C   UNL     1      48.927  36.743 -17.045  1.00  0.00     0.006 C 
BRANCH   3   4
ATOM      4  C   UNL     1      50.118  35.775 -17.030  1.00  0.00     0.053 C 
BRANCH   4   5
ATOM      5  C   UNL     1      51.359  36.423 -16.496  1.00  0.00     0.041 C 
ATOM      6  O   UNL     1      51.301  37.155 -15.474  1.00  0.00    -0.550 OA
ATOM      7  O   UNL     1      52.573  36.243 -17.147  1.00  0.00    -0.550 OA
ENDBRANCH   4   5
ENDBRANCH   3   4
ENDBRANCH   2   3
ENDBRANCH   1   2
BRANCH   1   8
ATOM      8  C   UNL     1      47.164  34.768 -14.906  1.00  0.00     0.000 C 
BRANCH   8   9
ATOM      9  C   UNL     1      48.339  34.666 -13.920  1.00  0.00     0.000 C 
BRANCH   9  10
ATOM     10  C   UNL     1      48.761  36.032 -13.360  1.00  0.00     0.006 C 
BRANCH  10  11
ATOM     11  C   UNL     1      47.651  36.635 -12.493  1.00  0.00     0.053 C 
BRANCH  11  12
ATOM     12  C   UNL     1      47.537  35.895 -11.198  1.00  0.00     0.041 C 
ATOM     13  O   UNL     1      48.421  36.032 -10.310  1.00  0.00    -0.550 OA
ATOM     14  O   UNL     1      46.482  35.016 -10.989  1.00  0.00    -0.550 OA
ENDBRANCH  11  12
ENDBRANCH  10  11
ENDBRANCH   9  10
ENDBRANCH   8   9
ENDBRANCH   1   8
TORSDOF 9
ENDMDL
MODEL 4
REMARK VINA RESULT:    -4.142      0.239      4.555
REMARK INTER + INTRA:          -7.119
REMARK INTER:                  -6.297
REMARK INTRA:                  -0.822
REMARK UNBOUND:                -0.798
REMARK SMILES O=C([O-])CCCCCCCCC(=O)[O-]
REMARK SMILES IDX 7 1 6 2 5 3 4 4 2 5 1 6 3 7 8 8 9 9 10 10 11 11 12 12 13 13
REMARK SMILES IDX 14 14
REMARK H PARENT
REMARK Flexibility Score: inf
ROOT
ATOM      1  C   UNL     1      37.363  20.703 -22.004  1.00  0.00     0.000 C 
ENDROOT
BRANCH   1   2
ATOM      2  C   UNL     1      37.191  19.231 -22.414  1.00  0.00     0.000 C 
BRANCH   2   3
ATOM      3  C   UNL     1      38.031  18.277 -21.548  1.00  0.00     0.006 C 
BRANCH   3   4
ATOM      4  C   UNL     1      39.386  17.951 -22.192  1.00  0.00     0.053 C 
BRANCH   4   5
ATOM      5  C   UNL     1      40.500  18.742 -21.577  1.00  0.00     0.041 C 
ATOM      6  O   UNL     1      41.516  19.040 -22.259  1.00  0.00    -0.550 OA
ATOM      7  O   UNL     1      40.431  19.123 -20.243  1.00  0.00    -0.550 OA
ENDBRANCH   4   5
ENDBRANCH   3   4
ENDBRANCH   2   3
ENDBRANCH   1   2
BRANCH   1   8
ATOM      8  C   UNL     1      37.756  21.605 -23.187  1.00  0.00     0.000 C 
BRANCH   8   9
ATOM      9  C   UNL     1      38.394  20.819 -24.344  1.00  0.00     0.000 C 
BRANCH   9  10
ATOM     10  C   UNL     1      39.856  21.216 -24.592  1.00  0.00     0.006 C 
BRANCH  10  11
ATOM     11  C   UNL     1      39.997  22.737 -24.714  1.00  0.00     0.053 C 
BRANCH  11  12
ATOM     12  C   UNL     1      41.176  23.217 -23.928  1.00  0.00     0.041 C 
ATOM     13  O   UNL     1      41.259  24.426 -23.584  1.00  0.00    -0.550 OA
ATOM     14  O   UNL     1      42.210  22.342 -23.619  1.00  0.00    -0.550 OA
ENDBRANCH  11  12
ENDBRANCH  10  11
ENDBRANCH   9  10
ENDBRANCH   8   9
ENDBRANCH   1   8
TORSDOF 9
ENDMDL
MODEL 5
REMARK VINA RESULT:    -4.125      1.903      3.081
REMARK INTER + INTRA:          -7.093
REMARK INTER:                  -6.297
REMARK INTRA:                  -0.796
REMARK UNBOUND:                -0.798
REMARK SMILES O=C([O-])CCCCCCCCC(=O)[O-]
REMARK SMILES IDX 7 1 6 2 5 3 4 4 2 5 1 6 3 7 8 8 9 9 10 10 11 11 12 12 13 13
REMARK SMILES IDX 14 14
REMARK H PARENT
REMARK Flexibility Score: inf
ROOT
ATOM      1  C   UNL     1      39.606  23.425 -24.883  1.00  0.00     0.000 C 
ENDROOT
BRANCH   1   2
ATOM      2  C   UNL     1      41.117  23.141 -24.931  1.00  0.00     0.000 C 
BRANCH   2   3
ATOM      3  C   UNL     1      41.849  23.632 -23.671  1.00  0.00     0.006 C 
BRANCH   3   4
ATOM      4  C   UNL     1      41.477  25.077 -23.311  1.00  0.00     0.053 C 
BRANCH   4   5
ATOM      5  C   UNL     1      42.683  25.894 -22.961  1.00  0.00     0.041 C 
ATOM      6  O   UNL     1      42.630  26.735 -22.025  1.00  0.00    -0.550 OA
ATOM      7  O   UNL     1      43.857  25.750 -23.690  1.00  0.00    -0.550 OA
ENDBRANCH   4   5
ENDBRANCH   3   4
ENDBRANCH   2   3
ENDBRANCH   1   2
BRANCH   1   8
ATOM      8  C   UNL     1      38.759  22.162 -25.117  1.00  0.00     0.000 C 
BRANCH   8   9
ATOM      9  C   UNL     1      38.019  21.703 -23.851  1.00  0.00     0.000 C 
BRANCH   9  10
ATOM     10  C   UNL     1      38.507  20.339 -23.342  1.00  0.00     0.006 C 
BRANCH  10  11
ATOM     11  C   UNL     1      39.669  20.505 -22.358  1.00  0.00     0.053 C 
BRANCH  11  12
ATOM     12  C   UNL     1      40.867  19.743 -22.828  1.00  0.00     0.041 C 
ATOM     13  O   UNL     1      41.261  19.853 -24.019  1.00  0.00    -0.550 OA
ATOM     14  O   UNL     1      41.519  18.871 -21.965  1.00  0.00    -0.550 OA
ENDBRANCH  11  12
ENDBRANCH  10  11
ENDBRANCH   9  10
ENDBRANCH   8   9
ENDBRANCH   1   8
TORSDOF 9
ENDMDL
MODEL 6
REMARK VINA RESULT:    -4.119      2.220      3.431
REMARK INTER + INTRA:          -7.084
REMARK INTER:                  -6.207
REMARK INTRA:                  -0.877
REMARK UNBOUND:                -0.798
REMARK SMILES O=C([O-])CCCCCCCCC(=O)[O-]
REMARK SMILES IDX 7 1 6 2 5 3 4 4 2 5 1 6 3 7 8 8 9 9 10 10 11 11 12 12 13 13
REMARK SMILES IDX 14 14
REMARK H PARENT
REMARK Flexibility Score: inf
ROOT
ATOM      1  C   UNL     1      40.164  18.979 -20.742  1.00  0.00     0.000 C 
ENDROOT
BRANCH   1   2
ATOM      2  C   UNL     1      40.769  18.324 -21.994  1.00  0.00     0.000 C 
BRANCH   2   3
ATOM      3  C   UNL     1      41.507  19.334 -22.889  1.00  0.00     0.006 C 
BRANCH   3   4
ATOM      4  C   UNL     1      40.553  20.363 -23.509  1.00  0.00     0.053 C 
BRANCH   4   5
ATOM      5  C   UNL     1      40.956  21.768 -23.180  1.00  0.00     0.041 C 
ATOM      6  O   UNL     1      40.653  22.269 -22.066  1.00  0.00    -0.550 OA
ATOM      7  O   UNL     1      41.638  22.534 -24.116  1.00  0.00    -0.550 OA
ENDBRANCH   4   5
ENDBRANCH   3   4
ENDBRANCH   2   3
ENDBRANCH   1   2
BRANCH   1   8
ATOM      8  C   UNL     1      38.781  18.406 -20.383  1.00  0.00     0.000 C 
BRANCH   8   9
ATOM      9  C   UNL     1      37.994  17.947 -21.621  1.00  0.00     0.000 C 
BRANCH   9  10
ATOM     10  C   UNL     1      36.832  18.890 -21.965  1.00  0.00     0.006 C 
BRANCH  10  11
ATOM     11  C   UNL     1      37.320  20.080 -22.797  1.00  0.00     0.053 C 
BRANCH  11  12
ATOM     12  C   UNL     1      36.966  21.369 -22.126  1.00  0.00     0.041 C 
ATOM     13  O   UNL     1      37.350  21.597 -20.948  1.00  0.00    -0.550 OA
ATOM     14  O   UNL     1      36.168  22.298 -22.781  1.00  0.00    -0.550 OA
ENDBRANCH  11  12
ENDBRANCH  10  11
ENDBRANCH   9  10
ENDBRANCH   8   9
ENDBRANCH   1   8
TORSDOF 9
ENDMDL
MODEL 7
REMARK VINA RESULT:    -4.077     18.216     19.515
REMARK INTER + INTRA:          -7.020
REMARK INTER:                  -6.494
REMARK INTRA:                  -0.526
REMARK UNBOUND:                -0.798
REMARK SMILES O=C([O-])CCCCCCCCC(=O)[O-]
REMARK SMILES IDX 7 1 6 2 5 3 4 4 2 5 1 6 3 7 8 8 9 9 10 10 11 11 12 12 13 13
REMARK SMILES IDX 14 14
REMARK H PARENT
REMARK Flexibility Score: inf
ROOT
ATOM      1  C   UNL     1      45.983  35.027 -13.570  1.00  0.00     0.000 C 
ENDROOT
BRANCH   1   2
ATOM      2  C   UNL     1      46.048  36.554 -13.734  1.00  0.00     0.000 C 
BRANCH   2   3
ATOM      3  C   UNL     1      44.702  37.237 -13.436  1.00  0.00     0.006 C 
BRANCH   3   4
ATOM      4  C   UNL     1      43.610  36.225 -13.064  1.00  0.00     0.053 C 
BRANCH   4   5
ATOM      5  C   UNL     1      42.890  36.616 -11.810  1.00  0.00     0.041 C 
ATOM      6  O   UNL     1      41.990  37.495 -11.843  1.00  0.00    -0.550 OA
ATOM      7  O   UNL     1      43.236  36.031 -10.598  1.00  0.00    -0.550 OA
ENDBRANCH   4   5
ENDBRANCH   3   4
ENDBRANCH   2   3
ENDBRANCH   1   2
BRANCH   1   8
ATOM      8  C   UNL     1      47.372  34.366 -13.625  1.00  0.00     0.000 C 
BRANCH   8   9
ATOM      9  C   UNL     1      48.362  35.145 -14.507  1.00  0.00     0.000 C 
BRANCH   9  10
ATOM     10  C   UNL     1      48.260  34.762 -15.990  1.00  0.00     0.006 C 
BRANCH  10  11
ATOM     11  C   UNL     1      48.932  35.815 -16.876  1.00  0.00     0.053 C 
BRANCH  11  12
ATOM     12  C   UNL     1      47.920  36.786 -17.396  1.00  0.00     0.041 C 
ATOM     13  O   UNL     1      46.709  36.452 -17.486  1.00  0.00    -0.550 OA
ATOM     14  O   UNL     1      48.321  38.044 -17.828  1.00  0.00    -0.550 OA
ENDBRANCH  11  12
ENDBRANCH  10  11
ENDBRANCH   9  10
ENDBRANCH   8   9
ENDBRANCH   1   8
TORSDOF 9
ENDMDL
MODEL 8
REMARK VINA RESULT:    -4.063     18.511     19.837
REMARK INTER + INTRA:          -6.998
REMARK INTER:                  -6.338
REMARK INTRA:                  -0.661
REMARK UNBOUND:                -0.798
REMARK SMILES O=C([O-])CCCCCCCCC(=O)[O-]
REMARK SMILES IDX 7 1 6 2 5 3 4 4 2 5 1 6 3 7 8 8 9 9 10 10 11 11 12 12 13 13
REMARK SMILES IDX 14 14
REMARK H PARENT
REMARK Flexibility Score: inf
ROOT
ATOM      1  C   UNL     1      47.440  34.804 -14.655  1.00  0.00     0.000 C 
ENDROOT
BRANCH   1   2
ATOM      2  C   UNL     1      46.529  35.998 -14.326  1.00  0.00     0.000 C 
BRANCH   2   3
ATOM      3  C   UNL     1      45.483  35.662 -13.250  1.00  0.00     0.006 C 
BRANCH   3   4
ATOM      4  C   UNL     1      45.948  34.530 -12.324  1.00  0.00     0.053 C 
BRANCH   4   5
ATOM      5  C   UNL     1      46.341  35.042 -10.972  1.00  0.00     0.041 C 
ATOM      6  O   UNL     1      45.542  34.951 -10.003  1.00  0.00    -0.550 OA
ATOM      7  O   UNL     1      47.578  35.647 -10.789  1.00  0.00    -0.550 OA
ENDBRANCH   4   5
ENDBRANCH   3   4
ENDBRANCH   2   3
ENDBRANCH   1   2
BRANCH   1   8
ATOM      8  C   UNL     1      47.720  34.671 -16.163  1.00  0.00     0.000 C 
BRANCH   8   9
ATOM      9  C   UNL     1      47.446  35.974 -16.932  1.00  0.00     0.000 C 
BRANCH   9  10
ATOM     10  C   UNL     1      48.736  36.694 -17.352  1.00  0.00     0.006 C 
BRANCH  10  11
ATOM     11  C   UNL     1      49.960  35.800 -17.128  1.00  0.00     0.053 C 
BRANCH  11  12
ATOM     12  C   UNL     1      50.955  36.485 -16.245  1.00  0.00     0.041 C 
ATOM     13  O   UNL     1      50.593  36.972 -15.141  1.00  0.00    -0.550 OA
ATOM     14  O   UNL     1      52.271  36.632 -16.663  1.00  0.00    -0.550 OA
ENDBRANCH  11  12
ENDBRANCH  10  11
ENDBRANCH   9  10
ENDBRANCH   8   9
ENDBRANCH   1   8
TORSDOF 9
ENDMDL
MODEL 9
REMARK VINA RESULT:    -4.047     18.321     19.253
REMARK INTER + INTRA:          -6.975
REMARK INTER:                  -6.368
REMARK INTRA:                  -0.607
REMARK UNBOUND:                -0.798
REMARK SMILES O=C([O-])CCCCCCCCC(=O)[O-]
REMARK SMILES IDX 7 1 6 2 5 3 4 4 2 5 1 6 3 7 8 8 9 9 10 10 11 11 12 12 13 13
REMARK SMILES IDX 14 14
REMARK H PARENT
REMARK Flexibility Score: inf
ROOT
ATOM      1  C   UNL     1      47.175  34.356 -13.523  1.00  0.00     0.000 C 
ENDROOT
BRANCH   1   2
ATOM      2  C   UNL     1      47.986  35.188 -14.530  1.00  0.00     0.000 C 
BRANCH   2   3
ATOM      3  C   UNL     1      47.777  34.723 -15.982  1.00  0.00     0.006 C 
BRANCH   3   4
ATOM      4  C   UNL     1      47.426  35.887 -16.918  1.00  0.00     0.053 C 
BRANCH   4   5
ATOM      5  C   UNL     1      48.627  36.721 -17.247  1.00  0.00     0.041 C 
ATOM      6  O   UNL     1      48.492  37.939 -17.537  1.00  0.00    -0.550 OA
ATOM      7  O   UNL     1      49.891  36.145 -17.263  1.00  0.00    -0.550 OA
ENDBRANCH   4   5
ENDBRANCH   3   4
ENDBRANCH   2   3
ENDBRANCH   1   2
BRANCH   1   8
ATOM      8  C   UNL     1      45.827  35.007 -13.167  1.00  0.00     0.000 C 
BRANCH   8   9
ATOM      9  C   UNL     1      45.888  36.543 -13.191  1.00  0.00     0.000 C 
BRANCH   9  10
ATOM     10  C   UNL     1      44.520  37.183 -13.469  1.00  0.00     0.006 C 
BRANCH  10  11
ATOM     11  C   UNL     1      43.382  36.251 -13.041  1.00  0.00     0.053 C 
BRANCH  11  12
ATOM     12  C   UNL     1      42.767  36.726 -11.763  1.00  0.00     0.041 C 
ATOM     13  O   UNL     1      41.932  37.668 -11.773  1.00  0.00    -0.550 OA
ATOM     14  O   UNL     1      43.154  36.162 -10.554  1.00  0.00    -0.550 OA
ENDBRANCH  11  12
ENDBRANCH  10  11
ENDBRANCH   9  10
ENDBRANCH   8   9
ENDBRANCH   1   8
TORSDOF 9
ENDMDL
