MODEL 1
REMARK VINA RESULT:    -5.500      0.000      0.000
REMARK INTER + INTRA:          -6.428
REMARK INTER:                  -6.143
REMARK INTRA:                  -0.285
REMARK UNBOUND:                -0.285
REMARK SMILES CC=C(C)C=CC=C(C)C
REMARK SMILES IDX 5 1 6 2 3 3 1 4 2 5 4 6 7 7 8 8 9 9 10 10
REMARK H PARENT
REMARK Flexibility Score: inf
ROOT
ATOM      1  C   UNL     1       5.383   8.041  12.219  1.00  0.00     0.003 C 
ATOM      2  C   UNL     1       4.394   8.485  11.433  1.00  0.00     0.000 C 
ENDROOT
BRANCH   1   3
ATOM      3  C   UNL     1       5.460   6.637  12.723  1.00  0.00    -0.055 C 
ATOM      4  C   UNL     1       7.650   7.092  13.877  1.00  0.00     0.036 C 
ATOM      5  C   UNL     1       6.499   6.219  13.474  1.00  0.00    -0.027 C 
ATOM      6  C   UNL     1       4.376   5.647  12.375  1.00  0.00     0.044 C 
ENDBRANCH   1   3
BRANCH   2   7
ATOM      7  C   UNL     1       4.375   9.889  10.967  1.00  0.00    -0.001 C 
ATOM      8  C   UNL     1       3.524  10.822  11.434  1.00  0.00    -0.076 C 
ATOM      9  C   UNL     1       2.496  10.510  12.491  1.00  0.00     0.039 C 
ATOM     10  C   UNL     1       3.611  12.217  10.875  1.00  0.00     0.039 C 
ENDBRANCH   2   7
TORSDOF 2
ENDMDL
MODEL 2
REMARK VINA RESULT:    -4.638      1.262      5.108
REMARK INTER + INTRA:          -5.465
REMARK INTER:                  -5.191
REMARK INTRA:                  -0.274
REMARK UNBOUND:                -0.285
REMARK SMILES CC=C(C)C=CC=C(C)C
REMARK SMILES IDX 5 1 6 2 3 3 1 4 2 5 4 6 7 7 8 8 9 9 10 10
REMARK H PARENT
REMARK Flexibility Score: inf
ROOT
ATOM      1  C   UNL     1       4.375  10.370  11.870  1.00  0.00     0.003 C 
ATOM      2  C   UNL     1       4.597   9.151  11.360  1.00  0.00     0.000 C 
ENDROOT
BRANCH   1   3
ATOM      3  C   UNL     1       3.112  11.135  11.643  1.00  0.00    -0.055 C 
ATOM      4  C   UNL     1       3.992  13.114  12.923  1.00  0.00     0.036 C 
ATOM      5  C   UNL     1       2.952  12.382  12.130  1.00  0.00    -0.027 C 
ATOM      6  C   UNL     1       1.974  10.507  10.875  1.00  0.00     0.044 C 
ENDBRANCH   1   3
BRANCH   2   7
ATOM      7  C   UNL     1       5.871   8.446  11.622  1.00  0.00    -0.001 C 
ATOM      8  C   UNL     1       5.953   7.248  12.231  1.00  0.00    -0.076 C 
ATOM      9  C   UNL     1       4.730   6.508  12.708  1.00  0.00     0.039 C 
ATOM     10  C   UNL     1       7.314   6.639  12.436  1.00  0.00     0.039 C 
ENDBRANCH   2   7
TORSDOF 2
ENDMDL
MODEL 3
REMARK VINA RESULT:    -4.509      1.003      1.258
REMARK INTER + INTRA:          -5.321
REMARK INTER:                  -5.046
REMARK INTRA:                  -0.275
REMARK UNBOUND:                -0.285
REMARK SMILES CC=C(C)C=CC=C(C)C
REMARK SMILES IDX 5 1 6 2 3 3 1 4 2 5 4 6 7 7 8 8 9 9 10 10
REMARK H PARENT
REMARK Flexibility Score: inf
ROOT
ATOM      1  C   UNL     1       6.298   8.244  12.286  1.00  0.00     0.003 C 
ATOM      2  C   UNL     1       5.230   8.239  11.477  1.00  0.00     0.000 C 
ENDROOT
BRANCH   1   3
ATOM      3  C   UNL     1       6.901   7.001  12.853  1.00  0.00    -0.055 C 
ATOM      4  C   UNL     1       8.884   8.275  13.733  1.00  0.00     0.036 C 
ATOM      5  C   UNL     1       8.079   7.030  13.507  1.00  0.00    -0.027 C 
ATOM      6  C   UNL     1       6.203   5.674  12.679  1.00  0.00     0.044 C 
ENDBRANCH   1   3
BRANCH   2   7
ATOM      7  C   UNL     1       4.680   9.507  10.948  1.00  0.00    -0.001 C 
ATOM      8  C   UNL     1       3.656  10.173  11.514  1.00  0.00    -0.076 C 
ATOM      9  C   UNL     1       2.968   9.675  12.759  1.00  0.00     0.039 C 
ATOM     10  C   UNL     1       3.193  11.455  10.875  1.00  0.00     0.039 C 
ENDBRANCH   2   7
TORSDOF 2
ENDMDL
MODEL 4
REMARK VINA RESULT:    -3.810      1.302      1.557
REMARK INTER + INTRA:          -4.540
REMARK INTER:                  -4.270
REMARK INTRA:                  -0.270
REMARK UNBOUND:                -0.285
REMARK SMILES CC=C(C)C=CC=C(C)C
REMARK SMILES IDX 5 1 6 2 3 3 1 4 2 5 4 6 7 7 8 8 9 9 10 10
REMARK H PARENT
REMARK Flexibility Score: inf
ROOT
ATOM      1  C   UNL     1       5.044   9.165  11.953  1.00  0.00     0.003 C 
ATOM      2  C   UNL     1       3.944   9.904  11.760  1.00  0.00     0.000 C 
ENDROOT
BRANCH   1   3
ATOM      3  C   UNL     1       5.024   7.823  12.607  1.00  0.00    -0.055 C 
ATOM      4  C   UNL     1       7.465   7.462  12.112  1.00  0.00     0.036 C 
ATOM      5  C   UNL     1       6.133   7.058  12.670  1.00  0.00    -0.027 C 
ATOM      6  C   UNL     1       3.741   7.285  13.193  1.00  0.00     0.044 C 
ENDBRANCH   1   3
BRANCH   2   7
ATOM      7  C   UNL     1       4.031  11.228  11.106  1.00  0.00    -0.001 C 
ATOM      8  C   UNL     1       3.557  12.365  11.648  1.00  0.00    -0.076 C 
ATOM      9  C   UNL     1       2.881  12.388  12.995  1.00  0.00     0.039 C 
ATOM     10  C   UNL     1       3.711  13.648  10.876  1.00  0.00     0.039 C 
ENDBRANCH   2   7
TORSDOF 2
ENDMDL
MODEL 5
REMARK VINA RESULT:    -3.072      1.409      4.863
REMARK INTER + INTRA:          -3.717
REMARK INTER:                  -3.707
REMARK INTRA:                  -0.009
REMARK UNBOUND:                -0.285
REMARK SMILES CC=C(C)C=CC=C(C)C
REMARK SMILES IDX 5 1 6 2 3 3 1 4 2 5 4 6 7 7 8 8 9 9 10 10
REMARK H PARENT
REMARK Flexibility Score: inf
ROOT
ATOM      1  C   UNL     1       6.201   7.763  12.262  1.00  0.00     0.003 C 
ATOM      2  C   UNL     1       7.077   6.811  12.614  1.00  0.00     0.000 C 
ENDROOT
BRANCH   1   3
ATOM      3  C   UNL     1       4.760   7.487  11.986  1.00  0.00    -0.055 C 
ATOM      4  C   UNL     1       4.379   9.851  11.210  1.00  0.00     0.036 C 
ATOM      5  C   UNL     1       3.942   8.448  11.509  1.00  0.00    -0.027 C 
ATOM      6  C   UNL     1       4.184   6.119  12.261  1.00  0.00     0.044 C 
ENDBRANCH   1   3
BRANCH   2   7
ATOM      7  C   UNL     1       8.493   7.150  12.874  1.00  0.00    -0.001 C 
ATOM      8  C   UNL     1       8.900   7.954  13.874  1.00  0.00    -0.076 C 
ATOM      9  C   UNL     1       7.928   8.592  14.833  1.00  0.00     0.039 C 
ATOM     10  C   UNL     1      10.374   8.217  14.029  1.00  0.00     0.039 C 
ENDBRANCH   2   7
TORSDOF 2
ENDMDL
MODEL 6
REMARK VINA RESULT:    -2.893      3.301      5.820
REMARK INTER + INTRA:          -3.516
REMARK INTER:                  -3.234
REMARK INTRA:                  -0.282
REMARK UNBOUND:                -0.285
REMARK SMILES CC=C(C)C=CC=C(C)C
REMARK SMILES IDX 5 1 6 2 3 3 1 4 2 5 4 6 7 7 8 8 9 9 10 10
REMARK H PARENT
REMARK Flexibility Score: inf
ROOT
ATOM      1  C   UNL     1       3.746  12.931  11.949  1.00  0.00     0.003 C 
ATOM      2  C   UNL     1       3.426  14.048  11.283  1.00  0.00     0.000 C 
ENDROOT
BRANCH   1   3
ATOM      3  C   UNL     1       2.764  11.847  12.250  1.00  0.00    -0.055 C 
ATOM      4  C   UNL     1       4.152  10.144  11.023  1.00  0.00     0.036 C 
ATOM      5  C   UNL     1       2.961  10.584  11.820  1.00  0.00    -0.027 C 
ATOM      6  C   UNL     1       1.509  12.158  13.029  1.00  0.00     0.044 C 
ENDBRANCH   1   3
BRANCH   2   7
ATOM      7  C   UNL     1       4.447  15.085  11.017  1.00  0.00    -0.001 C 
ATOM      8  C   UNL     1       4.235  16.404  11.182  1.00  0.00    -0.076 C 
ATOM      9  C   UNL     1       2.914  16.949  11.660  1.00  0.00     0.039 C 
ATOM     10  C   UNL     1       5.361  17.356  10.876  1.00  0.00     0.039 C 
ENDBRANCH   2   7
TORSDOF 2
ENDMDL
MODEL 7
REMARK VINA RESULT:    -2.733      2.706      7.020
REMARK INTER + INTRA:          -3.338
REMARK INTER:                  -3.074
REMARK INTRA:                  -0.264
REMARK UNBOUND:                -0.285
REMARK SMILES CC=C(C)C=CC=C(C)C
REMARK SMILES IDX 5 1 6 2 3 3 1 4 2 5 4 6 7 7 8 8 9 9 10 10
REMARK H PARENT
REMARK Flexibility Score: inf
ROOT
ATOM      1  C   UNL     1       3.780  14.122  11.117  1.00  0.00     0.003 C 
ATOM      2  C   UNL     1       3.198  12.940  10.877  1.00  0.00     0.000 C 
ENDROOT
BRANCH   1   3
ATOM      3  C   UNL     1       3.047  15.422  11.064  1.00  0.00    -0.055 C 
ATOM      4  C   UNL     1       5.173  16.722  11.414  1.00  0.00     0.036 C 
ATOM      5  C   UNL     1       3.694  16.597  11.203  1.00  0.00    -0.027 C 
ATOM      6  C   UNL     1       1.549  15.439  10.875  1.00  0.00     0.044 C 
ENDBRANCH   1   3
BRANCH   2   7
ATOM      7  C   UNL     1       3.981  11.687  10.945  1.00  0.00    -0.001 C 
ATOM      8  C   UNL     1       3.585  10.591  11.618  1.00  0.00    -0.076 C 
ATOM      9  C   UNL     1       2.283  10.545  12.377  1.00  0.00     0.039 C 
ATOM     10  C   UNL     1       4.477   9.379  11.607  1.00  0.00     0.039 C 
ENDBRANCH   2   7
TORSDOF 2
ENDMDL
