MODEL 1
REMARK VINA RESULT:    -4.643      0.000      0.000
REMARK INTER + INTRA:          -5.396
REMARK INTER:                  -5.322
REMARK INTRA:                  -0.074
REMARK UNBOUND:                -0.074
REMARK SMILES COc1cc(C(=O)[O-])ccc1O
REMARK SMILES IDX 5 1 9 2 4 3 10 4 3 5 11 6 6 7 7 8 8 9 2 10 1 11 12 12
REMARK H PARENT 12 13
REMARK Flexibility Score: inf
ROOT
ATOM      1  C   UNL     1      35.185 -13.461   5.682  1.00  0.00     0.001 A 
ATOM      2  C   UNL     1      34.070 -12.839   6.265  1.00  0.00     0.014 A 
ATOM      3  C   UNL     1      36.198 -12.663   5.123  1.00  0.00     0.060 A 
ATOM      4  C   UNL     1      33.969 -11.447   6.289  1.00  0.00     0.051 A 
ATOM      5  C   UNL     1      36.103 -11.257   5.144  1.00  0.00     0.161 A 
ATOM      6  C   UNL     1      34.976 -10.654   5.733  1.00  0.00     0.157 A 
ENDROOT
BRANCH   1   7
ATOM      7  C   UNL     1      35.295 -14.937   5.656  1.00  0.00     0.072 C 
ATOM      8  O   UNL     1      34.817 -15.599   4.696  1.00  0.00    -0.545 OA
ATOM      9  O   UNL     1      35.930 -15.616   6.691  1.00  0.00    -0.545 OA
ENDBRANCH   1   7
BRANCH   5  10
ATOM     10  O   UNL     1      37.099 -10.434   4.594  1.00  0.00    -0.493 OA
ATOM     11  C   UNL     1      38.460 -10.815   4.426  1.00  0.00     0.278 C 
ENDBRANCH   5  10
BRANCH   6  12
ATOM     12  O   UNL     1      34.840  -9.266   5.777  1.00  0.00    -0.504 OA
ATOM     13  H   UNL     1      34.044  -8.789   5.372  1.00  0.00     0.293 HD
ENDBRANCH   6  12
TORSDOF 3
ENDMDL
MODEL 2
REMARK VINA RESULT:    -4.509      1.890      2.797
REMARK INTER + INTRA:          -5.243
REMARK INTER:                  -5.145
REMARK INTRA:                  -0.098
REMARK UNBOUND:                -0.074
REMARK SMILES COc1cc(C(=O)[O-])ccc1O
REMARK SMILES IDX 5 1 9 2 4 3 10 4 3 5 11 6 6 7 7 8 8 9 2 10 1 11 12 12
REMARK H PARENT 12 13
REMARK Flexibility Score: inf
ROOT
ATOM      1  C   UNL     1      36.016 -12.785   4.731  1.00  0.00     0.001 A 
ATOM      2  C   UNL     1      35.370 -13.574   5.696  1.00  0.00     0.014 A 
ATOM      3  C   UNL     1      35.776 -11.400   4.707  1.00  0.00     0.060 A 
ATOM      4  C   UNL     1      34.502 -12.990   6.620  1.00  0.00     0.051 A 
ATOM      5  C   UNL     1      34.900 -10.804   5.638  1.00  0.00     0.161 A 
ATOM      6  C   UNL     1      34.263 -11.613   6.597  1.00  0.00     0.157 A 
ENDROOT
BRANCH   1   7
ATOM      7  C   UNL     1      36.938 -13.402   3.750  1.00  0.00     0.072 C 
ATOM      8  O   UNL     1      36.523 -14.273   2.940  1.00  0.00    -0.545 OA
ATOM      9  O   UNL     1      38.276 -13.026   3.708  1.00  0.00    -0.545 OA
ENDBRANCH   1   7
BRANCH   5  10
ATOM     10  O   UNL     1      34.641  -9.424   5.639  1.00  0.00    -0.493 OA
ATOM     11  C   UNL     1      33.761  -8.767   4.733  1.00  0.00     0.278 C 
ENDBRANCH   5  10
BRANCH   6  12
ATOM     12  O   UNL     1      33.390 -11.066   7.537  1.00  0.00    -0.504 OA
ATOM     13  H   UNL     1      32.476 -11.463   7.719  1.00  0.00     0.293 HD
ENDBRANCH   6  12
TORSDOF 3
ENDMDL
MODEL 3
REMARK VINA RESULT:    -4.447      2.022      3.477
REMARK INTER + INTRA:          -5.171
REMARK INTER:                  -5.082
REMARK INTRA:                  -0.089
REMARK UNBOUND:                -0.074
REMARK SMILES COc1cc(C(=O)[O-])ccc1O
REMARK SMILES IDX 5 1 9 2 4 3 10 4 3 5 11 6 6 7 7 8 8 9 2 10 1 11 12 12
REMARK H PARENT 12 13
REMARK Flexibility Score: inf
ROOT
ATOM      1  C   UNL     1      34.673 -11.642   5.944  1.00  0.00     0.001 A 
ATOM      2  C   UNL     1      35.269 -10.425   5.578  1.00  0.00     0.014 A 
ATOM      3  C   UNL     1      35.303 -12.847   5.586  1.00  0.00     0.060 A 
ATOM      4  C   UNL     1      36.472 -10.413   4.869  1.00  0.00     0.051 A 
ATOM      5  C   UNL     1      36.518 -12.841   4.871  1.00  0.00     0.161 A 
ATOM      6  C   UNL     1      37.098 -11.610   4.514  1.00  0.00     0.157 A 
ENDROOT
BRANCH   1   7
ATOM      7  C   UNL     1      33.398 -11.659   6.697  1.00  0.00     0.072 C 
ATOM      8  O   UNL     1      32.310 -11.899   6.109  1.00  0.00    -0.545 OA
ATOM      9  O   UNL     1      33.384 -11.412   8.065  1.00  0.00    -0.545 OA
ENDBRANCH   1   7
BRANCH   5  10
ATOM     10  O   UNL     1      37.170 -14.028   4.499  1.00  0.00    -0.493 OA
ATOM     11  C   UNL     1      38.107 -14.724   5.314  1.00  0.00     0.278 C 
ENDBRANCH   5  10
BRANCH   6  12
ATOM     12  O   UNL     1      38.298 -11.557   3.805  1.00  0.00    -0.504 OA
ATOM     13  H   UNL     1      38.643 -12.342   3.268  1.00  0.00     0.293 HD
ENDBRANCH   6  12
TORSDOF 3
ENDMDL
MODEL 4
REMARK VINA RESULT:    -4.344      1.742      3.452
REMARK INTER + INTRA:          -5.054
REMARK INTER:                  -4.969
REMARK INTRA:                  -0.085
REMARK UNBOUND:                -0.074
REMARK SMILES COc1cc(C(=O)[O-])ccc1O
REMARK SMILES IDX 5 1 9 2 4 3 10 4 3 5 11 6 6 7 7 8 8 9 2 10 1 11 12 12
REMARK H PARENT 12 13
REMARK Flexibility Score: inf
ROOT
ATOM      1  C   UNL     1      34.742 -12.070   5.900  1.00  0.00     0.001 A 
ATOM      2  C   UNL     1      34.818 -13.463   6.053  1.00  0.00     0.014 A 
ATOM      3  C   UNL     1      35.760 -11.403   5.197  1.00  0.00     0.060 A 
ATOM      4  C   UNL     1      35.890 -14.176   5.513  1.00  0.00     0.051 A 
ATOM      5  C   UNL     1      36.845 -12.117   4.649  1.00  0.00     0.161 A 
ATOM      6  C   UNL     1      36.902 -13.513   4.814  1.00  0.00     0.157 A 
ENDROOT
BRANCH   1   7
ATOM      7  C   UNL     1      33.606 -11.311   6.470  1.00  0.00     0.072 C 
ATOM      8  O   UNL     1      32.904 -10.563   5.740  1.00  0.00    -0.545 OA
ATOM      9  O   UNL     1      33.297 -11.414   7.823  1.00  0.00    -0.545 OA
ENDBRANCH   1   7
BRANCH   5  10
ATOM     10  O   UNL     1      37.877 -11.479   3.943  1.00  0.00    -0.493 OA
ATOM     11  C   UNL     1      39.069 -10.971   4.535  1.00  0.00     0.278 C 
ENDBRANCH   5  10
BRANCH   6  12
ATOM     12  O   UNL     1      37.957 -14.260   4.290  1.00  0.00    -0.504 OA
ATOM     13  H   UNL     1      38.826 -13.833   3.993  1.00  0.00     0.293 HD
ENDBRANCH   6  12
TORSDOF 3
ENDMDL
MODEL 5
REMARK VINA RESULT:    -4.248     12.992     14.716
REMARK INTER + INTRA:          -4.943
REMARK INTER:                  -4.847
REMARK INTRA:                  -0.095
REMARK UNBOUND:                -0.074
REMARK SMILES COc1cc(C(=O)[O-])ccc1O
REMARK SMILES IDX 5 1 9 2 4 3 10 4 3 5 11 6 6 7 7 8 8 9 2 10 1 11 12 12
REMARK H PARENT 12 13
REMARK Flexibility Score: inf
ROOT
ATOM      1  C   UNL     1      26.790 -18.169  14.306  1.00  0.00     0.001 A 
ATOM      2  C   UNL     1      25.576 -17.669  14.803  1.00  0.00     0.014 A 
ATOM      3  C   UNL     1      27.808 -18.516  15.212  1.00  0.00     0.060 A 
ATOM      4  C   UNL     1      25.384 -17.518  16.178  1.00  0.00     0.051 A 
ATOM      5  C   UNL     1      27.620 -18.366  16.601  1.00  0.00     0.161 A 
ATOM      6  C   UNL     1      26.396 -17.862  17.077  1.00  0.00     0.157 A 
ENDROOT
BRANCH   1   7
ATOM      7  C   UNL     1      26.997 -18.332  12.850  1.00  0.00     0.072 C 
ATOM      8  O   UNL     1      28.147 -18.551  12.386  1.00  0.00    -0.545 OA
ATOM      9  O   UNL     1      25.922 -18.246  11.971  1.00  0.00    -0.545 OA
ENDBRANCH   1   7
BRANCH   5  10
ATOM     10  O   UNL     1      28.618 -18.703  17.529  1.00  0.00    -0.493 OA
ATOM     11  C   UNL     1      29.170 -20.006  17.685  1.00  0.00     0.278 C 
ENDBRANCH   5  10
BRANCH   6  12
ATOM     12  O   UNL     1      26.166 -17.697  18.443  1.00  0.00    -0.504 OA
ATOM     13  H   UNL     1      26.085 -16.782  18.870  1.00  0.00     0.293 HD
ENDBRANCH   6  12
TORSDOF 3
ENDMDL
MODEL 6
REMARK VINA RESULT:    -4.247      1.653      2.952
REMARK INTER + INTRA:          -4.942
REMARK INTER:                  -4.845
REMARK INTRA:                  -0.096
REMARK UNBOUND:                -0.074
REMARK SMILES COc1cc(C(=O)[O-])ccc1O
REMARK SMILES IDX 5 1 9 2 4 3 10 4 3 5 11 6 6 7 7 8 8 9 2 10 1 11 12 12
REMARK H PARENT 12 13
REMARK Flexibility Score: inf
ROOT
ATOM      1  C   UNL     1      36.831 -13.129   4.917  1.00  0.00     0.001 A 
ATOM      2  C   UNL     1      37.585 -12.012   4.527  1.00  0.00     0.014 A 
ATOM      3  C   UNL     1      35.546 -12.934   5.453  1.00  0.00     0.060 A 
ATOM      4  C   UNL     1      37.065 -10.724   4.668  1.00  0.00     0.051 A 
ATOM      5  C   UNL     1      35.015 -11.636   5.598  1.00  0.00     0.161 A 
ATOM      6  C   UNL     1      35.788 -10.530   5.201  1.00  0.00     0.157 A 
ENDROOT
BRANCH   1   7
ATOM      7  C   UNL     1      37.379 -14.496   4.768  1.00  0.00     0.072 C 
ATOM      8  O   UNL     1      36.816 -15.334   4.013  1.00  0.00    -0.545 OA
ATOM      9  O   UNL     1      38.525 -14.876   5.458  1.00  0.00    -0.545 OA
ENDBRANCH   1   7
BRANCH   5  10
ATOM     10  O   UNL     1      33.735 -11.410   6.129  1.00  0.00    -0.493 OA
ATOM     11  C   UNL     1      33.402 -11.519   7.510  1.00  0.00     0.278 C 
ENDBRANCH   5  10
BRANCH   6  12
ATOM     12  O   UNL     1      35.302  -9.228   5.326  1.00  0.00    -0.504 OA
ATOM     13  H   UNL     1      34.771  -8.925   6.133  1.00  0.00     0.293 HD
ENDBRANCH   6  12
TORSDOF 3
ENDMDL
MODEL 7
REMARK VINA RESULT:    -4.241      1.351      4.045
REMARK INTER + INTRA:          -4.935
REMARK INTER:                  -4.856
REMARK INTRA:                  -0.079
REMARK UNBOUND:                -0.074
REMARK SMILES COc1cc(C(=O)[O-])ccc1O
REMARK SMILES IDX 5 1 9 2 4 3 10 4 3 5 11 6 6 7 7 8 8 9 2 10 1 11 12 12
REMARK H PARENT 12 13
REMARK Flexibility Score: inf
ROOT
ATOM      1  C   UNL     1      34.913 -11.077   5.612  1.00  0.00     0.001 A 
ATOM      2  C   UNL     1      34.361 -12.181   6.280  1.00  0.00     0.014 A 
ATOM      3  C   UNL     1      35.990 -11.279   4.731  1.00  0.00     0.060 A 
ATOM      4  C   UNL     1      34.875 -13.462   6.072  1.00  0.00     0.051 A 
ATOM      5  C   UNL     1      36.514 -12.570   4.517  1.00  0.00     0.161 A 
ATOM      6  C   UNL     1      35.946 -13.663   5.197  1.00  0.00     0.157 A 
ENDROOT
BRANCH   1   7
ATOM      7  C   UNL     1      34.370  -9.717   5.829  1.00  0.00     0.072 C 
ATOM      8  O   UNL     1      34.125  -9.303   6.994  1.00  0.00    -0.545 OA
ATOM      9  O   UNL     1      34.123  -8.875   4.750  1.00  0.00    -0.545 OA
ENDBRANCH   1   7
BRANCH   5  10
ATOM     10  O   UNL     1      37.589 -12.803   3.644  1.00  0.00    -0.493 OA
ATOM     11  C   UNL     1      38.639 -11.876   3.390  1.00  0.00     0.278 C 
ENDBRANCH   5  10
BRANCH   6  12
ATOM     12  O   UNL     1      36.431 -14.958   5.016  1.00  0.00    -0.504 OA
ATOM     13  H   UNL     1      35.836 -15.720   4.716  1.00  0.00     0.293 HD
ENDBRANCH   6  12
TORSDOF 3
ENDMDL
MODEL 8
REMARK VINA RESULT:    -4.070      1.564      4.550
REMARK INTER + INTRA:          -4.739
REMARK INTER:                  -4.661
REMARK INTRA:                  -0.078
REMARK UNBOUND:                -0.074
REMARK SMILES COc1cc(C(=O)[O-])ccc1O
REMARK SMILES IDX 5 1 9 2 4 3 10 4 3 5 11 6 6 7 7 8 8 9 2 10 1 11 12 12
REMARK H PARENT 12 13
REMARK Flexibility Score: inf
ROOT
ATOM      1  C   UNL     1      35.798 -11.084   5.240  1.00  0.00     0.001 A 
ATOM      2  C   UNL     1      37.051 -10.583   4.854  1.00  0.00     0.014 A 
ATOM      3  C   UNL     1      35.599 -12.475   5.278  1.00  0.00     0.060 A 
ATOM      4  C   UNL     1      38.086 -11.456   4.513  1.00  0.00     0.051 A 
ATOM      5  C   UNL     1      36.641 -13.362   4.934  1.00  0.00     0.161 A 
ATOM      6  C   UNL     1      37.888 -12.839   4.550  1.00  0.00     0.157 A 
ENDROOT
BRANCH   1   7
ATOM      7  C   UNL     1      34.699 -10.161   5.604  1.00  0.00     0.072 C 
ATOM      8  O   UNL     1      34.489  -9.117   4.931  1.00  0.00    -0.545 OA
ATOM      9  O   UNL     1      33.880 -10.435   6.694  1.00  0.00    -0.545 OA
ENDBRANCH   1   7
BRANCH   5  10
ATOM     10  O   UNL     1      36.472 -14.755   4.962  1.00  0.00    -0.493 OA
ATOM     11  C   UNL     1      35.220 -15.421   4.824  1.00  0.00     0.278 C 
ENDBRANCH   5  10
BRANCH   6  12
ATOM     12  O   UNL     1      38.947 -13.679   4.202  1.00  0.00    -0.504 OA
ATOM     13  H   UNL     1      39.355 -14.333   4.858  1.00  0.00     0.293 HD
ENDBRANCH   6  12
TORSDOF 3
ENDMDL
