MODEL 1
REMARK VINA RESULT:    -5.247      0.000      0.000
REMARK INTER + INTRA:          -7.583
REMARK INTER:                  -7.087
REMARK INTRA:                  -0.495
REMARK UNBOUND:                -0.495
REMARK SMILES COc1ccc(-c2cc(=O)c3c(OC)c(OC)c(OC)c(OC)c3o2)cc1
REMARK SMILES IDX 7 1 8 2 9 3 10 4 11 5 24 6 25 7 21 8 18 9 15 10 12 11 6 12
REMARK SMILES IDX 3 13 4 14 27 15 5 16 26 17 2 18 1 19 22 20 23 21 13 22 14 23
REMARK SMILES IDX 19 24 20 25 16 26 17 27
REMARK H PARENT
REMARK Flexibility Score: inf
ROOT
ATOM      1  C   UNL     1     129.287 127.632 133.376  1.00  0.00     0.138 A 
ATOM      2  C   UNL     1     127.898 127.707 133.512  1.00  0.00     0.100 A 
ATOM      3  C   UNL     1     127.163 126.535 133.672  1.00  0.00     0.197 A 
ATOM      4  O   UNL     1     125.912 126.625 133.792  1.00  0.00    -0.289 OA
ATOM      5  C   UNL     1     127.826 125.284 133.693  1.00  0.00     0.115 A 
ATOM      6  C   UNL     1     129.234 125.288 133.534  1.00  0.00     0.188 A 
ATOM      7  O   UNL     1     129.880 126.442 133.383  1.00  0.00    -0.452 OA
ATOM      8  C   UNL     1     129.952 124.073 133.547  1.00  0.00     0.209 A 
ATOM      9  C   UNL     1     129.263 122.858 133.698  1.00  0.00     0.211 A 
ATOM     10  C   UNL     1     127.861 122.839 133.898  1.00  0.00     0.208 A 
ATOM     11  C   UNL     1     127.135 124.060 133.875  1.00  0.00     0.179 A 
ENDROOT
BRANCH   1  12
ATOM     12  C   UNL     1     130.117 128.850 133.213  1.00  0.00     0.018 A 
ATOM     13  C   UNL     1     131.743 131.137 132.903  1.00  0.00     0.118 A 
ATOM     14  C   UNL     1     131.930 130.013 132.078  1.00  0.00     0.047 A 
ATOM     15  C   UNL     1     130.742 131.108 133.879  1.00  0.00     0.047 A 
ATOM     16  C   UNL     1     131.125 128.880 132.237  1.00  0.00     0.016 A 
ATOM     17  C   UNL     1     129.937 129.976 134.038  1.00  0.00     0.016 A 
BRANCH  13  18
ATOM     18  O   UNL     1     132.527 132.295 132.787  1.00  0.00    -0.497 OA
ATOM     19  C   UNL     1     132.423 133.426 133.646  1.00  0.00     0.278 C 
ENDBRANCH  13  18
ENDBRANCH   1  12
BRANCH   8  20
ATOM     20  O   UNL     1     131.357 124.003 133.450  1.00  0.00    -0.490 OA
ATOM     21  C   UNL     1     132.126 123.933 132.255  1.00  0.00     0.278 C 
ENDBRANCH   8  20
BRANCH  11  22
ATOM     22  O   UNL     1     125.732 124.114 134.035  1.00  0.00    -0.492 OA
ATOM     23  C   UNL     1     124.734 123.896 133.042  1.00  0.00     0.278 C 
ENDBRANCH  11  22
BRANCH   9  24
ATOM     24  O   UNL     1     129.985 121.661 133.665  1.00  0.00    -0.490 OA
ATOM     25  C   UNL     1     130.151 120.894 132.475  1.00  0.00     0.279 C 
ENDBRANCH   9  24
BRANCH  10  26
ATOM     26  O   UNL     1     127.150 121.644 134.121  1.00  0.00    -0.490 OA
ATOM     27  C   UNL     1     126.625 120.752 133.144  1.00  0.00     0.278 C 
ENDBRANCH  10  26
TORSDOF 6
ENDMDL
MODEL 2
REMARK VINA RESULT:    -5.230      3.077      9.626
REMARK INTER + INTRA:          -7.560
REMARK INTER:                  -7.241
REMARK INTRA:                  -0.319
REMARK UNBOUND:                -0.495
REMARK SMILES COc1ccc(-c2cc(=O)c3c(OC)c(OC)c(OC)c(OC)c3o2)cc1
REMARK SMILES IDX 7 1 8 2 9 3 10 4 11 5 24 6 25 7 21 8 18 9 15 10 12 11 6 12
REMARK SMILES IDX 3 13 4 14 27 15 5 16 26 17 2 18 1 19 22 20 23 21 13 22 14 23
REMARK SMILES IDX 19 24 20 25 16 26 17 27
REMARK H PARENT
REMARK Flexibility Score: inf
ROOT
ATOM      1  C   UNL     1     128.961 131.117 133.204  1.00  0.00     0.138 A 
ATOM      2  C   UNL     1     128.115 132.197 133.473  1.00  0.00     0.100 A 
ATOM      3  C   UNL     1     128.636 133.488 133.478  1.00  0.00     0.197 A 
ATOM      4  O   UNL     1     127.855 134.447 133.723  1.00  0.00    -0.289 OA
ATOM      5  C   UNL     1     130.011 133.695 133.213  1.00  0.00     0.115 A 
ATOM      6  C   UNL     1     130.808 132.550 132.965  1.00  0.00     0.188 A 
ATOM      7  O   UNL     1     130.251 131.341 132.976  1.00  0.00    -0.452 OA
ATOM      8  C   UNL     1     132.186 132.691 132.693  1.00  0.00     0.209 A 
ATOM      9  C   UNL     1     132.768 133.969 132.691  1.00  0.00     0.211 A 
ATOM     10  C   UNL     1     131.979 135.127 132.898  1.00  0.00     0.208 A 
ATOM     11  C   UNL     1     130.594 134.987 133.181  1.00  0.00     0.179 A 
ENDROOT
BRANCH   1  12
ATOM     12  C   UNL     1     128.455 129.723 133.178  1.00  0.00     0.018 A 
ATOM     13  C   UNL     1     127.440 127.090 133.125  1.00  0.00     0.118 A 
ATOM     14  C   UNL     1     127.004 128.040 132.185  1.00  0.00     0.047 A 
ATOM     15  C   UNL     1     128.382 127.465 134.087  1.00  0.00     0.047 A 
ATOM     16  C   UNL     1     127.506 129.345 132.216  1.00  0.00     0.016 A 
ATOM     17  C   UNL     1     128.885 128.769 134.119  1.00  0.00     0.016 A 
BRANCH  13  18
ATOM     18  O   UNL     1     126.963 125.770 133.139  1.00  0.00    -0.497 OA
ATOM     19  C   UNL     1     125.896 125.310 133.963  1.00  0.00     0.278 C 
ENDBRANCH  13  18
ENDBRANCH   1  12
BRANCH   8  20
ATOM     20  O   UNL     1     133.029 131.604 132.383  1.00  0.00    -0.490 OA
ATOM     21  C   UNL     1     132.729 130.512 131.522  1.00  0.00     0.278 C 
ENDBRANCH   8  20
BRANCH  11  22
ATOM     22  O   UNL     1     129.752 136.094 133.430  1.00  0.00    -0.492 OA
ATOM     23  C   UNL     1     129.334 137.094 132.507  1.00  0.00     0.278 C 
ENDBRANCH  11  22
BRANCH   9  24
ATOM     24  O   UNL     1     134.143 134.088 132.464  1.00  0.00    -0.490 OA
ATOM     25  C   UNL     1     135.097 134.133 133.522  1.00  0.00     0.279 C 
ENDBRANCH   9  24
BRANCH  10  26
ATOM     26  O   UNL     1     132.519 136.426 132.834  1.00  0.00    -0.490 OA
ATOM     27  C   UNL     1     133.008 137.216 133.912  1.00  0.00     0.278 C 
ENDBRANCH  10  26
TORSDOF 6
ENDMDL
MODEL 3
REMARK VINA RESULT:    -5.219      1.507      3.876
REMARK INTER + INTRA:          -7.545
REMARK INTER:                  -7.290
REMARK INTRA:                  -0.255
REMARK UNBOUND:                -0.495
REMARK SMILES COc1ccc(-c2cc(=O)c3c(OC)c(OC)c(OC)c(OC)c3o2)cc1
REMARK SMILES IDX 7 1 8 2 9 3 10 4 11 5 24 6 25 7 21 8 18 9 15 10 12 11 6 12
REMARK SMILES IDX 3 13 4 14 27 15 5 16 26 17 2 18 1 19 22 20 23 21 13 22 14 23
REMARK SMILES IDX 19 24 20 25 16 26 17 27
REMARK H PARENT
REMARK Flexibility Score: inf
ROOT
ATOM      1  C   UNL     1     130.681 128.530 133.164  1.00  0.00     0.138 A 
ATOM      2  C   UNL     1     131.524 127.443 133.413  1.00  0.00     0.100 A 
ATOM      3  C   UNL     1     131.003 126.153 133.382  1.00  0.00     0.197 A 
ATOM      4  O   UNL     1     131.781 125.188 133.610  1.00  0.00    -0.289 OA
ATOM      5  C   UNL     1     129.630 125.953 133.101  1.00  0.00     0.115 A 
ATOM      6  C   UNL     1     128.836 127.105 132.874  1.00  0.00     0.188 A 
ATOM      7  O   UNL     1     129.393 128.313 132.920  1.00  0.00    -0.452 OA
ATOM      8  C   UNL     1     127.460 126.972 132.588  1.00  0.00     0.209 A 
ATOM      9  C   UNL     1     126.877 125.695 132.550  1.00  0.00     0.211 A 
ATOM     10  C   UNL     1     127.664 124.532 132.735  1.00  0.00     0.208 A 
ATOM     11  C   UNL     1     129.046 124.663 133.032  1.00  0.00     0.179 A 
ENDROOT
BRANCH   1  12
ATOM     12  C   UNL     1     131.189 129.924 133.176  1.00  0.00     0.018 A 
ATOM     13  C   UNL     1     132.101 132.595 133.201  1.00  0.00     0.118 A 
ATOM     14  C   UNL     1     131.132 132.165 134.125  1.00  0.00     0.047 A 
ATOM     15  C   UNL     1     132.606 131.683 132.268  1.00  0.00     0.047 A 
ATOM     16  C   UNL     1     130.680 130.842 134.108  1.00  0.00     0.016 A 
ATOM     17  C   UNL     1     132.155 130.361 132.251  1.00  0.00     0.016 A 
BRANCH  13  18
ATOM     18  O   UNL     1     132.583 133.912 133.173  1.00  0.00    -0.497 OA
ATOM     19  C   UNL     1     133.527 134.443 134.098  1.00  0.00     0.278 C 
ENDBRANCH  13  18
ENDBRANCH   1  12
BRANCH   8  20
ATOM     20  O   UNL     1     126.621 128.067 132.298  1.00  0.00    -0.490 OA
ATOM     21  C   UNL     1     126.959 129.223 131.541  1.00  0.00     0.278 C 
ENDBRANCH   8  20
BRANCH  11  22
ATOM     22  O   UNL     1     129.885 123.550 133.262  1.00  0.00    -0.492 OA
ATOM     23  C   UNL     1     130.282 122.552 132.326  1.00  0.00     0.278 C 
ENDBRANCH  11  22
BRANCH   9  24
ATOM     24  O   UNL     1     125.504 125.583 132.308  1.00  0.00    -0.490 OA
ATOM     25  C   UNL     1     124.542 125.491 133.357  1.00  0.00     0.279 C 
ENDBRANCH   9  24
BRANCH  10  26
ATOM     26  O   UNL     1     127.123 123.235 132.634  1.00  0.00    -0.490 OA
ATOM     27  C   UNL     1     126.652 122.408 133.692  1.00  0.00     0.278 C 
ENDBRANCH  10  26
TORSDOF 6
ENDMDL
MODEL 4
REMARK VINA RESULT:    -5.163      3.527     11.232
REMARK INTER + INTRA:          -7.469
REMARK INTER:                  -6.987
REMARK INTRA:                  -0.482
REMARK UNBOUND:                -0.495
REMARK SMILES COc1ccc(-c2cc(=O)c3c(OC)c(OC)c(OC)c(OC)c3o2)cc1
REMARK SMILES IDX 7 1 8 2 9 3 10 4 11 5 24 6 25 7 21 8 18 9 15 10 12 11 6 12
REMARK SMILES IDX 3 13 4 14 27 15 5 16 26 17 2 18 1 19 22 20 23 21 13 22 14 23
REMARK SMILES IDX 19 24 20 25 16 26 17 27
REMARK H PARENT
REMARK Flexibility Score: inf
ROOT
ATOM      1  C   UNL     1     130.349 132.156 133.379  1.00  0.00     0.138 A 
ATOM      2  C   UNL     1     131.734 132.098 133.556  1.00  0.00     0.100 A 
ATOM      3  C   UNL     1     132.453 133.281 133.704  1.00  0.00     0.197 A 
ATOM      4  O   UNL     1     133.702 133.206 133.862  1.00  0.00    -0.289 OA
ATOM      5  C   UNL     1     131.779 134.526 133.674  1.00  0.00     0.115 A 
ATOM      6  C   UNL     1     130.376 134.503 133.475  1.00  0.00     0.188 A 
ATOM      7  O   UNL     1     129.745 133.339 133.337  1.00  0.00    -0.452 OA
ATOM      8  C   UNL     1     129.647 135.711 133.436  1.00  0.00     0.209 A 
ATOM      9  C   UNL     1     130.320 136.936 133.574  1.00  0.00     0.211 A 
ATOM     10  C   UNL     1     131.716 136.975 133.812  1.00  0.00     0.208 A 
ATOM     11  C   UNL     1     132.453 135.761 133.842  1.00  0.00     0.179 A 
ENDROOT
BRANCH   1  12
ATOM     12  C   UNL     1     129.535 130.925 133.225  1.00  0.00     0.018 A 
ATOM     13  C   UNL     1     128.033 128.553 132.929  1.00  0.00     0.118 A 
ATOM     14  C   UNL     1     129.096 128.613 133.848  1.00  0.00     0.047 A 
ATOM     15  C   UNL     1     127.730 129.683 132.162  1.00  0.00     0.047 A 
ATOM     16  C   UNL     1     129.840 129.788 133.990  1.00  0.00     0.016 A 
ATOM     17  C   UNL     1     128.473 130.858 132.304  1.00  0.00     0.016 A 
BRANCH  13  18
ATOM     18  O   UNL     1     127.261 127.397 132.745  1.00  0.00    -0.497 OA
ATOM     19  C   UNL     1     127.757 126.176 132.205  1.00  0.00     0.278 C 
ENDBRANCH  13  18
ENDBRANCH   1  12
BRANCH   8  20
ATOM     20  O   UNL     1     128.245 135.764 133.298  1.00  0.00    -0.490 OA
ATOM     21  C   UNL     1     127.511 135.838 132.081  1.00  0.00     0.278 C 
ENDBRANCH   8  20
BRANCH  11  22
ATOM     22  O   UNL     1     133.851 135.725 134.042  1.00  0.00    -0.492 OA
ATOM     23  C   UNL     1     134.874 135.994 133.088  1.00  0.00     0.278 C 
ENDBRANCH  11  22
BRANCH   9  24
ATOM     24  O   UNL     1     129.588 138.125 133.489  1.00  0.00    -0.490 OA
ATOM     25  C   UNL     1     129.436 138.850 132.271  1.00  0.00     0.279 C 
ENDBRANCH   9  24
BRANCH  10  26
ATOM     26  O   UNL     1     132.409 138.182 134.023  1.00  0.00    -0.490 OA
ATOM     27  C   UNL     1     132.891 139.088 133.037  1.00  0.00     0.278 C 
ENDBRANCH  10  26
TORSDOF 6
ENDMDL
MODEL 5
REMARK VINA RESULT:    -5.010      2.242      3.713
REMARK INTER + INTRA:          -7.262
REMARK INTER:                  -6.646
REMARK INTRA:                  -0.616
REMARK UNBOUND:                -0.495
REMARK SMILES COc1ccc(-c2cc(=O)c3c(OC)c(OC)c(OC)c(OC)c3o2)cc1
REMARK SMILES IDX 7 1 8 2 9 3 10 4 11 5 24 6 25 7 21 8 18 9 15 10 12 11 6 12
REMARK SMILES IDX 3 13 4 14 27 15 5 16 26 17 2 18 1 19 22 20 23 21 13 22 14 23
REMARK SMILES IDX 19 24 20 25 16 26 17 27
REMARK H PARENT
REMARK Flexibility Score: inf
ROOT
ATOM      1  C   UNL     1     130.610 128.191 132.698  1.00  0.00     0.138 A 
ATOM      2  C   UNL     1     131.286 127.127 133.302  1.00  0.00     0.100 A 
ATOM      3  C   UNL     1     130.770 125.839 133.193  1.00  0.00     0.197 A 
ATOM      4  O   UNL     1     131.396 124.895 133.746  1.00  0.00    -0.289 OA
ATOM      5  C   UNL     1     129.569 125.619 132.475  1.00  0.00     0.115 A 
ATOM      6  C   UNL     1     128.933 126.748 131.904  1.00  0.00     0.188 A 
ATOM      7  O   UNL     1     129.476 127.956 132.046  1.00  0.00    -0.452 OA
ATOM      8  C   UNL     1     127.734 126.594 131.176  1.00  0.00     0.209 A 
ATOM      9  C   UNL     1     127.163 125.318 131.038  1.00  0.00     0.211 A 
ATOM     10  C   UNL     1     127.806 124.173 131.569  1.00  0.00     0.208 A 
ATOM     11  C   UNL     1     129.008 124.328 132.310  1.00  0.00     0.179 A 
ENDROOT
BRANCH   1  12
ATOM     12  C   UNL     1     131.122 129.581 132.777  1.00  0.00     0.018 A 
ATOM     13  C   UNL     1     132.149 132.206 132.924  1.00  0.00     0.118 A 
ATOM     14  C   UNL     1     132.614 131.313 131.942  1.00  0.00     0.047 A 
ATOM     15  C   UNL     1     131.172 131.777 133.828  1.00  0.00     0.047 A 
ATOM     16  C   UNL     1     132.106 130.013 131.873  1.00  0.00     0.016 A 
ATOM     17  C   UNL     1     130.663 130.477 133.761  1.00  0.00     0.016 A 
BRANCH  13  18
ATOM     18  O   UNL     1     132.631 133.519 133.037  1.00  0.00    -0.497 OA
ATOM     19  C   UNL     1     133.916 133.862 133.547  1.00  0.00     0.278 C 
ENDBRANCH  13  18
ENDBRANCH   1  12
BRANCH   8  20
ATOM     20  O   UNL     1     127.076 127.662 130.534  1.00  0.00    -0.490 OA
ATOM     21  C   UNL     1     127.431 128.261 129.293  1.00  0.00     0.278 C 
ENDBRANCH   8  20
BRANCH  11  22
ATOM     22  O   UNL     1     129.686 123.236 132.896  1.00  0.00    -0.492 OA
ATOM     23  C   UNL     1     129.254 122.426 133.985  1.00  0.00     0.278 C 
ENDBRANCH  11  22
BRANCH   9  24
ATOM     24  O   UNL     1     125.952 125.188 130.351  1.00  0.00    -0.490 OA
ATOM     25  C   UNL     1     125.885 124.915 128.953  1.00  0.00     0.279 C 
ENDBRANCH   9  24
BRANCH  10  26
ATOM     26  O   UNL     1     127.296 122.873 131.388  1.00  0.00    -0.490 OA
ATOM     27  C   UNL     1     127.621 121.950 130.355  1.00  0.00     0.278 C 
ENDBRANCH  10  26
TORSDOF 6
ENDMDL
MODEL 6
REMARK VINA RESULT:    -4.914      3.053      9.848
REMARK INTER + INTRA:          -7.133
REMARK INTER:                  -6.550
REMARK INTRA:                  -0.583
REMARK UNBOUND:                -0.495
REMARK SMILES COc1ccc(-c2cc(=O)c3c(OC)c(OC)c(OC)c(OC)c3o2)cc1
REMARK SMILES IDX 7 1 8 2 9 3 10 4 11 5 24 6 25 7 21 8 18 9 15 10 12 11 6 12
REMARK SMILES IDX 3 13 4 14 27 15 5 16 26 17 2 18 1 19 22 20 23 21 13 22 14 23
REMARK SMILES IDX 19 24 20 25 16 26 17 27
REMARK H PARENT
REMARK Flexibility Score: inf
ROOT
ATOM      1  C   UNL     1     128.955 131.298 132.865  1.00  0.00     0.138 A 
ATOM      2  C   UNL     1     128.272 132.322 133.528  1.00  0.00     0.100 A 
ATOM      3  C   UNL     1     128.795 133.612 133.514  1.00  0.00     0.197 A 
ATOM      4  O   UNL     1     128.163 134.520 134.119  1.00  0.00    -0.289 OA
ATOM      5  C   UNL     1     130.008 133.875 132.832  1.00  0.00     0.115 A 
ATOM      6  C   UNL     1     130.649 132.783 132.196  1.00  0.00     0.188 A 
ATOM      7  O   UNL     1     130.100 131.571 132.248  1.00  0.00    -0.452 OA
ATOM      8  C   UNL     1     131.860 132.981 131.499  1.00  0.00     0.209 A 
ATOM      9  C   UNL     1     132.438 134.261 131.457  1.00  0.00     0.211 A 
ATOM     10  C   UNL     1     131.790 135.370 132.053  1.00  0.00     0.208 A 
ATOM     11  C   UNL     1     130.576 135.172 132.763  1.00  0.00     0.179 A 
ENDROOT
BRANCH   1  12
ATOM     12  C   UNL     1     128.437 129.909 132.841  1.00  0.00     0.018 A 
ATOM     13  C   UNL     1     127.399 127.284 132.796  1.00  0.00     0.118 A 
ATOM     14  C   UNL     1     126.929 128.251 131.890  1.00  0.00     0.047 A 
ATOM     15  C   UNL     1     128.387 127.638 133.721  1.00  0.00     0.047 A 
ATOM     16  C   UNL     1     127.443 129.551 131.917  1.00  0.00     0.016 A 
ATOM     17  C   UNL     1     128.901 128.937 133.749  1.00  0.00     0.016 A 
BRANCH  13  18
ATOM     18  O   UNL     1     126.912 125.968 132.813  1.00  0.00    -0.497 OA
ATOM     19  C   UNL     1     126.986 125.098 133.938  1.00  0.00     0.278 C 
ENDBRANCH  13  18
ENDBRANCH   1  12
BRANCH   8  20
ATOM     20  O   UNL     1     132.526 131.956 130.798  1.00  0.00    -0.490 OA
ATOM     21  C   UNL     1     132.198 131.454 129.507  1.00  0.00     0.278 C 
ENDBRANCH   8  20
BRANCH  11  22
ATOM     22  O   UNL     1     129.892 136.224 133.410  1.00  0.00    -0.492 OA
ATOM     23  C   UNL     1     129.291 137.370 132.813  1.00  0.00     0.278 C 
ENDBRANCH  11  22
BRANCH   9  24
ATOM     24  O   UNL     1     133.661 134.431 130.800  1.00  0.00    -0.490 OA
ATOM     25  C   UNL     1     133.755 134.912 129.461  1.00  0.00     0.279 C 
ENDBRANCH   9  24
BRANCH  10  26
ATOM     26  O   UNL     1     132.308 136.677 131.969  1.00  0.00    -0.490 OA
ATOM     27  C   UNL     1     133.080 137.368 132.945  1.00  0.00     0.278 C 
ENDBRANCH  10  26
TORSDOF 6
ENDMDL
MODEL 7
REMARK VINA RESULT:    -4.664      3.151      4.113
REMARK INTER + INTRA:          -6.795
REMARK INTER:                  -6.130
REMARK INTRA:                  -0.665
REMARK UNBOUND:                -0.495
REMARK SMILES COc1ccc(-c2cc(=O)c3c(OC)c(OC)c(OC)c(OC)c3o2)cc1
REMARK SMILES IDX 7 1 8 2 9 3 10 4 11 5 24 6 25 7 21 8 18 9 15 10 12 11 6 12
REMARK SMILES IDX 3 13 4 14 27 15 5 16 26 17 2 18 1 19 22 20 23 21 13 22 14 23
REMARK SMILES IDX 19 24 20 25 16 26 17 27
REMARK H PARENT
REMARK Flexibility Score: inf
ROOT
ATOM      1  C   UNL     1     129.546 129.267 132.482  1.00  0.00     0.138 A 
ATOM      2  C   UNL     1     128.853 128.612 133.504  1.00  0.00     0.100 A 
ATOM      3  C   UNL     1     128.019 127.544 133.188  1.00  0.00     0.197 A 
ATOM      4  O   UNL     1     127.402 126.968 134.125  1.00  0.00    -0.289 OA
ATOM      5  C   UNL     1     127.880 127.131 131.841  1.00  0.00     0.115 A 
ATOM      6  C   UNL     1     128.603 127.853 130.859  1.00  0.00     0.188 A 
ATOM      7  O   UNL     1     129.383 128.869 131.225  1.00  0.00    -0.452 OA
ATOM      8  C   UNL     1     128.508 127.490 129.498  1.00  0.00     0.209 A 
ATOM      9  C   UNL     1     127.676 126.423 129.119  1.00  0.00     0.211 A 
ATOM     10  C   UNL     1     126.977 125.666 130.091  1.00  0.00     0.208 A 
ATOM     11  C   UNL     1     127.065 126.036 131.460  1.00  0.00     0.179 A 
ENDROOT
BRANCH   1  12
ATOM     12  C   UNL     1     130.454 130.405 132.766  1.00  0.00     0.018 A 
ATOM     13  C   UNL     1     132.226 132.536 133.302  1.00  0.00     0.118 A 
ATOM     14  C   UNL     1     132.456 131.675 132.213  1.00  0.00     0.047 A 
ATOM     15  C   UNL     1     131.110 132.322 134.117  1.00  0.00     0.047 A 
ATOM     16  C   UNL     1     131.578 130.619 131.952  1.00  0.00     0.016 A 
ATOM     17  C   UNL     1     130.232 131.266 133.857  1.00  0.00     0.016 A 
BRANCH  13  18
ATOM     18  O   UNL     1     133.080 133.606 133.609  1.00  0.00    -0.497 OA
ATOM     19  C   UNL     1     132.729 134.980 133.471  1.00  0.00     0.278 C 
ENDBRANCH  13  18
ENDBRANCH   1  12
BRANCH   8  20
ATOM     20  O   UNL     1     129.239 128.126 128.475  1.00  0.00    -0.490 OA
ATOM     21  C   UNL     1     128.884 129.320 127.789  1.00  0.00     0.278 C 
ENDBRANCH   8  20
BRANCH  11  22
ATOM     22  O   UNL     1     126.370 125.348 132.480  1.00  0.00    -0.492 OA
ATOM     23  C   UNL     1     124.963 125.312 132.702  1.00  0.00     0.278 C 
ENDBRANCH  11  22
BRANCH   9  24
ATOM     24  O   UNL     1     127.559 126.105 127.762  1.00  0.00    -0.490 OA
ATOM     25  C   UNL     1     126.475 126.559 126.956  1.00  0.00     0.279 C 
ENDBRANCH   9  24
BRANCH  10  26
ATOM     26  O   UNL     1     126.191 124.549 129.751  1.00  0.00    -0.490 OA
ATOM     27  C   UNL     1     126.618 123.199 129.609  1.00  0.00     0.278 C 
ENDBRANCH  10  26
TORSDOF 6
ENDMDL
MODEL 8
REMARK VINA RESULT:    -4.642      3.097      9.770
REMARK INTER + INTRA:          -6.766
REMARK INTER:                  -6.106
REMARK INTRA:                  -0.660
REMARK UNBOUND:                -0.495
REMARK SMILES COc1ccc(-c2cc(=O)c3c(OC)c(OC)c(OC)c(OC)c3o2)cc1
REMARK SMILES IDX 7 1 8 2 9 3 10 4 11 5 24 6 25 7 21 8 18 9 15 10 12 11 6 12
REMARK SMILES IDX 3 13 4 14 27 15 5 16 26 17 2 18 1 19 22 20 23 21 13 22 14 23
REMARK SMILES IDX 19 24 20 25 16 26 17 27
REMARK H PARENT
REMARK Flexibility Score: inf
ROOT
ATOM      1  C   UNL     1     130.006 130.623 132.411  1.00  0.00     0.138 A 
ATOM      2  C   UNL     1     130.663 131.279 133.456  1.00  0.00     0.100 A 
ATOM      3  C   UNL     1     131.521 132.336 133.167  1.00  0.00     0.197 A 
ATOM      4  O   UNL     1     132.103 132.913 134.124  1.00  0.00    -0.289 OA
ATOM      5  C   UNL     1     131.721 132.735 131.823  1.00  0.00     0.115 A 
ATOM      6  C   UNL     1     131.032 132.012 130.818  1.00  0.00     0.188 A 
ATOM      7  O   UNL     1     130.226 131.008 131.158  1.00  0.00    -0.452 OA
ATOM      8  C   UNL     1     131.189 132.362 129.459  1.00  0.00     0.209 A 
ATOM      9  C   UNL     1     132.047 133.417 129.107  1.00  0.00     0.211 A 
ATOM     10  C   UNL     1     132.712 134.175 130.101  1.00  0.00     0.208 A 
ATOM     11  C   UNL     1     132.563 133.818 131.468  1.00  0.00     0.179 A 
ENDROOT
BRANCH   1  12
ATOM     12  C   UNL     1     129.075 129.497 132.665  1.00  0.00     0.018 A 
ATOM     13  C   UNL     1     127.346 127.320 133.156  1.00  0.00     0.118 A 
ATOM     14  C   UNL     1     128.434 127.573 134.012  1.00  0.00     0.047 A 
ATOM     15  C   UNL     1     127.132 128.159 132.059  1.00  0.00     0.047 A 
ATOM     16  C   UNL     1     129.290 128.650 133.764  1.00  0.00     0.016 A 
ATOM     17  C   UNL     1     127.987 129.236 131.810  1.00  0.00     0.016 A 
BRANCH  13  18
ATOM     18  O   UNL     1     126.462 126.249 133.359  1.00  0.00    -0.497 OA
ATOM     19  C   UNL     1     126.781 124.884 133.106  1.00  0.00     0.278 C 
ENDBRANCH  13  18
ENDBRANCH   1  12
BRANCH   8  20
ATOM     20  O   UNL     1     130.494 131.726 128.411  1.00  0.00    -0.490 OA
ATOM     21  C   UNL     1     130.839 130.496 127.783  1.00  0.00     0.278 C 
ENDBRANCH   8  20
BRANCH  11  22
ATOM     22  O   UNL     1     133.222 134.508 132.511  1.00  0.00    -0.492 OA
ATOM     23  C   UNL     1     134.624 134.593 132.748  1.00  0.00     0.278 C 
ENDBRANCH  11  22
BRANCH   9  24
ATOM     24  O   UNL     1     132.225 133.723 127.754  1.00  0.00    -0.490 OA
ATOM     25  C   UNL     1     133.318 133.222 126.988  1.00  0.00     0.279 C 
ENDBRANCH   9  24
BRANCH  10  26
ATOM     26  O   UNL     1     133.524 135.281 129.785  1.00  0.00    -0.490 OA
ATOM     27  C   UNL     1     133.108 136.619 129.534  1.00  0.00     0.278 C 
ENDBRANCH  10  26
TORSDOF 6
ENDMDL
MODEL 9
REMARK VINA RESULT:    -4.536      3.071      9.813
REMARK INTER + INTRA:          -6.622
REMARK INTER:                  -6.014
REMARK INTRA:                  -0.608
REMARK UNBOUND:                -0.495
REMARK SMILES COc1ccc(-c2cc(=O)c3c(OC)c(OC)c(OC)c(OC)c3o2)cc1
REMARK SMILES IDX 7 1 8 2 9 3 10 4 11 5 24 6 25 7 21 8 18 9 15 10 12 11 6 12
REMARK SMILES IDX 3 13 4 14 27 15 5 16 26 17 2 18 1 19 22 20 23 21 13 22 14 23
REMARK SMILES IDX 19 24 20 25 16 26 17 27
REMARK H PARENT
REMARK Flexibility Score: inf
ROOT
ATOM      1  C   UNL     1     129.427 130.075 131.640  1.00  0.00     0.138 A 
ATOM      2  C   UNL     1     130.015 129.885 130.387  1.00  0.00     0.100 A 
ATOM      3  C   UNL     1     130.780 130.906 129.830  1.00  0.00     0.197 A 
ATOM      4  O   UNL     1     131.301 130.714 128.698  1.00  0.00    -0.289 OA
ATOM      5  C   UNL     1     130.954 132.122 130.534  1.00  0.00     0.115 A 
ATOM      6  C   UNL     1     130.314 132.245 131.792  1.00  0.00     0.188 A 
ATOM      7  O   UNL     1     129.593 131.233 132.270  1.00  0.00    -0.452 OA
ATOM      8  C   UNL     1     130.450 133.433 132.543  1.00  0.00     0.209 A 
ATOM      9  C   UNL     1     131.205 134.499 132.028  1.00  0.00     0.211 A 
ATOM     10  C   UNL     1     131.883 134.378 130.791  1.00  0.00     0.208 A 
ATOM     11  C   UNL     1     131.740 133.188 130.029  1.00  0.00     0.179 A 
ENDROOT
BRANCH   1  12
ATOM     12  C   UNL     1     128.610 129.016 132.282  1.00  0.00     0.018 A 
ATOM     13  C   UNL     1     127.102 126.969 133.510  1.00  0.00     0.118 A 
ATOM     14  C   UNL     1     128.297 127.423 134.096  1.00  0.00     0.047 A 
ATOM     15  C   UNL     1     126.671 127.544 132.310  1.00  0.00     0.047 A 
ATOM     16  C   UNL     1     129.044 128.435 133.484  1.00  0.00     0.016 A 
ATOM     17  C   UNL     1     127.416 128.555 131.697  1.00  0.00     0.016 A 
BRANCH  13  18
ATOM     18  O   UNL     1     126.321 125.954 134.082  1.00  0.00    -0.497 OA
ATOM     19  C   UNL     1     126.693 124.580 134.123  1.00  0.00     0.278 C 
ENDBRANCH  13  18
ENDBRANCH   1  12
BRANCH   8  20
ATOM     20  O   UNL     1     129.889 133.606 133.824  1.00  0.00    -0.490 OA
ATOM     21  C   UNL     1     128.557 134.005 134.125  1.00  0.00     0.278 C 
ENDBRANCH   8  20
BRANCH  11  22
ATOM     22  O   UNL     1     132.360 133.010 128.772  1.00  0.00    -0.492 OA
ATOM     23  C   UNL     1     132.072 133.692 127.555  1.00  0.00     0.278 C 
ENDBRANCH  11  22
BRANCH   9  24
ATOM     24  O   UNL     1     131.293 135.685 132.765  1.00  0.00    -0.490 OA
ATOM     25  C   UNL     1     132.339 135.933 133.701  1.00  0.00     0.279 C 
ENDBRANCH   9  24
BRANCH  10  26
ATOM     26  O   UNL     1     132.703 135.403 130.280  1.00  0.00    -0.490 OA
ATOM     27  C   UNL     1     134.120 135.508 130.377  1.00  0.00     0.278 C 
ENDBRANCH  10  26
TORSDOF 6
ENDMDL
