MODEL 1
REMARK VINA RESULT:    -5.151      0.000      0.000
REMARK INTER + INTRA:          -5.545
REMARK INTER:                  -5.452
REMARK INTRA:                  -0.092
REMARK UNBOUND:                -0.092
REMARK SMILES C=C(C)[C@H]1CC=C(C)C(=O)C1
REMARK SMILES IDX 8 1 7 2 6 3 5 4 4 5 11 6 9 7 10 8 2 9 1 10 3 11
REMARK H PARENT
REMARK Flexibility Score: inf
ROOT
ATOM      1  C   UNL     1      81.489   2.270  30.960  1.00  0.00     0.048 C 
ATOM      2  C   UNL     1      82.012   2.976  29.740  1.00  0.00    -0.012 C 
ATOM      3  C   UNL     1      82.190   2.293  28.595  1.00  0.00    -0.019 C 
ATOM      4  C   UNL     1      82.728   2.948  27.350  1.00  0.00     0.036 C 
ATOM      5  C   UNL     1      82.287   4.422  27.264  1.00  0.00     0.025 C 
ATOM      6  C   UNL     1      82.696   5.176  28.543  1.00  0.00     0.089 C 
ATOM      7  C   UNL     1      82.211   4.447  29.765  1.00  0.00     0.158 C 
ATOM      8  O   UNL     1      82.010   5.096  30.828  1.00  0.00    -0.295 OA
ENDROOT
BRANCH   5   9
ATOM      9  C   UNL     1      82.832   5.099  26.014  1.00  0.00    -0.077 C 
ATOM     10  C   UNL     1      82.189   6.133  25.442  1.00  0.00     0.008 C 
ATOM     11  C   UNL     1      84.116   4.615  25.389  1.00  0.00     0.039 C 
ENDBRANCH   5   9
TORSDOF 1
ENDMDL
MODEL 2
REMARK VINA RESULT:    -5.133      1.307      2.289
REMARK INTER + INTRA:          -5.525
REMARK INTER:                  -5.434
REMARK INTRA:                  -0.091
REMARK UNBOUND:                -0.092
REMARK SMILES C=C(C)[C@H]1CC=C(C)C(=O)C1
REMARK SMILES IDX 8 1 7 2 6 3 5 4 4 5 11 6 9 7 10 8 2 9 1 10 3 11
REMARK H PARENT
REMARK Flexibility Score: inf
ROOT
ATOM      1  C   UNL     1      81.859   4.178  31.704  1.00  0.00     0.048 C 
ATOM      2  C   UNL     1      82.021   4.397  30.225  1.00  0.00    -0.012 C 
ATOM      3  C   UNL     1      82.194   5.642  29.747  1.00  0.00    -0.019 C 
ATOM      4  C   UNL     1      82.343   5.918  28.274  1.00  0.00     0.036 C 
ATOM      5  C   UNL     1      83.056   4.753  27.561  1.00  0.00     0.025 C 
ATOM      6  C   UNL     1      82.318   3.429  27.834  1.00  0.00     0.089 C 
ATOM      7  C   UNL     1      82.117   3.231  29.312  1.00  0.00     0.158 C 
ATOM      8  O   UNL     1      81.991   2.060  29.763  1.00  0.00    -0.295 OA
ENDROOT
BRANCH   5   9
ATOM      9  C   UNL     1      83.206   5.015  26.069  1.00  0.00    -0.077 C 
ATOM     10  C   UNL     1      84.290   4.598  25.391  1.00  0.00     0.008 C 
ATOM     11  C   UNL     1      82.128   5.755  25.318  1.00  0.00     0.039 C 
ENDBRANCH   5   9
TORSDOF 1
ENDMDL
MODEL 3
REMARK VINA RESULT:    -5.102      1.935      3.641
REMARK INTER + INTRA:          -5.492
REMARK INTER:                  -5.399
REMARK INTRA:                  -0.093
REMARK UNBOUND:                -0.092
REMARK SMILES C=C(C)[C@H]1CC=C(C)C(=O)C1
REMARK SMILES IDX 8 1 7 2 6 3 5 4 4 5 11 6 9 7 10 8 2 9 1 10 3 11
REMARK H PARENT
REMARK Flexibility Score: inf
ROOT
ATOM      1  C   UNL     1      80.406   7.230  26.505  1.00  0.00     0.048 C 
ATOM      2  C   UNL     1      81.329   6.154  27.006  1.00  0.00    -0.012 C 
ATOM      3  C   UNL     1      81.770   5.204  26.164  1.00  0.00    -0.019 C 
ATOM      4  C   UNL     1      82.681   4.094  26.617  1.00  0.00     0.036 C 
ATOM      5  C   UNL     1      83.621   4.572  27.740  1.00  0.00     0.025 C 
ATOM      6  C   UNL     1      82.805   5.169  28.901  1.00  0.00     0.089 C 
ATOM      7  C   UNL     1      81.851   6.215  28.395  1.00  0.00     0.158 C 
ATOM      8  O   UNL     1      81.467   7.127  29.177  1.00  0.00    -0.295 OA
ENDROOT
BRANCH   5   9
ATOM      9  C   UNL     1      84.542   3.457  28.215  1.00  0.00    -0.077 C 
ATOM     10  C   UNL     1      84.053   2.337  28.776  1.00  0.00     0.008 C 
ATOM     11  C   UNL     1      86.036   3.592  28.062  1.00  0.00     0.039 C 
ENDBRANCH   5   9
TORSDOF 1
ENDMDL
MODEL 4
REMARK VINA RESULT:    -5.029      1.882      4.414
REMARK INTER + INTRA:          -5.415
REMARK INTER:                  -5.325
REMARK INTRA:                  -0.090
REMARK UNBOUND:                -0.092
REMARK SMILES C=C(C)[C@H]1CC=C(C)C(=O)C1
REMARK SMILES IDX 8 1 7 2 6 3 5 4 4 5 11 6 9 7 10 8 2 9 1 10 3 11
REMARK H PARENT
REMARK Flexibility Score: inf
ROOT
ATOM      1  C   UNL     1      84.455   5.219  25.110  1.00  0.00     0.048 C 
ATOM      2  C   UNL     1      83.752   4.721  26.342  1.00  0.00    -0.012 C 
ATOM      3  C   UNL     1      84.390   3.895  27.190  1.00  0.00    -0.019 C 
ATOM      4  C   UNL     1      83.727   3.353  28.429  1.00  0.00     0.036 C 
ATOM      5  C   UNL     1      82.724   4.368  29.009  1.00  0.00     0.025 C 
ATOM      6  C   UNL     1      81.702   4.783  27.935  1.00  0.00     0.089 C 
ATOM      7  C   UNL     1      82.404   5.240  26.685  1.00  0.00     0.158 C 
ATOM      8  O   UNL     1      81.818   6.043  25.910  1.00  0.00    -0.295 OA
ENDROOT
BRANCH   5   9
ATOM      9  C   UNL     1      82.038   3.829  30.258  1.00  0.00    -0.077 C 
ATOM     10  C   UNL     1      81.894   4.587  31.359  1.00  0.00     0.008 C 
ATOM     11  C   UNL     1      81.504   2.420  30.279  1.00  0.00     0.039 C 
ENDBRANCH   5   9
TORSDOF 1
ENDMDL
MODEL 5
REMARK VINA RESULT:    -4.986      2.490      4.245
REMARK INTER + INTRA:          -5.370
REMARK INTER:                  -5.281
REMARK INTRA:                  -0.088
REMARK UNBOUND:                -0.092
REMARK SMILES C=C(C)[C@H]1CC=C(C)C(=O)C1
REMARK SMILES IDX 8 1 7 2 6 3 5 4 4 5 11 6 9 7 10 8 2 9 1 10 3 11
REMARK H PARENT
REMARK Flexibility Score: inf
ROOT
ATOM      1  C   UNL     1      80.023   7.289  26.658  1.00  0.00     0.048 C 
ATOM      2  C   UNL     1      81.205   6.445  27.045  1.00  0.00    -0.012 C 
ATOM      3  C   UNL     1      81.556   6.337  28.339  1.00  0.00    -0.019 C 
ATOM      4  C   UNL     1      82.741   5.519  28.779  1.00  0.00     0.036 C 
ATOM      5  C   UNL     1      82.946   4.300  27.859  1.00  0.00     0.025 C 
ATOM      6  C   UNL     1      83.063   4.752  26.392  1.00  0.00     0.089 C 
ATOM      7  C   UNL     1      81.903   5.633  26.016  1.00  0.00     0.158 C 
ATOM      8  O   UNL     1      81.552   5.705  24.807  1.00  0.00    -0.295 OA
ENDROOT
BRANCH   5   9
ATOM      9  C   UNL     1      84.147   3.468  28.288  1.00  0.00    -0.077 C 
ATOM     10  C   UNL     1      83.996   2.326  28.982  1.00  0.00     0.008 C 
ATOM     11  C   UNL     1      85.543   3.917  27.935  1.00  0.00     0.039 C 
ENDBRANCH   5   9
TORSDOF 1
ENDMDL
MODEL 6
REMARK VINA RESULT:    -4.895      1.975      4.529
REMARK INTER + INTRA:          -5.273
REMARK INTER:                  -5.180
REMARK INTRA:                  -0.093
REMARK UNBOUND:                -0.092
REMARK SMILES C=C(C)[C@H]1CC=C(C)C(=O)C1
REMARK SMILES IDX 8 1 7 2 6 3 5 4 4 5 11 6 9 7 10 8 2 9 1 10 3 11
REMARK H PARENT
REMARK Flexibility Score: inf
ROOT
ATOM      1  C   UNL     1      84.124   4.911  25.065  1.00  0.00     0.048 C 
ATOM      2  C   UNL     1      83.593   4.711  26.457  1.00  0.00    -0.012 C 
ATOM      3  C   UNL     1      82.319   5.035  26.741  1.00  0.00    -0.019 C 
ATOM      4  C   UNL     1      81.742   4.872  28.122  1.00  0.00     0.036 C 
ATOM      5  C   UNL     1      82.372   3.667  28.847  1.00  0.00     0.025 C 
ATOM      6  C   UNL     1      83.906   3.798  28.867  1.00  0.00     0.089 C 
ATOM      7  C   UNL     1      84.435   4.041  27.480  1.00  0.00     0.158 C 
ATOM      8  O   UNL     1      85.618   3.704  27.206  1.00  0.00    -0.295 OA
ENDROOT
BRANCH   5   9
ATOM      9  C   UNL     1      81.804   3.495  30.249  1.00  0.00    -0.077 C 
ATOM     10  C   UNL     1      81.902   4.473  31.168  1.00  0.00     0.008 C 
ATOM     11  C   UNL     1      81.114   2.212  30.634  1.00  0.00     0.039 C 
ENDBRANCH   5   9
TORSDOF 1
ENDMDL
MODEL 7
REMARK VINA RESULT:    -4.826      2.233      3.195
REMARK INTER + INTRA:          -5.201
REMARK INTER:                  -5.112
REMARK INTRA:                  -0.089
REMARK UNBOUND:                -0.092
REMARK SMILES C=C(C)[C@H]1CC=C(C)C(=O)C1
REMARK SMILES IDX 8 1 7 2 6 3 5 4 4 5 11 6 9 7 10 8 2 9 1 10 3 11
REMARK H PARENT
REMARK Flexibility Score: inf
ROOT
ATOM      1  C   UNL     1      86.081   2.957  28.373  1.00  0.00     0.048 C 
ATOM      2  C   UNL     1      84.882   3.828  28.120  1.00  0.00    -0.012 C 
ATOM      3  C   UNL     1      85.014   4.958  27.404  1.00  0.00    -0.019 C 
ATOM      4  C   UNL     1      83.850   5.875  27.136  1.00  0.00     0.036 C 
ATOM      5  C   UNL     1      82.535   5.081  27.018  1.00  0.00     0.025 C 
ATOM      6  C   UNL     1      82.319   4.215  28.273  1.00  0.00     0.089 C 
ATOM      7  C   UNL     1      83.536   3.376  28.553  1.00  0.00     0.158 C 
ATOM      8  O   UNL     1      83.405   2.298  29.194  1.00  0.00    -0.295 OA
ENDROOT
BRANCH   5   9
ATOM      9  C   UNL     1      81.347   5.996  26.756  1.00  0.00    -0.077 C 
ATOM     10  C   UNL     1      80.583   5.855  25.658  1.00  0.00     0.008 C 
ATOM     11  C   UNL     1      81.003   7.089  27.736  1.00  0.00     0.039 C 
ENDBRANCH   5   9
TORSDOF 1
ENDMDL
MODEL 8
REMARK VINA RESULT:    -4.389     17.730     19.054
REMARK INTER + INTRA:          -4.738
REMARK INTER:                  -4.642
REMARK INTRA:                  -0.096
REMARK UNBOUND:                -0.092
REMARK SMILES C=C(C)[C@H]1CC=C(C)C(=O)C1
REMARK SMILES IDX 8 1 7 2 6 3 5 4 4 5 11 6 9 7 10 8 2 9 1 10 3 11
REMARK H PARENT
REMARK Flexibility Score: inf
ROOT
ATOM      1  C   UNL     1      78.503  -6.751  11.957  1.00  0.00     0.048 C 
ATOM      2  C   UNL     1      78.815  -7.445  13.253  1.00  0.00    -0.012 C 
ATOM      3  C   UNL     1      79.681  -6.889  14.119  1.00  0.00    -0.019 C 
ATOM      4  C   UNL     1      80.043  -7.550  15.423  1.00  0.00     0.036 C 
ATOM      5  C   UNL     1      78.853  -8.349  15.988  1.00  0.00     0.025 C 
ATOM      6  C   UNL     1      78.344  -9.360  14.943  1.00  0.00     0.089 C 
ATOM      7  C   UNL     1      78.073  -8.674  13.632  1.00  0.00     0.158 C 
ATOM      8  O   UNL     1      77.233  -9.177  12.837  1.00  0.00    -0.295 OA
ENDROOT
BRANCH   5   9
ATOM      9  C   UNL     1      79.207  -9.031  17.302  1.00  0.00    -0.077 C 
ATOM     10  C   UNL     1      80.301  -8.679  18.000  1.00  0.00     0.008 C 
ATOM     11  C   UNL     1      78.325 -10.124  17.849  1.00  0.00     0.039 C 
ENDBRANCH   5   9
TORSDOF 1
ENDMDL
MODEL 9
REMARK VINA RESULT:    -4.060     17.607     18.885
REMARK INTER + INTRA:          -4.389
REMARK INTER:                  -4.295
REMARK INTRA:                  -0.094
REMARK UNBOUND:                -0.092
REMARK SMILES C=C(C)[C@H]1CC=C(C)C(=O)C1
REMARK SMILES IDX 8 1 7 2 6 3 5 4 4 5 11 6 9 7 10 8 2 9 1 10 3 11
REMARK H PARENT
REMARK Flexibility Score: inf
ROOT
ATOM      1  C   UNL     1      78.536  -8.336  11.925  1.00  0.00     0.048 C 
ATOM      2  C   UNL     1      78.549  -8.479  13.421  1.00  0.00    -0.012 C 
ATOM      3  C   UNL     1      78.107  -9.615  13.989  1.00  0.00    -0.019 C 
ATOM      4  C   UNL     1      78.081  -9.804  15.482  1.00  0.00     0.036 C 
ATOM      5  C   UNL     1      79.244  -9.052  16.157  1.00  0.00     0.025 C 
ATOM      6  C   UNL     1      79.221  -7.565  15.756  1.00  0.00     0.089 C 
ATOM      7  C   UNL     1      79.165  -7.421  14.260  1.00  0.00     0.158 C 
ATOM      8  O   UNL     1      79.613  -6.370  13.727  1.00  0.00    -0.295 OA
ENDROOT
BRANCH   5   9
ATOM      9  C   UNL     1      79.225  -9.227  17.669  1.00  0.00    -0.077 C 
ATOM     10  C   UNL     1      80.306  -8.948  18.419  1.00  0.00     0.008 C 
ATOM     11  C   UNL     1      77.979  -9.721  18.358  1.00  0.00     0.039 C 
ENDBRANCH   5   9
TORSDOF 1
ENDMDL
