MODEL 1
REMARK VINA RESULT:    -6.913      0.000      0.000
REMARK INTER + INTRA:         -11.756
REMARK INTER:                 -10.954
REMARK INTRA:                  -0.802
REMARK UNBOUND:                -0.802
REMARK SMILES C[C@@H]1O[C@H](O[C@H]2[C@H](Oc3cc(O)c4c(c3)O[C@@H](c3ccc(O)cc3)CC4=O)O[C@@H](CO)[C@H](O)[C@H]2O)[C@H](O)[C@@H](O)[C@@H]1O
REMARK SMILES IDX 6 1 34 2 32 3 29 4 28 5 7 6 5 7 4 8 1 9 2 10 40 11 3 12
REMARK SMILES IDX 38 13 36 14 41 15 39 17 37 19 35 21 8 23 9 24 10 25 15 26
REMARK SMILES IDX 11 27 14 28 13 29 16 30 26 31 17 32 27 33 25 34 12 35 18 37
REMARK SMILES IDX 19 38 24 39 20 40 23 41 21 42 22 43 33 45 30 47 31 48
REMARK H PARENT 41 16 39 18 37 20 35 22 12 36 22 44 33 46 31 49
REMARK Flexibility Score: inf
ROOT
ATOM      1  C   UNL     1      19.686  34.679  13.662  1.00  0.00     0.221 C 
ATOM      2  C   UNL     1      18.952  33.758  12.676  1.00  0.00     0.181 C 
ATOM      3  C   UNL     1      19.816  33.335  11.446  1.00  0.00     0.177 C 
ATOM      4  C   UNL     1      21.197  34.141  11.158  1.00  0.00     0.179 C 
ATOM      5  O   UNL     1      21.505  35.150  12.142  1.00  0.00    -0.332 OA
ATOM      6  C   UNL     1      20.484  35.762  12.811  1.00  0.00     0.339 C 
ENDROOT
BRANCH   1   7
ATOM      7  O   UNL     1      20.519  33.927  14.570  1.00  0.00    -0.337 OA
BRANCH   7   8
ATOM      8  C   UNL     1      19.759  33.559  15.773  1.00  0.00     0.282 C 
ATOM      9  C   UNL     1      22.688  34.194  17.868  1.00  0.00     0.041 C 
ATOM     10  C   UNL     1      21.165  34.380  17.754  1.00  0.00     0.150 C 
ATOM     11  C   UNL     1      20.414  35.848  17.952  1.00  0.00     0.174 C 
ATOM     12  O   UNL     1      20.558  33.265  16.934  1.00  0.00    -0.344 OA
ATOM     13  C   UNL     1      19.391  35.977  16.836  1.00  0.00     0.179 C 
ATOM     14  C   UNL     1      18.815  34.643  16.241  1.00  0.00     0.202 C 
BRANCH  11  15
ATOM     15  O   UNL     1      21.166  37.098  17.975  1.00  0.00    -0.388 OA
ATOM     16  H   UNL     1      22.001  37.122  17.415  1.00  0.00     0.211 HD
ENDBRANCH  11  15
BRANCH  13  17
ATOM     17  O   UNL     1      18.519  37.097  16.934  1.00  0.00    -0.387 OA
ATOM     18  H   UNL     1      17.701  37.032  16.277  1.00  0.00     0.211 HD
ENDBRANCH  13  17
BRANCH  14  19
ATOM     19  O   UNL     1      17.508  34.439  15.847  1.00  0.00    -0.385 OA
ATOM     20  H   UNL     1      16.697  35.093  15.900  1.00  0.00     0.211 HD
ENDBRANCH  14  19
ENDBRANCH   7   8
ENDBRANCH   1   7
BRANCH   2  21
ATOM     21  O   UNL     1      18.203  32.676  13.196  1.00  0.00    -0.387 OA
ATOM     22  H   UNL     1      17.219  32.924  13.046  1.00  0.00     0.211 HD
ENDBRANCH   2  21
BRANCH   6  23
ATOM     23  O   UNL     1      19.499  36.384  11.874  1.00  0.00    -0.462 OA
BRANCH  23  24
ATOM     24  C   UNL     1      18.502  37.295  12.151  1.00  0.00     0.130 A 
ATOM     25  C   UNL     1      17.914  37.336  13.426  1.00  0.00     0.093 A 
ATOM     26  C   UNL     1      17.946  38.005  11.089  1.00  0.00     0.094 A 
ATOM     27  C   UNL     1      16.943  38.314  13.732  1.00  0.00     0.133 A 
ATOM     28  C   UNL     1      16.849  38.910  11.332  1.00  0.00     0.138 A 
ATOM     29  C   UNL     1      16.348  39.035  12.668  1.00  0.00     0.102 A 
ATOM     30  O   UNL     1      16.300  39.592  10.278  1.00  0.00    -0.484 OA
ATOM     31  C   UNL     1      15.324  40.115  12.859  1.00  0.00     0.174 C 
ATOM     32  C   UNL     1      15.031  40.271  10.341  1.00  0.00     0.211 C 
ATOM     33  O   UNL     1      14.875  40.377  14.071  1.00  0.00    -0.294 OA
ATOM     34  C   UNL     1      14.937  41.024  11.700  1.00  0.00     0.131 C 
BRANCH  27  35
ATOM     35  O   UNL     1      16.438  38.389  14.994  1.00  0.00    -0.507 OA
ATOM     36  H   UNL     1      15.876  37.652  15.404  1.00  0.00     0.293 HD
ENDBRANCH  27  35
BRANCH  32  37
ATOM     37  C   UNL     1      13.954  39.233  10.055  1.00  0.00    -0.007 A 
ATOM     38  C   UNL     1      12.923  39.470   9.043  1.00  0.00     0.011 A 
ATOM     39  C   UNL     1      14.010  37.998  10.640  1.00  0.00     0.011 A 
ATOM     40  C   UNL     1      12.027  38.405   8.728  1.00  0.00     0.046 A 
ATOM     41  C   UNL     1      13.111  36.930  10.358  1.00  0.00     0.046 A 
ATOM     42  C   UNL     1      12.153  37.184   9.313  1.00  0.00     0.115 A 
BRANCH  42  43
ATOM     43  O   UNL     1      11.320  36.118   8.923  1.00  0.00    -0.508 OA
ATOM     44  H   UNL     1      11.768  35.325   8.367  1.00  0.00     0.293 HD
ENDBRANCH  42  43
ENDBRANCH  32  37
ENDBRANCH  23  24
ENDBRANCH   6  23
BRANCH   3  45
ATOM     45  O   UNL     1      19.017  33.346  10.208  1.00  0.00    -0.387 OA
ATOM     46  H   UNL     1      18.873  32.363   9.921  1.00  0.00     0.211 HD
ENDBRANCH   3  45
BRANCH   4  47
ATOM     47  C   UNL     1      22.414  33.287  10.941  1.00  0.00     0.191 C 
BRANCH  47  48
ATOM     48  O   UNL     1      22.591  32.521  12.102  1.00  0.00    -0.394 OA
ATOM     49  H   UNL     1      21.775  32.718  12.661  1.00  0.00     0.210 HD
ENDBRANCH  47  48
ENDBRANCH   4  47
TORSDOF 14
ENDMDL
MODEL 2
REMARK VINA RESULT:    -6.770      2.304      7.401
REMARK INTER + INTRA:         -11.530
REMARK INTER:                  -9.156
REMARK INTRA:                  -2.374
REMARK UNBOUND:                -0.802
REMARK SMILES C[C@@H]1O[C@H](O[C@H]2[C@H](Oc3cc(O)c4c(c3)O[C@@H](c3ccc(O)cc3)CC4=O)O[C@@H](CO)[C@H](O)[C@H]2O)[C@H](O)[C@@H](O)[C@@H]1O
REMARK SMILES IDX 6 1 34 2 32 3 29 4 28 5 7 6 5 7 4 8 1 9 2 10 40 11 3 12
REMARK SMILES IDX 38 13 36 14 41 15 39 17 37 19 35 21 8 23 9 24 10 25 15 26
REMARK SMILES IDX 11 27 14 28 13 29 16 30 26 31 17 32 27 33 25 34 12 35 18 37
REMARK SMILES IDX 19 38 24 39 20 40 23 41 21 42 22 43 33 45 30 47 31 48
REMARK H PARENT 41 16 39 18 37 20 35 22 12 36 22 44 33 46 31 49
REMARK Flexibility Score: inf
ROOT
ATOM      1  C   UNL     1      17.684  37.967  10.185  1.00  0.00     0.221 C 
ATOM      2  C   UNL     1      16.392  37.253  10.611  1.00  0.00     0.181 C 
ATOM      3  C   UNL     1      15.100  37.853   9.972  1.00  0.00     0.177 C 
ATOM      4  C   UNL     1      15.198  39.305   9.248  1.00  0.00     0.179 C 
ATOM      5  O   UNL     1      16.530  39.861   9.226  1.00  0.00    -0.332 OA
ATOM      6  C   UNL     1      17.406  39.533  10.220  1.00  0.00     0.339 C 
ENDROOT
BRANCH   1   7
ATOM      7  O   UNL     1      18.155  37.491   8.906  1.00  0.00    -0.337 OA
BRANCH   7   8
ATOM      8  C   UNL     1      19.586  37.160   8.981  1.00  0.00     0.282 C 
ATOM      9  C   UNL     1      19.267  36.401  12.543  1.00  0.00     0.041 C 
ATOM     10  C   UNL     1      19.896  35.942  11.216  1.00  0.00     0.150 C 
ATOM     11  C   UNL     1      19.755  34.393  10.634  1.00  0.00     0.174 C 
ATOM     12  O   UNL     1      20.137  37.128  10.310  1.00  0.00    -0.344 OA
ATOM     13  C   UNL     1      19.430  34.504   9.153  1.00  0.00     0.179 C 
ATOM     14  C   UNL     1      19.917  35.799   8.412  1.00  0.00     0.202 C 
BRANCH  11  15
ATOM     15  O   UNL     1      18.804  33.443  11.201  1.00  0.00    -0.388 OA
ATOM     16  H   UNL     1      19.067  32.473  11.153  1.00  0.00     0.211 HD
ENDBRANCH  11  15
BRANCH  13  17
ATOM     17  O   UNL     1      19.440  33.276   8.434  1.00  0.00    -0.387 OA
ATOM     18  H   UNL     1      18.665  32.629   8.726  1.00  0.00     0.211 HD
ENDBRANCH  13  17
BRANCH  14  19
ATOM     19  O   UNL     1      20.411  35.848   7.124  1.00  0.00    -0.385 OA
ATOM     20  H   UNL     1      20.139  36.479   6.341  1.00  0.00     0.211 HD
ENDBRANCH  14  19
ENDBRANCH   7   8
ENDBRANCH   1   7
BRANCH   2  21
ATOM     21  O   UNL     1      16.375  35.838  10.613  1.00  0.00    -0.387 OA
ATOM     22  H   UNL     1      15.620  35.570   9.972  1.00  0.00     0.211 HD
ENDBRANCH   2  21
BRANCH   6  23
ATOM     23  O   UNL     1      16.850  39.841  11.574  1.00  0.00    -0.462 OA
BRANCH  23  24
ATOM     24  C   UNL     1      17.472  39.752  12.801  1.00  0.00     0.130 A 
ATOM     25  C   UNL     1      18.804  40.172  12.953  1.00  0.00     0.093 A 
ATOM     26  C   UNL     1      16.833  39.037  13.812  1.00  0.00     0.094 A 
ATOM     27  C   UNL     1      19.419  40.147  14.224  1.00  0.00     0.133 A 
ATOM     28  C   UNL     1      17.489  38.859  15.085  1.00  0.00     0.138 A 
ATOM     29  C   UNL     1      18.800  39.410  15.262  1.00  0.00     0.102 A 
ATOM     30  O   UNL     1      16.858  38.141  16.066  1.00  0.00    -0.484 OA
ATOM     31  C   UNL     1      19.336  39.323  16.661  1.00  0.00     0.174 C 
ATOM     32  C   UNL     1      17.524  37.641  17.242  1.00  0.00     0.211 C 
ATOM     33  O   UNL     1      20.490  39.890  16.950  1.00  0.00    -0.294 OA
ATOM     34  C   UNL     1      18.480  38.745  17.780  1.00  0.00     0.131 C 
BRANCH  27  35
ATOM     35  O   UNL     1      20.684  40.628  14.368  1.00  0.00    -0.507 OA
ATOM     36  H   UNL     1      20.916  41.607  14.242  1.00  0.00     0.293 HD
ENDBRANCH  27  35
BRANCH  32  37
ATOM     37  C   UNL     1      18.156  36.308  16.864  1.00  0.00    -0.007 A 
ATOM     38  C   UNL     1      17.517  35.414  15.895  1.00  0.00     0.011 A 
ATOM     39  C   UNL     1      19.404  35.980  17.317  1.00  0.00     0.011 A 
ATOM     40  C   UNL     1      18.225  34.246  15.484  1.00  0.00     0.046 A 
ATOM     41  C   UNL     1      20.118  34.808  16.937  1.00  0.00     0.046 A 
ATOM     42  C   UNL     1      19.481  33.990  15.937  1.00  0.00     0.115 A 
BRANCH  42  43
ATOM     43  O   UNL     1      20.202  32.883  15.450  1.00  0.00    -0.508 OA
ATOM     44  H   UNL     1      19.669  32.176  14.855  1.00  0.00     0.293 HD
ENDBRANCH  42  43
ENDBRANCH  32  37
ENDBRANCH  23  24
ENDBRANCH   6  23
BRANCH   3  45
ATOM     45  O   UNL     1      14.001  37.909  10.952  1.00  0.00    -0.387 OA
ATOM     46  H   UNL     1      13.950  36.987  11.415  1.00  0.00     0.211 HD
ENDBRANCH   3  45
BRANCH   4  47
ATOM     47  C   UNL     1      14.618  39.380   7.865  1.00  0.00     0.191 C 
BRANCH  47  48
ATOM     48  O   UNL     1      13.323  38.847   7.932  1.00  0.00    -0.394 OA
ATOM     49  H   UNL     1      12.885  39.137   7.071  1.00  0.00     0.210 HD
ENDBRANCH  47  48
ENDBRANCH   4  47
TORSDOF 14
ENDMDL
MODEL 3
REMARK VINA RESULT:    -6.637      2.856      6.190
REMARK INTER + INTRA:         -11.318
REMARK INTER:                  -9.896
REMARK INTRA:                  -1.423
REMARK UNBOUND:                -0.802
REMARK SMILES C[C@@H]1O[C@H](O[C@H]2[C@H](Oc3cc(O)c4c(c3)O[C@@H](c3ccc(O)cc3)CC4=O)O[C@@H](CO)[C@H](O)[C@H]2O)[C@H](O)[C@@H](O)[C@@H]1O
REMARK SMILES IDX 6 1 34 2 32 3 29 4 28 5 7 6 5 7 4 8 1 9 2 10 40 11 3 12
REMARK SMILES IDX 38 13 36 14 41 15 39 17 37 19 35 21 8 23 9 24 10 25 15 26
REMARK SMILES IDX 11 27 14 28 13 29 16 30 26 31 17 32 27 33 25 34 12 35 18 37
REMARK SMILES IDX 19 38 24 39 20 40 23 41 21 42 22 43 33 45 30 47 31 48
REMARK H PARENT 41 16 39 18 37 20 35 22 12 36 22 44 33 46 31 49
REMARK Flexibility Score: inf
ROOT
ATOM      1  C   UNL     1      21.578  34.610  18.179  1.00  0.00     0.221 C 
ATOM      2  C   UNL     1      22.209  35.966  18.530  1.00  0.00     0.181 C 
ATOM      3  C   UNL     1      21.194  37.153  18.534  1.00  0.00     0.177 C 
ATOM      4  C   UNL     1      19.732  36.922  17.862  1.00  0.00     0.179 C 
ATOM      5  O   UNL     1      19.515  35.580  17.377  1.00  0.00    -0.332 OA
ATOM      6  C   UNL     1      20.583  34.841  16.958  1.00  0.00     0.339 C 
ENDROOT
BRANCH   1   7
ATOM      7  O   UNL     1      20.951  34.004  19.330  1.00  0.00    -0.337 OA
BRANCH   7   8
ATOM      8  C   UNL     1      21.707  32.818  19.757  1.00  0.00     0.282 C 
ATOM      9  C   UNL     1      22.616  34.474  22.888  1.00  0.00     0.041 C 
ATOM     10  C   UNL     1      22.150  33.148  22.261  1.00  0.00     0.150 C 
ATOM     11  C   UNL     1      20.842  32.291  22.822  1.00  0.00     0.174 C 
ATOM     12  O   UNL     1      22.636  33.041  20.834  1.00  0.00    -0.344 OA
ATOM     13  C   UNL     1      20.041  31.858  21.605  1.00  0.00     0.179 C 
ATOM     14  C   UNL     1      20.827  31.695  20.257  1.00  0.00     0.202 C 
BRANCH  11  15
ATOM     15  O   UNL     1      19.892  32.870  23.764  1.00  0.00    -0.388 OA
ATOM     16  H   UNL     1      18.919  32.711  23.565  1.00  0.00     0.211 HD
ENDBRANCH  11  15
BRANCH  13  17
ATOM     17  O   UNL     1      18.970  30.960  21.869  1.00  0.00    -0.387 OA
ATOM     18  H   UNL     1      19.144  29.998  21.484  1.00  0.00     0.211 HD
ENDBRANCH  13  17
BRANCH  14  19
ATOM     19  O   UNL     1      20.605  30.711  19.313  1.00  0.00    -0.385 OA
ATOM     20  H   UNL     1      21.114  30.531  18.421  1.00  0.00     0.211 HD
ENDBRANCH  14  19
ENDBRANCH   7   8
ENDBRANCH   1   7
BRANCH   2  21
ATOM     21  O   UNL     1      23.103  36.029  19.626  1.00  0.00    -0.387 OA
ATOM     22  H   UNL     1      23.467  36.988  19.631  1.00  0.00     0.211 HD
ENDBRANCH   2  21
BRANCH   6  23
ATOM     23  O   UNL     1      21.364  35.545  15.895  1.00  0.00    -0.462 OA
BRANCH  23  24
ATOM     24  C   UNL     1      21.154  35.551  14.532  1.00  0.00     0.130 A 
ATOM     25  C   UNL     1      22.047  36.221  13.680  1.00  0.00     0.093 A 
ATOM     26  C   UNL     1      19.934  35.078  14.053  1.00  0.00     0.094 A 
ATOM     27  C   UNL     1      21.872  36.169  12.280  1.00  0.00     0.133 A 
ATOM     28  C   UNL     1      19.650  35.140  12.640  1.00  0.00     0.138 A 
ATOM     29  C   UNL     1      20.633  35.711  11.768  1.00  0.00     0.102 A 
ATOM     30  O   UNL     1      18.442  34.686  12.182  1.00  0.00    -0.484 OA
ATOM     31  C   UNL     1      20.328  35.585  10.304  1.00  0.00     0.174 C 
ATOM     32  C   UNL     1      17.928  34.974  10.866  1.00  0.00     0.211 C 
ATOM     33  O   UNL     1      21.218  35.988   9.418  1.00  0.00    -0.294 OA
ATOM     34  C   UNL     1      19.088  34.835   9.838  1.00  0.00     0.131 C 
BRANCH  27  35
ATOM     35  O   UNL     1      22.789  36.760  11.465  1.00  0.00    -0.507 OA
ATOM     36  H   UNL     1      23.274  37.614  11.715  1.00  0.00     0.293 HD
ENDBRANCH  27  35
BRANCH  32  37
ATOM     37  C   UNL     1      17.237  36.328  10.943  1.00  0.00    -0.007 A 
ATOM     38  C   UNL     1      16.419  36.827   9.835  1.00  0.00     0.011 A 
ATOM     39  C   UNL     1      17.253  37.048  12.106  1.00  0.00     0.011 A 
ATOM     40  C   UNL     1      15.691  38.039  10.024  1.00  0.00     0.046 A 
ATOM     41  C   UNL     1      16.553  38.273  12.307  1.00  0.00     0.046 A 
ATOM     42  C   UNL     1      15.712  38.693  11.216  1.00  0.00     0.115 A 
BRANCH  42  43
ATOM     43  O   UNL     1      14.915  39.837  11.414  1.00  0.00    -0.508 OA
ATOM     44  H   UNL     1      15.344  40.642  11.967  1.00  0.00     0.293 HD
ENDBRANCH  42  43
ENDBRANCH  32  37
ENDBRANCH  23  24
ENDBRANCH   6  23
BRANCH   3  45
ATOM     45  O   UNL     1      21.786  38.359  17.930  1.00  0.00    -0.387 OA
ATOM     46  H   UNL     1      21.385  39.179  18.414  1.00  0.00     0.211 HD
ENDBRANCH   3  45
BRANCH   4  47
ATOM     47  C   UNL     1      18.559  37.329  18.706  1.00  0.00     0.191 C 
BRANCH  47  48
ATOM     48  O   UNL     1      17.458  37.458  17.846  1.00  0.00    -0.394 OA
ATOM     49  H   UNL     1      16.794  38.009  18.368  1.00  0.00     0.210 HD
ENDBRANCH  47  48
ENDBRANCH   4  47
TORSDOF 14
ENDMDL
MODEL 4
REMARK VINA RESULT:    -6.619      2.480      5.452
REMARK INTER + INTRA:         -11.291
REMARK INTER:                  -9.146
REMARK INTRA:                  -2.145
REMARK UNBOUND:                -0.802
REMARK SMILES C[C@@H]1O[C@H](O[C@H]2[C@H](Oc3cc(O)c4c(c3)O[C@@H](c3ccc(O)cc3)CC4=O)O[C@@H](CO)[C@H](O)[C@H]2O)[C@H](O)[C@@H](O)[C@@H]1O
REMARK SMILES IDX 6 1 34 2 32 3 29 4 28 5 7 6 5 7 4 8 1 9 2 10 40 11 3 12
REMARK SMILES IDX 38 13 36 14 41 15 39 17 37 19 35 21 8 23 9 24 10 25 15 26
REMARK SMILES IDX 11 27 14 28 13 29 16 30 26 31 17 32 27 33 25 34 12 35 18 37
REMARK SMILES IDX 19 38 24 39 20 40 23 41 21 42 22 43 33 45 30 47 31 48
REMARK H PARENT 41 16 39 18 37 20 35 22 12 36 22 44 33 46 31 49
REMARK Flexibility Score: inf
ROOT
ATOM      1  C   UNL     1      20.408  35.884  15.306  1.00  0.00     0.221 C 
ATOM      2  C   UNL     1      19.252  34.877  15.394  1.00  0.00     0.181 C 
ATOM      3  C   UNL     1      19.603  33.580  16.189  1.00  0.00     0.177 C 
ATOM      4  C   UNL     1      21.165  33.276  16.520  1.00  0.00     0.179 C 
ATOM      5  O   UNL     1      22.071  34.309  16.078  1.00  0.00    -0.332 OA
ATOM      6  C   UNL     1      21.738  35.067  14.993  1.00  0.00     0.339 C 
ENDROOT
BRANCH   1   7
ATOM      7  O   UNL     1      20.495  36.697  16.496  1.00  0.00    -0.337 OA
BRANCH   7   8
ATOM      8  C   UNL     1      20.800  38.090  16.141  1.00  0.00     0.282 C 
ATOM      9  C   UNL     1      17.488  38.475  14.641  1.00  0.00     0.041 C 
ATOM     10  C   UNL     1      18.548  39.152  15.526  1.00  0.00     0.150 C 
ATOM     11  C   UNL     1      18.206  39.799  17.017  1.00  0.00     0.174 C 
ATOM     12  O   UNL     1      19.931  38.672  15.151  1.00  0.00    -0.344 OA
ATOM     13  C   UNL     1      19.315  39.357  17.957  1.00  0.00     0.179 C 
ATOM     14  C   UNL     1      20.710  39.041  17.313  1.00  0.00     0.202 C 
BRANCH  11  15
ATOM     15  O   UNL     1      16.945  39.529  17.700  1.00  0.00    -0.388 OA
ATOM     16  H   UNL     1      16.429  38.730  17.374  1.00  0.00     0.211 HD
ENDBRANCH  11  15
BRANCH  13  17
ATOM     17  O   UNL     1      19.294  39.955  19.248  1.00  0.00    -0.387 OA
ATOM     18  H   UNL     1      18.397  39.770  19.766  1.00  0.00     0.211 HD
ENDBRANCH  13  17
BRANCH  14  19
ATOM     19  O   UNL     1      21.938  39.341  17.870  1.00  0.00    -0.385 OA
ATOM     20  H   UNL     1      22.152  39.921  18.710  1.00  0.00     0.211 HD
ENDBRANCH  14  19
ENDBRANCH   7   8
ENDBRANCH   1   7
BRANCH   2  21
ATOM     21  O   UNL     1      17.961  35.362  15.713  1.00  0.00    -0.387 OA
ATOM     22  H   UNL     1      17.358  35.075  14.935  1.00  0.00     0.211 HD
ENDBRANCH   2  21
BRANCH   6  23
ATOM     23  O   UNL     1      21.452  34.224  13.791  1.00  0.00    -0.462 OA
BRANCH  23  24
ATOM     24  C   UNL     1      21.305  34.617  12.478  1.00  0.00     0.130 A 
ATOM     25  C   UNL     1      22.184  35.556  11.916  1.00  0.00     0.093 A 
ATOM     26  C   UNL     1      20.145  34.238  11.805  1.00  0.00     0.094 A 
ATOM     27  C   UNL     1      22.078  35.907  10.553  1.00  0.00     0.133 A 
ATOM     28  C   UNL     1      19.922  34.696  10.454  1.00  0.00     0.138 A 
ATOM     29  C   UNL     1      20.900  35.552   9.851  1.00  0.00     0.102 A 
ATOM     30  O   UNL     1      18.772  34.330   9.807  1.00  0.00    -0.484 OA
ATOM     31  C   UNL     1      20.672  35.843   8.397  1.00  0.00     0.174 C 
ATOM     32  C   UNL     1      18.299  34.962   8.601  1.00  0.00     0.211 C 
ATOM     33  O   UNL     1      21.570  36.537   7.725  1.00  0.00    -0.294 OA
ATOM     34  C   UNL     1      19.512  35.195   7.654  1.00  0.00     0.131 C 
BRANCH  27  35
ATOM     35  O   UNL     1      22.986  36.761  10.005  1.00  0.00    -0.507 OA
ATOM     36  H   UNL     1      23.544  36.522   9.194  1.00  0.00     0.293 HD
ENDBRANCH  27  35
BRANCH  32  37
ATOM     37  C   UNL     1      17.509  36.194   9.022  1.00  0.00    -0.007 A 
ATOM     38  C   UNL     1      17.424  37.372   8.157  1.00  0.00     0.011 A 
ATOM     39  C   UNL     1      16.749  36.173  10.158  1.00  0.00     0.011 A 
ATOM     40  C   UNL     1      16.560  38.438   8.549  1.00  0.00     0.046 A 
ATOM     41  C   UNL     1      15.899  37.235  10.580  1.00  0.00     0.046 A 
ATOM     42  C   UNL     1      15.796  38.347   9.670  1.00  0.00     0.115 A 
BRANCH  42  43
ATOM     43  O   UNL     1      14.881  39.367   9.992  1.00  0.00    -0.508 OA
ATOM     44  H   UNL     1      13.873  39.075  10.189  1.00  0.00     0.293 HD
ENDBRANCH  42  43
ENDBRANCH  32  37
ENDBRANCH  23  24
ENDBRANCH   6  23
BRANCH   3  45
ATOM     45  O   UNL     1      19.038  32.388  15.534  1.00  0.00    -0.387 OA
ATOM     46  H   UNL     1      18.629  31.791  16.271  1.00  0.00     0.211 HD
ENDBRANCH   3  45
BRANCH   4  47
ATOM     47  C   UNL     1      21.471  32.942  17.952  1.00  0.00     0.191 C 
BRANCH  47  48
ATOM     48  O   UNL     1      20.528  31.989  18.363  1.00  0.00    -0.394 OA
ATOM     49  H   UNL     1      20.450  31.358  17.581  1.00  0.00     0.210 HD
ENDBRANCH  47  48
ENDBRANCH   4  47
TORSDOF 14
ENDMDL
MODEL 5
REMARK VINA RESULT:    -6.606      3.487      7.233
REMARK INTER + INTRA:         -11.269
REMARK INTER:                 -10.302
REMARK INTRA:                  -0.967
REMARK UNBOUND:                -0.802
REMARK SMILES C[C@@H]1O[C@H](O[C@H]2[C@H](Oc3cc(O)c4c(c3)O[C@@H](c3ccc(O)cc3)CC4=O)O[C@@H](CO)[C@H](O)[C@H]2O)[C@H](O)[C@@H](O)[C@@H]1O
REMARK SMILES IDX 6 1 34 2 32 3 29 4 28 5 7 6 5 7 4 8 1 9 2 10 40 11 3 12
REMARK SMILES IDX 38 13 36 14 41 15 39 17 37 19 35 21 8 23 9 24 10 25 15 26
REMARK SMILES IDX 11 27 14 28 13 29 16 30 26 31 17 32 27 33 25 34 12 35 18 37
REMARK SMILES IDX 19 38 24 39 20 40 23 41 21 42 22 43 33 45 30 47 31 48
REMARK H PARENT 41 16 39 18 37 20 35 22 12 36 22 44 33 46 31 49
REMARK Flexibility Score: inf
ROOT
ATOM      1  C   UNL     1      20.651  35.580  18.968  1.00  0.00     0.221 C 
ATOM      2  C   UNL     1      21.844  36.508  18.692  1.00  0.00     0.181 C 
ATOM      3  C   UNL     1      21.556  38.013  18.995  1.00  0.00     0.177 C 
ATOM      4  C   UNL     1      20.014  38.475  19.216  1.00  0.00     0.179 C 
ATOM      5  O   UNL     1      19.063  37.391  19.166  1.00  0.00    -0.332 OA
ATOM      6  C   UNL     1      19.344  36.293  18.405  1.00  0.00     0.339 C 
ENDROOT
BRANCH   1   7
ATOM      7  O   UNL     1      20.563  35.230  20.366  1.00  0.00    -0.337 OA
BRANCH   7   8
ATOM      8  C   UNL     1      21.678  34.349  20.741  1.00  0.00     0.282 C 
ATOM      9  C   UNL     1      19.847  33.226  23.701  1.00  0.00     0.041 C 
ATOM     10  C   UNL     1      20.735  32.771  22.530  1.00  0.00     0.150 C 
ATOM     11  C   UNL     1      20.328  31.521  21.515  1.00  0.00     0.174 C 
ATOM     12  O   UNL     1      21.660  33.888  22.106  1.00  0.00    -0.344 OA
ATOM     13  C   UNL     1      20.624  31.985  20.099  1.00  0.00     0.179 C 
ATOM     14  C   UNL     1      21.738  33.077  19.926  1.00  0.00     0.202 C 
BRANCH  11  15
ATOM     15  O   UNL     1      18.985  30.953  21.498  1.00  0.00    -0.388 OA
ATOM     16  H   UNL     1      18.745  30.410  20.686  1.00  0.00     0.211 HD
ENDBRANCH  11  15
BRANCH  13  17
ATOM     17  O   UNL     1      20.503  30.986  19.093  1.00  0.00    -0.387 OA
ATOM     18  H   UNL     1      21.043  31.222  18.222  1.00  0.00     0.211 HD
ENDBRANCH  13  17
BRANCH  14  19
ATOM     19  O   UNL     1      22.658  33.128  18.898  1.00  0.00    -0.385 OA
ATOM     20  H   UNL     1      22.912  33.931  18.284  1.00  0.00     0.211 HD
ENDBRANCH  14  19
ENDBRANCH   7   8
ENDBRANCH   1   7
BRANCH   2  21
ATOM     21  O   UNL     1      23.124  36.110  19.147  1.00  0.00    -0.387 OA
ATOM     22  H   UNL     1      23.792  36.519  18.483  1.00  0.00     0.211 HD
ENDBRANCH   2  21
BRANCH   6  23
ATOM     23  O   UNL     1      19.631  36.659  16.984  1.00  0.00    -0.462 OA
BRANCH  23  24
ATOM     24  C   UNL     1      20.057  35.848  15.954  1.00  0.00     0.130 A 
ATOM     25  C   UNL     1      21.370  35.950  15.466  1.00  0.00     0.093 A 
ATOM     26  C   UNL     1      19.101  35.099  15.270  1.00  0.00     0.094 A 
ATOM     27  C   UNL     1      21.827  35.072  14.460  1.00  0.00     0.133 A 
ATOM     28  C   UNL     1      19.499  34.298  14.138  1.00  0.00     0.138 A 
ATOM     29  C   UNL     1      20.874  34.315  13.736  1.00  0.00     0.102 A 
ATOM     30  O   UNL     1      18.549  33.578  13.463  1.00  0.00    -0.484 OA
ATOM     31  C   UNL     1      21.230  33.331  12.660  1.00  0.00     0.174 C 
ATOM     32  C   UNL     1      18.762  33.000  12.160  1.00  0.00     0.211 C 
ATOM     33  O   UNL     1      22.489  33.198  12.292  1.00  0.00    -0.294 OA
ATOM     34  C   UNL     1      20.182  32.365  12.124  1.00  0.00     0.131 C 
BRANCH  27  35
ATOM     35  O   UNL     1      23.125  35.134  14.053  1.00  0.00    -0.507 OA
ATOM     36  H   UNL     1      23.892  35.308  14.692  1.00  0.00     0.293 HD
ENDBRANCH  27  35
BRANCH  32  37
ATOM     37  C   UNL     1      18.469  34.088  11.136  1.00  0.00    -0.007 A 
ATOM     38  C   UNL     1      17.743  35.304  11.509  1.00  0.00     0.011 A 
ATOM     39  C   UNL     1      18.998  34.014   9.877  1.00  0.00     0.011 A 
ATOM     40  C   UNL     1      17.619  36.342  10.538  1.00  0.00     0.046 A 
ATOM     41  C   UNL     1      18.865  35.029   8.886  1.00  0.00     0.046 A 
ATOM     42  C   UNL     1      18.200  36.232   9.314  1.00  0.00     0.115 A 
BRANCH  42  43
ATOM     43  O   UNL     1      18.147  37.304   8.402  1.00  0.00    -0.508 OA
ATOM     44  H   UNL     1      18.250  38.289   8.799  1.00  0.00     0.293 HD
ENDBRANCH  42  43
ENDBRANCH  32  37
ENDBRANCH  23  24
ENDBRANCH   6  23
BRANCH   3  45
ATOM     45  O   UNL     1      22.147  38.883  17.964  1.00  0.00    -0.387 OA
ATOM     46  H   UNL     1      22.738  38.291  17.357  1.00  0.00     0.211 HD
ENDBRANCH   3  45
BRANCH   4  47
ATOM     47  C   UNL     1      19.753  39.293  20.449  1.00  0.00     0.191 C 
BRANCH  47  48
ATOM     48  O   UNL     1      20.700  40.327  20.465  1.00  0.00    -0.394 OA
ATOM     49  H   UNL     1      21.540  39.893  20.816  1.00  0.00     0.210 HD
ENDBRANCH  47  48
ENDBRANCH   4  47
TORSDOF 14
ENDMDL
MODEL 6
REMARK VINA RESULT:    -6.212      3.800     10.558
REMARK INTER + INTRA:         -10.646
REMARK INTER:                  -9.841
REMARK INTRA:                  -0.805
REMARK UNBOUND:                -0.802
REMARK SMILES C[C@@H]1O[C@H](O[C@H]2[C@H](Oc3cc(O)c4c(c3)O[C@@H](c3ccc(O)cc3)CC4=O)O[C@@H](CO)[C@H](O)[C@H]2O)[C@H](O)[C@@H](O)[C@@H]1O
REMARK SMILES IDX 6 1 34 2 32 3 29 4 28 5 7 6 5 7 4 8 1 9 2 10 40 11 3 12
REMARK SMILES IDX 38 13 36 14 41 15 39 17 37 19 35 21 8 23 9 24 10 25 15 26
REMARK SMILES IDX 11 27 14 28 13 29 16 30 26 31 17 32 27 33 25 34 12 35 18 37
REMARK SMILES IDX 19 38 24 39 20 40 23 41 21 42 22 43 33 45 30 47 31 48
REMARK H PARENT 41 16 39 18 37 20 35 22 12 36 22 44 33 46 31 49
REMARK Flexibility Score: inf
ROOT
ATOM      1  C   UNL     1      19.981  38.143  17.047  1.00  0.00     0.221 C 
ATOM      2  C   UNL     1      19.854  38.939  18.354  1.00  0.00     0.181 C 
ATOM      3  C   UNL     1      21.040  39.921  18.613  1.00  0.00     0.177 C 
ATOM      4  C   UNL     1      22.386  39.760  17.717  1.00  0.00     0.179 C 
ATOM      5  O   UNL     1      22.301  38.730  16.709  1.00  0.00    -0.332 OA
ATOM      6  C   UNL     1      21.490  37.653  16.923  1.00  0.00     0.339 C 
ENDROOT
BRANCH   1   7
ATOM      7  O   UNL     1      19.527  38.911  15.912  1.00  0.00    -0.337 OA
BRANCH   7   8
ATOM      8  C   UNL     1      18.116  38.614  15.626  1.00  0.00     0.282 C 
ATOM      9  C   UNL     1      18.902  38.077  12.096  1.00  0.00     0.041 C 
ATOM     10  C   UNL     1      18.096  37.547  13.294  1.00  0.00     0.150 C 
ATOM     11  C   UNL     1      18.141  35.961  13.787  1.00  0.00     0.174 C 
ATOM     12  O   UNL     1      17.748  38.676  14.236  1.00  0.00    -0.344 OA
ATOM     13  C   UNL     1      18.266  35.971  15.301  1.00  0.00     0.179 C 
ATOM     14  C   UNL     1      17.698  37.225  16.055  1.00  0.00     0.202 C 
BRANCH  11  15
ATOM     15  O   UNL     1      19.150  35.031  13.290  1.00  0.00    -0.388 OA
ATOM     16  H   UNL     1      19.582  34.439  13.979  1.00  0.00     0.211 HD
ENDBRANCH  11  15
BRANCH  13  17
ATOM     17  O   UNL     1      18.146  34.701  15.931  1.00  0.00    -0.387 OA
ATOM     18  H   UNL     1      18.391  34.731  16.953  1.00  0.00     0.211 HD
ENDBRANCH  13  17
BRANCH  14  19
ATOM     19  O   UNL     1      17.035  37.201  17.266  1.00  0.00    -0.385 OA
ATOM     20  H   UNL     1      17.033  37.915  18.026  1.00  0.00     0.211 HD
ENDBRANCH  14  19
ENDBRANCH   7   8
ENDBRANCH   1   7
BRANCH   2  21
ATOM     21  O   UNL     1      18.603  39.523  18.667  1.00  0.00    -0.387 OA
ATOM     22  H   UNL     1      18.456  40.255  17.963  1.00  0.00     0.211 HD
ENDBRANCH   2  21
BRANCH   6  23
ATOM     23  O   UNL     1      21.822  36.954  18.203  1.00  0.00    -0.462 OA
BRANCH  23  24
ATOM     24  C   UNL     1      21.792  35.604  18.480  1.00  0.00     0.130 A 
ATOM     25  C   UNL     1      20.997  34.739  17.710  1.00  0.00     0.093 A 
ATOM     26  C   UNL     1      22.379  35.163  19.665  1.00  0.00     0.094 A 
ATOM     27  C   UNL     1      21.020  33.348  17.948  1.00  0.00     0.133 A 
ATOM     28  C   UNL     1      22.299  33.767  20.024  1.00  0.00     0.138 A 
ATOM     29  C   UNL     1      21.592  32.876  19.154  1.00  0.00     0.102 A 
ATOM     30  O   UNL     1      22.866  33.347  21.198  1.00  0.00    -0.484 OA
ATOM     31  C   UNL     1      21.700  31.423  19.516  1.00  0.00     0.174 C 
ATOM     32  C   UNL     1      22.590  32.069  21.805  1.00  0.00     0.211 C 
ATOM     33  O   UNL     1      21.170  30.514  18.721  1.00  0.00    -0.294 OA
ATOM     34  C   UNL     1      22.565  30.984  20.689  1.00  0.00     0.131 C 
BRANCH  27  35
ATOM     35  O   UNL     1      20.303  32.517  17.142  1.00  0.00    -0.507 OA
ATOM     36  H   UNL     1      19.836  32.836  16.301  1.00  0.00     0.293 HD
ENDBRANCH  27  35
BRANCH  32  37
ATOM     37  C   UNL     1      21.324  32.233  22.634  1.00  0.00    -0.007 A 
ATOM     38  C   UNL     1      21.359  32.152  24.096  1.00  0.00     0.011 A 
ATOM     39  C   UNL     1      20.148  32.596  22.037  1.00  0.00     0.011 A 
ATOM     40  C   UNL     1      20.164  32.448  24.818  1.00  0.00     0.046 A 
ATOM     41  C   UNL     1      18.939  32.872  22.738  1.00  0.00     0.046 A 
ATOM     42  C   UNL     1      19.034  32.843  24.175  1.00  0.00     0.115 A 
BRANCH  42  43
ATOM     43  O   UNL     1      17.893  33.220  24.908  1.00  0.00    -0.508 OA
ATOM     44  H   UNL     1      16.956  33.201  24.398  1.00  0.00     0.293 HD
ENDBRANCH  42  43
ENDBRANCH  32  37
ENDBRANCH  23  24
ENDBRANCH   6  23
BRANCH   3  45
ATOM     45  O   UNL     1      21.436  39.911  20.032  1.00  0.00    -0.387 OA
ATOM     46  H   UNL     1      22.248  40.542  20.134  1.00  0.00     0.211 HD
ENDBRANCH   3  45
BRANCH   4  47
ATOM     47  C   UNL     1      22.896  41.021  17.081  1.00  0.00     0.191 C 
BRANCH  47  48
ATOM     48  O   UNL     1      22.645  40.919  15.705  1.00  0.00    -0.394 OA
ATOM     49  H   UNL     1      23.402  40.354  15.352  1.00  0.00     0.210 HD
ENDBRANCH  47  48
ENDBRANCH   4  47
TORSDOF 14
ENDMDL
MODEL 7
REMARK VINA RESULT:    -6.209      2.518      7.318
REMARK INTER + INTRA:         -10.640
REMARK INTER:                  -8.877
REMARK INTRA:                  -1.763
REMARK UNBOUND:                -0.802
REMARK SMILES C[C@@H]1O[C@H](O[C@H]2[C@H](Oc3cc(O)c4c(c3)O[C@@H](c3ccc(O)cc3)CC4=O)O[C@@H](CO)[C@H](O)[C@H]2O)[C@H](O)[C@@H](O)[C@@H]1O
REMARK SMILES IDX 6 1 34 2 32 3 29 4 28 5 7 6 5 7 4 8 1 9 2 10 40 11 3 12
REMARK SMILES IDX 38 13 36 14 41 15 39 17 37 19 35 21 8 23 9 24 10 25 15 26
REMARK SMILES IDX 11 27 14 28 13 29 16 30 26 31 17 32 27 33 25 34 12 35 18 37
REMARK SMILES IDX 19 38 24 39 20 40 23 41 21 42 22 43 33 45 30 47 31 48
REMARK H PARENT 41 16 39 18 37 20 35 22 12 36 22 44 33 46 31 49
REMARK Flexibility Score: inf
ROOT
ATOM      1  C   UNL     1      19.780  35.520  11.654  1.00  0.00     0.221 C 
ATOM      2  C   UNL     1      21.184  35.775  11.085  1.00  0.00     0.181 C 
ATOM      3  C   UNL     1      21.693  34.649  10.131  1.00  0.00     0.177 C 
ATOM      4  C   UNL     1      20.894  33.234  10.111  1.00  0.00     0.179 C 
ATOM      5  O   UNL     1      19.730  33.204  10.964  1.00  0.00    -0.332 OA
ATOM      6  C   UNL     1      19.702  33.989  12.081  1.00  0.00     0.339 C 
ENDROOT
BRANCH   1   7
ATOM      7  O   UNL     1      18.751  35.914  10.721  1.00  0.00    -0.337 OA
BRANCH   7   8
ATOM      8  C   UNL     1      17.526  36.291  11.442  1.00  0.00     0.282 C 
ATOM      9  C   UNL     1      19.486  38.258  13.822  1.00  0.00     0.041 C 
ATOM     10  C   UNL     1      18.202  38.234  12.975  1.00  0.00     0.150 C 
ATOM     11  C   UNL     1      17.764  39.469  11.956  1.00  0.00     0.174 C 
ATOM     12  O   UNL     1      17.735  36.811  12.769  1.00  0.00    -0.344 OA
ATOM     13  C   UNL     1      17.301  38.830  10.657  1.00  0.00     0.179 C 
ATOM     14  C   UNL     1      16.730  37.371  10.746  1.00  0.00     0.202 C 
BRANCH  11  15
ATOM     15  O   UNL     1      18.696  40.531  11.591  1.00  0.00    -0.388 OA
ATOM     16  H   UNL     1      18.334  41.247  10.984  1.00  0.00     0.211 HD
ENDBRANCH  11  15
BRANCH  13  17
ATOM     17  O   UNL     1      16.719  39.721   9.712  1.00  0.00    -0.387 OA
ATOM     18  H   UNL     1      17.417  40.396   9.310  1.00  0.00     0.211 HD
ENDBRANCH  13  17
BRANCH  14  19
ATOM     19  O   UNL     1      15.663  36.882  10.017  1.00  0.00    -0.385 OA
ATOM     20  H   UNL     1      14.840  37.395   9.635  1.00  0.00     0.211 HD
ENDBRANCH  14  19
ENDBRANCH   7   8
ENDBRANCH   1   7
BRANCH   2  21
ATOM     21  O   UNL     1      21.484  37.066  10.589  1.00  0.00    -0.387 OA
ATOM     22  H   UNL     1      22.498  37.176  10.698  1.00  0.00     0.211 HD
ENDBRANCH   2  21
BRANCH   6  23
ATOM     23  O   UNL     1      20.875  33.730  12.971  1.00  0.00    -0.462 OA
BRANCH  23  24
ATOM     24  C   UNL     1      21.009  33.992  14.318  1.00  0.00     0.130 A 
ATOM     25  C   UNL     1      20.456  33.118  15.269  1.00  0.00     0.093 A 
ATOM     26  C   UNL     1      21.497  35.240  14.700  1.00  0.00     0.094 A 
ATOM     27  C   UNL     1      20.653  33.348  16.648  1.00  0.00     0.133 A 
ATOM     28  C   UNL     1      21.578  35.577  16.101  1.00  0.00     0.138 A 
ATOM     29  C   UNL     1      21.128  34.615  17.063  1.00  0.00     0.102 A 
ATOM     30  O   UNL     1      22.045  36.812  16.464  1.00  0.00    -0.484 OA
ATOM     31  C   UNL     1      21.401  34.979  18.493  1.00  0.00     0.174 C 
ATOM     32  C   UNL     1      21.885  37.369  17.784  1.00  0.00     0.211 C 
ATOM     33  O   UNL     1      21.118  34.116  19.448  1.00  0.00    -0.294 OA
ATOM     34  C   UNL     1      22.163  36.253  18.832  1.00  0.00     0.131 C 
BRANCH  27  35
ATOM     35  O   UNL     1      20.176  32.450  17.553  1.00  0.00    -0.507 OA
ATOM     36  H   UNL     1      19.186  32.280  17.688  1.00  0.00     0.293 HD
ENDBRANCH  27  35
BRANCH  32  37
ATOM     37  C   UNL     1      20.511  38.026  17.827  1.00  0.00    -0.007 A 
ATOM     38  C   UNL     1      20.304  39.383  17.317  1.00  0.00     0.011 A 
ATOM     39  C   UNL     1      19.414  37.311  18.218  1.00  0.00     0.011 A 
ATOM     40  C   UNL     1      18.971  39.889  17.263  1.00  0.00     0.046 A 
ATOM     41  C   UNL     1      18.078  37.804  18.195  1.00  0.00     0.046 A 
ATOM     42  C   UNL     1      17.912  39.118  17.627  1.00  0.00     0.115 A 
BRANCH  42  43
ATOM     43  O   UNL     1      16.597  39.599  17.480  1.00  0.00    -0.508 OA
ATOM     44  H   UNL     1      16.197  39.634  16.491  1.00  0.00     0.293 HD
ENDBRANCH  42  43
ENDBRANCH  32  37
ENDBRANCH  23  24
ENDBRANCH   6  23
BRANCH   3  45
ATOM     45  O   UNL     1      23.119  34.362  10.363  1.00  0.00    -0.387 OA
ATOM     46  H   UNL     1      23.502  33.959   9.492  1.00  0.00     0.211 HD
ENDBRANCH   3  45
BRANCH   4  47
ATOM     47  C   UNL     1      20.513  32.723   8.751  1.00  0.00     0.191 C 
BRANCH  47  48
ATOM     48  O   UNL     1      19.387  33.450   8.339  1.00  0.00    -0.394 OA
ATOM     49  H   UNL     1      19.601  34.405   8.582  1.00  0.00     0.210 HD
ENDBRANCH  47  48
ENDBRANCH   4  47
TORSDOF 14
ENDMDL
MODEL 8
REMARK VINA RESULT:    -6.188      3.481      6.117
REMARK INTER + INTRA:         -10.607
REMARK INTER:                  -9.297
REMARK INTRA:                  -1.310
REMARK UNBOUND:                -0.802
REMARK SMILES C[C@@H]1O[C@H](O[C@H]2[C@H](Oc3cc(O)c4c(c3)O[C@@H](c3ccc(O)cc3)CC4=O)O[C@@H](CO)[C@H](O)[C@H]2O)[C@H](O)[C@@H](O)[C@@H]1O
REMARK SMILES IDX 6 1 34 2 32 3 29 4 28 5 7 6 5 7 4 8 1 9 2 10 40 11 3 12
REMARK SMILES IDX 38 13 36 14 41 15 39 17 37 19 35 21 8 23 9 24 10 25 15 26
REMARK SMILES IDX 11 27 14 28 13 29 16 30 26 31 17 32 27 33 25 34 12 35 18 37
REMARK SMILES IDX 19 38 24 39 20 40 23 41 21 42 22 43 33 45 30 47 31 48
REMARK H PARENT 41 16 39 18 37 20 35 22 12 36 22 44 33 46 31 49
REMARK Flexibility Score: inf
ROOT
ATOM      1  C   UNL     1      21.082  34.509  19.418  1.00  0.00     0.221 C 
ATOM      2  C   UNL     1      22.175  34.569  18.340  1.00  0.00     0.181 C 
ATOM      3  C   UNL     1      22.863  35.965  18.215  1.00  0.00     0.177 C 
ATOM      4  C   UNL     1      22.162  37.239  18.940  1.00  0.00     0.179 C 
ATOM      5  O   UNL     1      20.976  36.908  19.692  1.00  0.00    -0.332 OA
ATOM      6  C   UNL     1      20.218  35.840  19.304  1.00  0.00     0.339 C 
ENDROOT
BRANCH   1   7
ATOM      7  O   UNL     1      21.644  34.293  20.730  1.00  0.00    -0.337 OA
BRANCH   7   8
ATOM      8  C   UNL     1      21.847  32.857  20.968  1.00  0.00     0.282 C 
ATOM      9  C   UNL     1      22.620  33.507  24.482  1.00  0.00     0.041 C 
ATOM     10  C   UNL     1      21.864  32.577  23.518  1.00  0.00     0.150 C 
ATOM     11  C   UNL     1      20.258  32.195  23.699  1.00  0.00     0.174 C 
ATOM     12  O   UNL     1      22.559  32.533  22.177  1.00  0.00    -0.344 OA
ATOM     13  C   UNL     1      19.618  32.302  22.325  1.00  0.00     0.179 C 
ATOM     14  C   UNL     1      20.555  32.081  21.084  1.00  0.00     0.202 C 
BRANCH  11  15
ATOM     15  O   UNL     1      19.394  32.924  24.621  1.00  0.00    -0.388 OA
ATOM     16  H   UNL     1      18.405  32.848  24.453  1.00  0.00     0.211 HD
ENDBRANCH  11  15
BRANCH  13  17
ATOM     17  O   UNL     1      18.274  31.843  22.239  1.00  0.00    -0.387 OA
ATOM     18  H   UNL     1      18.211  30.811  22.050  1.00  0.00     0.211 HD
ENDBRANCH  13  17
BRANCH  14  19
ATOM     19  O   UNL     1      20.203  31.424  19.922  1.00  0.00    -0.385 OA
ATOM     20  H   UNL     1      20.149  31.795  18.949  1.00  0.00     0.211 HD
ENDBRANCH  14  19
ENDBRANCH   7   8
ENDBRANCH   1   7
BRANCH   2  21
ATOM     21  O   UNL     1      23.110  33.508  18.270  1.00  0.00    -0.387 OA
ATOM     22  H   UNL     1      22.698  32.819  17.631  1.00  0.00     0.211 HD
ENDBRANCH   2  21
BRANCH   6  23
ATOM     23  O   UNL     1      19.787  35.953  17.877  1.00  0.00    -0.462 OA
BRANCH  23  24
ATOM     24  C   UNL     1      19.270  37.047  17.216  1.00  0.00     0.130 A 
ATOM     25  C   UNL     1      18.048  37.608  17.623  1.00  0.00     0.093 A 
ATOM     26  C   UNL     1      19.864  37.433  16.016  1.00  0.00     0.094 A 
ATOM     27  C   UNL     1      17.552  38.771  16.993  1.00  0.00     0.133 A 
ATOM     28  C   UNL     1      19.302  38.525  15.260  1.00  0.00     0.138 A 
ATOM     29  C   UNL     1      18.125  39.171  15.762  1.00  0.00     0.102 A 
ATOM     30  O   UNL     1      19.884  38.886  14.074  1.00  0.00    -0.484 OA
ATOM     31  C   UNL     1      17.707  40.398  15.004  1.00  0.00     0.174 C 
ATOM     32  C   UNL     1      19.249  39.735  13.098  1.00  0.00     0.211 C 
ATOM     33  O   UNL     1      16.697  41.121  15.446  1.00  0.00    -0.294 OA
ATOM     34  C   UNL     1      18.547  40.908  13.841  1.00  0.00     0.131 C 
BRANCH  27  35
ATOM     35  O   UNL     1      16.406  39.346  17.450  1.00  0.00    -0.507 OA
ATOM     36  H   UNL     1      15.485  39.037  17.161  1.00  0.00     0.293 HD
ENDBRANCH  27  35
BRANCH  32  37
ATOM     37  C   UNL     1      18.367  38.841  12.237  1.00  0.00    -0.007 A 
ATOM     38  C   UNL     1      18.759  37.466  11.922  1.00  0.00     0.011 A 
ATOM     39  C   UNL     1      17.123  39.259  11.853  1.00  0.00     0.011 A 
ATOM     40  C   UNL     1      17.829  36.639  11.224  1.00  0.00     0.046 A 
ATOM     41  C   UNL     1      16.188  38.459  11.135  1.00  0.00     0.046 A 
ATOM     42  C   UNL     1      16.589  37.095  10.902  1.00  0.00     0.115 A 
BRANCH  42  43
ATOM     43  O   UNL     1      15.650  36.237  10.297  1.00  0.00    -0.508 OA
ATOM     44  H   UNL     1      16.021  35.519   9.601  1.00  0.00     0.293 HD
ENDBRANCH  42  43
ENDBRANCH  32  37
ENDBRANCH  23  24
ENDBRANCH   6  23
BRANCH   3  45
ATOM     45  O   UNL     1      23.096  36.317  16.804  1.00  0.00    -0.387 OA
ATOM     46  H   UNL     1      22.614  37.213  16.622  1.00  0.00     0.211 HD
ENDBRANCH   3  45
BRANCH   4  47
ATOM     47  C   UNL     1      23.066  38.073  19.802  1.00  0.00     0.191 C 
BRANCH  47  48
ATOM     48  O   UNL     1      22.878  37.650  21.126  1.00  0.00    -0.394 OA
ATOM     49  H   UNL     1      21.901  37.404  21.175  1.00  0.00     0.210 HD
ENDBRANCH  47  48
ENDBRANCH   4  47
TORSDOF 14
ENDMDL
