MODEL 1
REMARK VINA RESULT:    -4.056      0.000      0.000
REMARK INTER + INTRA:          -4.056
REMARK INTER:                  -4.056
REMARK INTRA:                   0.000
REMARK UNBOUND:                 0.000
REMARK SMILES O=c1ccc2ccccc2o1
REMARK SMILES IDX 7 1 8 2 9 3 10 4 5 5 6 6 4 7 3 8 2 9 1 10 11 11
REMARK H PARENT
REMARK Flexibility Score: inf
ROOT
ATOM      1  C   UNL     1      89.239  30.000  28.395  1.00  0.00     0.001 A 
ATOM      2  C   UNL     1      89.170  29.949  26.999  1.00  0.00     0.004 A 
ATOM      3  C   UNL     1      88.387  28.976  26.369  1.00  0.00     0.048 A 
ATOM      4  C   UNL     1      87.670  28.050  27.133  1.00  0.00     0.138 A 
ATOM      5  C   UNL     1      87.740  28.100  28.544  1.00  0.00     0.018 A 
ATOM      6  C   UNL     1      88.527  29.078  29.170  1.00  0.00     0.012 A 
ATOM      7  C   UNL     1      87.013  27.161  29.281  1.00  0.00     0.019 A 
ATOM      8  C   UNL     1      86.246  26.210  28.611  1.00  0.00     0.094 A 
ATOM      9  C   UNL     1      86.224  26.219  27.212  1.00  0.00     0.336 A 
ATOM     10  O   UNL     1      85.537  25.369  26.589  1.00  0.00    -0.246 OA
ATOM     11  O   UNL     1      86.925  27.124  26.533  1.00  0.00    -0.423 OA
ENDROOT
TORSDOF 0
ENDMDL
MODEL 2
REMARK VINA RESULT:    -3.936      1.511      3.791
REMARK INTER + INTRA:          -3.936
REMARK INTER:                  -3.936
REMARK INTRA:                   0.000
REMARK UNBOUND:                 0.000
REMARK SMILES O=c1ccc2ccccc2o1
REMARK SMILES IDX 7 1 8 2 9 3 10 4 5 5 6 6 4 7 3 8 2 9 1 10 11 11
REMARK H PARENT
REMARK Flexibility Score: inf
ROOT
ATOM      1  C   UNL     1      86.077  26.182  28.662  1.00  0.00     0.001 A 
ATOM      2  C   UNL     1      85.833  26.163  27.284  1.00  0.00     0.004 A 
ATOM      3  C   UNL     1      86.534  27.024  26.434  1.00  0.00     0.048 A 
ATOM      4  C   UNL     1      87.483  27.909  26.959  1.00  0.00     0.138 A 
ATOM      5  C   UNL     1      87.729  27.929  28.350  1.00  0.00     0.018 A 
ATOM      6  C   UNL     1      87.022  27.063  29.198  1.00  0.00     0.012 A 
ATOM      7  C   UNL     1      88.681  28.824  28.845  1.00  0.00     0.019 A 
ATOM      8  C   UNL     1      89.357  29.664  27.961  1.00  0.00     0.094 A 
ATOM      9  C   UNL     1      89.061  29.589  26.595  1.00  0.00     0.336 A 
ATOM     10  O   UNL     1      89.660  30.339  25.781  1.00  0.00    -0.246 OA
ATOM     11  O   UNL     1      88.149  28.729  26.149  1.00  0.00    -0.423 OA
ENDROOT
TORSDOF 0
ENDMDL
MODEL 3
REMARK VINA RESULT:    -3.903      2.978      3.705
REMARK INTER + INTRA:          -3.903
REMARK INTER:                  -3.903
REMARK INTRA:                   0.000
REMARK UNBOUND:                 0.000
REMARK SMILES O=c1ccc2ccccc2o1
REMARK SMILES IDX 7 1 8 2 9 3 10 4 5 5 6 6 4 7 3 8 2 9 1 10 11 11
REMARK H PARENT
REMARK Flexibility Score: inf
ROOT
ATOM      1  C   UNL     1      90.264  28.789  24.776  1.00  0.00     0.001 A 
ATOM      2  C   UNL     1      89.388  29.765  24.288  1.00  0.00     0.004 A 
ATOM      3  C   UNL     1      88.498  30.407  25.154  1.00  0.00     0.048 A 
ATOM      4  C   UNL     1      88.479  30.076  26.513  1.00  0.00     0.138 A 
ATOM      5  C   UNL     1      89.363  29.090  27.007  1.00  0.00     0.018 A 
ATOM      6  C   UNL     1      90.254  28.450  26.133  1.00  0.00     0.012 A 
ATOM      7  C   UNL     1      89.321  28.780  28.369  1.00  0.00     0.019 A 
ATOM      8  C   UNL     1      88.417  29.446  29.195  1.00  0.00     0.094 A 
ATOM      9  C   UNL     1      87.572  30.411  28.637  1.00  0.00     0.336 A 
ATOM     10  O   UNL     1      86.749  31.023  29.367  1.00  0.00    -0.246 OA
ATOM     11  O   UNL     1      87.631  30.687  27.337  1.00  0.00    -0.423 OA
ENDROOT
TORSDOF 0
ENDMDL
MODEL 4
REMARK VINA RESULT:    -3.871      1.170      2.116
REMARK INTER + INTRA:          -3.871
REMARK INTER:                  -3.871
REMARK INTRA:                   0.000
REMARK UNBOUND:                 0.000
REMARK SMILES O=c1ccc2ccccc2o1
REMARK SMILES IDX 7 1 8 2 9 3 10 4 5 5 6 6 4 7 3 8 2 9 1 10 11 11
REMARK H PARENT
REMARK Flexibility Score: inf
ROOT
ATOM      1  C   UNL     1      89.215  29.948  27.056  1.00  0.00     0.001 A 
ATOM      2  C   UNL     1      89.256  29.876  28.453  1.00  0.00     0.004 A 
ATOM      3  C   UNL     1      88.479  28.932  29.131  1.00  0.00     0.048 A 
ATOM      4  C   UNL     1      87.657  28.055  28.415  1.00  0.00     0.138 A 
ATOM      5  C   UNL     1      87.615  28.127  27.004  1.00  0.00     0.018 A 
ATOM      6  C   UNL     1      88.397  29.077  26.330  1.00  0.00     0.012 A 
ATOM      7  C   UNL     1      86.784  27.239  26.317  1.00  0.00     0.019 A 
ATOM      8  C   UNL     1      86.027  26.314  27.034  1.00  0.00     0.094 A 
ATOM      9  C   UNL     1      86.118  26.300  28.430  1.00  0.00     0.336 A 
ATOM     10  O   UNL     1      85.443  25.473  29.096  1.00  0.00    -0.246 OA
ATOM     11  O   UNL     1      86.917  27.157  29.062  1.00  0.00    -0.423 OA
ENDROOT
TORSDOF 0
ENDMDL
MODEL 5
REMARK VINA RESULT:    -3.790      3.152      4.207
REMARK INTER + INTRA:          -3.790
REMARK INTER:                  -3.790
REMARK INTRA:                   0.000
REMARK UNBOUND:                 0.000
REMARK SMILES O=c1ccc2ccccc2o1
REMARK SMILES IDX 7 1 8 2 9 3 10 4 5 5 6 6 4 7 3 8 2 9 1 10 11 11
REMARK H PARENT
REMARK Flexibility Score: inf
ROOT
ATOM      1  C   UNL     1      89.615  28.965  26.952  1.00  0.00     0.001 A 
ATOM      2  C   UNL     1      89.596  28.777  28.339  1.00  0.00     0.004 A 
ATOM      3  C   UNL     1      88.595  29.368  29.115  1.00  0.00     0.048 A 
ATOM      4  C   UNL     1      87.607  30.151  28.508  1.00  0.00     0.138 A 
ATOM      5  C   UNL     1      87.625  30.341  27.107  1.00  0.00     0.018 A 
ATOM      6  C   UNL     1      88.632  29.745  26.334  1.00  0.00     0.012 A 
ATOM      7  C   UNL     1      86.625  31.129  26.530  1.00  0.00     0.019 A 
ATOM      8  C   UNL     1      85.646  31.698  27.343  1.00  0.00     0.094 A 
ATOM      9  C   UNL     1      85.691  31.467  28.722  1.00  0.00     0.336 A 
ATOM     10  O   UNL     1      84.816  31.972  29.472  1.00  0.00    -0.246 OA
ATOM     11  O   UNL     1      86.654  30.714  29.247  1.00  0.00    -0.423 OA
ENDROOT
TORSDOF 0
ENDMDL
MODEL 6
REMARK VINA RESULT:    -3.786      1.846      4.348
REMARK INTER + INTRA:          -3.786
REMARK INTER:                  -3.786
REMARK INTRA:                   0.000
REMARK UNBOUND:                 0.000
REMARK SMILES O=c1ccc2ccccc2o1
REMARK SMILES IDX 7 1 8 2 9 3 10 4 5 5 6 6 4 7 3 8 2 9 1 10 11 11
REMARK H PARENT
REMARK Flexibility Score: inf
ROOT
ATOM      1  C   UNL     1      85.820  25.709  27.160  1.00  0.00     0.001 A 
ATOM      2  C   UNL     1      85.915  25.704  28.556  1.00  0.00     0.004 A 
ATOM      3  C   UNL     1      86.651  26.695  29.214  1.00  0.00     0.048 A 
ATOM      4  C   UNL     1      87.295  27.696  28.478  1.00  0.00     0.138 A 
ATOM      5  C   UNL     1      87.200  27.701  27.067  1.00  0.00     0.018 A 
ATOM      6  C   UNL     1      86.460  26.703  26.414  1.00  0.00     0.012 A 
ATOM      7  C   UNL     1      87.854  28.712  26.359  1.00  0.00     0.019 A 
ATOM      8  C   UNL     1      88.576  29.679  27.056  1.00  0.00     0.094 A 
ATOM      9  C   UNL     1      88.627  29.612  28.453  1.00  0.00     0.336 A 
ATOM     10  O   UNL     1      89.273  30.476  29.100  1.00  0.00    -0.246 OA
ATOM     11  O   UNL     1      87.995  28.638  29.104  1.00  0.00    -0.423 OA
ENDROOT
TORSDOF 0
ENDMDL
MODEL 7
REMARK VINA RESULT:    -3.745      2.834      3.575
REMARK INTER + INTRA:          -3.745
REMARK INTER:                  -3.745
REMARK INTRA:                   0.000
REMARK UNBOUND:                 0.000
REMARK SMILES O=c1ccc2ccccc2o1
REMARK SMILES IDX 7 1 8 2 9 3 10 4 5 5 6 6 4 7 3 8 2 9 1 10 11 11
REMARK H PARENT
REMARK Flexibility Score: inf
ROOT
ATOM      1  C   UNL     1      85.571  31.478  28.762  1.00  0.00     0.001 A 
ATOM      2  C   UNL     1      85.506  31.624  27.372  1.00  0.00     0.004 A 
ATOM      3  C   UNL     1      86.472  31.027  26.557  1.00  0.00     0.048 A 
ATOM      4  C   UNL     1      87.508  30.280  27.128  1.00  0.00     0.138 A 
ATOM      5  C   UNL     1      87.575  30.132  28.533  1.00  0.00     0.018 A 
ATOM      6  C   UNL     1      86.603  30.735  29.345  1.00  0.00     0.012 A 
ATOM      7  C   UNL     1      88.622  29.382  29.075  1.00  0.00     0.019 A 
ATOM      8  C   UNL     1      89.562  28.804  28.223  1.00  0.00     0.094 A 
ATOM      9  C   UNL     1      89.434  28.992  26.843  1.00  0.00     0.336 A 
ATOM     10  O   UNL     1      90.273  28.479  26.058  1.00  0.00    -0.246 OA
ATOM     11  O   UNL     1      88.428  29.712  26.352  1.00  0.00    -0.423 OA
ENDROOT
TORSDOF 0
ENDMDL
MODEL 8
REMARK VINA RESULT:    -3.738      3.062      3.686
REMARK INTER + INTRA:          -3.738
REMARK INTER:                  -3.738
REMARK INTRA:                   0.000
REMARK UNBOUND:                 0.000
REMARK SMILES O=c1ccc2ccccc2o1
REMARK SMILES IDX 7 1 8 2 9 3 10 4 5 5 6 6 4 7 3 8 2 9 1 10 11 11
REMARK H PARENT
REMARK Flexibility Score: inf
ROOT
ATOM      1  C   UNL     1      89.620  28.871  28.351  1.00  0.00     0.001 A 
ATOM      2  C   UNL     1      89.615  29.049  26.963  1.00  0.00     0.004 A 
ATOM      3  C   UNL     1      88.604  29.797  26.353  1.00  0.00     0.048 A 
ATOM      4  C   UNL     1      87.592  30.372  27.130  1.00  0.00     0.138 A 
ATOM      5  C   UNL     1      87.595  30.192  28.532  1.00  0.00     0.018 A 
ATOM      6  C   UNL     1      88.612  29.440  29.137  1.00  0.00     0.012 A 
ATOM      7  C   UNL     1      86.570  30.777  29.281  1.00  0.00     0.019 A 
ATOM      8  C   UNL     1      85.583  31.516  28.630  1.00  0.00     0.094 A 
ATOM      9  C   UNL     1      85.643  31.652  27.239  1.00  0.00     0.336 A 
ATOM     10  O   UNL     1      84.760  32.314  26.634  1.00  0.00    -0.246 OA
ATOM     11  O   UNL     1      86.629  31.084  26.549  1.00  0.00    -0.423 OA
ENDROOT
TORSDOF 0
ENDMDL
MODEL 9
REMARK VINA RESULT:    -3.695      2.998      3.955
REMARK INTER + INTRA:          -3.695
REMARK INTER:                  -3.695
REMARK INTRA:                   0.000
REMARK UNBOUND:                 0.000
REMARK SMILES O=c1ccc2ccccc2o1
REMARK SMILES IDX 7 1 8 2 9 3 10 4 5 5 6 6 4 7 3 8 2 9 1 10 11 11
REMARK H PARENT
REMARK Flexibility Score: inf
ROOT
ATOM      1  C   UNL     1      88.371  29.486  29.261  1.00  0.00     0.001 A 
ATOM      2  C   UNL     1      87.462  30.420  28.753  1.00  0.00     0.004 A 
ATOM      3  C   UNL     1      87.444  30.711  27.386  1.00  0.00     0.048 A 
ATOM      4  C   UNL     1      88.335  30.069  26.519  1.00  0.00     0.138 A 
ATOM      5  C   UNL     1      89.254  29.125  27.032  1.00  0.00     0.018 A 
ATOM      6  C   UNL     1      89.268  28.838  28.405  1.00  0.00     0.012 A 
ATOM      7  C   UNL     1      90.133  28.501  26.143  1.00  0.00     0.019 A 
ATOM      8  C   UNL     1      90.079  28.822  24.787  1.00  0.00     0.094 A 
ATOM      9  C   UNL     1      89.143  29.766  24.351  1.00  0.00     0.336 A 
ATOM     10  O   UNL     1      89.079  30.069  23.131  1.00  0.00    -0.246 OA
ATOM     11  O   UNL     1      88.318  30.347  25.218  1.00  0.00    -0.423 OA
ENDROOT
TORSDOF 0
ENDMDL
