MODEL 1
REMARK VINA RESULT:    -3.444      0.000      0.000
REMARK INTER + INTRA:          -5.679
REMARK INTER:                  -5.256
REMARK INTRA:                  -0.423
REMARK UNBOUND:                -0.423
REMARK SMILES O=C([O-])CCCCCCCCC(=O)[O-]
REMARK SMILES IDX 7 1 6 2 5 3 4 4 2 5 1 6 3 7 8 8 9 9 10 10 11 11 12 12 13 13
REMARK SMILES IDX 14 14
REMARK H PARENT
REMARK Flexibility Score: inf
ROOT
ATOM      1  C   UNL     1      -7.813   5.938   7.280  1.00  0.00     0.000 C 
ENDROOT
BRANCH   1   2
ATOM      2  C   UNL     1      -7.844   5.161   8.610  1.00  0.00     0.000 C 
BRANCH   2   3
ATOM      3  C   UNL     1      -6.607   5.355   9.505  1.00  0.00     0.006 C 
BRANCH   3   4
ATOM      4  C   UNL     1      -6.176   6.822   9.620  1.00  0.00     0.053 C 
BRANCH   4   5
ATOM      5  C   UNL     1      -4.895   7.050   8.880  1.00  0.00     0.041 C 
ATOM      6  O   UNL     1      -4.046   6.125   8.782  1.00  0.00    -0.550 OA
ATOM      7  O   UNL     1      -4.618   8.299   8.340  1.00  0.00    -0.550 OA
ENDBRANCH   4   5
ENDBRANCH   3   4
ENDBRANCH   2   3
ENDBRANCH   1   2
BRANCH   1   8
ATOM      8  C   UNL     1      -9.155   5.903   6.534  1.00  0.00     0.000 C 
BRANCH   8   9
ATOM      9  C   UNL     1      -9.824   7.286   6.546  1.00  0.00     0.000 C 
BRANCH   9  10
ATOM     10  C   UNL     1     -10.043   7.855   5.133  1.00  0.00     0.006 C 
BRANCH  10  11
ATOM     11  C   UNL     1      -9.005   7.397   4.097  1.00  0.00     0.053 C 
BRANCH  11  12
ATOM     12  C   UNL     1      -7.929   8.419   3.893  1.00  0.00     0.041 C 
ATOM     13  O   UNL     1      -7.371   8.536   2.770  1.00  0.00    -0.550 OA
ATOM     14  O   UNL     1      -7.564   9.263   4.935  1.00  0.00    -0.550 OA
ENDBRANCH  11  12
ENDBRANCH  10  11
ENDBRANCH   9  10
ENDBRANCH   8   9
ENDBRANCH   1   8
TORSDOF 9
ENDMDL
MODEL 2
REMARK VINA RESULT:    -3.375      1.110      5.509
REMARK INTER + INTRA:          -5.573
REMARK INTER:                  -4.967
REMARK INTRA:                  -0.607
REMARK UNBOUND:                -0.423
REMARK SMILES O=C([O-])CCCCCCCCC(=O)[O-]
REMARK SMILES IDX 7 1 6 2 5 3 4 4 2 5 1 6 3 7 8 8 9 9 10 10 11 11 12 12 13 13
REMARK SMILES IDX 14 14
REMARK H PARENT
REMARK Flexibility Score: inf
ROOT
ATOM      1  C   UNL     1      -7.687   5.961   7.223  1.00  0.00     0.000 C 
ENDROOT
BRANCH   1   2
ATOM      2  C   UNL     1      -9.009   5.982   6.434  1.00  0.00     0.000 C 
BRANCH   2   3
ATOM      3  C   UNL     1      -9.308   7.303   5.703  1.00  0.00     0.006 C 
BRANCH   3   4
ATOM      4  C   UNL     1      -9.887   7.092   4.298  1.00  0.00     0.053 C 
BRANCH   4   5
ATOM      5  C   UNL     1      -9.055   7.804   3.278  1.00  0.00     0.041 C 
ATOM      6  O   UNL     1      -9.605   8.415   2.325  1.00  0.00    -0.550 OA
ATOM      7  O   UNL     1      -7.669   7.752   3.354  1.00  0.00    -0.550 OA
ENDBRANCH   4   5
ENDBRANCH   3   4
ENDBRANCH   2   3
ENDBRANCH   1   2
BRANCH   1   8
ATOM      8  C   UNL     1      -7.796   5.207   8.557  1.00  0.00     0.000 C 
BRANCH   8   9
ATOM      9  C   UNL     1      -7.769   6.184   9.742  1.00  0.00     0.000 C 
BRANCH   9  10
ATOM     10  C   UNL     1      -7.462   7.631   9.317  1.00  0.00     0.006 C 
BRANCH  10  11
ATOM     11  C   UNL     1      -6.120   8.173   9.834  1.00  0.00     0.053 C 
BRANCH  11  12
ATOM     12  C   UNL     1      -5.015   7.970   8.844  1.00  0.00     0.041 C 
ATOM     13  O   UNL     1      -4.550   8.951   8.205  1.00  0.00    -0.550 OA
ATOM     14  O   UNL     1      -4.477   6.704   8.650  1.00  0.00    -0.550 OA
ENDBRANCH  11  12
ENDBRANCH  10  11
ENDBRANCH   9  10
ENDBRANCH   8   9
ENDBRANCH   1   8
TORSDOF 9
ENDMDL
MODEL 3
REMARK VINA RESULT:    -3.336      2.363      5.613
REMARK INTER + INTRA:          -5.514
REMARK INTER:                  -4.889
REMARK INTRA:                  -0.626
REMARK UNBOUND:                -0.423
REMARK SMILES O=C([O-])CCCCCCCCC(=O)[O-]
REMARK SMILES IDX 7 1 6 2 5 3 4 4 2 5 1 6 3 7 8 8 9 9 10 10 11 11 12 12 13 13
REMARK SMILES IDX 14 14
REMARK H PARENT
REMARK Flexibility Score: inf
ROOT
ATOM      1  C   UNL     1      -8.586   6.684   5.555  1.00  0.00     0.000 C 
ENDROOT
BRANCH   1   2
ATOM      2  C   UNL     1      -9.213   7.253   4.268  1.00  0.00     0.000 C 
BRANCH   2   3
ATOM      3  C   UNL     1      -8.251   8.065   3.381  1.00  0.00     0.006 C 
BRANCH   3   4
ATOM      4  C   UNL     1      -8.096   9.519   3.843  1.00  0.00     0.053 C 
BRANCH   4   5
ATOM      5  C   UNL     1      -6.704   9.765   4.335  1.00  0.00     0.041 C 
ATOM      6  O   UNL     1      -5.747   9.835   3.521  1.00  0.00    -0.550 OA
ATOM      7  O   UNL     1      -6.459   9.867   5.699  1.00  0.00    -0.550 OA
ENDBRANCH   4   5
ENDBRANCH   3   4
ENDBRANCH   2   3
ENDBRANCH   1   2
BRANCH   1   8
ATOM      8  C   UNL     1      -9.026   7.437   6.819  1.00  0.00     0.000 C 
BRANCH   8   9
ATOM      9  C   UNL     1      -7.960   7.329   7.919  1.00  0.00     0.000 C 
BRANCH   9  10
ATOM     10  C   UNL     1      -7.212   5.984   7.896  1.00  0.00     0.006 C 
BRANCH  10  11
ATOM     11  C   UNL     1      -7.188   5.249   9.246  1.00  0.00     0.053 C 
BRANCH  11  12
ATOM     12  C   UNL     1      -8.185   4.132   9.292  1.00  0.00     0.041 C 
ATOM     13  O   UNL     1      -7.835   2.986   9.680  1.00  0.00    -0.550 OA
ATOM     14  O   UNL     1      -9.508   4.364   8.937  1.00  0.00    -0.550 OA
ENDBRANCH  11  12
ENDBRANCH  10  11
ENDBRANCH   9  10
ENDBRANCH   8   9
ENDBRANCH   1   8
TORSDOF 9
ENDMDL
MODEL 4
REMARK VINA RESULT:    -3.333      1.102      5.238
REMARK INTER + INTRA:          -5.510
REMARK INTER:                  -4.861
REMARK INTRA:                  -0.649
REMARK UNBOUND:                -0.423
REMARK SMILES O=C([O-])CCCCCCCCC(=O)[O-]
REMARK SMILES IDX 7 1 6 2 5 3 4 4 2 5 1 6 3 7 8 8 9 9 10 10 11 11 12 12 13 13
REMARK SMILES IDX 14 14
REMARK H PARENT
REMARK Flexibility Score: inf
ROOT
ATOM      1  C   UNL     1      -9.559   7.288   6.207  1.00  0.00     0.000 C 
ENDROOT
BRANCH   1   2
ATOM      2  C   UNL     1      -9.748   7.666   4.726  1.00  0.00     0.000 C 
BRANCH   2   3
ATOM      3  C   UNL     1      -9.311   9.096   4.360  1.00  0.00     0.006 C 
BRANCH   3   4
ATOM      4  C   UNL     1      -7.935   9.465   4.927  1.00  0.00     0.053 C 
BRANCH   4   5
ATOM      5  C   UNL     1      -6.929   9.578   3.824  1.00  0.00     0.041 C 
ATOM      6  O   UNL     1      -5.788  10.056   4.054  1.00  0.00    -0.550 OA
ATOM      7  O   UNL     1      -7.271   9.201   2.532  1.00  0.00    -0.550 OA
ENDBRANCH   4   5
ENDBRANCH   3   4
ENDBRANCH   2   3
ENDBRANCH   1   2
BRANCH   1   8
ATOM      8  C   UNL     1      -8.888   5.920   6.396  1.00  0.00     0.000 C 
BRANCH   8   9
ATOM      9  C   UNL     1      -7.795   5.990   7.473  1.00  0.00     0.000 C 
BRANCH   9  10
ATOM     10  C   UNL     1      -7.589   7.413   8.024  1.00  0.00     0.006 C 
BRANCH  10  11
ATOM     11  C   UNL     1      -6.579   7.506   9.178  1.00  0.00     0.053 C 
BRANCH  11  12
ATOM     12  C   UNL     1      -5.165   7.516   8.684  1.00  0.00     0.041 C 
ATOM     13  O   UNL     1      -4.655   8.580   8.244  1.00  0.00    -0.550 OA
ATOM     14  O   UNL     1      -4.400   6.357   8.741  1.00  0.00    -0.550 OA
ENDBRANCH  11  12
ENDBRANCH  10  11
ENDBRANCH   9  10
ENDBRANCH   8   9
ENDBRANCH   1   8
TORSDOF 9
ENDMDL
MODEL 5
REMARK VINA RESULT:    -3.327     11.789     14.449
REMARK INTER + INTRA:          -5.501
REMARK INTER:                  -5.269
REMARK INTRA:                  -0.232
REMARK UNBOUND:                -0.423
REMARK SMILES O=C([O-])CCCCCCCCC(=O)[O-]
REMARK SMILES IDX 7 1 6 2 5 3 4 4 2 5 1 6 3 7 8 8 9 9 10 10 11 11 12 12 13 13
REMARK SMILES IDX 14 14
REMARK H PARENT
REMARK Flexibility Score: inf
ROOT
ATOM      1  C   UNL     1      -6.187  -5.634   9.087  1.00  0.00     0.000 C 
ENDROOT
BRANCH   1   2
ATOM      2  C   UNL     1      -7.270  -4.645   9.554  1.00  0.00     0.000 C 
BRANCH   2   3
ATOM      3  C   UNL     1      -8.681  -5.245   9.695  1.00  0.00     0.006 C 
BRANCH   3   4
ATOM      4  C   UNL     1      -9.647  -4.765   8.605  1.00  0.00     0.053 C 
BRANCH   4   5
ATOM      5  C   UNL     1      -9.671  -3.269   8.551  1.00  0.00     0.041 C 
ATOM      6  O   UNL     1      -9.363  -2.668   7.489  1.00  0.00    -0.550 OA
ATOM      7  O   UNL     1      -9.986  -2.539   9.689  1.00  0.00    -0.550 OA
ENDBRANCH   4   5
ENDBRANCH   3   4
ENDBRANCH   2   3
ENDBRANCH   1   2
BRANCH   1   8
ATOM      8  C   UNL     1      -4.785  -5.008   9.036  1.00  0.00     0.000 C 
BRANCH   8   9
ATOM      9  C   UNL     1      -3.774  -5.977   8.406  1.00  0.00     0.000 C 
BRANCH   9  10
ATOM     10  C   UNL     1      -2.543  -6.220   9.298  1.00  0.00     0.006 C 
BRANCH  10  11
ATOM     11  C   UNL     1      -1.959  -7.638   9.199  1.00  0.00     0.053 C 
BRANCH  11  12
ATOM     12  C   UNL     1      -0.575  -7.714   9.768  1.00  0.00     0.041 C 
ATOM     13  O   UNL     1       0.021  -6.664  10.125  1.00  0.00    -0.550 OA
ATOM     14  O   UNL     1       0.042  -8.948   9.933  1.00  0.00    -0.550 OA
ENDBRANCH  11  12
ENDBRANCH  10  11
ENDBRANCH   9  10
ENDBRANCH   8   9
ENDBRANCH   1   8
TORSDOF 9
ENDMDL
MODEL 6
REMARK VINA RESULT:    -3.271     23.115     24.533
REMARK INTER + INTRA:          -5.415
REMARK INTER:                  -4.915
REMARK INTRA:                  -0.501
REMARK UNBOUND:                -0.423
REMARK SMILES O=C([O-])CCCCCCCCC(=O)[O-]
REMARK SMILES IDX 7 1 6 2 5 3 4 4 2 5 1 6 3 7 8 8 9 9 10 10 11 11 12 12 13 13
REMARK SMILES IDX 14 14
REMARK H PARENT
REMARK Flexibility Score: inf
ROOT
ATOM      1  C   UNL     1       9.770  -4.716  -8.912  1.00  0.00     0.000 C 
ENDROOT
BRANCH   1   2
ATOM      2  C   UNL     1       8.703  -4.837 -10.017  1.00  0.00     0.000 C 
BRANCH   2   3
ATOM      3  C   UNL     1       7.677  -3.690 -10.057  1.00  0.00     0.006 C 
BRANCH   3   4
ATOM      4  C   UNL     1       8.330  -2.303 -10.095  1.00  0.00     0.053 C 
BRANCH   4   5
ATOM      5  C   UNL     1       7.738  -1.418  -9.044  1.00  0.00     0.041 C 
ATOM      6  O   UNL     1       7.155  -1.920  -8.047  1.00  0.00    -0.550 OA
ATOM      7  O   UNL     1       7.788  -0.038  -9.190  1.00  0.00    -0.550 OA
ENDBRANCH   4   5
ENDBRANCH   3   4
ENDBRANCH   2   3
ENDBRANCH   1   2
BRANCH   1   8
ATOM      8  C   UNL     1       9.195  -4.910  -7.501  1.00  0.00     0.000 C 
BRANCH   8   9
ATOM      9  C   UNL     1      10.085  -5.846  -6.671  1.00  0.00     0.000 C 
BRANCH   9  10
ATOM     10  C   UNL     1       9.937  -5.622  -5.155  1.00  0.00     0.006 C 
BRANCH  10  11
ATOM     11  C   UNL     1       8.954  -4.505  -4.773  1.00  0.00     0.053 C 
BRANCH  11  12
ATOM     12  C   UNL     1       9.371  -3.794  -3.522  1.00  0.00     0.041 C 
ATOM     13  O   UNL     1       9.445  -4.421  -2.433  1.00  0.00    -0.550 OA
ATOM     14  O   UNL     1       9.711  -2.448  -3.567  1.00  0.00    -0.550 OA
ENDBRANCH  11  12
ENDBRANCH  10  11
ENDBRANCH   9  10
ENDBRANCH   8   9
ENDBRANCH   1   8
TORSDOF 9
ENDMDL
MODEL 7
REMARK VINA RESULT:    -3.258      1.666      4.920
REMARK INTER + INTRA:          -5.395
REMARK INTER:                  -4.525
REMARK INTRA:                  -0.870
REMARK UNBOUND:                -0.423
REMARK SMILES O=C([O-])CCCCCCCCC(=O)[O-]
REMARK SMILES IDX 7 1 6 2 5 3 4 4 2 5 1 6 3 7 8 8 9 9 10 10 11 11 12 12 13 13
REMARK SMILES IDX 14 14
REMARK H PARENT
REMARK Flexibility Score: inf
ROOT
ATOM      1  C   UNL     1      -8.770   6.189   6.120  1.00  0.00     0.000 C 
ENDROOT
BRANCH   1   2
ATOM      2  C   UNL     1      -8.822   7.434   5.214  1.00  0.00     0.000 C 
BRANCH   2   3
ATOM      3  C   UNL     1      -9.549   8.648   5.820  1.00  0.00     0.006 C 
BRANCH   3   4
ATOM      4  C   UNL     1      -8.702   9.926   5.794  1.00  0.00     0.053 C 
BRANCH   4   5
ATOM      5  C   UNL     1      -7.477   9.759   6.637  1.00  0.00     0.041 C 
ATOM      6  O   UNL     1      -7.582   9.573   7.877  1.00  0.00    -0.550 OA
ATOM      7  O   UNL     1      -6.218   9.856   6.059  1.00  0.00    -0.550 OA
ENDBRANCH   4   5
ENDBRANCH   3   4
ENDBRANCH   2   3
ENDBRANCH   1   2
BRANCH   1   8
ATOM      8  C   UNL     1      -9.296   6.458   7.538  1.00  0.00     0.000 C 
BRANCH   8   9
ATOM      9  C   UNL     1      -8.309   5.938   8.595  1.00  0.00     0.000 C 
BRANCH   9  10
ATOM     10  C   UNL     1      -6.839   6.191   8.215  1.00  0.00     0.006 C 
BRANCH  10  11
ATOM     11  C   UNL     1      -5.849   6.037   9.380  1.00  0.00     0.053 C 
BRANCH  11  12
ATOM     12  C   UNL     1      -4.680   6.964   9.247  1.00  0.00     0.041 C 
ATOM     13  O   UNL     1      -4.695   7.883   8.386  1.00  0.00    -0.550 OA
ATOM     14  O   UNL     1      -3.588   6.834  10.097  1.00  0.00    -0.550 OA
ENDBRANCH  11  12
ENDBRANCH  10  11
ENDBRANCH   9  10
ENDBRANCH   8   9
ENDBRANCH   1   8
TORSDOF 9
ENDMDL
MODEL 8
REMARK VINA RESULT:    -3.082      2.232      4.891
REMARK INTER + INTRA:          -5.127
REMARK INTER:                  -4.326
REMARK INTRA:                  -0.801
REMARK UNBOUND:                -0.423
REMARK SMILES O=C([O-])CCCCCCCCC(=O)[O-]
REMARK SMILES IDX 7 1 6 2 5 3 4 4 2 5 1 6 3 7 8 8 9 9 10 10 11 11 12 12 13 13
REMARK SMILES IDX 14 14
REMARK H PARENT
REMARK Flexibility Score: inf
ROOT
ATOM      1  C   UNL     1      -8.414   7.757   4.552  1.00  0.00     0.000 C 
ENDROOT
BRANCH   1   2
ATOM      2  C   UNL     1      -9.000   9.177   4.662  1.00  0.00     0.000 C 
BRANCH   2   3
ATOM      3  C   UNL     1      -8.285  10.099   5.666  1.00  0.00     0.006 C 
BRANCH   3   4
ATOM      4  C   UNL     1      -6.813   9.723   5.879  1.00  0.00     0.053 C 
BRANCH   4   5
ATOM      5  C   UNL     1      -6.547   9.454   7.327  1.00  0.00     0.041 C 
ATOM      6  O   UNL     1      -7.503   9.367   8.141  1.00  0.00    -0.550 OA
ATOM      7  O   UNL     1      -5.240   9.348   7.784  1.00  0.00    -0.550 OA
ENDBRANCH   4   5
ENDBRANCH   3   4
ENDBRANCH   2   3
ENDBRANCH   1   2
BRANCH   1   8
ATOM      8  C   UNL     1      -9.364   6.674   5.084  1.00  0.00     0.000 C 
BRANCH   8   9
ATOM      9  C   UNL     1      -9.390   6.674   6.620  1.00  0.00     0.000 C 
BRANCH   9  10
ATOM     10  C   UNL     1      -8.167   5.971   7.237  1.00  0.00     0.006 C 
BRANCH  10  11
ATOM     11  C   UNL     1      -8.159   5.947   8.774  1.00  0.00     0.053 C 
BRANCH  11  12
ATOM     12  C   UNL     1      -7.299   4.845   9.312  1.00  0.00     0.041 C 
ATOM     13  O   UNL     1      -7.769   3.685   9.448  1.00  0.00    -0.550 OA
ATOM     14  O   UNL     1      -5.970   5.093   9.633  1.00  0.00    -0.550 OA
ENDBRANCH  11  12
ENDBRANCH  10  11
ENDBRANCH   9  10
ENDBRANCH   8   9
ENDBRANCH   1   8
TORSDOF 9
ENDMDL
MODEL 9
REMARK VINA RESULT:    -3.077      1.350      5.330
REMARK INTER + INTRA:          -5.120
REMARK INTER:                  -4.529
REMARK INTRA:                  -0.591
REMARK UNBOUND:                -0.423
REMARK SMILES O=C([O-])CCCCCCCCC(=O)[O-]
REMARK SMILES IDX 7 1 6 2 5 3 4 4 2 5 1 6 3 7 8 8 9 9 10 10 11 11 12 12 13 13
REMARK SMILES IDX 14 14
REMARK H PARENT
REMARK Flexibility Score: inf
ROOT
ATOM      1  C   UNL     1      -7.627   6.875   8.366  1.00  0.00     0.000 C 
ENDROOT
BRANCH   1   2
ATOM      2  C   UNL     1      -8.084   5.711   7.466  1.00  0.00     0.000 C 
BRANCH   2   3
ATOM      3  C   UNL     1      -9.027   6.111   6.316  1.00  0.00     0.006 C 
BRANCH   3   4
ATOM      4  C   UNL     1      -9.160   7.631   6.153  1.00  0.00     0.053 C 
BRANCH   4   5
ATOM      5  C   UNL     1      -8.349   8.103   4.987  1.00  0.00     0.041 C 
ATOM      6  O   UNL     1      -7.765   9.218   5.032  1.00  0.00    -0.550 OA
ATOM      7  O   UNL     1      -8.278   7.334   3.833  1.00  0.00    -0.550 OA
ENDBRANCH   4   5
ENDBRANCH   3   4
ENDBRANCH   2   3
ENDBRANCH   1   2
BRANCH   1   8
ATOM      8  C   UNL     1      -7.451   6.463   9.835  1.00  0.00     0.000 C 
BRANCH   8   9
ATOM      9  C   UNL     1      -6.088   5.790  10.055  1.00  0.00     0.000 C 
BRANCH   9  10
ATOM     10  C   UNL     1      -4.952   6.470   9.269  1.00  0.00     0.006 C 
BRANCH  10  11
ATOM     11  C   UNL     1      -4.315   7.670   9.987  1.00  0.00     0.053 C 
BRANCH  11  12
ATOM     12  C   UNL     1      -4.758   8.974   9.398  1.00  0.00     0.041 C 
ATOM     13  O   UNL     1      -4.330   9.337   8.271  1.00  0.00    -0.550 OA
ATOM     14  O   UNL     1      -5.668   9.773  10.079  1.00  0.00    -0.550 OA
ENDBRANCH  11  12
ENDBRANCH  10  11
ENDBRANCH   9  10
ENDBRANCH   8   9
ENDBRANCH   1   8
TORSDOF 9
ENDMDL
