MODEL 1
REMARK VINA RESULT:    -5.638      0.000      0.000
REMARK INTER + INTRA:          -6.923
REMARK INTER:                  -6.627
REMARK INTRA:                  -0.296
REMARK UNBOUND:                -0.296
REMARK SMILES COc1cc2ccc(=O)oc2c(OC)c1OC
REMARK SMILES IDX 3 1 15 2 12 3 11 4 5 5 4 6 6 7 7 8 8 9 9 10 10 11 2 12 1 13
REMARK SMILES IDX 16 14 17 15 13 16 14 17
REMARK H PARENT
REMARK Flexibility Score: inf
ROOT
ATOM      1  C   UNL     1     -35.753  -4.901 -16.392  1.00  0.00     0.165 A 
ATOM      2  C   UNL     1     -36.376  -4.158 -15.376  1.00  0.00     0.207 A 
ATOM      3  C   UNL     1     -37.371  -4.760 -14.557  1.00  0.00     0.208 A 
ATOM      4  C   UNL     1     -37.720  -6.116 -14.783  1.00  0.00     0.184 A 
ATOM      5  C   UNL     1     -37.083  -6.847 -15.810  1.00  0.00     0.025 A 
ATOM      6  C   UNL     1     -36.109  -6.242 -16.604  1.00  0.00     0.062 A 
ATOM      7  C   UNL     1     -37.444  -8.183 -16.014  1.00  0.00     0.020 A 
ATOM      8  C   UNL     1     -38.419  -8.762 -15.207  1.00  0.00     0.094 A 
ATOM      9  C   UNL     1     -39.012  -7.986 -14.209  1.00  0.00     0.336 A 
ATOM     10  O   UNL     1     -39.895  -8.486 -13.466  1.00  0.00    -0.246 OA
ATOM     11  O   UNL     1     -38.647  -6.719 -14.039  1.00  0.00    -0.419 OA
ENDROOT
BRANCH   1  12
ATOM     12  O   UNL     1     -34.777  -4.263 -17.175  1.00  0.00    -0.493 OA
ATOM     13  C   UNL     1     -34.988  -3.770 -18.494  1.00  0.00     0.278 C 
ENDBRANCH   1  12
BRANCH   2  14
ATOM     14  O   UNL     1     -35.953  -2.820 -15.238  1.00  0.00    -0.490 OA
ATOM     15  C   UNL     1     -36.597  -1.660 -15.752  1.00  0.00     0.278 C 
ENDBRANCH   2  14
BRANCH   3  16
ATOM     16  O   UNL     1     -37.973  -3.984 -13.547  1.00  0.00    -0.490 OA
ATOM     17  C   UNL     1     -37.538  -3.840 -12.200  1.00  0.00     0.278 C 
ENDBRANCH   3  16
TORSDOF 3
ENDMDL
MODEL 2
REMARK VINA RESULT:    -5.621      1.700      5.713
REMARK INTER + INTRA:          -6.903
REMARK INTER:                  -6.648
REMARK INTRA:                  -0.255
REMARK UNBOUND:                -0.296
REMARK SMILES COc1cc2ccc(=O)oc2c(OC)c1OC
REMARK SMILES IDX 3 1 15 2 12 3 11 4 5 5 4 6 6 7 7 8 8 9 9 10 10 11 2 12 1 13
REMARK SMILES IDX 16 14 17 15 13 16 14 17
REMARK H PARENT
REMARK Flexibility Score: inf
ROOT
ATOM      1  C   UNL     1     -39.163  -5.949 -13.008  1.00  0.00     0.165 A 
ATOM      2  C   UNL     1     -38.755  -7.063 -13.759  1.00  0.00     0.207 A 
ATOM      3  C   UNL     1     -37.754  -6.924 -14.761  1.00  0.00     0.208 A 
ATOM      4  C   UNL     1     -37.178  -5.647 -14.984  1.00  0.00     0.184 A 
ATOM      5  C   UNL     1     -37.601  -4.538 -14.217  1.00  0.00     0.025 A 
ATOM      6  C   UNL     1     -38.584  -4.692 -13.239  1.00  0.00     0.062 A 
ATOM      7  C   UNL     1     -37.018  -3.289 -14.456  1.00  0.00     0.020 A 
ATOM      8  C   UNL     1     -36.039  -3.164 -15.438  1.00  0.00     0.094 A 
ATOM      9  C   UNL     1     -35.666  -4.297 -16.161  1.00  0.00     0.336 A 
ATOM     10  O   UNL     1     -34.783  -4.211 -17.054  1.00  0.00    -0.246 OA
ATOM     11  O   UNL     1     -36.238  -5.471 -15.912  1.00  0.00    -0.419 OA
ENDROOT
BRANCH   1  12
ATOM     12  O   UNL     1     -40.154  -6.136 -12.030  1.00  0.00    -0.493 OA
ATOM     13  C   UNL     1     -40.265  -5.377 -10.830  1.00  0.00     0.278 C 
ENDBRANCH   1  12
BRANCH   2  14
ATOM     14  O   UNL     1     -39.393  -8.283 -13.455  1.00  0.00    -0.490 OA
ATOM     15  C   UNL     1     -40.460  -8.895 -14.172  1.00  0.00     0.278 C 
ENDBRANCH   2  14
BRANCH   3  16
ATOM     16  O   UNL     1     -37.371  -8.063 -15.495  1.00  0.00    -0.490 OA
ATOM     17  C   UNL     1     -36.311  -8.963 -15.191  1.00  0.00     0.278 C 
ENDBRANCH   3  16
TORSDOF 3
ENDMDL
MODEL 3
REMARK VINA RESULT:    -5.605      1.969      4.237
REMARK INTER + INTRA:          -6.884
REMARK INTER:                  -6.589
REMARK INTRA:                  -0.296
REMARK UNBOUND:                -0.296
REMARK SMILES COc1cc2ccc(=O)oc2c(OC)c1OC
REMARK SMILES IDX 3 1 15 2 12 3 11 4 5 5 4 6 6 7 7 8 8 9 9 10 10 11 2 12 1 13
REMARK SMILES IDX 16 14 17 15 13 16 14 17
REMARK H PARENT
REMARK Flexibility Score: inf
ROOT
ATOM      1  C   UNL     1     -39.317  -4.500 -12.509  1.00  0.00     0.165 A 
ATOM      2  C   UNL     1     -38.069  -4.058 -12.979  1.00  0.00     0.207 A 
ATOM      3  C   UNL     1     -37.228  -4.939 -13.713  1.00  0.00     0.208 A 
ATOM      4  C   UNL     1     -37.671  -6.264 -13.963  1.00  0.00     0.184 A 
ATOM      5  C   UNL     1     -38.929  -6.690 -13.483  1.00  0.00     0.025 A 
ATOM      6  C   UNL     1     -39.742  -5.813 -12.764  1.00  0.00     0.062 A 
ATOM      7  C   UNL     1     -39.343  -8.001 -13.741  1.00  0.00     0.020 A 
ATOM      8  C   UNL     1     -38.512  -8.855 -14.461  1.00  0.00     0.094 A 
ATOM      9  C   UNL     1     -37.281  -8.374 -14.907  1.00  0.00     0.336 A 
ATOM     10  O   UNL     1     -36.512  -9.125 -15.560  1.00  0.00    -0.246 OA
ATOM     11  O   UNL     1     -36.914  -7.123 -14.647  1.00  0.00    -0.419 OA
ENDROOT
BRANCH   1  12
ATOM     12  O   UNL     1     -40.112  -3.594 -11.789  1.00  0.00    -0.493 OA
ATOM     13  C   UNL     1     -40.332  -3.646 -10.382  1.00  0.00     0.278 C 
ENDBRANCH   1  12
BRANCH   2  14
ATOM     14  O   UNL     1     -37.730  -2.724 -12.675  1.00  0.00    -0.490 OA
ATOM     15  C   UNL     1     -36.830  -2.277 -11.667  1.00  0.00     0.278 C 
ENDBRANCH   2  14
BRANCH   3  16
ATOM     16  O   UNL     1     -35.984  -4.461 -14.168  1.00  0.00    -0.490 OA
ATOM     17  C   UNL     1     -35.712  -3.824 -15.412  1.00  0.00     0.278 C 
ENDBRANCH   3  16
TORSDOF 3
ENDMDL
MODEL 4
REMARK VINA RESULT:    -5.567      2.266      2.530
REMARK INTER + INTRA:          -6.839
REMARK INTER:                  -6.539
REMARK INTRA:                  -0.300
REMARK UNBOUND:                -0.296
REMARK SMILES COc1cc2ccc(=O)oc2c(OC)c1OC
REMARK SMILES IDX 3 1 15 2 12 3 11 4 5 5 4 6 6 7 7 8 8 9 9 10 10 11 2 12 1 13
REMARK SMILES IDX 16 14 17 15 13 16 14 17
REMARK H PARENT
REMARK Flexibility Score: inf
ROOT
ATOM      1  C   UNL     1     -38.372  -4.805 -16.472  1.00  0.00     0.165 A 
ATOM      2  C   UNL     1     -37.754  -4.074 -15.444  1.00  0.00     0.207 A 
ATOM      3  C   UNL     1     -36.884  -4.725 -14.526  1.00  0.00     0.208 A 
ATOM      4  C   UNL     1     -36.654  -6.118 -14.667  1.00  0.00     0.184 A 
ATOM      5  C   UNL     1     -37.284  -6.836 -15.707  1.00  0.00     0.025 A 
ATOM      6  C   UNL     1     -38.134  -6.182 -16.599  1.00  0.00     0.062 A 
ATOM      7  C   UNL     1     -37.041  -8.209 -15.826  1.00  0.00     0.020 A 
ATOM      8  C   UNL     1     -36.188  -8.836 -14.922  1.00  0.00     0.094 A 
ATOM      9  C   UNL     1     -35.597  -8.071 -13.916  1.00  0.00     0.336 A 
ATOM     10  O   UNL     1     -34.822  -8.614 -13.087  1.00  0.00    -0.246 OA
ATOM     11  O   UNL     1     -35.847  -6.768 -13.829  1.00  0.00    -0.419 OA
ENDROOT
BRANCH   1  12
ATOM     12  O   UNL     1     -39.222  -4.118 -17.354  1.00  0.00    -0.493 OA
ATOM     13  C   UNL     1     -38.921  -3.838 -18.718  1.00  0.00     0.278 C 
ENDBRANCH   1  12
BRANCH   2  14
ATOM     14  O   UNL     1     -38.053  -2.697 -15.396  1.00  0.00    -0.490 OA
ATOM     15  C   UNL     1     -37.253  -1.629 -15.889  1.00  0.00     0.278 C 
ENDBRANCH   2  14
BRANCH   3  16
ATOM     16  O   UNL     1     -36.283  -3.960 -13.508  1.00  0.00    -0.490 OA
ATOM     17  C   UNL     1     -36.810  -3.685 -12.215  1.00  0.00     0.278 C 
ENDBRANCH   3  16
TORSDOF 3
ENDMDL
MODEL 5
REMARK VINA RESULT:    -5.490      4.439      5.547
REMARK INTER + INTRA:          -6.749
REMARK INTER:                  -6.473
REMARK INTRA:                  -0.276
REMARK UNBOUND:                -0.296
REMARK SMILES COc1cc2ccc(=O)oc2c(OC)c1OC
REMARK SMILES IDX 3 1 15 2 12 3 11 4 5 5 4 6 6 7 7 8 8 9 9 10 10 11 2 12 1 13
REMARK SMILES IDX 16 14 17 15 13 16 14 17
REMARK H PARENT
REMARK Flexibility Score: inf
ROOT
ATOM      1  C   UNL     1     -34.460  -3.917 -18.665  1.00  0.00     0.165 A 
ATOM      2  C   UNL     1     -35.650  -3.217 -18.408  1.00  0.00     0.207 A 
ATOM      3  C   UNL     1     -36.802  -3.445 -19.212  1.00  0.00     0.208 A 
ATOM      4  C   UNL     1     -36.727  -4.387 -20.270  1.00  0.00     0.184 A 
ATOM      5  C   UNL     1     -35.521  -5.082 -20.512  1.00  0.00     0.025 A 
ATOM      6  C   UNL     1     -34.401  -4.847 -19.714  1.00  0.00     0.062 A 
ATOM      7  C   UNL     1     -35.472  -6.007 -21.561  1.00  0.00     0.020 A 
ATOM      8  C   UNL     1     -36.604  -6.222 -22.340  1.00  0.00     0.094 A 
ATOM      9  C   UNL     1     -37.765  -5.503 -22.050  1.00  0.00     0.336 A 
ATOM     10  O   UNL     1     -38.802  -5.680 -22.740  1.00  0.00    -0.246 OA
ATOM     11  O   UNL     1     -37.782  -4.632 -21.047  1.00  0.00    -0.419 OA
ENDROOT
BRANCH   1  12
ATOM     12  O   UNL     1     -33.350  -3.658 -17.845  1.00  0.00    -0.493 OA
ATOM     13  C   UNL     1     -32.083  -3.204 -18.312  1.00  0.00     0.278 C 
ENDBRANCH   1  12
BRANCH   2  14
ATOM     14  O   UNL     1     -35.614  -2.305 -17.334  1.00  0.00    -0.490 OA
ATOM     15  C   UNL     1     -36.073  -2.527 -16.005  1.00  0.00     0.278 C 
ENDBRANCH   2  14
BRANCH   3  16
ATOM     16  O   UNL     1     -37.977  -2.724 -18.925  1.00  0.00    -0.490 OA
ATOM     17  C   UNL     1     -39.085  -3.163 -18.146  1.00  0.00     0.278 C 
ENDBRANCH   3  16
TORSDOF 3
ENDMDL
MODEL 6
REMARK VINA RESULT:    -5.365      1.735      5.476
REMARK INTER + INTRA:          -6.603
REMARK INTER:                  -6.347
REMARK INTRA:                  -0.256
REMARK UNBOUND:                -0.296
REMARK SMILES COc1cc2ccc(=O)oc2c(OC)c1OC
REMARK SMILES IDX 3 1 15 2 12 3 11 4 5 5 4 6 6 7 7 8 8 9 9 10 10 11 2 12 1 13
REMARK SMILES IDX 16 14 17 15 13 16 14 17
REMARK H PARENT
REMARK Flexibility Score: inf
ROOT
ATOM      1  C   UNL     1     -38.880  -7.456 -13.744  1.00  0.00     0.165 A 
ATOM      2  C   UNL     1     -37.741  -7.176 -14.517  1.00  0.00     0.207 A 
ATOM      3  C   UNL     1     -37.198  -5.862 -14.542  1.00  0.00     0.208 A 
ATOM      4  C   UNL     1     -37.823  -4.845 -13.776  1.00  0.00     0.184 A 
ATOM      5  C   UNL     1     -38.968  -5.145 -13.004  1.00  0.00     0.025 A 
ATOM      6  C   UNL     1     -39.488  -6.440 -12.991  1.00  0.00     0.062 A 
ATOM      7  C   UNL     1     -39.567  -4.125 -12.256  1.00  0.00     0.020 A 
ATOM      8  C   UNL     1     -39.027  -2.843 -12.288  1.00  0.00     0.094 A 
ATOM      9  C   UNL     1     -37.895  -2.610 -13.070  1.00  0.00     0.336 A 
ATOM     10  O   UNL     1     -37.387  -1.460 -13.116  1.00  0.00    -0.246 OA
ATOM     11  O   UNL     1     -37.348  -3.600 -13.770  1.00  0.00    -0.419 OA
ENDROOT
BRANCH   1  12
ATOM     12  O   UNL     1     -39.379  -8.768 -13.751  1.00  0.00    -0.493 OA
ATOM     13  C   UNL     1     -40.722  -9.125 -14.067  1.00  0.00     0.278 C 
ENDBRANCH   1  12
BRANCH   2  14
ATOM     14  O   UNL     1     -37.201  -8.260 -15.239  1.00  0.00    -0.490 OA
ATOM     15  C   UNL     1     -36.017  -8.988 -14.934  1.00  0.00     0.278 C 
ENDBRANCH   2  14
BRANCH   3  16
ATOM     16  O   UNL     1     -36.055  -5.619 -15.329  1.00  0.00    -0.490 OA
ATOM     17  C   UNL     1     -36.022  -5.245 -16.702  1.00  0.00     0.278 C 
ENDBRANCH   3  16
TORSDOF 3
ENDMDL
MODEL 7
REMARK VINA RESULT:    -5.211      1.588      4.801
REMARK INTER + INTRA:          -6.421
REMARK INTER:                  -6.163
REMARK INTRA:                  -0.258
REMARK UNBOUND:                -0.296
REMARK SMILES COc1cc2ccc(=O)oc2c(OC)c1OC
REMARK SMILES IDX 3 1 15 2 12 3 11 4 5 5 4 6 6 7 7 8 8 9 9 10 10 11 2 12 1 13
REMARK SMILES IDX 16 14 17 15 13 16 14 17
REMARK H PARENT
REMARK Flexibility Score: inf
ROOT
ATOM      1  C   UNL     1     -36.990  -6.743 -14.725  1.00  0.00     0.165 A 
ATOM      2  C   UNL     1     -38.082  -6.028 -14.205  1.00  0.00     0.207 A 
ATOM      3  C   UNL     1     -38.266  -4.659 -14.542  1.00  0.00     0.208 A 
ATOM      4  C   UNL     1     -37.333  -4.032 -15.409  1.00  0.00     0.184 A 
ATOM      5  C   UNL     1     -36.242  -4.768 -15.922  1.00  0.00     0.025 A 
ATOM      6  C   UNL     1     -36.076  -6.111 -15.581  1.00  0.00     0.062 A 
ATOM      7  C   UNL     1     -35.336  -4.129 -16.774  1.00  0.00     0.020 A 
ATOM      8  C   UNL     1     -35.526  -2.788 -17.098  1.00  0.00     0.094 A 
ATOM      9  C   UNL     1     -36.623  -2.117 -16.558  1.00  0.00     0.336 A 
ATOM     10  O   UNL     1     -36.817  -0.905 -16.835  1.00  0.00    -0.246 OA
ATOM     11  O   UNL     1     -37.468  -2.751 -15.751  1.00  0.00    -0.419 OA
ENDROOT
BRANCH   1  12
ATOM     12  O   UNL     1     -36.851  -8.093 -14.363  1.00  0.00    -0.493 OA
ATOM     13  C   UNL     1     -36.395  -9.124 -15.234  1.00  0.00     0.278 C 
ENDBRANCH   1  12
BRANCH   2  14
ATOM     14  O   UNL     1     -38.946  -6.748 -13.355  1.00  0.00    -0.490 OA
ATOM     15  C   UNL     1     -40.230  -7.270 -13.680  1.00  0.00     0.278 C 
ENDBRANCH   2  14
BRANCH   3  16
ATOM     16  O   UNL     1     -39.372  -3.974 -14.002  1.00  0.00    -0.490 OA
ATOM     17  C   UNL     1     -39.420  -3.255 -12.774  1.00  0.00     0.278 C 
ENDBRANCH   3  16
TORSDOF 3
ENDMDL
MODEL 8
REMARK VINA RESULT:    -3.965      1.590      3.454
REMARK INTER + INTRA:          -4.957
REMARK INTER:                  -4.683
REMARK INTRA:                  -0.273
REMARK UNBOUND:                -0.296
REMARK SMILES COc1cc2ccc(=O)oc2c(OC)c1OC
REMARK SMILES IDX 3 1 15 2 12 3 11 4 5 5 4 6 6 7 7 8 8 9 9 10 10 11 2 12 1 13
REMARK SMILES IDX 16 14 17 15 13 16 14 17
REMARK H PARENT
REMARK Flexibility Score: inf
ROOT
ATOM      1  C   UNL     1     -37.770  -3.018 -14.051  1.00  0.00     0.165 A 
ATOM      2  C   UNL     1     -36.836  -3.600 -14.924  1.00  0.00     0.207 A 
ATOM      3  C   UNL     1     -36.871  -5.000 -15.179  1.00  0.00     0.208 A 
ATOM      4  C   UNL     1     -37.860  -5.791 -14.541  1.00  0.00     0.184 A 
ATOM      5  C   UNL     1     -38.791  -5.187 -13.667  1.00  0.00     0.025 A 
ATOM      6  C   UNL     1     -38.743  -3.814 -13.427  1.00  0.00     0.062 A 
ATOM      7  C   UNL     1     -39.757  -5.989 -13.049  1.00  0.00     0.020 A 
ATOM      8  C   UNL     1     -39.782  -7.356 -13.306  1.00  0.00     0.094 A 
ATOM      9  C   UNL     1     -38.835  -7.892 -14.179  1.00  0.00     0.336 A 
ATOM     10  O   UNL     1     -38.836  -9.125 -14.429  1.00  0.00    -0.246 OA
ATOM     11  O   UNL     1     -37.929  -7.105 -14.752  1.00  0.00    -0.419 OA
ENDROOT
BRANCH   1  12
ATOM     12  O   UNL     1     -37.696  -1.633 -13.831  1.00  0.00    -0.493 OA
ATOM     13  C   UNL     1     -37.657  -1.016 -12.547  1.00  0.00     0.278 C 
ENDBRANCH   1  12
BRANCH   2  14
ATOM     14  O   UNL     1     -35.899  -2.722 -15.504  1.00  0.00    -0.490 OA
ATOM     15  C   UNL     1     -36.004  -2.062 -16.760  1.00  0.00     0.278 C 
ENDBRANCH   2  14
BRANCH   3  16
ATOM     16  O   UNL     1     -35.919  -5.548 -16.060  1.00  0.00    -0.490 OA
ATOM     17  C   UNL     1     -36.062  -5.750 -17.462  1.00  0.00     0.278 C 
ENDBRANCH   3  16
TORSDOF 3
ENDMDL
MODEL 9
REMARK VINA RESULT:    -3.807      1.727      5.384
REMARK INTER + INTRA:          -4.771
REMARK INTER:                  -4.491
REMARK INTRA:                  -0.280
REMARK UNBOUND:                -0.296
REMARK SMILES COc1cc2ccc(=O)oc2c(OC)c1OC
REMARK SMILES IDX 3 1 15 2 12 3 11 4 5 5 4 6 6 7 7 8 8 9 9 10 10 11 2 12 1 13
REMARK SMILES IDX 16 14 17 15 13 16 14 17
REMARK H PARENT
REMARK Flexibility Score: inf
ROOT
ATOM      1  C   UNL     1     -38.997  -6.715 -13.978  1.00  0.00     0.165 A 
ATOM      2  C   UNL     1     -37.772  -6.404 -14.590  1.00  0.00     0.207 A 
ATOM      3  C   UNL     1     -37.009  -5.290 -14.140  1.00  0.00     0.208 A 
ATOM      4  C   UNL     1     -37.505  -4.505 -13.067  1.00  0.00     0.184 A 
ATOM      5  C   UNL     1     -38.740  -4.835 -12.464  1.00  0.00     0.025 A 
ATOM      6  C   UNL     1     -39.475  -5.930 -12.917  1.00  0.00     0.062 A 
ATOM      7  C   UNL     1     -39.208  -4.045 -11.407  1.00  0.00     0.020 A 
ATOM      8  C   UNL     1     -38.454  -2.959 -10.975  1.00  0.00     0.094 A 
ATOM      9  C   UNL     1     -37.243  -2.686 -11.613  1.00  0.00     0.336 A 
ATOM     10  O   UNL     1     -36.542  -1.710 -11.240  1.00  0.00    -0.246 OA
ATOM     11  O   UNL     1     -36.824  -3.454 -12.614  1.00  0.00    -0.419 OA
ENDROOT
BRANCH   1  12
ATOM     12  O   UNL     1     -39.714  -7.823 -14.457  1.00  0.00    -0.493 OA
ATOM     13  C   UNL     1     -39.678  -9.125 -13.879  1.00  0.00     0.278 C 
ENDBRANCH   1  12
BRANCH   2  14
ATOM     14  O   UNL     1     -37.374  -7.249 -15.645  1.00  0.00    -0.490 OA
ATOM     15  C   UNL     1     -36.414  -8.298 -15.588  1.00  0.00     0.278 C 
ENDBRANCH   2  14
BRANCH   3  16
ATOM     16  O   UNL     1     -35.786  -5.008 -14.778  1.00  0.00    -0.490 OA
ATOM     17  C   UNL     1     -35.577  -4.149 -15.893  1.00  0.00     0.278 C 
ENDBRANCH   3  16
TORSDOF 3
ENDMDL
