MODEL 1
REMARK VINA RESULT:    -8.140      0.000      0.000
REMARK INTER + INTRA:         -12.742
REMARK INTER:                 -11.234
REMARK INTRA:                  -1.509
REMARK UNBOUND:                -1.509
REMARK SMILES O=C([O-])[C@H]1O[C@@H](Oc2cc3oc(-c4ccccc4)cc(=O)c3c(O)c2O)[C@H](O)[C@@H](O)[C@@H]1O
REMARK SMILES IDX 7 1 6 2 4 3 31 4 5 5 29 6 27 7 2 8 1 9 3 10 32 11 30 13
REMARK SMILES IDX 28 15 8 17 25 18 9 19 23 20 10 21 22 22 11 23 20 24 12 25
REMARK SMILES IDX 19 26 21 27 26 28 24 30 13 32 14 33 18 34 15 35 17 36 16 37
REMARK H PARENT 32 12 30 14 28 16 26 29 24 31
REMARK Flexibility Score: inf
ROOT
ATOM      1  O   UNL     1       6.686  39.061  10.726  1.00  0.00    -0.458 OA
ENDROOT
BRANCH   1   2
ATOM      2  C   UNL     1       8.071  38.869  11.027  1.00  0.00     0.339 C 
ATOM      3  C   UNL     1       8.155  36.568  10.408  1.00  0.00     0.199 C 
ATOM      4  C   UNL     1       8.267  36.112  11.886  1.00  0.00     0.180 C 
ATOM      5  O   UNL     1       8.660  37.882  10.189  1.00  0.00    -0.328 OA
ATOM      6  C   UNL     1       7.703  37.163  12.859  1.00  0.00     0.181 C 
ATOM      7  C   UNL     1       8.255  38.559  12.520  1.00  0.00     0.214 C 
BRANCH   3   8
ATOM      8  C   UNL     1       6.796  36.368   9.778  1.00  0.00     0.073 C 
ATOM      9  O   UNL     1       5.862  35.879  10.466  1.00  0.00    -0.547 OA
ATOM     10  O   UNL     1       6.533  36.777   8.476  1.00  0.00    -0.547 OA
ENDBRANCH   3   8
BRANCH   4  11
ATOM     11  O   UNL     1       9.622  35.875  12.180  1.00  0.00    -0.387 OA
ATOM     12  H   UNL     1       9.681  35.689  13.154  1.00  0.00     0.211 HD
ENDBRANCH   4  11
BRANCH   6  13
ATOM     13  O   UNL     1       6.300  37.165  12.800  1.00  0.00    -0.387 OA
ATOM     14  H   UNL     1       5.975  36.698  13.613  1.00  0.00     0.211 HD
ENDBRANCH   6  13
BRANCH   7  15
ATOM     15  O   UNL     1       9.621  38.634  12.841  1.00  0.00    -0.384 OA
ATOM     16  H   UNL     1       9.982  37.711  12.781  1.00  0.00     0.211 HD
ENDBRANCH   7  15
ENDBRANCH   1   2
BRANCH   1  17
ATOM     17  C   UNL     1       6.133  40.203  10.121  1.00  0.00     0.172 A 
ATOM     18  C   UNL     1       6.370  40.420   8.753  1.00  0.00     0.201 A 
ATOM     19  C   UNL     1       5.362  41.129  10.844  1.00  0.00     0.098 A 
ATOM     20  C   UNL     1       5.836  41.552   8.107  1.00  0.00     0.176 A 
ATOM     21  C   UNL     1       4.833  42.258  10.216  1.00  0.00     0.146 A 
ATOM     22  C   UNL     1       5.062  42.481   8.840  1.00  0.00     0.111 A 
ATOM     23  O   UNL     1       4.114  43.117  10.931  1.00  0.00    -0.456 OA
ATOM     24  C   UNL     1       4.495  43.637   8.263  1.00  0.00     0.197 A 
ATOM     25  C   UNL     1       3.573  44.222  10.422  1.00  0.00     0.138 A 
ATOM     26  C   UNL     1       3.746  44.508   9.057  1.00  0.00     0.100 A 
ATOM     27  O   UNL     1       4.645  43.903   7.041  1.00  0.00    -0.289 OA
BRANCH  18  28
ATOM     28  O   UNL     1       7.139  39.515   8.019  1.00  0.00    -0.502 OA
ATOM     29  H   UNL     1       8.118  39.346   8.219  1.00  0.00     0.293 HD
ENDBRANCH  18  28
BRANCH  20  30
ATOM     30  O   UNL     1       6.076  41.753   6.745  1.00  0.00    -0.504 OA
ATOM     31  H   UNL     1       5.560  41.265   6.023  1.00  0.00     0.293 HD
ENDBRANCH  20  30
BRANCH  25  32
ATOM     32  C   UNL     1       2.788  45.110  11.315  1.00  0.00     0.017 A 
ATOM     33  C   UNL     1       1.906  44.595  12.286  1.00  0.00     0.012 A 
ATOM     34  C   UNL     1       2.900  46.506  11.176  1.00  0.00     0.012 A 
ATOM     35  C   UNL     1       1.174  45.459  13.109  1.00  0.00     0.001 A 
ATOM     36  C   UNL     1       2.168  47.365  12.002  1.00  0.00     0.001 A 
ATOM     37  C   UNL     1       1.308  46.842  12.969  1.00  0.00     0.000 A 
ENDBRANCH  25  32
ENDBRANCH   1  17
TORSDOF 9
ENDMDL
MODEL 2
REMARK VINA RESULT:    -7.546      2.855      9.216
REMARK INTER + INTRA:         -11.922
REMARK INTER:                 -10.636
REMARK INTRA:                  -1.286
REMARK UNBOUND:                -1.509
REMARK SMILES O=C([O-])[C@H]1O[C@@H](Oc2cc3oc(-c4ccccc4)cc(=O)c3c(O)c2O)[C@H](O)[C@@H](O)[C@@H]1O
REMARK SMILES IDX 7 1 6 2 4 3 31 4 5 5 29 6 27 7 2 8 1 9 3 10 32 11 30 13
REMARK SMILES IDX 28 15 8 17 25 18 9 19 23 20 10 21 22 22 11 23 20 24 12 25
REMARK SMILES IDX 19 26 21 27 26 28 24 30 13 32 14 33 18 34 15 35 17 36 16 37
REMARK H PARENT 32 12 30 14 28 16 26 29 24 31
REMARK Flexibility Score: inf
ROOT
ATOM      1  O   UNL     1       2.791  44.810  10.372  1.00  0.00    -0.458 OA
ENDROOT
BRANCH   1   2
ATOM      2  C   UNL     1       2.680  46.003   9.590  1.00  0.00     0.339 C 
ATOM      3  C   UNL     1       1.787  47.370  11.327  1.00  0.00     0.199 C 
ATOM      4  C   UNL     1       0.380  47.388  10.674  1.00  0.00     0.180 C 
ATOM      5  O   UNL     1       2.838  47.171  10.386  1.00  0.00    -0.328 OA
ATOM      6  C   UNL     1       0.161  46.180   9.746  1.00  0.00     0.181 C 
ATOM      7  C   UNL     1       1.362  46.003   8.801  1.00  0.00     0.214 C 
BRANCH   3   8
ATOM      8  C   UNL     1       1.923  46.467  12.531  1.00  0.00     0.073 C 
ATOM      9  O   UNL     1       3.031  46.391  13.125  1.00  0.00    -0.547 OA
ATOM     10  O   UNL     1       0.834  45.770  13.041  1.00  0.00    -0.547 OA
ENDBRANCH   3   8
BRANCH   4  11
ATOM     11  O   UNL     1       0.242  48.579   9.940  1.00  0.00    -0.387 OA
ATOM     12  H   UNL     1       0.576  48.396   9.023  1.00  0.00     0.211 HD
ENDBRANCH   4  11
BRANCH   6  13
ATOM     13  O   UNL     1      -0.034  45.018  10.511  1.00  0.00    -0.387 OA
ATOM     14  H   UNL     1      -0.871  45.150  11.029  1.00  0.00     0.211 HD
ENDBRANCH   6  13
BRANCH   7  15
ATOM     15  O   UNL     1       1.393  47.040   7.853  1.00  0.00    -0.384 OA
ATOM     16  H   UNL     1       0.787  47.753   8.186  1.00  0.00     0.211 HD
ENDBRANCH   7  15
ENDBRANCH   1   2
BRANCH   1  17
ATOM     17  C   UNL     1       3.945  44.017  10.492  1.00  0.00     0.172 A 
ATOM     18  C   UNL     1       5.094  44.585  11.070  1.00  0.00     0.201 A 
ATOM     19  C   UNL     1       3.983  42.685  10.044  1.00  0.00     0.098 A 
ATOM     20  C   UNL     1       6.272  43.826  11.207  1.00  0.00     0.176 A 
ATOM     21  C   UNL     1       5.148  41.926  10.170  1.00  0.00     0.146 A 
ATOM     22  C   UNL     1       6.305  42.487  10.755  1.00  0.00     0.111 A 
ATOM     23  O   UNL     1       5.152  40.672   9.730  1.00  0.00    -0.456 OA
ATOM     24  C   UNL     1       7.447  41.666  10.859  1.00  0.00     0.197 A 
ATOM     25  C   UNL     1       6.214  39.873   9.803  1.00  0.00     0.138 A 
ATOM     26  C   UNL     1       7.399  40.354  10.383  1.00  0.00     0.100 A 
ATOM     27  O   UNL     1       8.516  42.088  11.376  1.00  0.00    -0.289 OA
BRANCH  18  28
ATOM     28  O   UNL     1       5.078  45.908  11.514  1.00  0.00    -0.502 OA
ATOM     29  H   UNL     1       5.846  46.548  11.346  1.00  0.00     0.293 HD
ENDBRANCH  18  28
BRANCH  20  30
ATOM     30  O   UNL     1       7.405  44.402  11.789  1.00  0.00    -0.504 OA
ATOM     31  H   UNL     1       7.352  45.194  12.418  1.00  0.00     0.293 HD
ENDBRANCH  20  30
BRANCH  25  32
ATOM     32  C   UNL     1       6.103  38.488   9.280  1.00  0.00     0.017 A 
ATOM     33  C   UNL     1       5.560  37.443  10.055  1.00  0.00     0.012 A 
ATOM     34  C   UNL     1       6.578  38.196   7.988  1.00  0.00     0.012 A 
ATOM     35  C   UNL     1       5.476  36.146   9.536  1.00  0.00     0.001 A 
ATOM     36  C   UNL     1       6.490  36.898   7.474  1.00  0.00     0.001 A 
ATOM     37  C   UNL     1       5.937  35.875   8.246  1.00  0.00     0.000 A 
ENDBRANCH  25  32
ENDBRANCH   1  17
TORSDOF 9
ENDMDL
MODEL 3
REMARK VINA RESULT:    -7.405      8.235     11.298
REMARK INTER + INTRA:         -11.728
REMARK INTER:                 -10.168
REMARK INTRA:                  -1.560
REMARK UNBOUND:                -1.509
REMARK SMILES O=C([O-])[C@H]1O[C@@H](Oc2cc3oc(-c4ccccc4)cc(=O)c3c(O)c2O)[C@H](O)[C@@H](O)[C@@H]1O
REMARK SMILES IDX 7 1 6 2 4 3 31 4 5 5 29 6 27 7 2 8 1 9 3 10 32 11 30 13
REMARK SMILES IDX 28 15 8 17 25 18 9 19 23 20 10 21 22 22 11 23 20 24 12 25
REMARK SMILES IDX 19 26 21 27 26 28 24 30 13 32 14 33 18 34 15 35 17 36 16 37
REMARK H PARENT 32 12 30 14 28 16 26 29 24 31
REMARK Flexibility Score: inf
ROOT
ATOM      1  O   UNL     1      -0.126  47.487   8.210  1.00  0.00    -0.458 OA
ENDROOT
BRANCH   1   2
ATOM      2  C   UNL     1       1.284  47.501   8.455  1.00  0.00     0.339 C 
ATOM      3  C   UNL     1       1.195  46.365  10.550  1.00  0.00     0.199 C 
ATOM      4  C   UNL     1       1.533  47.659  11.335  1.00  0.00     0.180 C 
ATOM      5  O   UNL     1       1.697  46.373   9.217  1.00  0.00    -0.328 OA
ATOM      6  C   UNL     1       1.169  48.927  10.542  1.00  0.00     0.181 C 
ATOM      7  C   UNL     1       1.701  48.830   9.102  1.00  0.00     0.214 C 
BRANCH   3   8
ATOM      8  C   UNL     1      -0.255  45.941  10.609  1.00  0.00     0.073 C 
ATOM      9  O   UNL     1      -0.596  44.834  10.116  1.00  0.00    -0.547 OA
ATOM     10  O   UNL     1      -1.210  46.714  11.258  1.00  0.00    -0.547 OA
ENDBRANCH   3   8
BRANCH   4  11
ATOM     11  O   UNL     1       2.910  47.661  11.622  1.00  0.00    -0.387 OA
ATOM     12  H   UNL     1       3.289  46.827  11.238  1.00  0.00     0.211 HD
ENDBRANCH   4  11
BRANCH   6  13
ATOM     13  O   UNL     1      -0.224  49.104  10.538  1.00  0.00    -0.387 OA
ATOM     14  H   UNL     1      -0.444  49.649   9.738  1.00  0.00     0.211 HD
ENDBRANCH   6  13
BRANCH   7  15
ATOM     15  O   UNL     1       3.102  48.928   9.092  1.00  0.00    -0.384 OA
ATOM     16  H   UNL     1       3.365  49.389   9.931  1.00  0.00     0.211 HD
ENDBRANCH   7  15
ENDBRANCH   1   2
BRANCH   1  17
ATOM     17  C   UNL     1      -0.762  46.833   7.142  1.00  0.00     0.172 A 
ATOM     18  C   UNL     1      -2.079  46.376   7.321  1.00  0.00     0.201 A 
ATOM     19  C   UNL     1      -0.118  46.618   5.911  1.00  0.00     0.098 A 
ATOM     20  C   UNL     1      -2.753  45.714   6.277  1.00  0.00     0.176 A 
ATOM     21  C   UNL     1      -0.774  45.957   4.871  1.00  0.00     0.146 A 
ATOM     22  C   UNL     1      -2.100  45.499   5.041  1.00  0.00     0.111 A 
ATOM     23  O   UNL     1      -0.133  45.764   3.722  1.00  0.00    -0.456 OA
ATOM     24  C   UNL     1      -2.709  44.845   3.950  1.00  0.00     0.197 A 
ATOM     25  C   UNL     1      -0.674  45.143   2.677  1.00  0.00     0.138 A 
ATOM     26  C   UNL     1      -1.994  44.669   2.765  1.00  0.00     0.100 A 
ATOM     27  O   UNL     1      -3.892  44.416   4.019  1.00  0.00    -0.289 OA
BRANCH  18  28
ATOM     28  O   UNL     1      -2.733  46.574   8.539  1.00  0.00    -0.502 OA
ATOM     29  H   UNL     1      -3.277  45.847   8.989  1.00  0.00     0.293 HD
ENDBRANCH  18  28
BRANCH  20  30
ATOM     30  O   UNL     1      -4.064  45.270   6.468  1.00  0.00    -0.504 OA
ATOM     31  H   UNL     1      -4.777  45.352   5.753  1.00  0.00     0.293 HD
ENDBRANCH  20  30
BRANCH  25  32
ATOM     32  C   UNL     1       0.135  44.984   1.443  1.00  0.00     0.017 A 
ATOM     33  C   UNL     1      -0.458  44.953   0.165  1.00  0.00     0.012 A 
ATOM     34  C   UNL     1       1.530  44.830   1.545  1.00  0.00     0.012 A 
ATOM     35  C   UNL     1       0.333  44.796  -0.980  1.00  0.00     0.001 A 
ATOM     36  C   UNL     1       2.316  44.674   0.398  1.00  0.00     0.001 A 
ATOM     37  C   UNL     1       1.717  44.660  -0.863  1.00  0.00     0.000 A 
ENDBRANCH  25  32
ENDBRANCH   1  17
TORSDOF 9
ENDMDL
MODEL 4
REMARK VINA RESULT:    -7.399      1.047      2.163
REMARK INTER + INTRA:         -11.720
REMARK INTER:                 -10.496
REMARK INTRA:                  -1.224
REMARK UNBOUND:                -1.509
REMARK SMILES O=C([O-])[C@H]1O[C@@H](Oc2cc3oc(-c4ccccc4)cc(=O)c3c(O)c2O)[C@H](O)[C@@H](O)[C@@H]1O
REMARK SMILES IDX 7 1 6 2 4 3 31 4 5 5 29 6 27 7 2 8 1 9 3 10 32 11 30 13
REMARK SMILES IDX 28 15 8 17 25 18 9 19 23 20 10 21 22 22 11 23 20 24 12 25
REMARK SMILES IDX 19 26 21 27 26 28 24 30 13 32 14 33 18 34 15 35 17 36 16 37
REMARK H PARENT 32 12 30 14 28 16 26 29 24 31
REMARK Flexibility Score: inf
ROOT
ATOM      1  O   UNL     1       6.438  38.898  10.079  1.00  0.00    -0.458 OA
ENDROOT
BRANCH   1   2
ATOM      2  C   UNL     1       6.123  38.323  11.350  1.00  0.00     0.339 C 
ATOM      3  C   UNL     1       8.377  37.993  12.053  1.00  0.00     0.199 C 
ATOM      4  C   UNL     1       8.273  36.456  11.872  1.00  0.00     0.180 C 
ATOM      5  O   UNL     1       7.122  38.610  12.321  1.00  0.00    -0.328 OA
ATOM      6  C   UNL     1       7.165  36.066  10.878  1.00  0.00     0.181 C 
ATOM      7  C   UNL     1       5.862  36.816  11.205  1.00  0.00     0.214 C 
BRANCH   3   8
ATOM      8  C   UNL     1       9.146  38.714  10.970  1.00  0.00     0.073 C 
ATOM      9  O   UNL     1       9.312  39.960  11.055  1.00  0.00    -0.547 OA
ATOM     10  O   UNL     1       9.735  38.025   9.917  1.00  0.00    -0.547 OA
ENDBRANCH   3   8
BRANCH   4  11
ATOM     11  O   UNL     1       8.009  35.875  13.125  1.00  0.00    -0.387 OA
ATOM     12  H   UNL     1       8.879  35.571  13.495  1.00  0.00     0.211 HD
ENDBRANCH   4  11
BRANCH   6  13
ATOM     13  O   UNL     1       7.577  36.352   9.566  1.00  0.00    -0.387 OA
ATOM     14  H   UNL     1       6.808  36.779   9.107  1.00  0.00     0.211 HD
ENDBRANCH   6  13
BRANCH   7  15
ATOM     15  O   UNL     1       5.305  36.327  12.398  1.00  0.00    -0.384 OA
ATOM     16  H   UNL     1       5.822  35.517  12.648  1.00  0.00     0.211 HD
ENDBRANCH   7  15
ENDBRANCH   1   2
BRANCH   1  17
ATOM     17  C   UNL     1       5.961  40.130   9.600  1.00  0.00     0.172 A 
ATOM     18  C   UNL     1       6.253  40.495   8.275  1.00  0.00     0.201 A 
ATOM     19  C   UNL     1       5.212  41.003  10.408  1.00  0.00     0.098 A 
ATOM     20  C   UNL     1       5.796  41.722   7.756  1.00  0.00     0.176 A 
ATOM     21  C   UNL     1       4.759  42.224   9.906  1.00  0.00     0.146 A 
ATOM     22  C   UNL     1       5.044  42.597   8.573  1.00  0.00     0.111 A 
ATOM     23  O   UNL     1       4.059  43.029  10.699  1.00  0.00    -0.456 OA
ATOM     24  C   UNL     1       4.552  43.840   8.123  1.00  0.00     0.197 A 
ATOM     25  C   UNL     1       3.589  44.213  10.311  1.00  0.00     0.138 A 
ATOM     26  C   UNL     1       3.821  44.649   8.996  1.00  0.00     0.100 A 
ATOM     27  O   UNL     1       4.755  44.241   6.946  1.00  0.00    -0.289 OA
BRANCH  18  28
ATOM     28  O   UNL     1       7.002  39.645   7.459  1.00  0.00    -0.502 OA
ATOM     29  H   UNL     1       7.871  39.223   7.765  1.00  0.00     0.293 HD
ENDBRANCH  18  28
BRANCH  20  30
ATOM     30  O   UNL     1       6.090  42.070   6.434  1.00  0.00    -0.504 OA
ATOM     31  H   UNL     1       5.503  42.692   5.891  1.00  0.00     0.293 HD
ENDBRANCH  20  30
BRANCH  25  32
ATOM     32  C   UNL     1       2.819  45.029  11.283  1.00  0.00     0.017 A 
ATOM     33  C   UNL     1       3.439  46.007  12.086  1.00  0.00     0.012 A 
ATOM     34  C   UNL     1       1.438  44.805  11.433  1.00  0.00     0.012 A 
ATOM     35  C   UNL     1       2.686  46.756  12.998  1.00  0.00     0.001 A 
ATOM     36  C   UNL     1       0.690  45.557  12.345  1.00  0.00     0.001 A 
ATOM     37  C   UNL     1       1.313  46.533  13.125  1.00  0.00     0.000 A 
ENDBRANCH  25  32
ENDBRANCH   1  17
TORSDOF 9
ENDMDL
MODEL 5
REMARK VINA RESULT:    -7.381      2.749      8.975
REMARK INTER + INTRA:         -11.694
REMARK INTER:                 -10.302
REMARK INTRA:                  -1.393
REMARK UNBOUND:                -1.509
REMARK SMILES O=C([O-])[C@H]1O[C@@H](Oc2cc3oc(-c4ccccc4)cc(=O)c3c(O)c2O)[C@H](O)[C@@H](O)[C@@H]1O
REMARK SMILES IDX 7 1 6 2 4 3 31 4 5 5 29 6 27 7 2 8 1 9 3 10 32 11 30 13
REMARK SMILES IDX 28 15 8 17 25 18 9 19 23 20 10 21 22 22 11 23 20 24 12 25
REMARK SMILES IDX 19 26 21 27 26 28 24 30 13 32 14 33 18 34 15 35 17 36 16 37
REMARK H PARENT 32 12 30 14 28 16 26 29 24 31
REMARK Flexibility Score: inf
ROOT
ATOM      1  O   UNL     1       3.088  44.713  10.447  1.00  0.00    -0.458 OA
ENDROOT
BRANCH   1   2
ATOM      2  C   UNL     1       1.819  44.410  11.034  1.00  0.00     0.339 C 
ATOM      3  C   UNL     1       0.701  46.371  10.267  1.00  0.00     0.199 C 
ATOM      4  C   UNL     1       0.672  46.986  11.691  1.00  0.00     0.180 C 
ATOM      5  O   UNL     1       0.744  44.948  10.273  1.00  0.00    -0.328 OA
ATOM      6  C   UNL     1       1.774  46.402  12.594  1.00  0.00     0.181 C 
ATOM      7  C   UNL     1       1.787  44.866  12.501  1.00  0.00     0.214 C 
BRANCH   3   8
ATOM      8  C   UNL     1       1.730  46.967   9.334  1.00  0.00     0.073 C 
ATOM      9  O   UNL     1       2.375  47.987   9.695  1.00  0.00    -0.547 OA
ATOM     10  O   UNL     1       2.033  46.374   8.114  1.00  0.00    -0.547 OA
ENDBRANCH   3   8
BRANCH   4  11
ATOM     11  O   UNL     1      -0.588  46.734  12.262  1.00  0.00    -0.387 OA
ATOM     12  H   UNL     1      -0.430  46.269  13.125  1.00  0.00     0.211 HD
ENDBRANCH   4  11
BRANCH   6  13
ATOM     13  O   UNL     1       3.023  46.924  12.222  1.00  0.00    -0.387 OA
ATOM     14  H   UNL     1       2.883  47.446  11.388  1.00  0.00     0.211 HD
ENDBRANCH   6  13
BRANCH   7  15
ATOM     15  O   UNL     1       0.648  44.331  13.125  1.00  0.00    -0.384 OA
ATOM     16  H   UNL     1       0.517  43.419  12.753  1.00  0.00     0.211 HD
ENDBRANCH   7  15
ENDBRANCH   1   2
BRANCH   1  17
ATOM     17  C   UNL     1       4.236  43.907  10.524  1.00  0.00     0.172 A 
ATOM     18  C   UNL     1       5.389  44.436  11.129  1.00  0.00     0.201 A 
ATOM     19  C   UNL     1       4.264  42.599  10.010  1.00  0.00     0.098 A 
ATOM     20  C   UNL     1       6.563  43.663  11.226  1.00  0.00     0.176 A 
ATOM     21  C   UNL     1       5.423  41.827  10.095  1.00  0.00     0.146 A 
ATOM     22  C   UNL     1       6.586  42.349  10.706  1.00  0.00     0.111 A 
ATOM     23  O   UNL     1       5.418  40.596   9.593  1.00  0.00    -0.456 OA
ATOM     24  C   UNL     1       7.722  41.516  10.767  1.00  0.00     0.197 A 
ATOM     25  C   UNL     1       6.474  39.787   9.623  1.00  0.00     0.138 A 
ATOM     26  C   UNL     1       7.664  40.230  10.225  1.00  0.00     0.100 A 
ATOM     27  O   UNL     1       8.794  41.904  11.303  1.00  0.00    -0.289 OA
BRANCH  18  28
ATOM     28  O   UNL     1       5.383  45.736  11.639  1.00  0.00    -0.502 OA
ATOM     29  H   UNL     1       4.558  46.155  12.052  1.00  0.00     0.293 HD
ENDBRANCH  18  28
BRANCH  20  30
ATOM     30  O   UNL     1       7.700  44.201  11.834  1.00  0.00    -0.504 OA
ATOM     31  H   UNL     1       8.594  44.261  11.362  1.00  0.00     0.293 HD
ENDBRANCH  20  30
BRANCH  25  32
ATOM     32  C   UNL     1       6.353  38.431   9.031  1.00  0.00     0.017 A 
ATOM     33  C   UNL     1       5.785  37.357   9.745  1.00  0.00     0.012 A 
ATOM     34  C   UNL     1       6.843  38.197   7.733  1.00  0.00     0.012 A 
ATOM     35  C   UNL     1       5.691  36.088   9.161  1.00  0.00     0.001 A 
ATOM     36  C   UNL     1       6.745  36.927   7.153  1.00  0.00     0.001 A 
ATOM     37  C   UNL     1       6.167  35.875   7.866  1.00  0.00     0.000 A 
ENDBRANCH  25  32
ENDBRANCH   1  17
TORSDOF 9
ENDMDL
MODEL 6
REMARK VINA RESULT:    -7.325     10.332     13.560
REMARK INTER + INTRA:         -11.617
REMARK INTER:                 -10.090
REMARK INTRA:                  -1.526
REMARK UNBOUND:                -1.509
REMARK SMILES O=C([O-])[C@H]1O[C@@H](Oc2cc3oc(-c4ccccc4)cc(=O)c3c(O)c2O)[C@H](O)[C@@H](O)[C@@H]1O
REMARK SMILES IDX 7 1 6 2 4 3 31 4 5 5 29 6 27 7 2 8 1 9 3 10 32 11 30 13
REMARK SMILES IDX 28 15 8 17 25 18 9 19 23 20 10 21 22 22 11 23 20 24 12 25
REMARK SMILES IDX 19 26 21 27 26 28 24 30 13 32 14 33 18 34 15 35 17 36 16 37
REMARK H PARENT 32 12 30 14 28 16 26 29 24 31
REMARK Flexibility Score: inf
ROOT
ATOM      1  O   UNL     1      11.057  47.329   2.818  1.00  0.00    -0.458 OA
ENDROOT
BRANCH   1   2
ATOM      2  C   UNL     1      11.439  45.975   3.078  1.00  0.00     0.339 C 
ATOM      3  C   UNL     1      10.201  45.737   5.101  1.00  0.00     0.199 C 
ATOM      4  C   UNL     1      11.489  45.759   5.964  1.00  0.00     0.180 C 
ATOM      5  O   UNL     1      10.423  45.265   3.776  1.00  0.00    -0.328 OA
ATOM      6  C   UNL     1      12.654  46.460   5.243  1.00  0.00     0.181 C 
ATOM      7  C   UNL     1      12.791  45.932   3.805  1.00  0.00     0.214 C 
BRANCH   3   8
ATOM      8  C   UNL     1       9.396  47.016   5.121  1.00  0.00     0.073 C 
ATOM      9  O   UNL     1       8.282  47.055   4.534  1.00  0.00    -0.547 OA
ATOM     10  O   UNL     1       9.823  48.131   5.832  1.00  0.00    -0.547 OA
ENDBRANCH   3   8
BRANCH   4  11
ATOM     11  O   UNL     1      11.849  44.433   6.264  1.00  0.00    -0.387 OA
ATOM     12  H   UNL     1      11.857  43.932   5.407  1.00  0.00     0.211 HD
ENDBRANCH   4  11
BRANCH   6  13
ATOM     13  O   UNL     1      12.446  47.848   5.236  1.00  0.00    -0.387 OA
ATOM     14  H   UNL     1      11.639  48.023   5.788  1.00  0.00     0.211 HD
ENDBRANCH   6  13
BRANCH   7  15
ATOM     15  O   UNL     1      13.267  44.610   3.814  1.00  0.00    -0.384 OA
ATOM     16  H   UNL     1      12.472  44.017   3.867  1.00  0.00     0.211 HD
ENDBRANCH   7  15
ENDBRANCH   1   2
BRANCH   1  17
ATOM     17  C   UNL     1      10.256  47.760   1.747  1.00  0.00     0.172 A 
ATOM     18  C   UNL     1       9.460  48.905   1.921  1.00  0.00     0.201 A 
ATOM     19  C   UNL     1      10.223  47.076   0.520  1.00  0.00     0.098 A 
ATOM     20  C   UNL     1       8.641  49.370   0.874  1.00  0.00     0.176 A 
ATOM     21  C   UNL     1       9.411  47.525  -0.523  1.00  0.00     0.146 A 
ATOM     22  C   UNL     1       8.611  48.678  -0.358  1.00  0.00     0.111 A 
ATOM     23  O   UNL     1       9.399  46.851  -1.669  1.00  0.00    -0.456 OA
ATOM     24  C   UNL     1       7.818  49.084  -1.451  1.00  0.00     0.197 A 
ATOM     25  C   UNL     1       8.655  47.199  -2.716  1.00  0.00     0.138 A 
ATOM     26  C   UNL     1       7.842  48.342  -2.634  1.00  0.00     0.100 A 
ATOM     27  O   UNL     1       7.084  50.106  -1.388  1.00  0.00    -0.289 OA
BRANCH  18  28
ATOM     28  O   UNL     1       9.472  49.594   3.136  1.00  0.00    -0.502 OA
ATOM     29  H   UNL     1       8.656  49.659   3.733  1.00  0.00     0.293 HD
ENDBRANCH  18  28
BRANCH  20  30
ATOM     30  O   UNL     1       7.858  50.513   1.060  1.00  0.00    -0.504 OA
ATOM     31  H   UNL     1       8.109  51.246   1.713  1.00  0.00     0.293 HD
ENDBRANCH  20  30
BRANCH  25  32
ATOM     32  C   UNL     1       8.722  46.372  -3.946  1.00  0.00     0.017 A 
ATOM     33  C   UNL     1       9.952  45.946  -4.489  1.00  0.00     0.012 A 
ATOM     34  C   UNL     1       7.533  46.023  -4.612  1.00  0.00     0.012 A 
ATOM     35  C   UNL     1       9.982  45.172  -5.654  1.00  0.00     0.001 A 
ATOM     36  C   UNL     1       7.569  45.248  -5.776  1.00  0.00     0.001 A 
ATOM     37  C   UNL     1       8.792  44.821  -6.295  1.00  0.00     0.000 A 
ENDBRANCH  25  32
ENDBRANCH   1  17
TORSDOF 9
ENDMDL
MODEL 7
REMARK VINA RESULT:    -6.831     10.622     13.899
REMARK INTER + INTRA:         -10.935
REMARK INTER:                  -9.572
REMARK INTRA:                  -1.363
REMARK UNBOUND:                -1.509
REMARK SMILES O=C([O-])[C@H]1O[C@@H](Oc2cc3oc(-c4ccccc4)cc(=O)c3c(O)c2O)[C@H](O)[C@@H](O)[C@@H]1O
REMARK SMILES IDX 7 1 6 2 4 3 31 4 5 5 29 6 27 7 2 8 1 9 3 10 32 11 30 13
REMARK SMILES IDX 28 15 8 17 25 18 9 19 23 20 10 21 22 22 11 23 20 24 12 25
REMARK SMILES IDX 19 26 21 27 26 28 24 30 13 32 14 33 18 34 15 35 17 36 16 37
REMARK H PARENT 32 12 30 14 28 16 26 29 24 31
REMARK Flexibility Score: inf
ROOT
ATOM      1  O   UNL     1      10.900  47.306   2.923  1.00  0.00    -0.458 OA
ENDROOT
BRANCH   1   2
ATOM      2  C   UNL     1      10.386  46.997   4.222  1.00  0.00     0.339 C 
ATOM      3  C   UNL     1      12.083  48.133   5.451  1.00  0.00     0.199 C 
ATOM      4  C   UNL     1      12.724  46.799   5.917  1.00  0.00     0.180 C 
ATOM      5  O   UNL     1      10.693  48.016   5.166  1.00  0.00    -0.328 OA
ATOM      6  C   UNL     1      12.380  45.634   4.972  1.00  0.00     0.181 C 
ATOM      7  C   UNL     1      10.872  45.612   4.673  1.00  0.00     0.214 C 
BRANCH   3   8
ATOM      8  C   UNL     1      12.831  48.852   4.352  1.00  0.00     0.073 C 
ATOM      9  O   UNL     1      12.350  49.911   3.868  1.00  0.00    -0.547 OA
ATOM     10  O   UNL     1      14.072  48.412   3.911  1.00  0.00    -0.547 OA
ENDBRANCH   3   8
BRANCH   4  11
ATOM     11  O   UNL     1      12.261  46.509   7.212  1.00  0.00    -0.387 OA
ATOM     12  H   UNL     1      12.109  47.377   7.669  1.00  0.00     0.211 HD
ENDBRANCH   4  11
BRANCH   6  13
ATOM     13  O   UNL     1      13.113  45.754   3.780  1.00  0.00    -0.387 OA
ATOM     14  H   UNL     1      12.706  46.497   3.263  1.00  0.00     0.211 HD
ENDBRANCH   6  13
BRANCH   7  15
ATOM     15  O   UNL     1      10.154  45.221   5.815  1.00  0.00    -0.384 OA
ATOM     16  H   UNL     1       9.212  45.087   5.532  1.00  0.00     0.211 HD
ENDBRANCH   7  15
ENDBRANCH   1   2
BRANCH   1  17
ATOM     17  C   UNL     1      10.138  47.743   1.826  1.00  0.00     0.172 A 
ATOM     18  C   UNL     1       9.352  48.899   1.971  1.00  0.00     0.201 A 
ATOM     19  C   UNL     1      10.135  47.054   0.601  1.00  0.00     0.098 A 
ATOM     20  C   UNL     1       8.572  49.370   0.897  1.00  0.00     0.176 A 
ATOM     21  C   UNL     1       9.361  47.509  -0.468  1.00  0.00     0.146 A 
ATOM     22  C   UNL     1       8.572  48.673  -0.333  1.00  0.00     0.111 A 
ATOM     23  O   UNL     1       9.375  46.830  -1.611  1.00  0.00    -0.456 OA
ATOM     24  C   UNL     1       7.817  49.084  -1.452  1.00  0.00     0.197 A 
ATOM     25  C   UNL     1       8.668  47.183  -2.682  1.00  0.00     0.138 A 
ATOM     26  C   UNL     1       7.868  48.337  -2.630  1.00  0.00     0.100 A 
ATOM     27  O   UNL     1       7.096  50.117  -1.415  1.00  0.00    -0.289 OA
BRANCH  18  28
ATOM     28  O   UNL     1       9.336  49.593   3.182  1.00  0.00    -0.502 OA
ATOM     29  H   UNL     1       8.647  49.413   3.903  1.00  0.00     0.293 HD
ENDBRANCH  18  28
BRANCH  20  30
ATOM     30  O   UNL     1       7.799  50.524   1.054  1.00  0.00    -0.504 OA
ATOM     31  H   UNL     1       8.168  51.377   1.458  1.00  0.00     0.293 HD
ENDBRANCH  20  30
BRANCH  25  32
ATOM     32  C   UNL     1       8.763  46.350  -3.907  1.00  0.00     0.017 A 
ATOM     33  C   UNL     1      10.005  45.946  -4.436  1.00  0.00     0.012 A 
ATOM     34  C   UNL     1       7.586  45.973  -4.580  1.00  0.00     0.012 A 
ATOM     35  C   UNL     1      10.061  45.165  -5.597  1.00  0.00     0.001 A 
ATOM     36  C   UNL     1       7.647  45.191  -5.739  1.00  0.00     0.001 A 
ATOM     37  C   UNL     1       8.884  44.786  -6.245  1.00  0.00     0.000 A 
ENDBRANCH  25  32
ENDBRANCH   1  17
TORSDOF 9
ENDMDL
MODEL 8
REMARK VINA RESULT:    -6.814      7.017     10.550
REMARK INTER + INTRA:         -10.911
REMARK INTER:                  -9.642
REMARK INTRA:                  -1.270
REMARK UNBOUND:                -1.509
REMARK SMILES O=C([O-])[C@H]1O[C@@H](Oc2cc3oc(-c4ccccc4)cc(=O)c3c(O)c2O)[C@H](O)[C@@H](O)[C@@H]1O
REMARK SMILES IDX 7 1 6 2 4 3 31 4 5 5 29 6 27 7 2 8 1 9 3 10 32 11 30 13
REMARK SMILES IDX 28 15 8 17 25 18 9 19 23 20 10 21 22 22 11 23 20 24 12 25
REMARK SMILES IDX 19 26 21 27 26 28 24 30 13 32 14 33 18 34 15 35 17 36 16 37
REMARK H PARENT 32 12 30 14 28 16 26 29 24 31
REMARK Flexibility Score: inf
ROOT
ATOM      1  O   UNL     1       9.995  47.150   4.942  1.00  0.00    -0.458 OA
ENDROOT
BRANCH   1   2
ATOM      2  C   UNL     1      10.015  48.579   4.885  1.00  0.00     0.339 C 
ATOM      3  C   UNL     1      10.852  48.739   2.658  1.00  0.00     0.199 C 
ATOM      4  C   UNL     1      12.242  49.220   3.150  1.00  0.00     0.180 C 
ATOM      5  O   UNL     1       9.798  49.057   3.563  1.00  0.00    -0.328 OA
ATOM      6  C   UNL     1      12.520  48.791   4.602  1.00  0.00     0.181 C 
ATOM      7  C   UNL     1      11.315  49.120   5.499  1.00  0.00     0.214 C 
BRANCH   3   8
ATOM      8  C   UNL     1      10.796  47.299   2.204  1.00  0.00     0.073 C 
ATOM      9  O   UNL     1       9.736  46.853   1.691  1.00  0.00    -0.547 OA
ATOM     10  O   UNL     1      11.912  46.473   2.276  1.00  0.00    -0.547 OA
ENDBRANCH   3   8
BRANCH   4  11
ATOM     11  O   UNL     1      12.290  50.622   3.055  1.00  0.00    -0.387 OA
ATOM     12  H   UNL     1      12.918  50.941   3.755  1.00  0.00     0.211 HD
ENDBRANCH   4  11
BRANCH   6  13
ATOM     13  O   UNL     1      12.803  47.416   4.647  1.00  0.00    -0.387 OA
ATOM     14  H   UNL     1      12.116  46.998   5.230  1.00  0.00     0.211 HD
ENDBRANCH   6  13
BRANCH   7  15
ATOM     15  O   UNL     1      11.200  50.509   5.671  1.00  0.00    -0.384 OA
ATOM     16  H   UNL     1      12.113  50.889   5.573  1.00  0.00     0.211 HD
ENDBRANCH   7  15
ENDBRANCH   1   2
BRANCH   1  17
ATOM     17  C   UNL     1       8.875  46.361   5.257  1.00  0.00     0.172 A 
ATOM     18  C   UNL     1       8.961  45.473   6.343  1.00  0.00     0.201 A 
ATOM     19  C   UNL     1       7.684  46.431   4.514  1.00  0.00     0.098 A 
ATOM     20  C   UNL     1       7.863  44.664   6.691  1.00  0.00     0.176 A 
ATOM     21  C   UNL     1       6.591  45.629   4.847  1.00  0.00     0.146 A 
ATOM     22  C   UNL     1       6.667  44.737   5.940  1.00  0.00     0.111 A 
ATOM     23  O   UNL     1       5.481  45.715   4.120  1.00  0.00    -0.456 OA
ATOM     24  C   UNL     1       5.527  43.959   6.229  1.00  0.00     0.197 A 
ATOM     25  C   UNL     1       4.391  44.989   4.357  1.00  0.00     0.138 A 
ATOM     26  C   UNL     1       4.385  44.088   5.435  1.00  0.00     0.100 A 
ATOM     27  O   UNL     1       5.511  43.147   7.192  1.00  0.00    -0.289 OA
BRANCH  18  28
ATOM     28  O   UNL     1      10.139  45.384   7.088  1.00  0.00    -0.502 OA
ATOM     29  H   UNL     1      11.041  45.211   6.660  1.00  0.00     0.293 HD
ENDBRANCH  18  28
BRANCH  20  30
ATOM     30  O   UNL     1       7.961  43.789   7.776  1.00  0.00    -0.504 OA
ATOM     31  H   UNL     1       7.421  42.934   7.839  1.00  0.00     0.293 HD
ENDBRANCH  20  30
BRANCH  25  32
ATOM     32  C   UNL     1       3.208  45.169   3.479  1.00  0.00     0.017 A 
ATOM     33  C   UNL     1       3.144  44.597   2.193  1.00  0.00     0.012 A 
ATOM     34  C   UNL     1       2.129  45.955   3.924  1.00  0.00     0.012 A 
ATOM     35  C   UNL     1       2.017  44.791   1.386  1.00  0.00     0.001 A 
ATOM     36  C   UNL     1       1.004  46.145   3.115  1.00  0.00     0.001 A 
ATOM     37  C   UNL     1       0.947  45.560   1.848  1.00  0.00     0.000 A 
ENDBRANCH  25  32
ENDBRANCH   1  17
TORSDOF 9
ENDMDL
MODEL 9
REMARK VINA RESULT:    -6.666      7.362     10.741
REMARK INTER + INTRA:         -10.708
REMARK INTER:                  -9.263
REMARK INTRA:                  -1.445
REMARK UNBOUND:                -1.509
REMARK SMILES O=C([O-])[C@H]1O[C@@H](Oc2cc3oc(-c4ccccc4)cc(=O)c3c(O)c2O)[C@H](O)[C@@H](O)[C@@H]1O
REMARK SMILES IDX 7 1 6 2 4 3 31 4 5 5 29 6 27 7 2 8 1 9 3 10 32 11 30 13
REMARK SMILES IDX 28 15 8 17 25 18 9 19 23 20 10 21 22 22 11 23 20 24 12 25
REMARK SMILES IDX 19 26 21 27 26 28 24 30 13 32 14 33 18 34 15 35 17 36 16 37
REMARK H PARENT 32 12 30 14 28 16 26 29 24 31
REMARK Flexibility Score: inf
ROOT
ATOM      1  O   UNL     1      10.414  47.135   4.438  1.00  0.00    -0.458 OA
ENDROOT
BRANCH   1   2
ATOM      2  C   UNL     1      11.240  46.735   3.341  1.00  0.00     0.339 C 
ATOM      3  C   UNL     1      13.173  47.959   4.010  1.00  0.00     0.199 C 
ATOM      4  C   UNL     1      12.989  48.992   2.868  1.00  0.00     0.180 C 
ATOM      5  O   UNL     1      12.614  46.685   3.707  1.00  0.00    -0.328 OA
ATOM      6  C   UNL     1      11.532  49.055   2.377  1.00  0.00     0.181 C 
ATOM      7  C   UNL     1      10.988  47.639   2.125  1.00  0.00     0.214 C 
BRANCH   3   8
ATOM      8  C   UNL     1      12.770  48.445   5.383  1.00  0.00     0.073 C 
ATOM      9  O   UNL     1      12.838  47.656   6.363  1.00  0.00    -0.547 OA
ATOM     10  O   UNL     1      12.392  49.764   5.604  1.00  0.00    -0.547 OA
ENDBRANCH   3   8
BRANCH   4  11
ATOM     11  O   UNL     1      13.832  48.634   1.801  1.00  0.00    -0.387 OA
ATOM     12  H   UNL     1      14.333  47.825   2.084  1.00  0.00     0.211 HD
ENDBRANCH   4  11
BRANCH   6  13
ATOM     13  O   UNL     1      10.737  49.723   3.323  1.00  0.00    -0.387 OA
ATOM     14  H   UNL     1      10.736  50.684   3.074  1.00  0.00     0.211 HD
ENDBRANCH   6  13
BRANCH   7  15
ATOM     15  O   UNL     1      11.605  47.074   0.996  1.00  0.00    -0.384 OA
ATOM     16  H   UNL     1      12.387  47.645   0.778  1.00  0.00     0.211 HD
ENDBRANCH   7  15
ENDBRANCH   1   2
BRANCH   1  17
ATOM     17  C   UNL     1       9.296  46.431   4.917  1.00  0.00     0.172 A 
ATOM     18  C   UNL     1       9.438  45.653   6.079  1.00  0.00     0.201 A 
ATOM     19  C   UNL     1       8.052  46.478   4.265  1.00  0.00     0.098 A 
ATOM     20  C   UNL     1       8.344  44.931   6.593  1.00  0.00     0.176 A 
ATOM     21  C   UNL     1       6.962  45.761   4.762  1.00  0.00     0.146 A 
ATOM     22  C   UNL     1       7.095  44.980   5.932  1.00  0.00     0.111 A 
ATOM     23  O   UNL     1       5.801  45.821   4.117  1.00  0.00    -0.456 OA
ATOM     24  C   UNL     1       5.955  44.285   6.386  1.00  0.00     0.197 A 
ATOM     25  C   UNL     1       4.709  45.170   4.511  1.00  0.00     0.138 A 
ATOM     26  C   UNL     1       4.758  44.383   5.673  1.00  0.00     0.100 A 
ATOM     27  O   UNL     1       5.988  43.575   7.427  1.00  0.00    -0.289 OA
BRANCH  18  28
ATOM     28  O   UNL     1      10.668  45.589   6.737  1.00  0.00    -0.502 OA
ATOM     29  H   UNL     1      10.762  45.751   7.733  1.00  0.00     0.293 HD
ENDBRANCH  18  28
BRANCH  20  30
ATOM     30  O   UNL     1       8.499  44.166   7.752  1.00  0.00    -0.504 OA
ATOM     31  H   UNL     1       9.197  44.376   8.455  1.00  0.00     0.293 HD
ENDBRANCH  20  30
BRANCH  25  32
ATOM     32  C   UNL     1       3.466  45.312   3.712  1.00  0.00     0.017 A 
ATOM     33  C   UNL     1       3.311  44.681   2.461  1.00  0.00     0.012 A 
ATOM     34  C   UNL     1       2.421  46.121   4.196  1.00  0.00     0.012 A 
ATOM     35  C   UNL     1       2.128  44.840   1.729  1.00  0.00     0.001 A 
ATOM     36  C   UNL     1       1.241  46.275   3.461  1.00  0.00     0.001 A 
ATOM     37  C   UNL     1       1.094  45.633   2.230  1.00  0.00     0.000 A 
ENDBRANCH  25  32
ENDBRANCH   1  17
TORSDOF 9
ENDMDL
