MODEL 1
REMARK VINA RESULT:    -6.061      0.000      0.000
REMARK INTER + INTRA:          -7.404
REMARK INTER:                  -7.124
REMARK INTRA:                  -0.279
REMARK UNBOUND:                -0.279
REMARK SMILES CC1(C)CC[C@]2(C(=O)[O-])CC[C@]3(C)C(=CC[C@H]4[C@@]5(C)CC[C@@H](O)[C@](C)(CO)[C@@H]5CC[C@]43C)[C@@H]2C1
REMARK SMILES IDX 6 1 5 2 10 3 33 4 4 5 11 6 14 7 34 8 2 9 12 10 15 11 1 12
REMARK SMILES IDX 3 13 13 14 31 15 16 16 17 17 30 18 32 19 18 20 29 21 28 22
REMARK SMILES IDX 20 23 19 24 24 25 21 26 22 27 25 28 7 29 8 30 9 31 26 32
REMARK SMILES IDX 27 33 23 35
REMARK H PARENT 27 34 23 36
REMARK Flexibility Score: inf
ROOT
ATOM      1  C   UNL     1      23.277  25.853  -9.901  1.00  0.00     0.017 C 
ATOM      2  C   UNL     1      24.708  26.230 -10.425  1.00  0.00     0.014 C 
ATOM      3  C   UNL     1      22.401  25.493 -11.125  1.00  0.00     0.014 C 
ATOM      4  C   UNL     1      22.633  27.056  -9.117  1.00  0.00     0.028 C 
ATOM      5  C   UNL     1      25.416  27.234  -9.506  1.00  0.00     0.007 C 
ATOM      6  C   UNL     1      20.972  25.133 -10.708  1.00  0.00     0.013 C 
ATOM      7  C   UNL     1      21.099  27.027  -9.007  1.00  0.00    -0.064 C 
ATOM      8  C   UNL     1      23.131  28.412  -9.680  1.00  0.00     0.015 C 
ATOM      9  C   UNL     1      24.666  28.602  -9.465  1.00  0.00    -0.035 C 
ATOM     10  C   UNL     1      20.183  26.296 -10.004  1.00  0.00    -0.006 C 
ATOM     11  C   UNL     1      20.541  27.862  -8.113  1.00  0.00    -0.027 C 
ATOM     12  C   UNL     1      25.217  29.531 -10.569  1.00  0.00     0.011 C 
ATOM     13  C   UNL     1      24.925  29.276  -8.099  1.00  0.00     0.011 C 
ATOM     14  C   UNL     1      19.899  27.352 -11.125  1.00  0.00     0.017 C 
ATOM     15  C   UNL     1      18.799  25.758  -9.274  1.00  0.00    -0.020 C 
ATOM     16  C   UNL     1      19.058  27.969  -7.945  1.00  0.00     0.032 C 
ATOM     17  C   UNL     1      18.440  26.557  -7.922  1.00  0.00     0.006 C 
ATOM     18  C   UNL     1      17.610  25.816 -10.292  1.00  0.00     0.008 C 
ATOM     19  C   UNL     1      18.956  24.258  -8.865  1.00  0.00     0.012 C 
ATOM     20  C   UNL     1      16.906  26.484  -7.398  1.00  0.00    -0.025 C 
ATOM     21  C   UNL     1      16.234  25.544  -9.695  1.00  0.00     0.005 C 
ATOM     22  C   UNL     1      15.916  26.604  -8.615  1.00  0.00     0.006 C 
ATOM     23  C   UNL     1      16.579  27.663  -6.418  1.00  0.00     0.010 C 
ATOM     24  C   UNL     1      16.720  25.149  -6.586  1.00  0.00     0.012 C 
ATOM     25  C   UNL     1      14.367  26.745  -8.274  1.00  0.00     0.020 C 
ATOM     26  C   UNL     1      15.102  27.763  -5.998  1.00  0.00     0.033 C 
ATOM     27  C   UNL     1      14.150  27.872  -7.200  1.00  0.00     0.123 C 
ATOM     28  C   UNL     1      13.590  27.162  -9.559  1.00  0.00     0.017 C 
ENDROOT
BRANCH   1  29
ATOM     29  C   UNL     1      23.409  24.622  -9.003  1.00  0.00     0.048 C 
ATOM     30  O   UNL     1      23.224  24.697  -7.757  1.00  0.00    -0.550 OA
ATOM     31  O   UNL     1      23.671  23.377  -9.563  1.00  0.00    -0.550 OA
ENDBRANCH   1  29
BRANCH  25  32
ATOM     32  C   UNL     1      13.742  25.406  -7.765  1.00  0.00     0.165 C 
BRANCH  32  33
ATOM     33  O   UNL     1      12.367  25.334  -8.061  1.00  0.00    -0.396 OA
ATOM     34  H   UNL     1      12.109  26.189  -8.492  1.00  0.00     0.210 HD
ENDBRANCH  32  33
ENDBRANCH  25  32
BRANCH  27  35
ATOM     35  O   UNL     1      14.202  29.169  -7.750  1.00  0.00    -0.392 OA
ATOM     36  H   UNL     1      14.457  29.808  -7.037  1.00  0.00     0.210 HD
ENDBRANCH  27  35
TORSDOF 4
ENDMDL
MODEL 2
REMARK VINA RESULT:    -6.048      2.618      9.445
REMARK INTER + INTRA:          -7.388
REMARK INTER:                  -7.102
REMARK INTRA:                  -0.286
REMARK UNBOUND:                -0.279
REMARK SMILES CC1(C)CC[C@]2(C(=O)[O-])CC[C@]3(C)C(=CC[C@H]4[C@@]5(C)CC[C@@H](O)[C@](C)(CO)[C@@H]5CC[C@]43C)[C@@H]2C1
REMARK SMILES IDX 6 1 5 2 10 3 33 4 4 5 11 6 14 7 34 8 2 9 12 10 15 11 1 12
REMARK SMILES IDX 3 13 13 14 31 15 16 16 17 17 30 18 32 19 18 20 29 21 28 22
REMARK SMILES IDX 20 23 19 24 24 25 21 26 22 27 25 28 7 29 8 30 9 31 26 32
REMARK SMILES IDX 27 33 23 35
REMARK H PARENT 27 34 23 36
REMARK Flexibility Score: inf
ROOT
ATOM      1  C   UNL     1      11.420  28.417  -9.964  1.00  0.00     0.017 C 
ATOM      2  C   UNL     1      10.008  28.131 -10.587  1.00  0.00     0.014 C 
ATOM      3  C   UNL     1      12.371  28.834 -11.112  1.00  0.00     0.014 C 
ATOM      4  C   UNL     1      11.983  27.138  -9.241  1.00  0.00     0.028 C 
ATOM      5  C   UNL     1       9.221  27.089  -9.782  1.00  0.00     0.007 C 
ATOM      6  C   UNL     1      13.786  29.112 -10.598  1.00  0.00     0.013 C 
ATOM      7  C   UNL     1      13.509  27.105  -9.052  1.00  0.00    -0.064 C 
ATOM      8  C   UNL     1      11.473  25.846  -9.928  1.00  0.00     0.015 C 
ATOM      9  C   UNL     1       9.923  25.696  -9.806  1.00  0.00    -0.035 C 
ATOM     10  C   UNL     1      14.500  27.872  -9.944  1.00  0.00    -0.006 C 
ATOM     11  C   UNL     1      13.992  26.186  -8.196  1.00  0.00    -0.027 C 
ATOM     12  C   UNL     1       9.401  24.870 -11.003  1.00  0.00     0.011 C 
ATOM     13  C   UNL     1       9.570  24.934  -8.509  1.00  0.00     0.011 C 
ATOM     14  C   UNL     1      14.809  26.891 -11.125  1.00  0.00     0.017 C 
ATOM     15  C   UNL     1      15.859  28.306  -9.107  1.00  0.00    -0.020 C 
ATOM     16  C   UNL     1      15.460  26.015  -7.962  1.00  0.00     0.032 C 
ATOM     17  C   UNL     1      16.121  27.398  -7.802  1.00  0.00     0.006 C 
ATOM     18  C   UNL     1      17.098  28.280 -10.065  1.00  0.00     0.008 C 
ATOM     19  C   UNL     1      15.729  29.777  -8.595  1.00  0.00     0.012 C 
ATOM     20  C   UNL     1      17.626  27.377  -7.197  1.00  0.00    -0.025 C 
ATOM     21  C   UNL     1      18.448  28.458  -9.380  1.00  0.00     0.005 C 
ATOM     22  C   UNL     1      18.675  27.311  -8.368  1.00  0.00     0.006 C 
ATOM     23  C   UNL     1      17.863  26.118  -6.293  1.00  0.00     0.010 C 
ATOM     24  C   UNL     1      17.811  28.642  -6.279  1.00  0.00     0.012 C 
ATOM     25  C   UNL     1      20.198  27.090  -7.961  1.00  0.00     0.020 C 
ATOM     26  C   UNL     1      19.312  25.936  -5.807  1.00  0.00     0.033 C 
ATOM     27  C   UNL     1      20.322  25.881  -6.965  1.00  0.00     0.123 C 
ATOM     28  C   UNL     1      21.029  26.741  -9.233  1.00  0.00     0.017 C 
ENDROOT
BRANCH   1  29
ATOM     29  C   UNL     1      11.281  29.583  -8.984  1.00  0.00     0.048 C 
ATOM     30  O   UNL     1      11.533  29.442  -7.757  1.00  0.00    -0.550 OA
ATOM     31  O   UNL     1      10.935  30.847  -9.451  1.00  0.00    -0.550 OA
ENDBRANCH   1  29
BRANCH  25  32
ATOM     32  C   UNL     1      20.839  28.365  -7.323  1.00  0.00     0.165 C 
BRANCH  32  33
ATOM     33  O   UNL     1      22.233  28.392  -7.512  1.00  0.00    -0.396 OA
ATOM     34  H   UNL     1      22.542  27.453  -7.595  1.00  0.00     0.210 HD
ENDBRANCH  32  33
ENDBRANCH  25  32
BRANCH  27  35
ATOM     35  O   UNL     1      20.257  24.630  -7.613  1.00  0.00    -0.392 OA
ATOM     36  H   UNL     1      20.751  23.964  -7.070  1.00  0.00     0.210 HD
ENDBRANCH  27  35
TORSDOF 4
ENDMDL
MODEL 3
REMARK VINA RESULT:    -5.994      4.552      7.381
REMARK INTER + INTRA:          -7.324
REMARK INTER:                  -7.043
REMARK INTRA:                  -0.281
REMARK UNBOUND:                -0.279
REMARK SMILES CC1(C)CC[C@]2(C(=O)[O-])CC[C@]3(C)C(=CC[C@H]4[C@@]5(C)CC[C@@H](O)[C@](C)(CO)[C@@H]5CC[C@]43C)[C@@H]2C1
REMARK SMILES IDX 6 1 5 2 10 3 33 4 4 5 11 6 14 7 34 8 2 9 12 10 15 11 1 12
REMARK SMILES IDX 3 13 13 14 31 15 16 16 17 17 30 18 32 19 18 20 29 21 28 22
REMARK SMILES IDX 20 23 19 24 24 25 21 26 22 27 25 28 7 29 8 30 9 31 26 32
REMARK SMILES IDX 27 33 23 35
REMARK H PARENT 27 34 23 36
REMARK Flexibility Score: inf
ROOT
ATOM      1  C   UNL     1      18.397  27.394  -8.312  1.00  0.00     0.017 C 
ATOM      2  C   UNL     1      18.335  27.363  -9.880  1.00  0.00     0.014 C 
ATOM      3  C   UNL     1      19.261  26.197  -7.845  1.00  0.00     0.014 C 
ATOM      4  C   UNL     1      16.955  27.287  -7.692  1.00  0.00     0.028 C 
ATOM      5  C   UNL     1      17.038  27.976 -10.420  1.00  0.00     0.007 C 
ATOM      6  C   UNL     1      19.357  26.133  -6.319  1.00  0.00     0.013 C 
ATOM      7  C   UNL     1      16.897  26.792  -6.236  1.00  0.00    -0.064 C 
ATOM      8  C   UNL     1      16.021  26.454  -8.607  1.00  0.00     0.015 C 
ATOM      9  C   UNL     1      15.788  27.149  -9.986  1.00  0.00    -0.035 C 
ATOM     10  C   UNL     1      17.983  25.920  -5.584  1.00  0.00    -0.006 C 
ATOM     11  C   UNL     1      15.731  26.962  -5.587  1.00  0.00    -0.027 C 
ATOM     12  C   UNL     1      15.483  26.070 -11.048  1.00  0.00     0.011 C 
ATOM     13  C   UNL     1      14.567  28.092  -9.897  1.00  0.00     0.011 C 
ATOM     14  C   UNL     1      17.555  24.449  -5.908  1.00  0.00     0.017 C 
ATOM     15  C   UNL     1      18.095  26.205  -3.958  1.00  0.00    -0.020 C 
ATOM     16  C   UNL     1      15.527  26.478  -4.185  1.00  0.00     0.032 C 
ATOM     17  C   UNL     1      16.756  26.843  -3.330  1.00  0.00     0.006 C 
ATOM     18  C   UNL     1      18.485  24.882  -3.218  1.00  0.00     0.008 C 
ATOM     19  C   UNL     1      19.242  27.227  -3.669  1.00  0.00     0.012 C 
ATOM     20  C   UNL     1      16.545  26.707  -1.727  1.00  0.00    -0.025 C 
ATOM     21  C   UNL     1      18.422  24.950  -1.696  1.00  0.00     0.005 C 
ATOM     22  C   UNL     1      16.977  25.272  -1.248  1.00  0.00     0.006 C 
ATOM     23  C   UNL     1      15.041  26.894  -1.329  1.00  0.00     0.010 C 
ATOM     24  C   UNL     1      17.353  27.858  -1.019  1.00  0.00     0.012 C 
ATOM     25  C   UNL     1      16.661  24.890   0.265  1.00  0.00     0.020 C 
ATOM     26  C   UNL     1      14.727  26.623   0.154  1.00  0.00     0.033 C 
ATOM     27  C   UNL     1      15.162  25.220   0.604  1.00  0.00     0.123 C 
ATOM     28  C   UNL     1      16.865  23.358   0.466  1.00  0.00     0.017 C 
ENDROOT
BRANCH   1  29
ATOM     29  C   UNL     1      19.080  28.696  -7.887  1.00  0.00     0.048 C 
ATOM     30  O   UNL     1      18.439  29.612  -7.305  1.00  0.00    -0.550 OA
ATOM     31  O   UNL     1      20.447  28.859  -8.081  1.00  0.00    -0.550 OA
ENDBRANCH   1  29
BRANCH  25  32
ATOM     32  C   UNL     1      17.602  25.622   1.276  1.00  0.00     0.165 C 
BRANCH  32  33
ATOM     33  O   UNL     1      16.991  25.769   2.535  1.00  0.00    -0.396 OA
ATOM     34  H   UNL     1      17.025  26.732   2.773  1.00  0.00     0.210 HD
ENDBRANCH  32  33
ENDBRANCH  25  32
BRANCH  27  35
ATOM     35  O   UNL     1      14.264  24.248   0.115  1.00  0.00    -0.392 OA
ATOM     36  H   UNL     1      14.569  23.954  -0.781  1.00  0.00     0.210 HD
ENDBRANCH  27  35
TORSDOF 4
ENDMDL
MODEL 4
REMARK VINA RESULT:    -5.951      2.230      4.618
REMARK INTER + INTRA:          -7.274
REMARK INTER:                  -6.983
REMARK INTRA:                  -0.291
REMARK UNBOUND:                -0.279
REMARK SMILES CC1(C)CC[C@]2(C(=O)[O-])CC[C@]3(C)C(=CC[C@H]4[C@@]5(C)CC[C@@H](O)[C@](C)(CO)[C@@H]5CC[C@]43C)[C@@H]2C1
REMARK SMILES IDX 6 1 5 2 10 3 33 4 4 5 11 6 14 7 34 8 2 9 12 10 15 11 1 12
REMARK SMILES IDX 3 13 13 14 31 15 16 16 17 17 30 18 32 19 18 20 29 21 28 22
REMARK SMILES IDX 20 23 19 24 24 25 21 26 22 27 25 28 7 29 8 30 9 31 26 32
REMARK SMILES IDX 27 33 23 35
REMARK H PARENT 27 34 23 36
REMARK Flexibility Score: inf
ROOT
ATOM      1  C   UNL     1      21.339  25.252  -8.836  1.00  0.00     0.017 C 
ATOM      2  C   UNL     1      22.510  24.228  -8.628  1.00  0.00     0.014 C 
ATOM      3  C   UNL     1      20.919  25.786  -7.445  1.00  0.00     0.014 C 
ATOM      4  C   UNL     1      20.110  24.562  -9.537  1.00  0.00     0.028 C 
ATOM      5  C   UNL     1      22.540  23.152  -9.719  1.00  0.00     0.007 C 
ATOM      6  C   UNL     1      19.759  26.779  -7.550  1.00  0.00     0.013 C 
ATOM      7  C   UNL     1      18.756  25.264  -9.337  1.00  0.00    -0.064 C 
ATOM      8  C   UNL     1      20.027  23.061  -9.155  1.00  0.00     0.015 C 
ATOM      9  C   UNL     1      21.260  22.259  -9.680  1.00  0.00    -0.035 C 
ATOM     10  C   UNL     1      18.432  26.176  -8.141  1.00  0.00    -0.006 C 
ATOM     11  C   UNL     1      17.751  24.879 -10.144  1.00  0.00    -0.027 C 
ATOM     12  C   UNL     1      21.500  21.044  -8.757  1.00  0.00     0.011 C 
ATOM     13  C   UNL     1      20.973  21.730 -11.103  1.00  0.00     0.011 C 
ATOM     14  C   UNL     1      17.883  25.205  -7.042  1.00  0.00     0.017 C 
ATOM     15  C   UNL     1      17.343  27.351  -8.552  1.00  0.00    -0.020 C 
ATOM     16  C   UNL     1      16.372  25.446 -10.018  1.00  0.00     0.032 C 
ATOM     17  C   UNL     1      16.457  26.975  -9.844  1.00  0.00     0.006 C 
ATOM     18  C   UNL     1      16.429  27.674  -7.322  1.00  0.00     0.008 C 
ATOM     19  C   UNL     1      18.090  28.677  -8.907  1.00  0.00     0.012 C 
ATOM     20  C   UNL     1      15.059  27.771 -10.048  1.00  0.00    -0.025 C 
ATOM     21  C   UNL     1      15.247  28.590  -7.618  1.00  0.00     0.005 C 
ATOM     22  C   UNL     1      14.323  27.927  -8.666  1.00  0.00     0.006 C 
ATOM     23  C   UNL     1      14.089  26.992 -11.002  1.00  0.00     0.010 C 
ATOM     24  C   UNL     1      15.367  29.152 -10.737  1.00  0.00     0.012 C 
ATOM     25  C   UNL     1      12.843  28.515  -8.698  1.00  0.00     0.020 C 
ATOM     26  C   UNL     1      12.679  27.596 -11.124  1.00  0.00     0.033 C 
ATOM     27  C   UNL     1      11.980  27.748  -9.764  1.00  0.00     0.123 C 
ATOM     28  C   UNL     1      12.173  28.305  -7.307  1.00  0.00     0.017 C 
ENDROOT
BRANCH   1  29
ATOM     29  C   UNL     1      21.867  26.414  -9.678  1.00  0.00     0.048 C 
ATOM     30  O   UNL     1      22.685  27.248  -9.204  1.00  0.00    -0.550 OA
ATOM     31  O   UNL     1      21.498  26.529 -11.014  1.00  0.00    -0.550 OA
ENDBRANCH   1  29
BRANCH  25  32
ATOM     32  C   UNL     1      12.814  30.048  -9.002  1.00  0.00     0.165 C 
BRANCH  32  33
ATOM     33  O   UNL     1      11.938  30.729  -8.136  1.00  0.00    -0.396 OA
ATOM     34  H   UNL     1      12.135  30.425  -7.213  1.00  0.00     0.210 HD
ENDBRANCH  32  33
ENDBRANCH  25  32
BRANCH  27  35
ATOM     35  O   UNL     1      11.529  26.493  -9.302  1.00  0.00    -0.392 OA
ATOM     36  H   UNL     1      12.119  25.788  -9.670  1.00  0.00     0.210 HD
ENDBRANCH  27  35
TORSDOF 4
ENDMDL
MODEL 5
REMARK VINA RESULT:    -5.628      4.819      8.277
REMARK INTER + INTRA:          -6.894
REMARK INTER:                  -6.647
REMARK INTRA:                  -0.247
REMARK UNBOUND:                -0.279
REMARK SMILES CC1(C)CC[C@]2(C(=O)[O-])CC[C@]3(C)C(=CC[C@H]4[C@@]5(C)CC[C@@H](O)[C@](C)(CO)[C@@H]5CC[C@]43C)[C@@H]2C1
REMARK SMILES IDX 6 1 5 2 10 3 33 4 4 5 11 6 14 7 34 8 2 9 12 10 15 11 1 12
REMARK SMILES IDX 3 13 13 14 31 15 16 16 17 17 30 18 32 19 18 20 29 21 28 22
REMARK SMILES IDX 20 23 19 24 24 25 21 26 22 27 25 28 7 29 8 30 9 31 26 32
REMARK SMILES IDX 27 33 23 35
REMARK H PARENT 27 34 23 36
REMARK Flexibility Score: inf
ROOT
ATOM      1  C   UNL     1      15.531  27.487  -9.418  1.00  0.00     0.017 C 
ATOM      2  C   UNL     1      15.077  27.175 -10.888  1.00  0.00     0.014 C 
ATOM      3  C   UNL     1      17.000  27.022  -9.264  1.00  0.00     0.014 C 
ATOM      4  C   UNL     1      14.620  26.734  -8.379  1.00  0.00     0.028 C 
ATOM      5  C   UNL     1      13.570  26.911 -10.984  1.00  0.00     0.007 C 
ATOM      6  C   UNL     1      17.522  27.267  -7.846  1.00  0.00     0.013 C 
ATOM      7  C   UNL     1      15.240  26.526  -6.986  1.00  0.00    -0.064 C 
ATOM      8  C   UNL     1      14.099  25.397  -8.967  1.00  0.00     0.015 C 
ATOM      9  C   UNL     1      13.159  25.630 -10.193  1.00  0.00    -0.035 C 
ATOM     10  C   UNL     1      16.755  26.480  -6.720  1.00  0.00    -0.006 C 
ATOM     11  C   UNL     1      14.402  26.155  -6.001  1.00  0.00    -0.027 C 
ATOM     12  C   UNL     1      13.231  24.398 -11.122  1.00  0.00     0.011 C 
ATOM     13  C   UNL     1      11.699  25.782  -9.712  1.00  0.00     0.011 C 
ATOM     14  C   UNL     1      17.145  24.977  -6.917  1.00  0.00     0.017 C 
ATOM     15  C   UNL     1      17.122  27.040  -5.207  1.00  0.00    -0.020 C 
ATOM     16  C   UNL     1      14.886  25.870  -4.614  1.00  0.00     0.032 C 
ATOM     17  C   UNL     1      15.883  26.964  -4.182  1.00  0.00     0.006 C 
ATOM     18  C   UNL     1      18.362  26.265  -4.647  1.00  0.00     0.008 C 
ATOM     19  C   UNL     1      17.538  28.545  -5.277  1.00  0.00     0.012 C 
ATOM     20  C   UNL     1      16.223  26.998  -2.596  1.00  0.00    -0.025 C 
ATOM     21  C   UNL     1      18.684  26.533  -3.181  1.00  0.00     0.005 C 
ATOM     22  C   UNL     1      17.487  26.109  -2.298  1.00  0.00     0.006 C 
ATOM     23  C   UNL     1      15.042  26.421  -1.743  1.00  0.00     0.010 C 
ATOM     24  C   UNL     1      16.413  28.498  -2.160  1.00  0.00     0.012 C 
ATOM     25  C   UNL     1      17.857  25.868  -0.769  1.00  0.00     0.020 C 
ATOM     26  C   UNL     1      15.343  26.268  -0.242  1.00  0.00     0.033 C 
ATOM     27  C   UNL     1      16.584  25.403   0.028  1.00  0.00     0.123 C 
ATOM     28  C   UNL     1      18.920  24.733  -0.665  1.00  0.00     0.017 C 
ENDROOT
BRANCH   1  29
ATOM     29  C   UNL     1      15.462  29.001  -9.209  1.00  0.00     0.048 C 
ATOM     30  O   UNL     1      16.297  29.775  -9.751  1.00  0.00    -0.550 OA
ATOM     31  O   UNL     1      14.425  29.553  -8.466  1.00  0.00    -0.550 OA
ENDBRANCH   1  29
BRANCH  25  32
ATOM     32  C   UNL     1      18.465  27.139  -0.092  1.00  0.00     0.165 C 
BRANCH  32  33
ATOM     33  O   UNL     1      19.872  27.105  -0.103  1.00  0.00    -0.396 OA
ATOM     34  H   UNL     1      20.156  26.307   0.413  1.00  0.00     0.210 HD
ENDBRANCH  32  33
ENDBRANCH  25  32
BRANCH  27  35
ATOM     35  O   UNL     1      16.283  24.039  -0.170  1.00  0.00    -0.392 OA
ATOM     36  H   UNL     1      15.416  23.970  -0.643  1.00  0.00     0.210 HD
ENDBRANCH  27  35
TORSDOF 4
ENDMDL
MODEL 6
REMARK VINA RESULT:    -5.610      4.037      5.498
REMARK INTER + INTRA:          -6.873
REMARK INTER:                  -6.628
REMARK INTRA:                  -0.245
REMARK UNBOUND:                -0.279
REMARK SMILES CC1(C)CC[C@]2(C(=O)[O-])CC[C@]3(C)C(=CC[C@H]4[C@@]5(C)CC[C@@H](O)[C@](C)(CO)[C@@H]5CC[C@]43C)[C@@H]2C1
REMARK SMILES IDX 6 1 5 2 10 3 33 4 4 5 11 6 14 7 34 8 2 9 12 10 15 11 1 12
REMARK SMILES IDX 3 13 13 14 31 15 16 16 17 17 30 18 32 19 18 20 29 21 28 22
REMARK SMILES IDX 20 23 19 24 24 25 21 26 22 27 25 28 7 29 8 30 9 31 26 32
REMARK SMILES IDX 27 33 23 35
REMARK H PARENT 27 34 23 36
REMARK Flexibility Score: inf
ROOT
ATOM      1  C   UNL     1      19.344  26.391  -9.226  1.00  0.00     0.017 C 
ATOM      2  C   UNL     1      19.927  26.816 -10.619  1.00  0.00     0.014 C 
ATOM      3  C   UNL     1      17.922  26.991  -9.101  1.00  0.00     0.014 C 
ATOM      4  C   UNL     1      20.252  26.919  -8.054  1.00  0.00     0.028 C 
ATOM      5  C   UNL     1      21.457  26.925 -10.598  1.00  0.00     0.007 C 
ATOM      6  C   UNL     1      17.281  26.645  -7.754  1.00  0.00     0.013 C 
ATOM      7  C   UNL     1      19.561  27.034  -6.684  1.00  0.00    -0.064 C 
ATOM      8  C   UNL     1      20.944  28.249  -8.447  1.00  0.00     0.015 C 
ATOM      9  C   UNL     1      21.939  28.056  -9.637  1.00  0.00    -0.035 C 
ATOM     10  C   UNL     1      18.044  27.212  -6.501  1.00  0.00    -0.006 C 
ATOM     11  C   UNL     1      20.362  27.198  -5.615  1.00  0.00    -0.027 C 
ATOM     12  C   UNL     1      22.056  29.386 -10.414  1.00  0.00     0.011 C 
ATOM     13  C   UNL     1      23.339  27.693  -9.095  1.00  0.00     0.011 C 
ATOM     14  C   UNL     1      17.823  28.762  -6.538  1.00  0.00     0.017 C 
ATOM     15  C   UNL     1      17.518  26.528  -5.090  1.00  0.00    -0.020 C 
ATOM     16  C   UNL     1      19.815  27.374  -4.234  1.00  0.00     0.032 C 
ATOM     17  C   UNL     1      18.685  26.353  -3.993  1.00  0.00     0.006 C 
ATOM     18  C   UNL     1      16.327  27.365  -4.512  1.00  0.00     0.008 C 
ATOM     19  C   UNL     1      16.958  25.094  -5.363  1.00  0.00     0.012 C 
ATOM     20  C   UNL     1      18.234  26.177  -2.445  1.00  0.00    -0.025 C 
ATOM     21  C   UNL     1      15.880  26.968  -3.109  1.00  0.00     0.005 C 
ATOM     22  C   UNL     1      17.049  27.158  -2.115  1.00  0.00     0.006 C 
ATOM     23  C   UNL     1      19.406  26.522  -1.463  1.00  0.00     0.010 C 
ATOM     24  C   UNL     1      17.864  24.667  -2.203  1.00  0.00     0.012 C 
ATOM     25  C   UNL     1      16.600  27.263  -0.591  1.00  0.00     0.020 C 
ATOM     26  C   UNL     1      19.019  26.536   0.026  1.00  0.00     0.033 C 
ATOM     27  C   UNL     1      17.855  27.494   0.327  1.00  0.00     0.123 C 
ATOM     28  C   UNL     1      15.652  28.487  -0.413  1.00  0.00     0.017 C 
ENDROOT
BRANCH   1  29
ATOM     29  C   UNL     1      19.245  24.865  -9.196  1.00  0.00     0.048 C 
ATOM     30  O   UNL     1      20.042  24.169  -8.510  1.00  0.00    -0.550 OA
ATOM     31  O   UNL     1      18.220  24.221  -9.881  1.00  0.00    -0.550 OA
ENDBRANCH   1  29
BRANCH  25  32
ATOM     32  C   UNL     1      15.821  25.997  -0.108  1.00  0.00     0.165 C 
BRANCH  32  33
ATOM     33  O   UNL     1      14.429  26.199  -0.154  1.00  0.00    -0.396 OA
ATOM     34  H   UNL     1      14.024  25.658   0.572  1.00  0.00     0.210 HD
ENDBRANCH  32  33
ENDBRANCH  25  32
BRANCH  27  35
ATOM     35  O   UNL     1      18.305  28.831   0.311  1.00  0.00    -0.392 OA
ATOM     36  H   UNL     1      19.258  28.843   0.042  1.00  0.00     0.210 HD
ENDBRANCH  27  35
TORSDOF 4
ENDMDL
MODEL 7
REMARK VINA RESULT:    -5.396      4.551      6.838
REMARK INTER + INTRA:          -6.621
REMARK INTER:                  -6.310
REMARK INTRA:                  -0.312
REMARK UNBOUND:                -0.279
REMARK SMILES CC1(C)CC[C@]2(C(=O)[O-])CC[C@]3(C)C(=CC[C@H]4[C@@]5(C)CC[C@@H](O)[C@](C)(CO)[C@@H]5CC[C@]43C)[C@@H]2C1
REMARK SMILES IDX 6 1 5 2 10 3 33 4 4 5 11 6 14 7 34 8 2 9 12 10 15 11 1 12
REMARK SMILES IDX 3 13 13 14 31 15 16 16 17 17 30 18 32 19 18 20 29 21 28 22
REMARK SMILES IDX 20 23 19 24 24 25 21 26 22 27 25 28 7 29 8 30 9 31 26 32
REMARK SMILES IDX 27 33 23 35
REMARK H PARENT 27 34 23 36
REMARK Flexibility Score: inf
ROOT
ATOM      1  C   UNL     1      17.371  26.240  -8.629  1.00  0.00     0.017 C 
ATOM      2  C   UNL     1      17.755  26.429 -10.139  1.00  0.00     0.014 C 
ATOM      3  C   UNL     1      16.305  27.303  -8.272  1.00  0.00     0.014 C 
ATOM      4  C   UNL     1      18.631  26.414  -7.704  1.00  0.00     0.028 C 
ATOM      5  C   UNL     1      19.196  25.990 -10.429  1.00  0.00     0.007 C 
ATOM      6  C   UNL     1      15.885  27.208  -6.803  1.00  0.00     0.013 C 
ATOM      7  C   UNL     1      18.330  26.767  -6.237  1.00  0.00    -0.064 C 
ATOM      8  C   UNL     1      19.640  27.413  -8.327  1.00  0.00     0.015 C 
ATOM      9  C   UNL     1      20.231  26.879  -9.671  1.00  0.00    -0.035 C 
ATOM     10  C   UNL     1      17.044  27.471  -5.772  1.00  0.00    -0.006 C 
ATOM     11  C   UNL     1      19.346  26.640  -5.364  1.00  0.00    -0.027 C 
ATOM     12  C   UNL     1      20.632  28.081 -10.556  1.00  0.00     0.011 C 
ATOM     13  C   UNL     1      21.501  26.045  -9.392  1.00  0.00     0.011 C 
ATOM     14  C   UNL     1      17.368  28.999  -5.882  1.00  0.00     0.017 C 
ATOM     15  C   UNL     1      16.626  27.018  -4.237  1.00  0.00    -0.020 C 
ATOM     16  C   UNL     1      19.199  27.000  -3.920  1.00  0.00     0.032 C 
ATOM     17  C   UNL     1      17.865  26.444  -3.383  1.00  0.00     0.006 C 
ATOM     18  C   UNL     1      15.949  28.223  -3.500  1.00  0.00     0.008 C 
ATOM     19  C   UNL     1      15.562  25.875  -4.283  1.00  0.00     0.012 C 
ATOM     20  C   UNL     1      17.720  26.441  -1.767  1.00  0.00    -0.025 C 
ATOM     21  C   UNL     1      15.700  28.012  -2.011  1.00  0.00     0.005 C 
ATOM     22  C   UNL     1      17.045  27.778  -1.285  1.00  0.00     0.006 C 
ATOM     23  C   UNL     1      19.119  26.351  -1.066  1.00  0.00     0.010 C 
ATOM     24  C   UNL     1      16.912  25.159  -1.342  1.00  0.00     0.012 C 
ATOM     25  C   UNL     1      16.995  28.037   0.285  1.00  0.00     0.020 C 
ATOM     26  C   UNL     1      19.086  26.503   0.465  1.00  0.00     0.033 C 
ATOM     27  C   UNL     1      18.416  27.811   0.916  1.00  0.00     0.123 C 
ATOM     28  C   UNL     1      16.588  29.517   0.553  1.00  0.00     0.017 C 
ENDROOT
BRANCH   1  29
ATOM     29  C   UNL     1      16.760  24.847  -8.465  1.00  0.00     0.048 C 
ATOM     30  O   UNL     1      15.689  24.527  -9.049  1.00  0.00    -0.550 OA
ATOM     31  O   UNL     1      17.422  23.882  -7.713  1.00  0.00    -0.550 OA
ENDBRANCH   1  29
BRANCH  25  32
ATOM     32  C   UNL     1      15.948  27.128   1.008  1.00  0.00     0.165 C 
BRANCH  32  33
ATOM     33  O   UNL     1      16.250  26.982   2.375  1.00  0.00    -0.396 OA
ATOM     34  H   UNL     1      16.512  26.036   2.523  1.00  0.00     0.210 HD
ENDBRANCH  32  33
ENDBRANCH  25  32
BRANCH  27  35
ATOM     35  O   UNL     1      19.286  28.903   0.710  1.00  0.00    -0.392 OA
ATOM     36  H   UNL     1      19.421  29.370   1.572  1.00  0.00     0.210 HD
ENDBRANCH  27  35
TORSDOF 4
ENDMDL
MODEL 8
REMARK VINA RESULT:    -4.674      3.364      4.521
REMARK INTER + INTRA:          -5.773
REMARK INTER:                  -5.841
REMARK INTRA:                   0.067
REMARK UNBOUND:                -0.279
REMARK SMILES CC1(C)CC[C@]2(C(=O)[O-])CC[C@]3(C)C(=CC[C@H]4[C@@]5(C)CC[C@@H](O)[C@](C)(CO)[C@@H]5CC[C@]43C)[C@@H]2C1
REMARK SMILES IDX 6 1 5 2 10 3 33 4 4 5 11 6 14 7 34 8 2 9 12 10 15 11 1 12
REMARK SMILES IDX 3 13 13 14 31 15 16 16 17 17 30 18 32 19 18 20 29 21 28 22
REMARK SMILES IDX 20 23 19 24 24 25 21 26 22 27 25 28 7 29 8 30 9 31 26 32
REMARK SMILES IDX 27 33 23 35
REMARK H PARENT 27 34 23 36
REMARK Flexibility Score: inf
ROOT
ATOM      1  C   UNL     1      19.186  21.861  -9.229  1.00  0.00     0.017 C 
ATOM      2  C   UNL     1      20.192  20.763  -9.722  1.00  0.00     0.014 C 
ATOM      3  C   UNL     1      18.148  22.097 -10.353  1.00  0.00     0.014 C 
ATOM      4  C   UNL     1      19.937  23.204  -8.903  1.00  0.00     0.028 C 
ATOM      5  C   UNL     1      21.583  20.929  -9.097  1.00  0.00     0.007 C 
ATOM      6  C   UNL     1      17.134  23.176  -9.965  1.00  0.00     0.013 C 
ATOM      7  C   UNL     1      19.063  24.470  -8.917  1.00  0.00    -0.064 C 
ATOM      8  C   UNL     1      21.184  23.373  -9.809  1.00  0.00     0.015 C 
ATOM      9  C   UNL     1      22.254  22.268  -9.536  1.00  0.00    -0.035 C 
ATOM     10  C   UNL     1      17.755  24.599  -9.716  1.00  0.00    -0.006 C 
ATOM     11  C   UNL     1      19.594  25.578  -8.369  1.00  0.00    -0.027 C 
ATOM     12  C   UNL     1      23.080  22.040 -10.822  1.00  0.00     0.011 C 
ATOM     13  C   UNL     1      23.218  22.735  -8.424  1.00  0.00     0.011 C 
ATOM     14  C   UNL     1      18.203  25.116 -11.125  1.00  0.00     0.017 C 
ATOM     15  C   UNL     1      16.688  25.623  -8.974  1.00  0.00    -0.020 C 
ATOM     16  C   UNL     1      18.869  26.886  -8.364  1.00  0.00     0.032 C 
ATOM     17  C   UNL     1      17.398  26.658  -7.964  1.00  0.00     0.006 C 
ATOM     18  C   UNL     1      15.849  26.383 -10.056  1.00  0.00     0.008 C 
ATOM     19  C   UNL     1      15.668  24.807  -8.116  1.00  0.00     0.012 C 
ATOM     20  C   UNL     1      16.575  28.000  -7.571  1.00  0.00    -0.025 C 
ATOM     21  C   UNL     1      14.971  27.508  -9.520  1.00  0.00     0.005 C 
ATOM     22  C   UNL     1      15.856  28.582  -8.844  1.00  0.00     0.006 C 
ATOM     23  C   UNL     1      17.528  29.119  -7.027  1.00  0.00     0.010 C 
ATOM     24  C   UNL     1      15.573  27.647  -6.409  1.00  0.00     0.012 C 
ATOM     25  C   UNL     1      15.156  30.004  -8.691  1.00  0.00     0.020 C 
ATOM     26  C   UNL     1      16.852  30.479  -6.780  1.00  0.00     0.033 C 
ATOM     27  C   UNL     1      16.150  31.028  -8.032  1.00  0.00     0.123 C 
ATOM     28  C   UNL     1      14.780  30.550 -10.101  1.00  0.00     0.017 C 
ENDROOT
BRANCH   1  29
ATOM     29  C   UNL     1      18.465  21.324  -7.990  1.00  0.00     0.048 C 
ATOM     30  O   UNL     1      17.822  22.089  -7.223  1.00  0.00    -0.550 OA
ATOM     31  O   UNL     1      18.455  19.957  -7.730  1.00  0.00    -0.550 OA
ENDBRANCH   1  29
BRANCH  25  32
ATOM     32  C   UNL     1      13.838  29.936  -7.852  1.00  0.00     0.165 C 
BRANCH  32  33
ATOM     33  O   UNL     1      12.702  30.121  -8.662  1.00  0.00    -0.396 OA
ATOM     34  H   UNL     1      11.943  29.658  -8.222  1.00  0.00     0.210 HD
ENDBRANCH  32  33
ENDBRANCH  25  32
BRANCH  27  35
ATOM     35  O   UNL     1      17.099  31.533  -8.945  1.00  0.00    -0.392 OA
ATOM     36  H   UNL     1      17.603  30.774  -9.333  1.00  0.00     0.210 HD
ENDBRANCH  27  35
TORSDOF 4
ENDMDL
MODEL 9
REMARK VINA RESULT:    -4.570      4.878      8.319
REMARK INTER + INTRA:          -5.650
REMARK INTER:                  -5.373
REMARK INTRA:                  -0.277
REMARK UNBOUND:                -0.279
REMARK SMILES CC1(C)CC[C@]2(C(=O)[O-])CC[C@]3(C)C(=CC[C@H]4[C@@]5(C)CC[C@@H](O)[C@](C)(CO)[C@@H]5CC[C@]43C)[C@@H]2C1
REMARK SMILES IDX 6 1 5 2 10 3 33 4 4 5 11 6 14 7 34 8 2 9 12 10 15 11 1 12
REMARK SMILES IDX 3 13 13 14 31 15 16 16 17 17 30 18 32 19 18 20 29 21 28 22
REMARK SMILES IDX 20 23 19 24 24 25 21 26 22 27 25 28 7 29 8 30 9 31 26 32
REMARK SMILES IDX 27 33 23 35
REMARK H PARENT 27 34 23 36
REMARK Flexibility Score: inf
ROOT
ATOM      1  C   UNL     1      17.604  25.620  -0.233  1.00  0.00     0.017 C 
ATOM      2  C   UNL     1      17.744  25.925   1.300  1.00  0.00     0.014 C 
ATOM      3  C   UNL     1      19.025  25.412  -0.810  1.00  0.00     0.014 C 
ATOM      4  C   UNL     1      16.893  26.810  -0.978  1.00  0.00     0.028 C 
ATOM      5  C   UNL     1      16.603  26.807   1.822  1.00  0.00     0.007 C 
ATOM      6  C   UNL     1      18.987  25.131  -2.315  1.00  0.00     0.013 C 
ATOM      7  C   UNL     1      17.150  26.888  -2.493  1.00  0.00    -0.064 C 
ATOM      8  C   UNL     1      17.207  28.162  -0.285  1.00  0.00     0.015 C 
ATOM      9  C   UNL     1      16.623  28.221   1.162  1.00  0.00    -0.035 C 
ATOM     10  C   UNL     1      18.392  26.299  -3.184  1.00  0.00    -0.006 C 
ATOM     11  C   UNL     1      16.343  27.700  -3.201  1.00  0.00    -0.027 C 
ATOM     12  C   UNL     1      17.484  29.180   2.013  1.00  0.00     0.011 C 
ATOM     13  C   UNL     1      15.182  28.778   1.124  1.00  0.00     0.011 C 
ATOM     14  C   UNL     1      19.454  27.448  -3.131  1.00  0.00     0.017 C 
ATOM     15  C   UNL     1      18.055  25.816  -4.730  1.00  0.00    -0.020 C 
ATOM     16  C   UNL     1      16.519  27.904  -4.673  1.00  0.00     0.032 C 
ATOM     17  C   UNL     1      16.762  26.544  -5.357  1.00  0.00     0.006 C 
ATOM     18  C   UNL     1      19.314  26.033  -5.635  1.00  0.00     0.008 C 
ATOM     19  C   UNL     1      17.749  24.284  -4.760  1.00  0.00     0.012 C 
ATOM     20  C   UNL     1      16.620  26.550  -6.973  1.00  0.00    -0.025 C 
ATOM     21  C   UNL     1      19.082  25.824  -7.127  1.00  0.00     0.005 C 
ATOM     22  C   UNL     1      18.020  26.828  -7.635  1.00  0.00     0.006 C 
ATOM     23  C   UNL     1      15.648  27.680  -7.459  1.00  0.00     0.010 C 
ATOM     24  C   UNL     1      15.991  25.180  -7.423  1.00  0.00     0.012 C 
ATOM     25  C   UNL     1      18.042  27.059  -9.210  1.00  0.00     0.020 C 
ATOM     26  C   UNL     1      15.579  27.860  -8.986  1.00  0.00     0.033 C 
ATOM     27  C   UNL     1      16.957  28.122  -9.614  1.00  0.00     0.123 C 
ATOM     28  C   UNL     1      19.433  27.621  -9.632  1.00  0.00     0.017 C 
ENDROOT
BRANCH   1  29
ATOM     29  C   UNL     1      16.808  24.324  -0.390  1.00  0.00     0.048 C 
ATOM     30  O   UNL     1      17.340  23.199  -0.186  1.00  0.00    -0.550 OA
ATOM     31  O   UNL     1      15.452  24.373  -0.698  1.00  0.00    -0.550 OA
ENDBRANCH   1  29
BRANCH  25  32
ATOM     32  C   UNL     1      17.809  25.739 -10.013  1.00  0.00     0.165 C 
BRANCH  32  33
ATOM     33  O   UNL     1      18.992  25.302 -10.639  1.00  0.00    -0.396 OA
ATOM     34  H   UNL     1      19.666  25.143  -9.929  1.00  0.00     0.210 HD
ENDBRANCH  32  33
ENDBRANCH  25  32
BRANCH  27  35
ATOM     35  O   UNL     1      17.367  29.447  -9.359  1.00  0.00    -0.392 OA
ATOM     36  H   UNL     1      17.343  29.958 -10.207  1.00  0.00     0.210 HD
ENDBRANCH  27  35
TORSDOF 4
ENDMDL
