MODEL 1
REMARK VINA RESULT:    -3.460      0.000      0.000
REMARK INTER + INTRA:          -4.312
REMARK INTER:                  -4.876
REMARK INTRA:                   0.564
REMARK UNBOUND:                 0.564
REMARK SMILES CC1=CCC(=C(C)C)C(=O)CC(C)=CCC1
REMARK SMILES IDX 12 1 14 2 13 3 15 4 16 5 2 6 1 7 3 8 11 10 9 11 10 12 5 13
REMARK SMILES IDX 6 14 7 15 8 16 4 17
REMARK H PARENT
REMARK Flexibility Score: 60.00
ROOT
ATOM      1  C   UNL     1       6.723  26.475  15.792  1.00  0.00    -0.070 C 
ATOM      2  C   UNL     1       5.593  25.937  15.281  1.00  0.00    -0.027 C 
ATOM      3  C   UNL     1       8.031  26.137  15.122  1.00  0.00     0.039 C 
ENDROOT
BRANCH   2   4
ATOM      4  C   UNL     1       4.204  26.076  15.867  1.00  0.00     0.032 C 
BRANCH   4   5
ATOM      5  C   UNL     1       3.224  26.909  15.016  1.00  0.00     0.034 C 
BRANCH   5   6
ATOM      6  C   UNL     1       3.096  28.346  15.486  1.00  0.00    -0.077 C 
ATOM      7  C   UNL     1       1.849  28.728  16.244  1.00  0.00     0.039 C 
ATOM      8  C   UNL     1       3.994  29.324  15.211  1.00  0.00    -0.023 CG0
ATOM      9  G   UNL     1       5.318  29.171  14.489  1.00  0.00     0.000 G0
ENDBRANCH   5   6
ENDBRANCH   4   5
ENDBRANCH   2   4
BRANCH   1  10
ATOM     10  C   UNL     1       6.746  27.318  17.051  1.00  0.00     0.111 C 
BRANCH  10  11
ATOM     11  C   UNL     1       6.422  28.759  16.760  1.00  0.00     0.163 C 
ATOM     12  O   UNL     1       6.004  29.477  17.710  1.00  0.00    -0.294 OA
BRANCH  11  13
ATOM     13  C   UNL     1       6.518  29.341  15.389  1.00  0.00    -0.002 C 
ATOM     14  C   UNL     1       7.613  30.068  15.014  1.00  0.00    -0.069 C 
ATOM     15  C   UNL     1       8.828  30.177  15.910  1.00  0.00     0.039 C 
ATOM     16  C   UNL     1       7.673  30.803  13.692  1.00  0.00     0.039 C 
BRANCH  13  17
ATOM     17  C   UNL     1       5.314  29.172  14.475  1.00  0.00     0.066 CG0
ATOM     18  G   UNL     1       4.002  29.337  15.216  1.00  0.00     0.000 G0
ENDBRANCH  13  17
ENDBRANCH  11  13
ENDBRANCH  10  11
ENDBRANCH   1  10
TORSDOF 0
ENDMDL
MODEL 2
REMARK VINA RESULT:    -3.438      1.664      4.483
REMARK INTER + INTRA:          -4.280
REMARK INTER:                  -4.411
REMARK INTRA:                   0.131
REMARK UNBOUND:                 0.564
REMARK SMILES CC1=CCC(=C(C)C)C(=O)CC(C)=CCC1
REMARK SMILES IDX 12 1 14 2 13 3 15 4 16 5 2 6 1 7 3 8 11 10 9 11 10 12 5 13
REMARK SMILES IDX 6 14 7 15 8 16 4 17
REMARK H PARENT
REMARK Flexibility Score: 60.00
ROOT
ATOM      1  C   UNL     1       7.519  29.580  15.674  1.00  0.00    -0.070 C 
ATOM      2  C   UNL     1       8.511  28.732  15.323  1.00  0.00    -0.027 C 
ATOM      3  C   UNL     1       7.869  30.742  16.570  1.00  0.00     0.039 C 
ENDROOT
BRANCH   2   4
ATOM      4  C   UNL     1       8.344  27.462  14.517  1.00  0.00     0.032 C 
BRANCH   4   5
ATOM      5  C   UNL     1       7.867  26.239  15.328  1.00  0.00     0.034 C 
BRANCH   5   6
ATOM      6  C   UNL     1       6.690  25.523  14.693  1.00  0.00    -0.077 C 
ATOM      7  C   UNL     1       6.931  24.786  13.400  1.00  0.00     0.039 C 
ATOM      8  C   UNL     1       5.422  25.560  15.173  1.00  0.00    -0.023 CG0
ATOM      9  G   UNL     1       4.950  26.217  16.456  1.00  0.00     0.000 G0
ENDBRANCH   5   6
ENDBRANCH   4   5
ENDBRANCH   2   4
BRANCH   1  10
ATOM     10  C   UNL     1       6.069  29.369  15.289  1.00  0.00     0.111 C 
BRANCH  10  11
ATOM     11  C   UNL     1       5.276  28.773  16.421  1.00  0.00     0.163 C 
ATOM     12  O   UNL     1       5.440  29.250  17.577  1.00  0.00    -0.294 OA
BRANCH  11  13
ATOM     13  C   UNL     1       4.358  27.611  16.232  1.00  0.00    -0.002 C 
ATOM     14  C   UNL     1       3.034  27.803  15.952  1.00  0.00    -0.069 C 
ATOM     15  C   UNL     1       2.485  29.184  15.668  1.00  0.00     0.039 C 
ATOM     16  C   UNL     1       2.049  26.655  15.912  1.00  0.00     0.039 C 
BRANCH  13  17
ATOM     17  C   UNL     1       4.938  26.223  16.460  1.00  0.00     0.066 CG0
ATOM     18  G   UNL     1       5.400  25.574  15.170  1.00  0.00     0.000 G0
ENDBRANCH  13  17
ENDBRANCH  11  13
ENDBRANCH  10  11
ENDBRANCH   1  10
TORSDOF 0
ENDMDL
MODEL 3
REMARK VINA RESULT:    -3.423      8.557     10.986
REMARK INTER + INTRA:          -4.260
REMARK INTER:                  -4.748
REMARK INTRA:                   0.488
REMARK UNBOUND:                 0.564
REMARK SMILES CC1=CCC(=C(C)C)C(=O)CC(C)=CCC1
REMARK SMILES IDX 12 1 14 2 13 3 15 4 16 5 2 6 1 7 3 8 11 10 9 11 10 12 5 13
REMARK SMILES IDX 6 14 7 15 8 16 4 17
REMARK H PARENT
REMARK Flexibility Score: 60.00
ROOT
ATOM      1  C   UNL     1      12.974  24.799  14.999  1.00  0.00    -0.070 C 
ATOM      2  C   UNL     1      12.635  26.091  15.205  1.00  0.00    -0.027 C 
ATOM      3  C   UNL     1      12.295  23.749  15.841  1.00  0.00     0.039 C 
ENDROOT
BRANCH   2   4
ATOM      4  C   UNL     1      13.271  27.289  14.534  1.00  0.00     0.032 C 
BRANCH   4   5
ATOM      5  C   UNL     1      14.264  28.074  15.416  1.00  0.00     0.034 C 
BRANCH   5   6
ATOM      6  C   UNL     1      15.680  28.072  14.869  1.00  0.00    -0.077 C 
ATOM      7  C   UNL     1      16.103  29.239  14.013  1.00  0.00     0.039 C 
ATOM      8  C   UNL     1      16.565  27.060  15.042  1.00  0.00    -0.023 CG0
ATOM      9  G   UNL     1      16.370  25.807  15.872  1.00  0.00     0.000 G0
ENDBRANCH   5   6
ENDBRANCH   4   5
ENDBRANCH   2   4
BRANCH   1  10
ATOM     10  C   UNL     1      14.061  24.368  14.035  1.00  0.00     0.111 C 
BRANCH  10  11
ATOM     11  C   UNL     1      15.234  23.760  14.756  1.00  0.00     0.163 C 
ATOM     12  O   UNL     1      15.123  22.577  15.178  1.00  0.00    -0.294 OA
BRANCH  11  13
ATOM     13  C   UNL     1      16.485  24.524  15.039  1.00  0.00    -0.002 C 
ATOM     14  C   UNL     1      17.701  24.049  14.632  1.00  0.00    -0.069 C 
ATOM     15  C   UNL     1      17.810  22.824  13.750  1.00  0.00     0.039 C 
ATOM     16  C   UNL     1      18.997  24.715  15.038  1.00  0.00     0.039 C 
BRANCH  13  17
ATOM     17  C   UNL     1      16.355  25.788  15.874  1.00  0.00     0.066 CG0
ATOM     18  G   UNL     1      16.579  27.044  15.055  1.00  0.00     0.000 G0
ENDBRANCH  13  17
ENDBRANCH  11  13
ENDBRANCH  10  11
ENDBRANCH   1  10
TORSDOF 0
ENDMDL
MODEL 4
REMARK VINA RESULT:    -3.348      1.937      3.956
REMARK INTER + INTRA:          -4.154
REMARK INTER:                  -4.424
REMARK INTRA:                   0.270
REMARK UNBOUND:                 0.564
REMARK SMILES CC1=CCC(=C(C)C)C(=O)CC(C)=CCC1
REMARK SMILES IDX 12 1 14 2 13 3 15 4 16 5 2 6 1 7 3 8 11 10 9 11 10 12 5 13
REMARK SMILES IDX 6 14 7 15 8 16 4 17
REMARK H PARENT
REMARK Flexibility Score: 60.00
ROOT
ATOM      1  C   UNL     1       4.899  26.975  15.714  1.00  0.00    -0.070 C 
ATOM      2  C   UNL     1       5.370  25.884  15.070  1.00  0.00    -0.027 C 
ATOM      3  C   UNL     1       3.405  27.175  15.763  1.00  0.00     0.039 C 
ENDROOT
BRANCH   2   4
ATOM      4  C   UNL     1       6.829  25.560  14.829  1.00  0.00     0.032 C 
BRANCH   4   5
ATOM      5  C   UNL     1       7.455  26.266  13.609  1.00  0.00     0.034 C 
BRANCH   5   6
ATOM      6  C   UNL     1       8.864  26.768  13.866  1.00  0.00    -0.077 C 
ATOM      7  C   UNL     1       9.948  25.740  14.067  1.00  0.00     0.039 C 
ATOM      8  C   UNL     1       9.198  28.076  13.995  1.00  0.00    -0.023 CG0
ATOM      9  G   UNL     1       8.287  29.274  13.816  1.00  0.00     0.000 G0
ENDBRANCH   5   6
ENDBRANCH   4   5
ENDBRANCH   2   4
BRANCH   1  10
ATOM     10  C   UNL     1       5.797  28.044  16.303  1.00  0.00     0.111 C 
BRANCH  10  11
ATOM     11  C   UNL     1       6.153  29.093  15.283  1.00  0.00     0.163 C 
ATOM     12  O   UNL     1       5.248  29.493  14.501  1.00  0.00    -0.294 OA
BRANCH  11  13
ATOM     13  C   UNL     1       7.541  29.622  15.129  1.00  0.00    -0.002 C 
ATOM     14  C   UNL     1       8.084  30.447  16.073  1.00  0.00    -0.069 C 
ATOM     15  C   UNL     1       7.367  30.726  17.376  1.00  0.00     0.039 C 
ATOM     16  C   UNL     1       9.421  31.124  15.872  1.00  0.00     0.039 C 
BRANCH  13  17
ATOM     17  C   UNL     1       8.275  29.282  13.841  1.00  0.00     0.066 CG0
ATOM     18  G   UNL     1       9.197  28.089  14.002  1.00  0.00     0.000 G0
ENDBRANCH  13  17
ENDBRANCH  11  13
ENDBRANCH  10  11
ENDBRANCH   1  10
TORSDOF 0
ENDMDL
MODEL 5
REMARK VINA RESULT:    -3.335      2.627      5.427
REMARK INTER + INTRA:          -4.136
REMARK INTER:                  -4.319
REMARK INTRA:                   0.183
REMARK UNBOUND:                 0.564
REMARK SMILES CC1=CCC(=C(C)C)C(=O)CC(C)=CCC1
REMARK SMILES IDX 12 1 14 2 13 3 15 4 16 5 2 6 1 7 3 8 11 10 9 11 10 12 5 13
REMARK SMILES IDX 6 14 7 15 8 16 4 17
REMARK H PARENT
REMARK Flexibility Score: 60.00
ROOT
ATOM      1  C   UNL     1       6.627  29.629  16.538  1.00  0.00    -0.070 C 
ATOM      2  C   UNL     1       7.685  30.471  16.545  1.00  0.00    -0.027 C 
ATOM      3  C   UNL     1       5.721  29.624  17.744  1.00  0.00     0.039 C 
ENDROOT
BRANCH   2   4
ATOM      4  C   UNL     1       8.756  30.553  15.480  1.00  0.00     0.032 C 
BRANCH   4   5
ATOM      5  C   UNL     1       9.776  29.395  15.498  1.00  0.00     0.034 C 
BRANCH   5   6
ATOM      6  C   UNL     1       9.932  28.715  14.151  1.00  0.00    -0.077 C 
ATOM      7  C   UNL     1      10.465  29.539  13.006  1.00  0.00     0.039 C 
ATOM      8  C   UNL     1       9.561  27.436  13.892  1.00  0.00    -0.023 CG0
ATOM      9  G   UNL     1       9.024  26.422  14.883  1.00  0.00     0.000 G0
ENDBRANCH   5   6
ENDBRANCH   4   5
ENDBRANCH   2   4
BRANCH   1  10
ATOM     10  C   UNL     1       6.364  28.634  15.426  1.00  0.00     0.111 C 
BRANCH  10  11
ATOM     11  C   UNL     1       6.774  27.241  15.819  1.00  0.00     0.163 C 
ATOM     12  O   UNL     1       6.539  26.863  16.999  1.00  0.00    -0.294 OA
BRANCH  11  13
ATOM     13  C   UNL     1       7.498  26.325  14.888  1.00  0.00    -0.002 C 
ATOM     14  C   UNL     1       6.817  25.404  14.143  1.00  0.00    -0.069 C 
ATOM     15  C   UNL     1       5.304  25.382  14.115  1.00  0.00     0.039 C 
ATOM     16  C   UNL     1       7.529  24.359  13.313  1.00  0.00     0.039 C 
BRANCH  13  17
ATOM     17  C   UNL     1       9.017  26.400  14.880  1.00  0.00     0.066 CG0
ATOM     18  G   UNL     1       9.537  27.437  13.904  1.00  0.00     0.000 G0
ENDBRANCH  13  17
ENDBRANCH  11  13
ENDBRANCH  10  11
ENDBRANCH   1  10
TORSDOF 0
ENDMDL
MODEL 6
REMARK VINA RESULT:    -3.261      1.858      2.370
REMARK INTER + INTRA:          -4.031
REMARK INTER:                  -4.556
REMARK INTRA:                   0.526
REMARK UNBOUND:                 0.564
REMARK SMILES CC1=CCC(=C(C)C)C(=O)CC(C)=CCC1
REMARK SMILES IDX 12 1 14 2 13 3 15 4 16 5 2 6 1 7 3 8 11 10 9 11 10 12 5 13
REMARK SMILES IDX 6 14 7 15 8 16 4 17
REMARK H PARENT
REMARK Flexibility Score: 60.00
ROOT
ATOM      1  C   UNL     1       7.486  25.824  14.304  1.00  0.00    -0.070 C 
ATOM      2  C   UNL     1       6.418  25.054  14.613  1.00  0.00    -0.027 C 
ATOM      3  C   UNL     1       8.856  25.204  14.410  1.00  0.00     0.039 C 
ENDROOT
BRANCH   2   4
ATOM      4  C   UNL     1       4.979  25.519  14.663  1.00  0.00     0.032 C 
BRANCH   4   5
ATOM      5  C   UNL     1       4.457  25.860  16.074  1.00  0.00     0.034 C 
BRANCH   5   6
ATOM      6  C   UNL     1       4.144  27.334  16.255  1.00  0.00    -0.077 C 
ATOM      7  C   UNL     1       2.733  27.790  15.981  1.00  0.00     0.039 C 
ATOM      8  C   UNL     1       5.062  28.277  16.579  1.00  0.00    -0.023 CG0
ATOM      9  G   UNL     1       6.523  28.052  16.917  1.00  0.00     0.000 G0
ENDBRANCH   5   6
ENDBRANCH   4   5
ENDBRANCH   2   4
BRANCH   1  10
ATOM     10  C   UNL     1       7.376  27.292  13.948  1.00  0.00     0.111 C 
BRANCH  10  11
ATOM     11  C   UNL     1       8.141  28.156  14.915  1.00  0.00     0.163 C 
ATOM     12  O   UNL     1       9.393  28.232  14.783  1.00  0.00    -0.294 OA
BRANCH  11  13
ATOM     13  C   UNL     1       7.480  28.868  16.050  1.00  0.00    -0.002 C 
ATOM     14  C   UNL     1       7.779  30.172  16.326  1.00  0.00    -0.069 C 
ATOM     15  C   UNL     1       8.664  30.986  15.407  1.00  0.00     0.039 C 
ATOM     16  C   UNL     1       7.250  30.872  17.558  1.00  0.00     0.039 C 
BRANCH  13  17
ATOM     17  C   UNL     1       6.544  28.054  16.930  1.00  0.00     0.066 CG0
ATOM     18  G   UNL     1       5.086  28.279  16.581  1.00  0.00     0.000 G0
ENDBRANCH  13  17
ENDBRANCH  11  13
ENDBRANCH  10  11
ENDBRANCH   1  10
TORSDOF 0
ENDMDL
MODEL 7
REMARK VINA RESULT:    -3.210      7.840     10.743
REMARK INTER + INTRA:          -3.959
REMARK INTER:                  -4.453
REMARK INTRA:                   0.493
REMARK UNBOUND:                 0.564
REMARK SMILES CC1=CCC(=C(C)C)C(=O)CC(C)=CCC1
REMARK SMILES IDX 12 1 14 2 13 3 15 4 16 5 2 6 1 7 3 8 11 10 9 11 10 12 5 13
REMARK SMILES IDX 6 14 7 15 8 16 4 17
REMARK H PARENT
REMARK Flexibility Score: 60.00
ROOT
ATOM      1  C   UNL     1      16.015  27.947  14.710  1.00  0.00    -0.070 C 
ATOM      2  C   UNL     1      17.046  27.148  15.063  1.00  0.00    -0.027 C 
ATOM      3  C   UNL     1      16.316  29.148  13.849  1.00  0.00     0.039 C 
ENDROOT
BRANCH   2   4
ATOM      4  C   UNL     1      16.964  25.959  15.996  1.00  0.00     0.032 C 
BRANCH   4   5
ATOM      5  C   UNL     1      17.440  24.624  15.386  1.00  0.00     0.034 C 
BRANCH   5   6
ATOM      6  C   UNL     1      16.689  24.243  14.123  1.00  0.00    -0.077 C 
ATOM      7  C   UNL     1      17.498  23.985  12.877  1.00  0.00     0.039 C 
ATOM      8  C   UNL     1      15.338  24.185  14.024  1.00  0.00    -0.023 CG0
ATOM      9  G   UNL     1      14.331  24.384  15.140  1.00  0.00     0.000 G0
ENDBRANCH   5   6
ENDBRANCH   4   5
ENDBRANCH   2   4
BRANCH   1  10
ATOM     10  C   UNL     1      14.599  27.746  15.210  1.00  0.00     0.111 C 
BRANCH  10  11
ATOM     11  C   UNL     1      13.833  26.787  14.339  1.00  0.00     0.163 C 
ATOM     12  O   UNL     1      13.580  27.134  13.153  1.00  0.00    -0.294 OA
BRANCH  11  13
ATOM     13  C   UNL     1      13.316  25.481  14.846  1.00  0.00    -0.002 C 
ATOM     14  C   UNL     1      11.985  25.311  15.107  1.00  0.00    -0.069 C 
ATOM     15  C   UNL     1      10.972  26.375  14.746  1.00  0.00     0.039 C 
ATOM     16  C   UNL     1      11.452  24.058  15.769  1.00  0.00     0.039 C 
BRANCH  13  17
ATOM     17  C   UNL     1      14.339  24.397  15.146  1.00  0.00     0.066 CG0
ATOM     18  G   UNL     1      15.334  24.216  14.016  1.00  0.00     0.000 G0
ENDBRANCH  13  17
ENDBRANCH  11  13
ENDBRANCH  10  11
ENDBRANCH   1  10
TORSDOF 0
ENDMDL
MODEL 8
REMARK VINA RESULT:    -3.160      2.625      4.898
REMARK INTER + INTRA:          -3.889
REMARK INTER:                  -4.106
REMARK INTRA:                   0.217
REMARK UNBOUND:                 0.564
REMARK SMILES CC1=CCC(=C(C)C)C(=O)CC(C)=CCC1
REMARK SMILES IDX 12 1 14 2 13 3 15 4 16 5 2 6 1 7 3 8 11 10 9 11 10 12 5 13
REMARK SMILES IDX 6 14 7 15 8 16 4 17
REMARK H PARENT
REMARK Flexibility Score: 60.00
ROOT
ATOM      1  C   UNL     1       7.784  26.440  14.832  1.00  0.00    -0.070 C 
ATOM      2  C   UNL     1       9.052  25.981  14.741  1.00  0.00    -0.027 C 
ATOM      3  C   UNL     1       7.010  26.130  16.088  1.00  0.00     0.039 C 
ENDROOT
BRANCH   2   4
ATOM      4  C   UNL     1       9.951  26.103  13.530  1.00  0.00     0.032 C 
BRANCH   4   5
ATOM      5  C   UNL     1      10.351  27.548  13.165  1.00  0.00     0.034 C 
BRANCH   5   6
ATOM      6  C   UNL     1      10.760  28.377  14.369  1.00  0.00    -0.077 C 
ATOM      7  C   UNL     1      12.023  27.987  15.093  1.00  0.00     0.039 C 
ATOM      8  C   UNL     1      10.028  29.400  14.877  1.00  0.00    -0.023 CG0
ATOM      9  G   UNL     1       8.746  29.976  14.309  1.00  0.00     0.000 G0
ENDBRANCH   5   6
ENDBRANCH   4   5
ENDBRANCH   2   4
BRANCH   1  10
ATOM     10  C   UNL     1       7.079  27.166  13.704  1.00  0.00     0.111 C 
BRANCH  10  11
ATOM     11  C   UNL     1       6.635  28.542  14.121  1.00  0.00     0.163 C 
ATOM     12  O   UNL     1       5.520  28.958  13.703  1.00  0.00    -0.294 OA
BRANCH  11  13
ATOM     13  C   UNL     1       7.489  29.443  14.950  1.00  0.00    -0.002 C 
ATOM     14  C   UNL     1       7.100  29.812  16.208  1.00  0.00    -0.069 C 
ATOM     15  C   UNL     1       5.880  29.201  16.863  1.00  0.00     0.039 C 
ATOM     16  C   UNL     1       7.860  30.845  17.011  1.00  0.00     0.039 C 
BRANCH  13  17
ATOM     17  C   UNL     1       8.746  30.002  14.302  1.00  0.00     0.066 CG0
ATOM     18  G   UNL     1      10.009  29.398  14.882  1.00  0.00     0.000 G0
ENDBRANCH  13  17
ENDBRANCH  11  13
ENDBRANCH  10  11
ENDBRANCH   1  10
TORSDOF 0
ENDMDL
MODEL 9
REMARK VINA RESULT:    -3.092     16.075     18.363
REMARK INTER + INTRA:          -3.793
REMARK INTER:                  -4.169
REMARK INTRA:                   0.376
REMARK UNBOUND:                 0.564
REMARK SMILES CC1=CCC(=C(C)C)C(=O)CC(C)=CCC1
REMARK SMILES IDX 12 1 14 2 13 3 15 4 16 5 2 6 1 7 3 8 11 10 9 11 10 12 5 13
REMARK SMILES IDX 6 14 7 15 8 16 4 17
REMARK H PARENT
REMARK Flexibility Score: 60.00
ROOT
ATOM      1  C   UNL     1      15.165  12.903  15.374  1.00  0.00    -0.070 C 
ATOM      2  C   UNL     1      15.609  11.812  14.710  1.00  0.00    -0.027 C 
ATOM      3  C   UNL     1      13.675  13.073  15.533  1.00  0.00     0.039 C 
ENDROOT
BRANCH   2   4
ATOM      4  C   UNL     1      17.053  11.516  14.365  1.00  0.00     0.032 C 
BRANCH   4   5
ATOM      5  C   UNL     1      17.524  12.084  13.010  1.00  0.00     0.034 C 
BRANCH   5   6
ATOM      6  C   UNL     1      18.685  13.052  13.140  1.00  0.00    -0.077 C 
ATOM      7  C   UNL     1      20.068  12.471  13.299  1.00  0.00     0.039 C 
ATOM      8  C   UNL     1      18.555  14.401  13.191  1.00  0.00    -0.023 CG0
ATOM      9  G   UNL     1      17.278  15.202  13.034  1.00  0.00     0.000 G0
ENDBRANCH   5   6
ENDBRANCH   4   5
ENDBRANCH   2   4
BRANCH   1  10
ATOM     10  C   UNL     1      16.081  13.998  15.881  1.00  0.00     0.111 C 
BRANCH  10  11
ATOM     11  C   UNL     1      15.848  15.296  15.157  1.00  0.00     0.163 C 
ATOM     12  O   UNL     1      14.705  15.823  15.234  1.00  0.00    -0.294 OA
BRANCH  11  13
ATOM     13  C   UNL     1      16.895  15.941  14.309  1.00  0.00    -0.002 C 
ATOM     14  C   UNL     1      17.409  17.162  14.641  1.00  0.00    -0.069 C 
ATOM     15  C   UNL     1      17.058  17.832  15.952  1.00  0.00     0.039 C 
ATOM     16  C   UNL     1      18.351  17.912  13.723  1.00  0.00     0.039 C 
BRANCH  13  17
ATOM     17  C   UNL     1      17.285  15.227  13.024  1.00  0.00     0.066 CG0
ATOM     18  G   UNL     1      18.543  14.398  13.186  1.00  0.00     0.000 G0
ENDBRANCH  13  17
ENDBRANCH  11  13
ENDBRANCH  10  11
ENDBRANCH   1  10
TORSDOF 0
ENDMDL
