MODEL 1
REMARK VINA RESULT:    -7.306      0.000      0.000
REMARK INTER + INTRA:         -11.585
REMARK INTER:                 -10.723
REMARK INTRA:                  -0.862
REMARK UNBOUND:                -0.862
REMARK SMILES Cc1cc2c(C(C)C)c(O)c(O)c(C=O)c2c(O)c1-c1c(C)cc2c(C(C)C)c(O)c(O)c(C=O)c2c1O
REMARK SMILES IDX 1 1 2 2 3 3 4 4 16 5 13 6 11 7 9 8 5 9 17 10 19 11 20 12
REMARK SMILES IDX 37 13 21 14 36 15 23 16 22 17 24 18 33 19 25 20 31 21 29 22
REMARK SMILES IDX 38 23 34 25 35 26 26 27 27 28 28 29 32 30 30 32 18 34 6 36
REMARK SMILES IDX 7 37 8 38 14 39 15 40 10 41 12 43
REMARK H PARENT 38 24 32 31 30 33 18 35 10 42 12 44
REMARK Flexibility Score: inf
ROOT
ATOM      1  C   UNL     1      21.839  -7.888 126.030  1.00  0.00     0.045 C 
ATOM      2  C   UNL     1      22.514  -6.567 125.751  1.00  0.00    -0.039 A 
ATOM      3  C   UNL     1      23.749  -6.553 125.101  1.00  0.00     0.013 A 
ATOM      4  C   UNL     1      24.420  -5.346 124.805  1.00  0.00    -0.006 A 
ATOM      5  C   UNL     1      23.885  -4.127 125.310  1.00  0.00     0.039 A 
ATOM      6  C   UNL     1      24.674  -2.944 125.236  1.00  0.00     0.072 A 
ATOM      7  C   UNL     1      25.936  -2.973 124.610  1.00  0.00     0.169 A 
ATOM      8  C   UNL     1      26.418  -4.166 124.035  1.00  0.00     0.162 A 
ATOM      9  C   UNL     1      25.626  -5.337 124.041  1.00  0.00     0.008 A 
ATOM     10  C   UNL     1      22.565  -4.132 125.850  1.00  0.00     0.132 A 
ATOM     11  C   UNL     1      21.894  -5.351 126.084  1.00  0.00     0.031 A 
ENDROOT
BRANCH  11  12
ATOM     12  C   UNL     1      20.536  -5.353 126.688  1.00  0.00     0.031 A 
ATOM     13  C   UNL     1      20.365  -5.684 128.048  1.00  0.00     0.132 A 
ATOM     14  C   UNL     1      19.426  -4.987 125.908  1.00  0.00    -0.039 A 
ATOM     15  C   UNL     1      19.062  -5.726 128.623  1.00  0.00     0.039 A 
ATOM     16  C   UNL     1      18.160  -4.932 126.495  1.00  0.00     0.013 A 
ATOM     17  C   UNL     1      19.587  -4.615 124.454  1.00  0.00     0.045 C 
ATOM     18  C   UNL     1      17.943  -5.312 127.839  1.00  0.00    -0.006 A 
ATOM     19  C   UNL     1      18.844  -6.119 129.974  1.00  0.00     0.072 A 
ATOM     20  C   UNL     1      16.642  -5.244 128.430  1.00  0.00     0.008 A 
ATOM     21  C   UNL     1      17.606  -5.875 130.585  1.00  0.00     0.169 A 
ATOM     22  C   UNL     1      16.533  -5.364 129.833  1.00  0.00     0.162 A 
BRANCH  13  23
ATOM     23  O   UNL     1      21.492  -5.919 128.844  1.00  0.00    -0.507 OA
ATOM     24  H   UNL     1      22.235  -6.562 128.597  1.00  0.00     0.293 HD
ENDBRANCH  13  23
BRANCH  19  25
ATOM     25  C   UNL     1      19.847  -6.861 130.772  1.00  0.00     0.264 C 
ATOM     26  O   UNL     1      20.369  -6.341 131.794  1.00  0.00    -0.298 OA
ENDBRANCH  19  25
BRANCH  20  27
ATOM     27  C   UNL     1      15.382  -4.979 127.586  1.00  0.00     0.017 C 
ATOM     28  C   UNL     1      15.401  -5.811 126.299  1.00  0.00     0.012 C 
ATOM     29  C   UNL     1      15.135  -3.489 127.282  1.00  0.00     0.012 C 
ENDBRANCH  20  27
BRANCH  21  30
ATOM     30  O   UNL     1      17.452  -6.199 131.939  1.00  0.00    -0.504 OA
ATOM     31  H   UNL     1      18.221  -6.320 132.583  1.00  0.00     0.293 HD
ENDBRANCH  21  30
BRANCH  22  32
ATOM     32  O   UNL     1      15.353  -4.959 130.463  1.00  0.00    -0.504 OA
ATOM     33  H   UNL     1      15.043  -5.305 131.360  1.00  0.00     0.293 HD
ENDBRANCH  22  32
ENDBRANCH  11  12
BRANCH  10  34
ATOM     34  O   UNL     1      21.905  -2.925 126.110  1.00  0.00    -0.507 OA
ATOM     35  H   UNL     1      20.931  -2.757 125.896  1.00  0.00     0.293 HD
ENDBRANCH  10  34
BRANCH   9  36
ATOM     36  C   UNL     1      26.079  -6.573 123.243  1.00  0.00     0.017 C 
ATOM     37  C   UNL     1      27.278  -7.251 123.914  1.00  0.00     0.012 C 
ATOM     38  C   UNL     1      26.356  -6.285 121.756  1.00  0.00     0.012 C 
ENDBRANCH   9  36
BRANCH   6  39
ATOM     39  C   UNL     1      24.278  -1.693 125.928  1.00  0.00     0.264 C 
ATOM     40  O   UNL     1      23.857  -0.699 125.280  1.00  0.00    -0.298 OA
ENDBRANCH   6  39
BRANCH   8  41
ATOM     41  O   UNL     1      27.701  -4.229 123.482  1.00  0.00    -0.504 OA
ATOM     42  H   UNL     1      28.543  -4.453 123.990  1.00  0.00     0.293 HD
ENDBRANCH   8  41
BRANCH   7  43
ATOM     43  O   UNL     1      26.690  -1.794 124.587  1.00  0.00    -0.504 OA
ATOM     44  H   UNL     1      26.348  -0.893 124.290  1.00  0.00     0.293 HD
ENDBRANCH   7  43
TORSDOF 11
ENDMDL
MODEL 2
REMARK VINA RESULT:    -7.111      1.123      9.107
REMARK INTER + INTRA:         -11.299
REMARK INTER:                 -10.708
REMARK INTRA:                  -0.591
REMARK UNBOUND:                -0.862
REMARK SMILES Cc1cc2c(C(C)C)c(O)c(O)c(C=O)c2c(O)c1-c1c(C)cc2c(C(C)C)c(O)c(O)c(C=O)c2c1O
REMARK SMILES IDX 1 1 2 2 3 3 4 4 16 5 13 6 11 7 9 8 5 9 17 10 19 11 20 12
REMARK SMILES IDX 37 13 21 14 36 15 23 16 22 17 24 18 33 19 25 20 31 21 29 22
REMARK SMILES IDX 38 23 34 25 35 26 26 27 27 28 28 29 32 30 30 32 18 34 6 36
REMARK SMILES IDX 7 37 8 38 14 39 15 40 10 41 12 43
REMARK H PARENT 38 24 32 31 30 33 18 35 10 42 12 44
REMARK Flexibility Score: inf
ROOT
ATOM      1  C   UNL     1      19.214  -4.948 124.767  1.00  0.00     0.045 C 
ATOM      2  C   UNL     1      19.005  -5.282 126.224  1.00  0.00    -0.039 A 
ATOM      3  C   UNL     1      17.752  -5.068 126.802  1.00  0.00     0.013 A 
ATOM      4  C   UNL     1      17.498  -5.372 128.158  1.00  0.00    -0.006 A 
ATOM      5  C   UNL     1      18.587  -5.773 128.983  1.00  0.00     0.039 A 
ATOM      6  C   UNL     1      18.396  -5.839 130.392  1.00  0.00     0.072 A 
ATOM      7  C   UNL     1      17.128  -5.576 130.948  1.00  0.00     0.169 A 
ATOM      8  C   UNL     1      16.035  -5.265 130.115  1.00  0.00     0.162 A 
ATOM      9  C   UNL     1      16.186  -5.256 128.709  1.00  0.00     0.008 A 
ATOM     10  C   UNL     1      19.823  -6.120 128.362  1.00  0.00     0.132 A 
ATOM     11  C   UNL     1      20.032  -5.856 126.992  1.00  0.00     0.031 A 
ENDROOT
BRANCH  11  12
ATOM     12  C   UNL     1      21.338  -6.177 126.360  1.00  0.00     0.031 A 
ATOM     13  C   UNL     1      22.221  -5.142 125.990  1.00  0.00     0.132 A 
ATOM     14  C   UNL     1      21.707  -7.519 126.166  1.00  0.00    -0.039 A 
ATOM     15  C   UNL     1      23.457  -5.442 125.348  1.00  0.00     0.039 A 
ATOM     16  C   UNL     1      22.960  -7.818 125.627  1.00  0.00     0.013 A 
ATOM     17  C   UNL     1      20.784  -8.644 126.566  1.00  0.00     0.045 C 
ATOM     18  C   UNL     1      23.846  -6.807 125.192  1.00  0.00    -0.006 A 
ATOM     19  C   UNL     1      24.344  -4.422 124.901  1.00  0.00     0.072 A 
ATOM     20  C   UNL     1      25.130  -7.127 124.648  1.00  0.00     0.008 A 
ATOM     21  C   UNL     1      25.661  -4.744 124.543  1.00  0.00     0.169 A 
ATOM     22  C   UNL     1      26.075  -6.087 124.495  1.00  0.00     0.162 A 
BRANCH  13  23
ATOM     23  O   UNL     1      21.898  -3.818 126.308  1.00  0.00    -0.507 OA
ATOM     24  H   UNL     1      21.426  -3.540 127.159  1.00  0.00     0.293 HD
ENDBRANCH  13  23
BRANCH  19  25
ATOM     25  C   UNL     1      23.927  -3.013 124.713  1.00  0.00     0.264 C 
ATOM     26  O   UNL     1      24.294  -2.119 125.522  1.00  0.00    -0.298 OA
ENDBRANCH  19  25
BRANCH  20  27
ATOM     27  C   UNL     1      25.523  -8.573 124.295  1.00  0.00     0.017 C 
ATOM     28  C   UNL     1      26.543  -9.122 125.298  1.00  0.00     0.012 C 
ATOM     29  C   UNL     1      26.016  -8.751 122.846  1.00  0.00     0.012 C 
ENDBRANCH  20  27
BRANCH  21  30
ATOM     30  O   UNL     1      26.531  -3.705 124.188  1.00  0.00    -0.504 OA
ATOM     31  H   UNL     1      26.360  -2.730 124.387  1.00  0.00     0.293 HD
ENDBRANCH  21  30
BRANCH  22  32
ATOM     32  O   UNL     1      27.421  -6.410 124.306  1.00  0.00    -0.504 OA
ATOM     33  H   UNL     1      28.161  -6.137 124.936  1.00  0.00     0.293 HD
ENDBRANCH  22  32
ENDBRANCH  11  12
BRANCH  10  34
ATOM     34  O   UNL     1      20.824  -6.765 129.097  1.00  0.00    -0.507 OA
ATOM     35  H   UNL     1      21.812  -6.683 128.897  1.00  0.00     0.293 HD
ENDBRANCH  10  34
BRANCH   9  36
ATOM     36  C   UNL     1      14.948  -5.108 127.806  1.00  0.00     0.017 C 
ATOM     37  C   UNL     1      14.882  -6.238 126.774  1.00  0.00     0.012 C 
ATOM     38  C   UNL     1      14.830  -3.727 127.133  1.00  0.00     0.012 C 
ENDBRANCH   9  36
BRANCH   6  39
ATOM     39  C   UNL     1      19.530  -6.038 131.328  1.00  0.00     0.264 C 
ATOM     40  O   UNL     1      19.782  -7.174 131.810  1.00  0.00    -0.298 OA
ENDBRANCH   6  39
BRANCH   8  41
ATOM     41  O   UNL     1      14.793  -4.924 130.657  1.00  0.00    -0.504 OA
ATOM     42  H   UNL     1      13.898  -5.188 130.272  1.00  0.00     0.293 HD
ENDBRANCH   8  41
BRANCH   7  43
ATOM     43  O   UNL     1      16.994  -5.622 132.341  1.00  0.00    -0.504 OA
ATOM     44  H   UNL     1      17.032  -4.822 132.954  1.00  0.00     0.293 HD
ENDBRANCH   7  43
TORSDOF 11
ENDMDL
MODEL 3
REMARK VINA RESULT:    -7.001      1.793      3.096
REMARK INTER + INTRA:         -11.138
REMARK INTER:                 -10.393
REMARK INTRA:                  -0.745
REMARK UNBOUND:                -0.862
REMARK SMILES Cc1cc2c(C(C)C)c(O)c(O)c(C=O)c2c(O)c1-c1c(C)cc2c(C(C)C)c(O)c(O)c(C=O)c2c1O
REMARK SMILES IDX 1 1 2 2 3 3 4 4 16 5 13 6 11 7 9 8 5 9 17 10 19 11 20 12
REMARK SMILES IDX 37 13 21 14 36 15 23 16 22 17 24 18 33 19 25 20 31 21 29 22
REMARK SMILES IDX 38 23 34 25 35 26 26 27 27 28 28 29 32 30 30 32 18 34 6 36
REMARK SMILES IDX 7 37 8 38 14 39 15 40 10 41 12 43
REMARK H PARENT 38 24 32 31 30 33 18 35 10 42 12 44
REMARK Flexibility Score: inf
ROOT
ATOM      1  C   UNL     1      22.887  -8.368 125.795  1.00  0.00     0.045 C 
ATOM      2  C   UNL     1      23.343  -6.935 125.669  1.00  0.00    -0.039 A 
ATOM      3  C   UNL     1      24.407  -6.626 124.820  1.00  0.00     0.013 A 
ATOM      4  C   UNL     1      24.868  -5.302 124.656  1.00  0.00    -0.006 A 
ATOM      5  C   UNL     1      24.323  -4.282 125.487  1.00  0.00     0.039 A 
ATOM      6  C   UNL     1      24.948  -3.003 125.510  1.00  0.00     0.072 A 
ATOM      7  C   UNL     1      26.047  -2.738 124.670  1.00  0.00     0.169 A 
ATOM      8  C   UNL     1      26.524  -3.726 123.787  1.00  0.00     0.162 A 
ATOM      9  C   UNL     1      25.880  -4.982 123.702  1.00  0.00     0.008 A 
ATOM     10  C   UNL     1      23.152  -4.574 126.248  1.00  0.00     0.132 A 
ATOM     11  C   UNL     1      22.679  -5.899 126.349  1.00  0.00     0.031 A 
ENDROOT
BRANCH  11  12
ATOM     12  C   UNL     1      21.485  -6.206 127.179  1.00  0.00     0.031 A 
ATOM     13  C   UNL     1      20.189  -6.054 126.643  1.00  0.00     0.132 A 
ATOM     14  C   UNL     1      21.652  -6.686 128.490  1.00  0.00    -0.039 A 
ATOM     15  C   UNL     1      19.040  -6.309 127.446  1.00  0.00     0.039 A 
ATOM     16  C   UNL     1      20.529  -7.030 129.245  1.00  0.00     0.013 A 
ATOM     17  C   UNL     1      23.028  -6.870 129.080  1.00  0.00     0.045 C 
ATOM     18  C   UNL     1      19.215  -6.836 128.761  1.00  0.00    -0.006 A 
ATOM     19  C   UNL     1      17.718  -6.103 126.960  1.00  0.00     0.072 A 
ATOM     20  C   UNL     1      18.074  -7.200 129.543  1.00  0.00     0.008 A 
ATOM     21  C   UNL     1      16.623  -6.630 127.660  1.00  0.00     0.169 A 
ATOM     22  C   UNL     1      16.811  -7.248 128.910  1.00  0.00     0.162 A 
BRANCH  13  23
ATOM     23  O   UNL     1      20.042  -5.701 125.297  1.00  0.00    -0.507 OA
ATOM     24  H   UNL     1      19.591  -4.851 124.981  1.00  0.00     0.293 HD
ENDBRANCH  13  23
BRANCH  19  25
ATOM     25  C   UNL     1      17.413  -5.278 125.769  1.00  0.00     0.264 C 
ATOM     26  O   UNL     1      17.817  -4.087 125.689  1.00  0.00    -0.298 OA
ENDBRANCH  19  25
BRANCH  20  27
ATOM     27  C   UNL     1      18.200  -7.602 131.023  1.00  0.00     0.017 C 
ATOM     28  C   UNL     1      17.411  -8.884 131.311  1.00  0.00     0.012 C 
ATOM     29  C   UNL     1      17.820  -6.481 132.010  1.00  0.00     0.012 C 
ENDBRANCH  20  27
BRANCH  21  30
ATOM     30  O   UNL     1      15.343  -6.481 127.111  1.00  0.00    -0.504 OA
ATOM     31  H   UNL     1      15.158  -6.391 126.123  1.00  0.00     0.293 HD
ENDBRANCH  21  30
BRANCH  22  32
ATOM     32  O   UNL     1      15.759  -7.923 129.534  1.00  0.00    -0.504 OA
ATOM     33  H   UNL     1      15.292  -8.727 129.141  1.00  0.00     0.293 HD
ENDBRANCH  22  32
ENDBRANCH  11  12
BRANCH  10  34
ATOM     34  O   UNL     1      22.435  -3.541 126.864  1.00  0.00    -0.507 OA
ATOM     35  H   UNL     1      22.176  -2.680 126.401  1.00  0.00     0.293 HD
ENDBRANCH  10  34
BRANCH   9  36
ATOM     36  C   UNL     1      26.287  -5.979 122.601  1.00  0.00     0.017 C 
ATOM     37  C   UNL     1      27.670  -6.576 122.883  1.00  0.00     0.012 C 
ATOM     38  C   UNL     1      26.206  -5.398 121.176  1.00  0.00     0.012 C 
ENDBRANCH   9  36
BRANCH   6  39
ATOM     39  C   UNL     1      24.572  -1.965 126.502  1.00  0.00     0.264 C 
ATOM     40  O   UNL     1      23.882  -0.967 126.167  1.00  0.00    -0.298 OA
ENDBRANCH   6  39
BRANCH   8  41
ATOM     41  O   UNL     1      27.663  -3.504 123.007  1.00  0.00    -0.504 OA
ATOM     42  H   UNL     1      27.893  -2.635 122.549  1.00  0.00     0.293 HD
ENDBRANCH   8  41
BRANCH   7  43
ATOM     43  O   UNL     1      26.649  -1.476 124.748  1.00  0.00    -0.504 OA
ATOM     44  H   UNL     1      26.623  -0.870 125.554  1.00  0.00     0.293 HD
ENDBRANCH   7  43
TORSDOF 11
ENDMDL
MODEL 4
REMARK VINA RESULT:    -6.928      2.356      4.585
REMARK INTER + INTRA:         -11.030
REMARK INTER:                  -9.897
REMARK INTRA:                  -1.133
REMARK UNBOUND:                -0.862
REMARK SMILES Cc1cc2c(C(C)C)c(O)c(O)c(C=O)c2c(O)c1-c1c(C)cc2c(C(C)C)c(O)c(O)c(C=O)c2c1O
REMARK SMILES IDX 1 1 2 2 3 3 4 4 16 5 13 6 11 7 9 8 5 9 17 10 19 11 20 12
REMARK SMILES IDX 37 13 21 14 36 15 23 16 22 17 24 18 33 19 25 20 31 21 29 22
REMARK SMILES IDX 38 23 34 25 35 26 26 27 27 28 28 29 32 30 30 32 18 34 6 36
REMARK SMILES IDX 7 37 8 38 14 39 15 40 10 41 12 43
REMARK H PARENT 38 24 32 31 30 33 18 35 10 42 12 44
REMARK Flexibility Score: inf
ROOT
ATOM      1  C   UNL     1      24.110  -1.193 126.535  1.00  0.00     0.045 C 
ATOM      2  C   UNL     1      24.980  -1.948 125.560  1.00  0.00    -0.039 A 
ATOM      3  C   UNL     1      26.179  -1.379 125.129  1.00  0.00     0.013 A 
ATOM      4  C   UNL     1      27.036  -2.045 124.226  1.00  0.00    -0.006 A 
ATOM      5  C   UNL     1      26.592  -3.263 123.637  1.00  0.00     0.039 A 
ATOM      6  C   UNL     1      27.328  -3.811 122.548  1.00  0.00     0.072 A 
ATOM      7  C   UNL     1      28.512  -3.188 122.109  1.00  0.00     0.169 A 
ATOM      8  C   UNL     1      28.990  -2.031 122.756  1.00  0.00     0.162 A 
ATOM      9  C   UNL     1      28.311  -1.505 123.879  1.00  0.00     0.008 A 
ATOM     10  C   UNL     1      25.439  -3.904 124.179  1.00  0.00     0.132 A 
ATOM     11  C   UNL     1      24.630  -3.238 125.123  1.00  0.00     0.031 A 
ENDROOT
BRANCH  11  12
ATOM     12  C   UNL     1      23.405  -3.891 125.652  1.00  0.00     0.031 A 
ATOM     13  C   UNL     1      23.484  -4.750 126.768  1.00  0.00     0.132 A 
ATOM     14  C   UNL     1      22.159  -3.620 125.060  1.00  0.00    -0.039 A 
ATOM     15  C   UNL     1      22.318  -5.410 127.255  1.00  0.00     0.039 A 
ATOM     16  C   UNL     1      21.003  -4.188 125.598  1.00  0.00     0.013 A 
ATOM     17  C   UNL     1      22.049  -2.692 123.875  1.00  0.00     0.045 C 
ATOM     18  C   UNL     1      21.050  -5.099 126.678  1.00  0.00    -0.006 A 
ATOM     19  C   UNL     1      22.370  -6.335 128.337  1.00  0.00     0.072 A 
ATOM     20  C   UNL     1      19.857  -5.668 127.224  1.00  0.00     0.008 A 
ATOM     21  C   UNL     1      21.187  -6.739 128.972  1.00  0.00     0.169 A 
ATOM     22  C   UNL     1      19.938  -6.340 128.464  1.00  0.00     0.162 A 
BRANCH  13  23
ATOM     23  O   UNL     1      24.708  -4.909 127.426  1.00  0.00    -0.507 OA
ATOM     24  H   UNL     1      25.452  -5.513 127.100  1.00  0.00     0.293 HD
ENDBRANCH  13  23
BRANCH  19  25
ATOM     25  C   UNL     1      23.626  -6.973 128.795  1.00  0.00     0.264 C 
ATOM     26  O   UNL     1      23.792  -8.217 128.688  1.00  0.00    -0.298 OA
ENDBRANCH  19  25
BRANCH  20  27
ATOM     27  C   UNL     1      18.492  -5.506 126.531  1.00  0.00     0.017 C 
ATOM     28  C   UNL     1      17.707  -4.338 127.136  1.00  0.00     0.012 C 
ATOM     29  C   UNL     1      17.645  -6.793 126.509  1.00  0.00     0.012 C 
ENDBRANCH  20  27
BRANCH  21  30
ATOM     30  O   UNL     1      21.280  -7.584 130.085  1.00  0.00    -0.504 OA
ATOM     31  H   UNL     1      22.090  -8.148 130.301  1.00  0.00     0.293 HD
ENDBRANCH  21  30
BRANCH  22  32
ATOM     32  O   UNL     1      18.766  -6.593 129.181  1.00  0.00    -0.504 OA
ATOM     33  H   UNL     1      18.009  -7.170 128.843  1.00  0.00     0.293 HD
ENDBRANCH  22  32
ENDBRANCH  11  12
BRANCH  10  34
ATOM     34  O   UNL     1      25.125  -5.219 123.813  1.00  0.00    -0.507 OA
ATOM     35  H   UNL     1      25.479  -6.037 124.291  1.00  0.00     0.293 HD
ENDBRANCH  10  34
BRANCH   9  36
ATOM     36  C   UNL     1      28.945  -0.362 124.694  1.00  0.00     0.017 C 
ATOM     37  C   UNL     1      29.047  -0.734 126.176  1.00  0.00     0.012 C 
ATOM     38  C   UNL     1      28.248   0.998 124.503  1.00  0.00     0.012 C 
ENDBRANCH   9  36
BRANCH   6  39
ATOM     39  C   UNL     1      26.813  -4.951 121.749  1.00  0.00     0.264 C 
ATOM     40  O   UNL     1      27.174  -6.132 121.996  1.00  0.00    -0.298 OA
ENDBRANCH   6  39
BRANCH   8  41
ATOM     41  O   UNL     1      30.120  -1.357 122.282  1.00  0.00    -0.504 OA
ATOM     42  H   UNL     1      30.533  -0.542 122.709  1.00  0.00     0.293 HD
ENDBRANCH   8  41
BRANCH   7  43
ATOM     43  O   UNL     1      29.186  -3.743 121.015  1.00  0.00    -0.504 OA
ATOM     44  H   UNL     1      28.826  -4.477 120.425  1.00  0.00     0.293 HD
ENDBRANCH   7  43
TORSDOF 11
ENDMDL
MODEL 5
REMARK VINA RESULT:    -6.907      1.418      8.982
REMARK INTER + INTRA:         -11.000
REMARK INTER:                 -10.902
REMARK INTRA:                  -0.098
REMARK UNBOUND:                -0.862
REMARK SMILES Cc1cc2c(C(C)C)c(O)c(O)c(C=O)c2c(O)c1-c1c(C)cc2c(C(C)C)c(O)c(O)c(C=O)c2c1O
REMARK SMILES IDX 1 1 2 2 3 3 4 4 16 5 13 6 11 7 9 8 5 9 17 10 19 11 20 12
REMARK SMILES IDX 37 13 21 14 36 15 23 16 22 17 24 18 33 19 25 20 31 21 29 22
REMARK SMILES IDX 38 23 34 25 35 26 26 27 27 28 28 29 32 30 30 32 18 34 6 36
REMARK SMILES IDX 7 37 8 38 14 39 15 40 10 41 12 43
REMARK H PARENT 38 24 32 31 30 33 18 35 10 42 12 44
REMARK Flexibility Score: inf
ROOT
ATOM      1  C   UNL     1      22.758  -7.371 128.917  1.00  0.00     0.045 C 
ATOM      2  C   UNL     1      21.418  -6.759 128.590  1.00  0.00    -0.039 A 
ATOM      3  C   UNL     1      20.360  -6.906 129.489  1.00  0.00     0.013 A 
ATOM      4  C   UNL     1      19.088  -6.345 129.238  1.00  0.00    -0.006 A 
ATOM      5  C   UNL     1      18.847  -5.738 127.973  1.00  0.00     0.039 A 
ATOM      6  C   UNL     1      17.512  -5.397 127.615  1.00  0.00     0.072 A 
ATOM      7  C   UNL     1      16.461  -5.598 128.530  1.00  0.00     0.169 A 
ATOM      8  C   UNL     1      16.722  -6.118 129.813  1.00  0.00     0.162 A 
ATOM      9  C   UNL     1      18.047  -6.406 130.213  1.00  0.00     0.008 A 
ATOM     10  C   UNL     1      19.959  -5.470 127.121  1.00  0.00     0.132 A 
ATOM     11  C   UNL     1      21.233  -5.996 127.424  1.00  0.00     0.031 A 
ENDROOT
BRANCH  11  12
ATOM     12  C   UNL     1      22.379  -5.752 126.510  1.00  0.00     0.031 A 
ATOM     13  C   UNL     1      22.994  -4.483 126.465  1.00  0.00     0.132 A 
ATOM     14  C   UNL     1      22.875  -6.802 125.718  1.00  0.00    -0.039 A 
ATOM     15  C   UNL     1      24.068  -4.233 125.563  1.00  0.00     0.039 A 
ATOM     16  C   UNL     1      23.990  -6.585 124.906  1.00  0.00     0.013 A 
ATOM     17  C   UNL     1      22.242  -8.171 125.760  1.00  0.00     0.045 C 
ATOM     18  C   UNL     1      24.595  -5.312 124.792  1.00  0.00    -0.006 A 
ATOM     19  C   UNL     1      24.669  -2.948 125.443  1.00  0.00     0.072 A 
ATOM     20  C   UNL     1      25.742  -5.106 123.962  1.00  0.00     0.008 A 
ATOM     21  C   UNL     1      25.893  -2.805 124.772  1.00  0.00     0.169 A 
ATOM     22  C   UNL     1      26.466  -3.901 124.102  1.00  0.00     0.162 A 
BRANCH  13  23
ATOM     23  O   UNL     1      22.575  -3.486 127.353  1.00  0.00    -0.507 OA
ATOM     24  H   UNL     1      21.871  -3.624 128.068  1.00  0.00     0.293 HD
ENDBRANCH  13  23
BRANCH  19  25
ATOM     25  C   UNL     1      24.027  -1.705 125.929  1.00  0.00     0.264 C 
ATOM     26  O   UNL     1      23.581  -0.850 125.118  1.00  0.00    -0.298 OA
ENDBRANCH  19  25
BRANCH  20  27
ATOM     27  C   UNL     1      26.235  -6.184 122.980  1.00  0.00     0.017 C 
ATOM     28  C   UNL     1      27.511  -6.854 123.502  1.00  0.00     0.012 C 
ATOM     29  C   UNL     1      26.423  -5.677 121.537  1.00  0.00     0.012 C 
ENDBRANCH  20  27
BRANCH  21  30
ATOM     30  O   UNL     1      26.497  -1.542 124.744  1.00  0.00    -0.504 OA
ATOM     31  H   UNL     1      27.398  -1.355 124.328  1.00  0.00     0.293 HD
ENDBRANCH  21  30
BRANCH  22  32
ATOM     32  O   UNL     1      27.758  -3.817 123.578  1.00  0.00    -0.504 OA
ATOM     33  H   UNL     1      28.582  -4.167 124.045  1.00  0.00     0.293 HD
ENDBRANCH  22  32
ENDBRANCH  11  12
BRANCH  10  34
ATOM     34  O   UNL     1      19.806  -4.645 126.000  1.00  0.00    -0.507 OA
ATOM     35  H   UNL     1      19.332  -3.752 126.018  1.00  0.00     0.293 HD
ENDBRANCH  10  34
BRANCH   9  36
ATOM     36  C   UNL     1      18.341  -6.788 131.676  1.00  0.00     0.017 C 
ATOM     37  C   UNL     1      19.747  -6.343 132.089  1.00  0.00     0.012 C 
ATOM     38  C   UNL     1      18.110  -8.279 131.987  1.00  0.00     0.012 C 
ENDBRANCH   9  36
BRANCH   6  39
ATOM     39  C   UNL     1      17.157  -4.963 126.241  1.00  0.00     0.264 C 
ATOM     40  O   UNL     1      16.178  -5.472 125.633  1.00  0.00    -0.298 OA
ENDBRANCH   6  39
BRANCH   8  41
ATOM     41  O   UNL     1      15.679  -6.398 130.701  1.00  0.00    -0.504 OA
ATOM     42  H   UNL     1      15.369  -7.321 130.962  1.00  0.00     0.293 HD
ENDBRANCH   8  41
BRANCH   7  43
ATOM     43  O   UNL     1      15.160  -5.276 128.124  1.00  0.00    -0.504 OA
ATOM     44  H   UNL     1      14.377  -5.139 128.745  1.00  0.00     0.293 HD
ENDBRANCH   7  43
TORSDOF 11
ENDMDL
MODEL 6
REMARK VINA RESULT:    -6.739      2.461      5.135
REMARK INTER + INTRA:         -10.753
REMARK INTER:                  -9.702
REMARK INTRA:                  -1.051
REMARK UNBOUND:                -0.862
REMARK SMILES Cc1cc2c(C(C)C)c(O)c(O)c(C=O)c2c(O)c1-c1c(C)cc2c(C(C)C)c(O)c(O)c(C=O)c2c1O
REMARK SMILES IDX 1 1 2 2 3 3 4 4 16 5 13 6 11 7 9 8 5 9 17 10 19 11 20 12
REMARK SMILES IDX 37 13 21 14 36 15 23 16 22 17 24 18 33 19 25 20 31 21 29 22
REMARK SMILES IDX 38 23 34 25 35 26 26 27 27 28 28 29 32 30 30 32 18 34 6 36
REMARK SMILES IDX 7 37 8 38 14 39 15 40 10 41 12 43
REMARK H PARENT 38 24 32 31 30 33 18 35 10 42 12 44
REMARK Flexibility Score: inf
ROOT
ATOM      1  C   UNL     1      24.094  -1.681 127.216  1.00  0.00     0.045 C 
ATOM      2  C   UNL     1      24.855  -2.382 126.117  1.00  0.00    -0.039 A 
ATOM      3  C   UNL     1      25.997  -1.783 125.584  1.00  0.00     0.013 A 
ATOM      4  C   UNL     1      26.752  -2.399 124.562  1.00  0.00    -0.006 A 
ATOM      5  C   UNL     1      26.251  -3.593 123.969  1.00  0.00     0.039 A 
ATOM      6  C   UNL     1      26.864  -4.083 122.781  1.00  0.00     0.072 A 
ATOM      7  C   UNL     1      27.990  -3.429 122.245  1.00  0.00     0.169 A 
ATOM      8  C   UNL     1      28.532  -2.299 122.889  1.00  0.00     0.162 A 
ATOM      9  C   UNL     1      27.979  -1.832 124.103  1.00  0.00     0.008 A 
ATOM     10  C   UNL     1      25.167  -4.268 124.604  1.00  0.00     0.132 A 
ATOM     11  C   UNL     1      24.464  -3.654 125.661  1.00  0.00     0.031 A 
ENDROOT
BRANCH  11  12
ATOM     12  C   UNL     1      23.307  -4.342 126.290  1.00  0.00     0.031 A 
ATOM     13  C   UNL     1      22.018  -4.220 125.730  1.00  0.00     0.132 A 
ATOM     14  C   UNL     1      23.508  -5.148 127.424  1.00  0.00    -0.039 A 
ATOM     15  C   UNL     1      20.899  -4.846 126.351  1.00  0.00     0.039 A 
ATOM     16  C   UNL     1      22.429  -5.841 127.976  1.00  0.00     0.013 A 
ATOM     17  C   UNL     1      24.880  -5.304 128.032  1.00  0.00     0.045 C 
ATOM     18  C   UNL     1      21.114  -5.697 127.477  1.00  0.00    -0.006 A 
ATOM     19  C   UNL     1      19.574  -4.691 125.853  1.00  0.00     0.072 A 
ATOM     20  C   UNL     1      20.019  -6.420 128.047  1.00  0.00     0.008 A 
ATOM     21  C   UNL     1      18.552  -5.539 126.303  1.00  0.00     0.169 A 
ATOM     22  C   UNL     1      18.796  -6.455 127.342  1.00  0.00     0.162 A 
BRANCH  13  23
ATOM     23  O   UNL     1      21.856  -3.522 124.528  1.00  0.00    -0.507 OA
ATOM     24  H   UNL     1      21.100  -3.688 123.875  1.00  0.00     0.293 HD
ENDBRANCH  13  23
BRANCH  19  25
ATOM     25  C   UNL     1      19.182  -3.611 124.919  1.00  0.00     0.264 C 
ATOM     26  O   UNL     1      19.202  -3.797 123.674  1.00  0.00    -0.298 OA
ENDBRANCH  19  25
BRANCH  20  27
ATOM     27  C   UNL     1      20.165  -7.204 129.363  1.00  0.00     0.017 C 
ATOM     28  C   UNL     1      19.751  -6.343 130.561  1.00  0.00     0.012 C 
ATOM     29  C   UNL     1      21.562  -7.818 129.575  1.00  0.00     0.012 C 
ENDBRANCH  20  27
BRANCH  21  30
ATOM     30  O   UNL     1      17.279  -5.414 125.732  1.00  0.00    -0.504 OA
ATOM     31  H   UNL     1      16.444  -5.189 126.253  1.00  0.00     0.293 HD
ENDBRANCH  21  30
BRANCH  22  32
ATOM     32  O   UNL     1      17.840  -7.416 127.681  1.00  0.00    -0.504 OA
ATOM     33  H   UNL     1      18.026  -8.407 127.725  1.00  0.00     0.293 HD
ENDBRANCH  22  32
ENDBRANCH  11  12
BRANCH  10  34
ATOM     34  O   UNL     1      24.820  -5.567 124.213  1.00  0.00    -0.507 OA
ATOM     35  H   UNL     1      24.513  -5.813 123.281  1.00  0.00     0.293 HD
ENDBRANCH  10  34
BRANCH   9  36
ATOM     36  C   UNL     1      28.694  -0.722 124.895  1.00  0.00     0.017 C 
ATOM     37  C   UNL     1      28.670   0.604 124.128  1.00  0.00     0.012 C 
ATOM     38  C   UNL     1      30.125  -1.092 125.330  1.00  0.00     0.012 C 
ENDBRANCH   9  36
BRANCH   6  39
ATOM     39  C   UNL     1      26.269  -5.189 121.991  1.00  0.00     0.264 C 
ATOM     40  O   UNL     1      26.785  -6.338 121.993  1.00  0.00    -0.298 OA
ENDBRANCH   6  39
BRANCH   8  41
ATOM     41  O   UNL     1      29.600  -1.593 122.325  1.00  0.00    -0.504 OA
ATOM     42  H   UNL     1      29.536  -0.986 121.522  1.00  0.00     0.293 HD
ENDBRANCH   8  41
BRANCH   7  43
ATOM     43  O   UNL     1      28.542  -3.927 121.058  1.00  0.00    -0.504 OA
ATOM     44  H   UNL     1      29.249  -3.463 120.508  1.00  0.00     0.293 HD
ENDBRANCH   7  43
TORSDOF 11
ENDMDL
MODEL 7
REMARK VINA RESULT:    -6.594      1.837      2.167
REMARK INTER + INTRA:         -10.540
REMARK INTER:                  -9.533
REMARK INTRA:                  -1.007
REMARK UNBOUND:                -0.862
REMARK SMILES Cc1cc2c(C(C)C)c(O)c(O)c(C=O)c2c(O)c1-c1c(C)cc2c(C(C)C)c(O)c(O)c(C=O)c2c1O
REMARK SMILES IDX 1 1 2 2 3 3 4 4 16 5 13 6 11 7 9 8 5 9 17 10 19 11 20 12
REMARK SMILES IDX 37 13 21 14 36 15 23 16 22 17 24 18 33 19 25 20 31 21 29 22
REMARK SMILES IDX 38 23 34 25 35 26 26 27 27 28 28 29 32 30 30 32 18 34 6 36
REMARK SMILES IDX 7 37 8 38 14 39 15 40 10 41 12 43
REMARK H PARENT 38 24 32 31 30 33 18 35 10 42 12 44
REMARK Flexibility Score: inf
ROOT
ATOM      1  C   UNL     1      22.630  -9.125 127.739  1.00  0.00     0.045 C 
ATOM      2  C   UNL     1      22.856  -7.878 126.919  1.00  0.00    -0.039 A 
ATOM      3  C   UNL     1      24.045  -7.735 126.202  1.00  0.00     0.013 A 
ATOM      4  C   UNL     1      24.305  -6.594 125.411  1.00  0.00    -0.006 A 
ATOM      5  C   UNL     1      23.388  -5.505 125.463  1.00  0.00     0.039 A 
ATOM      6  C   UNL     1      23.759  -4.263 124.875  1.00  0.00     0.072 A 
ATOM      7  C   UNL     1      24.986  -4.141 124.195  1.00  0.00     0.169 A 
ATOM      8  C   UNL     1      25.847  -5.249 124.073  1.00  0.00     0.162 A 
ATOM      9  C   UNL     1      25.472  -6.509 124.595  1.00  0.00     0.008 A 
ATOM     10  C   UNL     1      22.119  -5.709 126.082  1.00  0.00     0.132 A 
ATOM     11  C   UNL     1      21.866  -6.884 126.821  1.00  0.00     0.031 A 
ENDROOT
BRANCH  11  12
ATOM     12  C   UNL     1      20.559  -7.073 127.501  1.00  0.00     0.031 A 
ATOM     13  C   UNL     1      20.328  -6.495 128.767  1.00  0.00     0.132 A 
ATOM     14  C   UNL     1      19.538  -7.796 126.862  1.00  0.00    -0.039 A 
ATOM     15  C   UNL     1      19.090  -6.705 129.442  1.00  0.00     0.039 A 
ATOM     16  C   UNL     1      18.291  -7.919 127.478  1.00  0.00     0.013 A 
ATOM     17  C   UNL     1      19.757  -8.411 125.501  1.00  0.00     0.045 C 
ATOM     18  C   UNL     1      18.042  -7.405 128.771  1.00  0.00    -0.006 A 
ATOM     19  C   UNL     1      18.846  -6.194 130.748  1.00  0.00     0.072 A 
ATOM     20  C   UNL     1      16.758  -7.531 129.387  1.00  0.00     0.008 A 
ATOM     21  C   UNL     1      17.540  -6.167 131.258  1.00  0.00     0.169 A 
ATOM     22  C   UNL     1      16.487  -6.764 130.542  1.00  0.00     0.162 A 
BRANCH  13  23
ATOM     23  O   UNL     1      21.305  -5.669 129.333  1.00  0.00    -0.507 OA
ATOM     24  H   UNL     1      21.959  -5.972 130.045  1.00  0.00     0.293 HD
ENDBRANCH  13  23
BRANCH  19  25
ATOM     25  C   UNL     1      19.926  -5.746 131.657  1.00  0.00     0.264 C 
ATOM     26  O   UNL     1      20.183  -6.381 132.714  1.00  0.00    -0.298 OA
ENDBRANCH  19  25
BRANCH  20  27
ATOM     27  C   UNL     1      15.657  -8.424 128.788  1.00  0.00     0.017 C 
ATOM     28  C   UNL     1      14.802  -7.639 127.787  1.00  0.00     0.012 C 
ATOM     29  C   UNL     1      14.777  -9.125 129.842  1.00  0.00     0.012 C 
ENDBRANCH  20  27
BRANCH  21  30
ATOM     30  O   UNL     1      17.323  -5.582 132.512  1.00  0.00    -0.504 OA
ATOM     31  H   UNL     1      16.521  -5.774 133.095  1.00  0.00     0.293 HD
ENDBRANCH  21  30
BRANCH  22  32
ATOM     32  O   UNL     1      15.162  -6.596 130.955  1.00  0.00    -0.504 OA
ATOM     33  H   UNL     1      14.436  -7.284 130.818  1.00  0.00     0.293 HD
ENDBRANCH  22  32
ENDBRANCH  11  12
BRANCH  10  34
ATOM     34  O   UNL     1      21.098  -4.765 125.924  1.00  0.00    -0.507 OA
ATOM     35  H   UNL     1      21.248  -3.823 125.589  1.00  0.00     0.293 HD
ENDBRANCH  10  34
BRANCH   9  36
ATOM     36  C   UNL     1      26.328  -7.752 124.288  1.00  0.00     0.017 C 
ATOM     37  C   UNL     1      27.782  -7.539 124.720  1.00  0.00     0.012 C 
ATOM     38  C   UNL     1      26.241  -8.219 122.822  1.00  0.00     0.012 C 
ENDBRANCH   9  36
BRANCH   6  39
ATOM     39  C   UNL     1      22.956  -3.031 125.074  1.00  0.00     0.264 C 
ATOM     40  O   UNL     1      22.307  -2.519 124.123  1.00  0.00    -0.298 OA
ENDBRANCH   6  39
BRANCH   8  41
ATOM     41  O   UNL     1      27.103  -5.122 123.471  1.00  0.00    -0.504 OA
ATOM     42  H   UNL     1      27.402  -4.338 122.911  1.00  0.00     0.293 HD
ENDBRANCH   8  41
BRANCH   7  43
ATOM     43  O   UNL     1      25.323  -2.892 123.658  1.00  0.00    -0.504 OA
ATOM     44  H   UNL     1      26.234  -2.641 123.303  1.00  0.00     0.293 HD
ENDBRANCH   7  43
TORSDOF 11
ENDMDL
MODEL 8
REMARK VINA RESULT:    -6.587      0.784      9.081
REMARK INTER + INTRA:         -10.530
REMARK INTER:                 -10.639
REMARK INTRA:                   0.110
REMARK UNBOUND:                -0.862
REMARK SMILES Cc1cc2c(C(C)C)c(O)c(O)c(C=O)c2c(O)c1-c1c(C)cc2c(C(C)C)c(O)c(O)c(C=O)c2c1O
REMARK SMILES IDX 1 1 2 2 3 3 4 4 16 5 13 6 11 7 9 8 5 9 17 10 19 11 20 12
REMARK SMILES IDX 37 13 21 14 36 15 23 16 22 17 24 18 33 19 25 20 31 21 29 22
REMARK SMILES IDX 38 23 34 25 35 26 26 27 27 28 28 29 32 30 30 32 18 34 6 36
REMARK SMILES IDX 7 37 8 38 14 39 15 40 10 41 12 43
REMARK H PARENT 38 24 32 31 30 33 18 35 10 42 12 44
REMARK Flexibility Score: inf
ROOT
ATOM      1  C   UNL     1      19.633  -4.406 124.453  1.00  0.00     0.045 C 
ATOM      2  C   UNL     1      19.540  -5.038 125.820  1.00  0.00    -0.039 A 
ATOM      3  C   UNL     1      18.284  -5.272 126.383  1.00  0.00     0.013 A 
ATOM      4  C   UNL     1      18.138  -5.870 127.654  1.00  0.00    -0.006 A 
ATOM      5  C   UNL     1      19.306  -6.106 128.434  1.00  0.00     0.039 A 
ATOM      6  C   UNL     1      19.159  -6.470 129.803  1.00  0.00     0.072 A 
ATOM      7  C   UNL     1      17.875  -6.658 130.351  1.00  0.00     0.169 A 
ATOM      8  C   UNL     1      16.727  -6.507 129.547  1.00  0.00     0.162 A 
ATOM      9  C   UNL     1      16.851  -6.207 128.171  1.00  0.00     0.008 A 
ATOM     10  C   UNL     1      20.581  -5.994 127.807  1.00  0.00     0.132 A 
ATOM     11  C   UNL     1      20.694  -5.445 126.512  1.00  0.00     0.031 A 
ENDROOT
BRANCH  11  12
ATOM     12  C   UNL     1      22.030  -5.288 125.880  1.00  0.00     0.031 A 
ATOM     13  C   UNL     1      22.577  -4.003 125.685  1.00  0.00     0.132 A 
ATOM     14  C   UNL     1      22.764  -6.428 125.511  1.00  0.00    -0.039 A 
ATOM     15  C   UNL     1      23.839  -3.845 125.044  1.00  0.00     0.039 A 
ATOM     16  C   UNL     1      24.044  -6.279 124.973  1.00  0.00     0.013 A 
ATOM     17  C   UNL     1      22.205  -7.814 125.722  1.00  0.00     0.045 C 
ATOM     18  C   UNL     1      24.600  -5.006 124.710  1.00  0.00    -0.006 A 
ATOM     19  C   UNL     1      24.393  -2.561 124.771  1.00  0.00     0.072 A 
ATOM     20  C   UNL     1      25.915  -4.867 124.165  1.00  0.00     0.008 A 
ATOM     21  C   UNL     1      25.742  -2.442 124.410  1.00  0.00     0.169 A 
ATOM     22  C   UNL     1      26.521  -3.591 124.186  1.00  0.00     0.162 A 
BRANCH  13  23
ATOM     23  O   UNL     1      21.893  -2.885 126.175  1.00  0.00    -0.507 OA
ATOM     24  H   UNL     1      21.581  -2.114 125.598  1.00  0.00     0.293 HD
ENDBRANCH  13  23
BRANCH  19  25
ATOM     25  C   UNL     1      23.589  -1.317 124.770  1.00  0.00     0.264 C 
ATOM     26  O   UNL     1      23.686  -0.487 125.712  1.00  0.00    -0.298 OA
ENDBRANCH  19  25
BRANCH  20  27
ATOM     27  C   UNL     1      26.700  -6.076 123.624  1.00  0.00     0.017 C 
ATOM     28  C   UNL     1      26.361  -6.332 122.152  1.00  0.00     0.012 C 
ATOM     29  C   UNL     1      26.533  -7.356 124.465  1.00  0.00     0.012 C 
ENDBRANCH  20  27
BRANCH  21  30
ATOM     30  O   UNL     1      26.276  -1.159 124.230  1.00  0.00    -0.504 OA
ATOM     31  H   UNL     1      25.826  -0.310 124.540  1.00  0.00     0.293 HD
ENDBRANCH  21  30
BRANCH  22  32
ATOM     32  O   UNL     1      27.902  -3.488 123.994  1.00  0.00    -0.504 OA
ATOM     33  H   UNL     1      28.576  -3.450 124.745  1.00  0.00     0.293 HD
ENDBRANCH  22  32
ENDBRANCH  11  12
BRANCH  10  34
ATOM     34  O   UNL     1      21.729  -6.469 128.452  1.00  0.00    -0.507 OA
ATOM     35  H   UNL     1      22.525  -6.865 127.969  1.00  0.00     0.293 HD
ENDBRANCH  10  34
BRANCH   9  36
ATOM     36  C   UNL     1      15.607  -6.237 127.264  1.00  0.00     0.017 C 
ATOM     37  C   UNL     1      14.699  -5.034 127.538  1.00  0.00     0.012 C 
ATOM     38  C   UNL     1      14.821  -7.560 127.332  1.00  0.00     0.012 C 
ENDBRANCH   9  36
BRANCH   6  39
ATOM     39  C   UNL     1      20.317  -6.523 130.729  1.00  0.00     0.264 C 
ATOM     40  O   UNL     1      20.263  -5.986 131.867  1.00  0.00    -0.298 OA
ENDBRANCH   6  39
BRANCH   8  41
ATOM     41  O   UNL     1      15.446  -6.611 130.096  1.00  0.00    -0.504 OA
ATOM     42  H   UNL     1      14.810  -7.380 129.946  1.00  0.00     0.293 HD
ENDBRANCH   8  41
BRANCH   7  43
ATOM     43  O   UNL     1      17.776  -6.986 131.708  1.00  0.00    -0.504 OA
ATOM     44  H   UNL     1      17.728  -6.319 132.464  1.00  0.00     0.293 HD
ENDBRANCH   7  43
TORSDOF 11
ENDMDL
MODEL 9
REMARK VINA RESULT:    -6.402      3.731     11.057
REMARK INTER + INTRA:         -10.258
REMARK INTER:                  -9.530
REMARK INTRA:                  -0.728
REMARK UNBOUND:                -0.862
REMARK SMILES Cc1cc2c(C(C)C)c(O)c(O)c(C=O)c2c(O)c1-c1c(C)cc2c(C(C)C)c(O)c(O)c(C=O)c2c1O
REMARK SMILES IDX 1 1 2 2 3 3 4 4 16 5 13 6 11 7 9 8 5 9 17 10 19 11 20 12
REMARK SMILES IDX 37 13 21 14 36 15 23 16 22 17 24 18 33 19 25 20 31 21 29 22
REMARK SMILES IDX 38 23 34 25 35 26 26 27 27 28 28 29 32 30 30 32 18 34 6 36
REMARK SMILES IDX 7 37 8 38 14 39 15 40 10 41 12 43
REMARK H PARENT 38 24 32 31 30 33 18 35 10 42 12 44
REMARK Flexibility Score: inf
ROOT
ATOM      1  C   UNL     1      14.362  -7.426 128.726  1.00  0.00     0.045 C 
ATOM      2  C   UNL     1      14.469  -6.880 130.129  1.00  0.00    -0.039 A 
ATOM      3  C   UNL     1      13.322  -6.794 130.920  1.00  0.00     0.013 A 
ATOM      4  C   UNL     1      13.366  -6.302 132.243  1.00  0.00    -0.006 A 
ATOM      5  C   UNL     1      14.587  -5.750 132.725  1.00  0.00     0.039 A 
ATOM      6  C   UNL     1      14.581  -5.029 133.953  1.00  0.00     0.072 A 
ATOM      7  C   UNL     1      13.395  -4.926 134.706  1.00  0.00     0.169 A 
ATOM      8  C   UNL     1      12.212  -5.550 134.264  1.00  0.00     0.162 A 
ATOM      9  C   UNL     1      12.210  -6.323 133.080  1.00  0.00     0.008 A 
ATOM     10  C   UNL     1      15.778  -5.964 131.970  1.00  0.00     0.132 A 
ATOM     11  C   UNL     1      15.712  -6.510 130.671  1.00  0.00     0.031 A 
ENDROOT
BRANCH  11  12
ATOM     12  C   UNL     1      16.951  -6.689 129.871  1.00  0.00     0.031 A 
ATOM     13  C   UNL     1      17.268  -5.780 128.840  1.00  0.00     0.132 A 
ATOM     14  C   UNL     1      17.827  -7.747 130.170  1.00  0.00    -0.039 A 
ATOM     15  C   UNL     1      18.435  -5.969 128.044  1.00  0.00     0.039 A 
ATOM     16  C   UNL     1      19.019  -7.876 129.456  1.00  0.00     0.013 A 
ATOM     17  C   UNL     1      17.515  -8.724 131.277  1.00  0.00     0.045 C 
ATOM     18  C   UNL     1      19.342  -7.019 128.379  1.00  0.00    -0.006 A 
ATOM     19  C   UNL     1      18.752  -5.110 126.954  1.00  0.00     0.072 A 
ATOM     20  C   UNL     1      20.571  -7.158 127.660  1.00  0.00     0.008 A 
ATOM     21  C   UNL     1      20.033  -5.145 126.383  1.00  0.00     0.169 A 
ATOM     22  C   UNL     1      20.965  -6.115 126.793  1.00  0.00     0.162 A 
BRANCH  13  23
ATOM     23  O   UNL     1      16.455  -4.659 128.641  1.00  0.00    -0.507 OA
ATOM     24  H   UNL     1      16.781  -3.703 128.714  1.00  0.00     0.293 HD
ENDBRANCH  13  23
BRANCH  19  25
ATOM     25  C   UNL     1      17.762  -4.211 126.317  1.00  0.00     0.264 C 
ATOM     26  O   UNL     1      16.667  -4.661 125.886  1.00  0.00    -0.298 OA
ENDBRANCH  19  25
BRANCH  20  27
ATOM     27  C   UNL     1      21.494  -8.373 127.861  1.00  0.00     0.017 C 
ATOM     28  C   UNL     1      22.733  -7.989 128.677  1.00  0.00     0.012 C 
ATOM     29  C   UNL     1      21.888  -9.084 126.552  1.00  0.00     0.012 C 
ENDBRANCH  20  27
BRANCH  21  30
ATOM     30  O   UNL     1      20.338  -4.230 125.368  1.00  0.00    -0.504 OA
ATOM     31  H   UNL     1      19.933  -4.254 124.443  1.00  0.00     0.293 HD
ENDBRANCH  21  30
BRANCH  22  32
ATOM     32  O   UNL     1      22.292  -6.054 126.357  1.00  0.00    -0.504 OA
ATOM     33  H   UNL     1      22.948  -6.817 126.433  1.00  0.00     0.293 HD
ENDBRANCH  22  32
ENDBRANCH  11  12
BRANCH  10  34
ATOM     34  O   UNL     1      17.029  -5.675 132.530  1.00  0.00    -0.507 OA
ATOM     35  H   UNL     1      17.703  -6.379 132.798  1.00  0.00     0.293 HD
ENDBRANCH  10  34
BRANCH   9  36
ATOM     36  C   UNL     1      10.969  -7.156 132.711  1.00  0.00     0.017 C 
ATOM     37  C   UNL     1       9.875  -6.273 132.101  1.00  0.00     0.012 C 
ATOM     38  C   UNL     1      10.421  -8.004 133.875  1.00  0.00     0.012 C 
ENDBRANCH   9  36
BRANCH   6  39
ATOM     39  C   UNL     1      15.757  -4.249 134.409  1.00  0.00     0.264 C 
ATOM     40  O   UNL     1      16.490  -4.667 135.344  1.00  0.00    -0.298 OA
ENDBRANCH   6  39
BRANCH   8  41
ATOM     41  O   UNL     1      11.011  -5.388 134.960  1.00  0.00    -0.504 OA
ATOM     42  H   UNL     1      10.098  -5.322 134.536  1.00  0.00     0.293 HD
ENDBRANCH   8  41
BRANCH   7  43
ATOM     43  O   UNL     1      13.428  -4.182 135.892  1.00  0.00    -0.504 OA
ATOM     44  H   UNL     1      13.396  -4.572 136.822  1.00  0.00     0.293 HD
ENDBRANCH   7  43
TORSDOF 11
ENDMDL
