MODEL 1
REMARK VINA RESULT:    -4.073      0.000      0.000
REMARK INTER + INTRA:          -6.266
REMARK INTER:                  -6.215
REMARK INTRA:                  -0.051
REMARK UNBOUND:                -0.051
REMARK SMILES CC1=CCC[C@H](C)C(=O)C[C@@H](C(C)C)C(=O)C1
REMARK SMILES IDX 8 1 9 2 6 3 7 4 5 5 4 6 3 7 2 8 1 9 10 11 11 12 15 13 16 14
REMARK SMILES IDX 17 15 12 17 13 18 14 19
REMARK H PARENT
REMARK Flexibility Score: 70.00
ROOT
ATOM      1  C   UNL     1     -61.307 -78.869 223.667  1.00  0.00     0.136 C 
ATOM      2  O   UNL     1     -60.172 -78.613 224.044  1.00  0.00    -0.299 OA
ENDROOT
BRANCH   1   3
ATOM      3  C   UNL     1     -62.179 -79.793 224.488  1.00  0.00     0.053 C 
ATOM      4  C   UNL     1     -61.496 -81.155 224.654  1.00  0.00     0.016 C 
BRANCH   3   5
ATOM      5  C   UNL     1     -62.510 -79.175 225.860  1.00  0.00     0.015 C 
BRANCH   5   6
ATOM      6  C   UNL     1     -63.878 -78.460 225.881  1.00  0.00     0.028 C 
BRANCH   6   7
ATOM      7  C   UNL     1     -64.956 -79.306 225.244  1.00  0.00    -0.028 C 
ATOM      8  C   UNL     1     -65.632 -79.047 224.098  1.00  0.00    -0.070 CG0
ATOM      9  C   UNL     1     -66.636 -80.075 223.638  1.00  0.00     0.039 C 
ATOM     10  G   UNL     1     -65.466 -77.789 223.261  1.00  0.00     0.000 G0
ENDBRANCH   6   7
ENDBRANCH   5   6
ENDBRANCH   3   5
ENDBRANCH   1   3
BRANCH   1  11
ATOM     11  C   UNL     1     -61.817 -78.323 222.352  1.00  0.00     0.087 C 
BRANCH  11  12
ATOM     12  C   UNL     1     -62.966 -77.299 222.512  1.00  0.00     0.066 C 
BRANCH  12  13
ATOM     13  C   UNL     1     -64.348 -77.889 222.263  1.00  0.00     0.140 C 
ATOM     14  O   UNL     1     -64.523 -78.535 221.240  1.00  0.00    -0.299 OA
BRANCH  13  15
ATOM     15  C   UNL     1     -65.489 -77.777 223.250  1.00  0.00     0.106 CG0
ATOM     16  G   UNL     1     -65.614 -79.040 224.087  1.00  0.00     0.000 G0
ENDBRANCH  13  15
ENDBRANCH  12  13
BRANCH  12  17
ATOM     17  C   UNL     1     -62.706 -75.991 221.704  1.00  0.00    -0.006 C 
ATOM     18  C   UNL     1     -62.756 -76.175 220.177  1.00  0.00     0.008 C 
ATOM     19  C   UNL     1     -63.670 -74.871 222.125  1.00  0.00     0.008 C 
ENDBRANCH  12  17
ENDBRANCH  11  12
ENDBRANCH   1  11
TORSDOF 1
ENDMDL
MODEL 2
REMARK VINA RESULT:    -3.847      2.125      5.129
REMARK INTER + INTRA:          -5.922
REMARK INTER:                  -5.696
REMARK INTRA:                  -0.225
REMARK UNBOUND:                -0.051
REMARK SMILES CC1=CCC[C@H](C)C(=O)C[C@@H](C(C)C)C(=O)C1
REMARK SMILES IDX 8 1 9 2 6 3 7 4 5 5 4 6 3 7 2 8 1 9 10 11 11 12 15 13 16 14
REMARK SMILES IDX 17 15 12 17 13 18 14 19
REMARK H PARENT
REMARK Flexibility Score: 70.00
ROOT
ATOM      1  C   UNL     1     -65.041 -76.985 222.508  1.00  0.00     0.136 C 
ATOM      2  O   UNL     1     -65.970 -76.369 223.015  1.00  0.00    -0.299 OA
ENDROOT
BRANCH   1   3
ATOM      3  C   UNL     1     -64.123 -76.285 221.532  1.00  0.00     0.053 C 
ATOM      4  C   UNL     1     -63.526 -75.028 222.175  1.00  0.00     0.016 C 
BRANCH   3   5
ATOM      5  C   UNL     1     -63.010 -77.228 221.036  1.00  0.00     0.015 C 
BRANCH   5   6
ATOM      6  C   UNL     1     -61.662 -76.991 221.751  1.00  0.00     0.028 C 
BRANCH   6   7
ATOM      7  C   UNL     1     -60.841 -78.259 221.822  1.00  0.00    -0.028 C 
ATOM      8  C   UNL     1     -60.799 -79.153 222.839  1.00  0.00    -0.070 CG0
ATOM      9  C   UNL     1     -59.933 -80.374 222.652  1.00  0.00     0.039 C 
ATOM     10  G   UNL     1     -61.542 -79.001 224.156  1.00  0.00     0.000 G0
ENDBRANCH   6   7
ENDBRANCH   5   6
ENDBRANCH   3   5
ENDBRANCH   1   3
BRANCH   1  11
ATOM     11  C   UNL     1     -64.850 -78.456 222.801  1.00  0.00     0.087 C 
BRANCH  11  12
ATOM     12  C   UNL     1     -64.206 -78.734 224.180  1.00  0.00     0.066 C 
BRANCH  12  13
ATOM     13  C   UNL     1     -62.942 -79.580 224.104  1.00  0.00     0.140 C 
ATOM     14  O   UNL     1     -63.064 -80.781 223.915  1.00  0.00    -0.299 OA
BRANCH  13  15
ATOM     15  C   UNL     1     -61.548 -78.998 224.178  1.00  0.00     0.106 CG0
ATOM     16  G   UNL     1     -60.823 -79.145 222.850  1.00  0.00     0.000 G0
ENDBRANCH  13  15
ENDBRANCH  12  13
BRANCH  12  17
ATOM     17  C   UNL     1     -65.241 -79.273 225.215  1.00  0.00    -0.006 C 
ATOM     18  C   UNL     1     -65.783 -78.201 226.177  1.00  0.00     0.008 C 
ATOM     19  C   UNL     1     -66.410 -79.987 224.519  1.00  0.00     0.008 C 
ENDBRANCH  12  17
ENDBRANCH  11  12
ENDBRANCH   1  11
TORSDOF 1
ENDMDL
MODEL 3
REMARK VINA RESULT:    -3.779      1.909      4.240
REMARK INTER + INTRA:          -5.818
REMARK INTER:                  -5.826
REMARK INTRA:                   0.008
REMARK UNBOUND:                -0.051
REMARK SMILES CC1=CCC[C@H](C)C(=O)C[C@@H](C(C)C)C(=O)C1
REMARK SMILES IDX 8 1 9 2 6 3 7 4 5 5 4 6 3 7 2 8 1 9 10 11 11 12 15 13 16 14
REMARK SMILES IDX 17 15 12 17 13 18 14 19
REMARK H PARENT
REMARK Flexibility Score: 70.00
ROOT
ATOM      1  C   UNL     1     -62.610 -76.665 220.946  1.00  0.00     0.136 C 
ATOM      2  O   UNL     1     -63.063 -76.478 219.824  1.00  0.00    -0.299 OA
ENDROOT
BRANCH   1   3
ATOM      3  C   UNL     1     -63.381 -76.182 222.153  1.00  0.00     0.053 C 
ATOM      4  C   UNL     1     -63.538 -74.658 222.107  1.00  0.00     0.016 C 
BRANCH   3   5
ATOM      5  C   UNL     1     -64.756 -76.871 222.252  1.00  0.00     0.015 C 
BRANCH   5   6
ATOM      6  C   UNL     1     -64.655 -78.350 222.684  1.00  0.00     0.028 C 
BRANCH   6   7
ATOM      7  C   UNL     1     -64.321 -78.477 224.152  1.00  0.00    -0.028 C 
ATOM      8  C   UNL     1     -63.243 -79.093 224.698  1.00  0.00    -0.070 CG0
ATOM      9  C   UNL     1     -63.104 -79.044 226.200  1.00  0.00     0.039 C 
ATOM     10  G   UNL     1     -62.184 -79.844 223.908  1.00  0.00     0.000 G0
ENDBRANCH   6   7
ENDBRANCH   5   6
ENDBRANCH   3   5
ENDBRANCH   1   3
BRANCH   1  11
ATOM     11  C   UNL     1     -61.256 -77.312 221.125  1.00  0.00     0.087 C 
BRANCH  11  12
ATOM     12  C   UNL     1     -61.330 -78.775 221.623  1.00  0.00     0.066 C 
BRANCH  12  13
ATOM     13  C   UNL     1     -61.285 -78.907 223.140  1.00  0.00     0.140 C 
ATOM     14  O   UNL     1     -60.531 -78.171 223.759  1.00  0.00    -0.299 OA
BRANCH  13  15
ATOM     15  C   UNL     1     -62.178 -79.848 223.917  1.00  0.00     0.106 CG0
ATOM     16  G   UNL     1     -63.242 -79.083 224.686  1.00  0.00     0.000 G0
ENDBRANCH  13  15
ENDBRANCH  12  13
BRANCH  12  17
ATOM     17  C   UNL     1     -60.300 -79.696 220.898  1.00  0.00    -0.006 C 
ATOM     18  C   UNL     1     -60.611 -79.937 219.411  1.00  0.00     0.008 C 
ATOM     19  C   UNL     1     -58.867 -79.163 221.051  1.00  0.00     0.008 C 
ENDBRANCH  12  17
ENDBRANCH  11  12
ENDBRANCH   1  11
TORSDOF 1
ENDMDL
MODEL 4
REMARK VINA RESULT:    -3.687      1.859      4.025
REMARK INTER + INTRA:          -5.677
REMARK INTER:                  -5.490
REMARK INTRA:                  -0.188
REMARK UNBOUND:                -0.051
REMARK SMILES CC1=CCC[C@H](C)C(=O)C[C@@H](C(C)C)C(=O)C1
REMARK SMILES IDX 8 1 9 2 6 3 7 4 5 5 4 6 3 7 2 8 1 9 10 11 11 12 15 13 16 14
REMARK SMILES IDX 17 15 12 17 13 18 14 19
REMARK H PARENT
REMARK Flexibility Score: 70.00
ROOT
ATOM      1  C   UNL     1     -62.805 -79.042 225.669  1.00  0.00     0.136 C 
ATOM      2  O   UNL     1     -62.766 -79.580 226.768  1.00  0.00    -0.299 OA
ENDROOT
BRANCH   1   3
ATOM      3  C   UNL     1     -61.607 -79.127 224.751  1.00  0.00     0.053 C 
ATOM      4  C   UNL     1     -60.321 -78.826 225.529  1.00  0.00     0.016 C 
BRANCH   3   5
ATOM      5  C   UNL     1     -61.523 -80.506 224.068  1.00  0.00     0.015 C 
BRANCH   5   6
ATOM      6  C   UNL     1     -61.691 -80.426 222.535  1.00  0.00     0.028 C 
BRANCH   6   7
ATOM      7  C   UNL     1     -61.295 -79.068 222.003  1.00  0.00    -0.028 C 
ATOM      8  C   UNL     1     -62.120 -78.086 221.565  1.00  0.00    -0.070 CG0
ATOM      9  C   UNL     1     -61.482 -76.791 221.124  1.00  0.00     0.039 C 
ATOM     10  G   UNL     1     -63.632 -78.205 221.467  1.00  0.00     0.000 G0
ENDBRANCH   6   7
ENDBRANCH   5   6
ENDBRANCH   3   5
ENDBRANCH   1   3
BRANCH   1  11
ATOM     11  C   UNL     1     -64.016 -78.237 225.256  1.00  0.00     0.087 C 
BRANCH  11  12
ATOM     12  C   UNL     1     -64.627 -78.686 223.907  1.00  0.00     0.066 C 
BRANCH  12  13
ATOM     13  C   UNL     1     -64.315 -77.743 222.752  1.00  0.00     0.140 C 
ATOM     14  O   UNL     1     -64.569 -76.555 222.893  1.00  0.00    -0.299 OA
BRANCH  13  15
ATOM     15  C   UNL     1     -63.643 -78.191 221.473  1.00  0.00     0.106 CG0
ATOM     16  G   UNL     1     -62.132 -78.077 221.581  1.00  0.00     0.000 G0
ENDBRANCH  13  15
ENDBRANCH  12  13
BRANCH  12  17
ATOM     17  C   UNL     1     -66.145 -79.021 224.030  1.00  0.00    -0.006 C 
ATOM     18  C   UNL     1     -66.440 -80.506 224.304  1.00  0.00     0.008 C 
ATOM     19  C   UNL     1     -66.826 -78.150 225.097  1.00  0.00     0.008 C 
ENDBRANCH  12  17
ENDBRANCH  11  12
ENDBRANCH   1  11
TORSDOF 1
ENDMDL
MODEL 5
REMARK VINA RESULT:    -3.677      2.267      5.290
REMARK INTER + INTRA:          -5.663
REMARK INTER:                  -5.732
REMARK INTRA:                   0.069
REMARK UNBOUND:                -0.051
REMARK SMILES CC1=CCC[C@H](C)C(=O)C[C@@H](C(C)C)C(=O)C1
REMARK SMILES IDX 8 1 9 2 6 3 7 4 5 5 4 6 3 7 2 8 1 9 10 11 11 12 15 13 16 14
REMARK SMILES IDX 17 15 12 17 13 18 14 19
REMARK H PARENT
REMARK Flexibility Score: 70.00
ROOT
ATOM      1  C   UNL     1     -65.013 -76.990 222.503  1.00  0.00     0.136 C 
ATOM      2  O   UNL     1     -65.989 -76.496 223.051  1.00  0.00    -0.299 OA
ENDROOT
BRANCH   1   3
ATOM      3  C   UNL     1     -64.258 -76.196 221.461  1.00  0.00     0.053 C 
ATOM      4  C   UNL     1     -63.498 -75.041 222.124  1.00  0.00     0.016 C 
BRANCH   3   5
ATOM      5  C   UNL     1     -63.297 -77.095 220.661  1.00  0.00     0.015 C 
BRANCH   5   6
ATOM      6  C   UNL     1     -61.834 -76.603 220.711  1.00  0.00     0.028 C 
BRANCH   6   7
ATOM      7  C   UNL     1     -60.858 -77.752 220.606  1.00  0.00    -0.028 C 
ATOM      8  C   UNL     1     -60.475 -78.595 221.596  1.00  0.00    -0.070 CG0
ATOM      9  C   UNL     1     -59.517 -79.703 221.230  1.00  0.00     0.039 C 
ATOM     10  G   UNL     1     -60.923 -78.491 223.044  1.00  0.00     0.000 G0
ENDBRANCH   6   7
ENDBRANCH   5   6
ENDBRANCH   3   5
ENDBRANCH   1   3
BRANCH   1  11
ATOM     11  C   UNL     1     -64.601 -78.412 222.811  1.00  0.00     0.087 C 
BRANCH  11  12
ATOM     12  C   UNL     1     -63.456 -78.513 223.847  1.00  0.00     0.066 C 
BRANCH  12  13
ATOM     13  C   UNL     1     -62.211 -79.210 223.313  1.00  0.00     0.140 C 
ATOM     14  O   UNL     1     -62.295 -80.393 223.017  1.00  0.00    -0.299 OA
BRANCH  13  15
ATOM     15  C   UNL     1     -60.902 -78.494 223.064  1.00  0.00     0.106 CG0
ATOM     16  G   UNL     1     -60.488 -78.603 221.605  1.00  0.00     0.000 G0
ENDBRANCH  13  15
ENDBRANCH  12  13
BRANCH  12  17
ATOM     17  C   UNL     1     -63.944 -79.094 225.210  1.00  0.00    -0.006 C 
ATOM     18  C   UNL     1     -62.867 -79.104 226.309  1.00  0.00     0.008 C 
ATOM     19  C   UNL     1     -65.196 -78.360 225.715  1.00  0.00     0.008 C 
ENDBRANCH  12  17
ENDBRANCH  11  12
ENDBRANCH   1  11
TORSDOF 1
ENDMDL
MODEL 6
REMARK VINA RESULT:    -3.610      1.583      3.656
REMARK INTER + INTRA:          -5.560
REMARK INTER:                  -5.233
REMARK INTRA:                  -0.327
REMARK UNBOUND:                -0.051
REMARK SMILES CC1=CCC[C@H](C)C(=O)C[C@@H](C(C)C)C(=O)C1
REMARK SMILES IDX 8 1 9 2 6 3 7 4 5 5 4 6 3 7 2 8 1 9 10 11 11 12 15 13 16 14
REMARK SMILES IDX 17 15 12 17 13 18 14 19
REMARK H PARENT
REMARK Flexibility Score: 70.00
ROOT
ATOM      1  C   UNL     1     -65.419 -78.005 223.108  1.00  0.00     0.136 C 
ATOM      2  O   UNL     1     -65.808 -78.389 222.013  1.00  0.00    -0.299 OA
ENDROOT
BRANCH   1   3
ATOM      3  C   UNL     1     -66.203 -78.365 224.350  1.00  0.00     0.053 C 
ATOM      4  C   UNL     1     -67.698 -78.112 224.124  1.00  0.00     0.016 C 
BRANCH   3   5
ATOM      5  C   UNL     1     -65.952 -79.828 224.764  1.00  0.00     0.015 C 
BRANCH   5   6
ATOM      6  C   UNL     1     -64.626 -80.015 225.534  1.00  0.00     0.028 C 
BRANCH   6   7
ATOM      7  C   UNL     1     -63.600 -80.747 224.700  1.00  0.00    -0.028 C 
ATOM      8  C   UNL     1     -62.431 -80.255 224.221  1.00  0.00    -0.070 CG0
ATOM      9  C   UNL     1     -61.545 -81.203 223.450  1.00  0.00     0.039 C 
ATOM     10  G   UNL     1     -61.963 -78.818 224.386  1.00  0.00     0.000 G0
ENDBRANCH   6   7
ENDBRANCH   5   6
ENDBRANCH   3   5
ENDBRANCH   1   3
BRANCH   1  11
ATOM     11  C   UNL     1     -64.200 -77.117 223.218  1.00  0.00     0.087 C 
BRANCH  11  12
ATOM     12  C   UNL     1     -63.036 -77.547 222.293  1.00  0.00     0.066 C 
BRANCH  12  13
ATOM     13  C   UNL     1     -61.838 -78.114 223.044  1.00  0.00     0.140 C 
ATOM     14  O   UNL     1     -60.725 -77.937 222.570  1.00  0.00    -0.299 OA
BRANCH  13  15
ATOM     15  C   UNL     1     -61.951 -78.816 224.379  1.00  0.00     0.106 CG0
ATOM     16  G   UNL     1     -62.431 -80.247 224.205  1.00  0.00     0.000 G0
ENDBRANCH  13  15
ENDBRANCH  12  13
BRANCH  12  17
ATOM     17  C   UNL     1     -62.648 -76.430 221.276  1.00  0.00    -0.006 C 
ATOM     18  C   UNL     1     -62.713 -76.872 219.804  1.00  0.00     0.008 C 
ATOM     19  C   UNL     1     -63.500 -75.167 221.479  1.00  0.00     0.008 C 
ENDBRANCH  12  17
ENDBRANCH  11  12
ENDBRANCH   1  11
TORSDOF 1
ENDMDL
MODEL 7
REMARK VINA RESULT:    -3.595      1.518      4.068
REMARK INTER + INTRA:          -5.537
REMARK INTER:                  -5.330
REMARK INTRA:                  -0.207
REMARK UNBOUND:                -0.051
REMARK SMILES CC1=CCC[C@H](C)C(=O)C[C@@H](C(C)C)C(=O)C1
REMARK SMILES IDX 8 1 9 2 6 3 7 4 5 5 4 6 3 7 2 8 1 9 10 11 11 12 15 13 16 14
REMARK SMILES IDX 17 15 12 17 13 18 14 19
REMARK H PARENT
REMARK Flexibility Score: 70.00
ROOT
ATOM      1  C   UNL     1     -61.913 -77.540 222.547  1.00  0.00     0.136 C 
ATOM      2  O   UNL     1     -61.142 -77.268 221.637  1.00  0.00    -0.299 OA
ENDROOT
BRANCH   1   3
ATOM      3  C   UNL     1     -63.370 -77.150 222.436  1.00  0.00     0.053 C 
ATOM      4  C   UNL     1     -63.495 -75.649 222.152  1.00  0.00     0.016 C 
BRANCH   3   5
ATOM      5  C   UNL     1     -64.089 -77.975 221.351  1.00  0.00     0.015 C 
BRANCH   5   6
ATOM      6  C   UNL     1     -65.117 -78.968 221.935  1.00  0.00     0.028 C 
BRANCH   6   7
ATOM      7  C   UNL     1     -65.688 -78.469 223.243  1.00  0.00    -0.028 C 
ATOM      8  C   UNL     1     -65.412 -78.929 224.487  1.00  0.00    -0.070 CG0
ATOM      9  C   UNL     1     -66.078 -78.231 225.648  1.00  0.00     0.039 C 
ATOM     10  G   UNL     1     -64.501 -80.107 224.793  1.00  0.00     0.000 G0
ENDBRANCH   6   7
ENDBRANCH   5   6
ENDBRANCH   3   5
ENDBRANCH   1   3
BRANCH   1  11
ATOM     11  C   UNL     1     -61.404 -78.201 223.808  1.00  0.00     0.087 C 
BRANCH  11  12
ATOM     12  C   UNL     1     -61.977 -79.620 224.037  1.00  0.00     0.066 C 
BRANCH  12  13
ATOM     13  C   UNL     1     -63.074 -79.672 225.092  1.00  0.00     0.140 C 
ATOM     14  O   UNL     1     -62.808 -79.282 226.219  1.00  0.00    -0.299 OA
BRANCH  13  15
ATOM     15  C   UNL     1     -64.490 -80.113 224.796  1.00  0.00     0.106 CG0
ATOM     16  G   UNL     1     -65.385 -78.919 224.504  1.00  0.00     0.000 G0
ENDBRANCH  13  15
ENDBRANCH  12  13
BRANCH  12  17
ATOM     17  C   UNL     1     -60.854 -80.678 224.270  1.00  0.00    -0.006 C 
ATOM     18  C   UNL     1     -60.606 -81.605 223.067  1.00  0.00     0.008 C 
ATOM     19  C   UNL     1     -59.536 -80.012 224.695  1.00  0.00     0.008 C 
ENDBRANCH  12  17
ENDBRANCH  11  12
ENDBRANCH   1  11
TORSDOF 1
ENDMDL
MODEL 8
REMARK VINA RESULT:    -3.474      2.672      4.099
REMARK INTER + INTRA:          -5.353
REMARK INTER:                  -5.248
REMARK INTRA:                  -0.105
REMARK UNBOUND:                -0.051
REMARK SMILES CC1=CCC[C@H](C)C(=O)C[C@@H](C(C)C)C(=O)C1
REMARK SMILES IDX 8 1 9 2 6 3 7 4 5 5 4 6 3 7 2 8 1 9 10 11 11 12 15 13 16 14
REMARK SMILES IDX 17 15 12 17 13 18 14 19
REMARK H PARENT
REMARK Flexibility Score: 70.00
ROOT
ATOM      1  C   UNL     1     -63.198 -79.963 224.245  1.00  0.00     0.136 C 
ATOM      2  O   UNL     1     -62.899 -81.133 224.441  1.00  0.00    -0.299 OA
ENDROOT
BRANCH   1   3
ATOM      3  C   UNL     1     -62.935 -78.933 225.320  1.00  0.00     0.053 C 
ATOM      4  C   UNL     1     -64.118 -78.866 226.292  1.00  0.00     0.016 C 
BRANCH   3   5
ATOM      5  C   UNL     1     -61.624 -79.233 226.074  1.00  0.00     0.015 C 
BRANCH   5   6
ATOM      6  C   UNL     1     -60.369 -78.788 225.293  1.00  0.00     0.028 C 
BRANCH   6   7
ATOM      7  C   UNL     1     -59.703 -79.956 224.601  1.00  0.00    -0.028 C 
ATOM      8  C   UNL     1     -59.636 -80.190 223.268  1.00  0.00    -0.070 CG0
ATOM      9  C   UNL     1     -58.868 -81.408 222.816  1.00  0.00     0.039 C 
ATOM     10  G   UNL     1     -60.295 -79.328 222.204  1.00  0.00     0.000 G0
ENDBRANCH   6   7
ENDBRANCH   5   6
ENDBRANCH   3   5
ENDBRANCH   1   3
BRANCH   1  11
ATOM     11  C   UNL     1     -63.892 -79.556 222.966  1.00  0.00     0.087 C 
BRANCH  11  12
ATOM     12  C   UNL     1     -62.924 -79.041 221.874  1.00  0.00     0.066 C 
BRANCH  12  13
ATOM     13  C   UNL     1     -61.635 -79.847 221.771  1.00  0.00     0.140 C 
ATOM     14  O   UNL     1     -61.690 -80.958 221.263  1.00  0.00    -0.299 OA
BRANCH  13  15
ATOM     15  C   UNL     1     -60.286 -79.313 222.197  1.00  0.00     0.106 CG0
ATOM     16  G   UNL     1     -59.649 -80.209 223.246  1.00  0.00     0.000 G0
ENDBRANCH  13  15
ENDBRANCH  12  13
BRANCH  12  17
ATOM     17  C   UNL     1     -62.676 -77.504 221.983  1.00  0.00    -0.006 C 
ATOM     18  C   UNL     1     -62.282 -76.836 220.655  1.00  0.00     0.008 C 
ATOM     19  C   UNL     1     -63.890 -76.783 222.589  1.00  0.00     0.008 C 
ENDBRANCH  12  17
ENDBRANCH  11  12
ENDBRANCH   1  11
TORSDOF 1
ENDMDL
MODEL 9
REMARK VINA RESULT:    -3.361      2.477      4.743
REMARK INTER + INTRA:          -5.180
REMARK INTER:                  -4.935
REMARK INTRA:                  -0.244
REMARK UNBOUND:                -0.051
REMARK SMILES CC1=CCC[C@H](C)C(=O)C[C@@H](C(C)C)C(=O)C1
REMARK SMILES IDX 8 1 9 2 6 3 7 4 5 5 4 6 3 7 2 8 1 9 10 11 11 12 15 13 16 14
REMARK SMILES IDX 17 15 12 17 13 18 14 19
REMARK H PARENT
REMARK Flexibility Score: 70.00
ROOT
ATOM      1  C   UNL     1     -62.857 -78.175 219.917  1.00  0.00     0.136 C 
ATOM      2  O   UNL     1     -63.706 -77.786 219.127  1.00  0.00    -0.299 OA
ENDROOT
BRANCH   1   3
ATOM      3  C   UNL     1     -61.402 -78.194 219.504  1.00  0.00     0.053 C 
ATOM      4  C   UNL     1     -60.663 -76.999 220.116  1.00  0.00     0.016 C 
BRANCH   3   5
ATOM      5  C   UNL     1     -60.725 -79.519 219.903  1.00  0.00     0.015 C 
BRANCH   5   6
ATOM      6  C   UNL     1     -59.646 -79.336 220.992  1.00  0.00     0.028 C 
BRANCH   6   7
ATOM      7  C   UNL     1     -59.802 -80.349 222.103  1.00  0.00    -0.028 C 
ATOM      8  C   UNL     1     -60.319 -80.138 223.338  1.00  0.00    -0.070 CG0
ATOM      9  C   UNL     1     -60.414 -81.328 224.262  1.00  0.00     0.039 C 
ATOM     10  G   UNL     1     -60.788 -78.791 223.862  1.00  0.00     0.000 G0
ENDBRANCH   6   7
ENDBRANCH   5   6
ENDBRANCH   3   5
ENDBRANCH   1   3
BRANCH   1  11
ATOM     11  C   UNL     1     -63.261 -78.699 221.276  1.00  0.00     0.087 C 
BRANCH  11  12
ATOM     12  C   UNL     1     -62.807 -77.797 222.448  1.00  0.00     0.066 C 
BRANCH  12  13
ATOM     13  C   UNL     1     -62.260 -78.572 223.640  1.00  0.00     0.140 C 
ATOM     14  O   UNL     1     -63.059 -79.096 224.402  1.00  0.00    -0.299 OA
BRANCH  13  15
ATOM     15  C   UNL     1     -60.782 -78.787 223.882  1.00  0.00     0.106 CG0
ATOM     16  G   UNL     1     -60.326 -80.127 223.327  1.00  0.00     0.000 G0
ENDBRANCH  13  15
ENDBRANCH  12  13
BRANCH  12  17
ATOM     17  C   UNL     1     -63.897 -76.755 222.846  1.00  0.00    -0.006 C 
ATOM     18  C   UNL     1     -63.782 -75.412 222.104  1.00  0.00     0.008 C 
ATOM     19  C   UNL     1     -65.311 -77.328 222.668  1.00  0.00     0.008 C 
ENDBRANCH  12  17
ENDBRANCH  11  12
ENDBRANCH   1  11
TORSDOF 1
ENDMDL
