MODEL 1
REMARK VINA RESULT:    -4.277      0.000      0.000
REMARK INTER + INTRA:          -5.755
REMARK INTER:                  -5.777
REMARK INTRA:                   0.022
REMARK UNBOUND:                 0.022
REMARK SMILES C=C(C)[C@@H]1CC[C@@H](C)C2=C(C1)[C@H](C)CC2
REMARK SMILES IDX 10 1 9 2 15 3 14 4 12 5 13 6 7 7 8 8 6 9 11 11 4 12 5 13
REMARK SMILES IDX 2 15 1 16 3 17
REMARK H PARENT
REMARK Flexibility Score: 80.00
ROOT
ATOM      1  C   UNL     1     142.912 143.392 134.569  1.00  0.00    -0.067 C 
ATOM      2  C   UNL     1     143.182 143.599 133.277  1.00  0.00    -0.068 C 
ATOM      3  C   UNL     1     142.190 144.527 132.657  1.00  0.00     0.032 C 
ATOM      4  C   UNL     1     141.364 145.048 133.832  1.00  0.00     0.012 C 
ATOM      5  C   UNL     1     141.673 144.109 135.007  1.00  0.00     0.012 C 
ATOM      6  C   UNL     1     140.530 143.119 135.256  1.00  0.00     0.012 C 
ENDROOT
BRANCH   2   7
ATOM      7  C   UNL     1     144.276 142.931 132.453  1.00  0.00     0.012 C 
ATOM      8  C   UNL     1     144.192 143.408 130.999  1.00  0.00     0.012 C 
BRANCH   7   9
ATOM      9  C   UNL     1     144.329 141.380 132.514  1.00  0.00     0.008 CG0
ATOM     10  G   UNL     1     144.852 140.828 133.848  1.00  0.00     0.000 G0
ENDBRANCH   7   9
ENDBRANCH   2   7
BRANCH   1  11
ATOM     11  C   UNL     1     143.727 142.525 135.493  1.00  0.00     0.039 C 
BRANCH  11  12
ATOM     12  C   UNL     1     143.852 141.058 135.009  1.00  0.00     0.018 C 
BRANCH  12  13
ATOM     13  C   UNL     1     144.862 140.845 133.852  1.00  0.00     0.009 CG0
ATOM     14  G   UNL     1     144.334 141.387 132.515  1.00  0.00     0.000 G0
ENDBRANCH  12  13
BRANCH  12  15
ATOM     15  C   UNL     1     144.122 140.101 136.165  1.00  0.00    -0.077 C 
ATOM     16  C   UNL     1     143.515 138.905 136.241  1.00  0.00     0.008 C 
ATOM     17  C   UNL     1     145.090 140.484 137.256  1.00  0.00     0.039 C 
ENDBRANCH  12  15
ENDBRANCH  11  12
ENDBRANCH   1  11
TORSDOF 1
ENDMDL
MODEL 2
REMARK VINA RESULT:    -4.257      3.315      4.762
REMARK INTER + INTRA:          -5.728
REMARK INTER:                  -5.733
REMARK INTRA:                   0.006
REMARK UNBOUND:                 0.022
REMARK SMILES C=C(C)[C@@H]1CC[C@@H](C)C2=C(C1)[C@H](C)CC2
REMARK SMILES IDX 10 1 9 2 15 3 14 4 12 5 13 6 7 7 8 8 6 9 11 11 4 12 5 13
REMARK SMILES IDX 2 15 1 16 3 17
REMARK H PARENT
REMARK Flexibility Score: 80.00
ROOT
ATOM      1  C   UNL     1     138.845 142.917 134.664  1.00  0.00    -0.067 C 
ATOM      2  C   UNL     1     138.657 143.227 133.378  1.00  0.00    -0.068 C 
ATOM      3  C   UNL     1     137.773 142.231 132.702  1.00  0.00     0.032 C 
ATOM      4  C   UNL     1     137.253 141.348 133.835  1.00  0.00     0.012 C 
ATOM      5  C   UNL     1     138.156 141.642 135.041  1.00  0.00     0.012 C 
ATOM      6  C   UNL     1     139.176 140.521 135.272  1.00  0.00     0.012 C 
ENDROOT
BRANCH   2   7
ATOM      7  C   UNL     1     139.308 144.371 132.609  1.00  0.00     0.012 C 
ATOM      8  C   UNL     1     138.861 144.329 131.143  1.00  0.00     0.012 C 
BRANCH   7   9
ATOM      9  C   UNL     1     140.856 144.464 132.701  1.00  0.00     0.008 CG0
ATOM     10  G   UNL     1     141.369 144.948 134.066  1.00  0.00     0.000 G0
ENDBRANCH   7   9
ENDBRANCH   2   7
BRANCH   1  11
ATOM     11  C   UNL     1     139.665 143.724 135.636  1.00  0.00     0.039 C 
BRANCH  11  12
ATOM     12  C   UNL     1     141.143 143.892 135.200  1.00  0.00     0.018 C 
BRANCH  12  13
ATOM     13  C   UNL     1     141.370 144.944 134.083  1.00  0.00     0.009 CG0
ATOM     14  G   UNL     1     140.851 144.463 132.720  1.00  0.00     0.000 G0
ENDBRANCH  12  13
BRANCH  12  15
ATOM     15  C   UNL     1     142.061 144.142 136.393  1.00  0.00    -0.077 C 
ATOM     16  C   UNL     1     143.136 143.369 136.624  1.00  0.00     0.008 C 
ATOM     17  C   UNL     1     141.775 145.275 137.345  1.00  0.00     0.039 C 
ENDBRANCH  12  15
ENDBRANCH  11  12
ENDBRANCH   1  11
TORSDOF 1
ENDMDL
MODEL 3
REMARK VINA RESULT:    -4.209      4.587      6.709
REMARK INTER + INTRA:          -5.664
REMARK INTER:                  -5.668
REMARK INTRA:                   0.004
REMARK UNBOUND:                 0.022
REMARK SMILES C=C(C)[C@@H]1CC[C@@H](C)C2=C(C1)[C@H](C)CC2
REMARK SMILES IDX 10 1 9 2 15 3 14 4 12 5 13 6 7 7 8 8 6 9 11 11 4 12 5 13
REMARK SMILES IDX 2 15 1 16 3 17
REMARK H PARENT
REMARK Flexibility Score: 80.00
ROOT
ATOM      1  C   UNL     1     139.401 138.783 134.628  1.00  0.00    -0.067 C 
ATOM      2  C   UNL     1     139.110 138.588 133.339  1.00  0.00    -0.068 C 
ATOM      3  C   UNL     1     140.128 137.718 132.677  1.00  0.00     0.032 C 
ATOM      4  C   UNL     1     141.005 137.214 133.823  1.00  0.00     0.012 C 
ATOM      5  C   UNL     1     140.681 138.115 135.023  1.00  0.00     0.012 C 
ATOM      6  C   UNL     1     141.784 139.152 135.265  1.00  0.00     0.012 C 
ENDROOT
BRANCH   2   7
ATOM      7  C   UNL     1     137.967 139.220 132.554  1.00  0.00     0.012 C 
ATOM      8  C   UNL     1     138.039 138.776 131.088  1.00  0.00     0.012 C 
BRANCH   7   9
ATOM      9  C   UNL     1     137.844 140.765 132.648  1.00  0.00     0.008 CG0
ATOM     10  G   UNL     1     137.332 141.267 134.006  1.00  0.00     0.000 G0
ENDBRANCH   7   9
ENDBRANCH   2   7
BRANCH   1  11
ATOM     11  C   UNL     1     138.569 139.593 135.588  1.00  0.00     0.039 C 
BRANCH  11  12
ATOM     12  C   UNL     1     138.376 141.065 135.142  1.00  0.00     0.018 C 
BRANCH  12  13
ATOM     13  C   UNL     1     137.326 141.265 134.019  1.00  0.00     0.009 CG0
ATOM     14  G   UNL     1     137.832 140.767 132.656  1.00  0.00     0.000 G0
ENDBRANCH  12  13
BRANCH  12  15
ATOM     15  C   UNL     1     138.103 141.985 136.328  1.00  0.00    -0.077 C 
ATOM     16  C   UNL     1     138.903 143.030 136.602  1.00  0.00     0.008 C 
ATOM     17  C   UNL     1     136.915 141.737 137.221  1.00  0.00     0.039 C 
ENDBRANCH  12  15
ENDBRANCH  11  12
ENDBRANCH   1  11
TORSDOF 1
ENDMDL
MODEL 4
REMARK VINA RESULT:    -4.197      3.147      4.663
REMARK INTER + INTRA:          -5.647
REMARK INTER:                  -5.660
REMARK INTRA:                   0.013
REMARK UNBOUND:                 0.022
REMARK SMILES C=C(C)[C@@H]1CC[C@@H](C)C2=C(C1)[C@H](C)CC2
REMARK SMILES IDX 10 1 9 2 15 3 14 4 12 5 13 6 7 7 8 8 6 9 11 11 4 12 5 13
REMARK SMILES IDX 2 15 1 16 3 17
REMARK H PARENT
REMARK Flexibility Score: 80.00
ROOT
ATOM      1  C   UNL     1     143.486 139.407 134.593  1.00  0.00    -0.067 C 
ATOM      2  C   UNL     1     143.657 139.116 133.300  1.00  0.00    -0.068 C 
ATOM      3  C   UNL     1     144.520 140.129 132.624  1.00  0.00     0.032 C 
ATOM      4  C   UNL     1     145.050 141.002 133.761  1.00  0.00     0.012 C 
ATOM      5  C   UNL     1     144.169 140.683 134.976  1.00  0.00     0.012 C 
ATOM      6  C   UNL     1     143.143 141.791 135.239  1.00  0.00     0.012 C 
ENDROOT
BRANCH   2   7
ATOM      7  C   UNL     1     143.004 137.977 132.525  1.00  0.00     0.012 C 
ATOM      8  C   UNL     1     143.415 138.053 131.050  1.00  0.00     0.012 C 
BRANCH   7   9
ATOM      9  C   UNL     1     141.461 137.859 132.653  1.00  0.00     0.008 CG0
ATOM     10  G   UNL     1     140.988 137.357 134.026  1.00  0.00     0.000 G0
ENDBRANCH   7   9
ENDBRANCH   2   7
BRANCH   1  11
ATOM     11  C   UNL     1     142.688 138.579 135.566  1.00  0.00     0.039 C 
BRANCH  11  12
ATOM     12  C   UNL     1     141.208 138.395 135.146  1.00  0.00     0.018 C 
BRANCH  12  13
ATOM     13  C   UNL     1     140.982 137.351 134.022  1.00  0.00     0.009 CG0
ATOM     14  G   UNL     1     141.463 137.858 132.655  1.00  0.00     0.000 G0
ENDBRANCH  12  13
BRANCH  12  15
ATOM     15  C   UNL     1     140.308 138.122 136.348  1.00  0.00    -0.077 C 
ATOM     16  C   UNL     1     139.284 138.936 136.656  1.00  0.00     0.008 C 
ATOM     17  C   UNL     1     140.554 136.917 137.220  1.00  0.00     0.039 C 
ENDBRANCH  12  15
ENDBRANCH  11  12
ENDBRANCH   1  11
TORSDOF 1
ENDMDL
MODEL 5
REMARK VINA RESULT:    -3.973      1.974      5.125
REMARK INTER + INTRA:          -5.344
REMARK INTER:                  -5.350
REMARK INTRA:                   0.006
REMARK UNBOUND:                 0.022
REMARK SMILES C=C(C)[C@@H]1CC[C@@H](C)C2=C(C1)[C@H](C)CC2
REMARK SMILES IDX 10 1 9 2 15 3 14 4 12 5 13 6 7 7 8 8 6 9 11 11 4 12 5 13
REMARK SMILES IDX 2 15 1 16 3 17
REMARK H PARENT
REMARK Flexibility Score: 80.00
ROOT
ATOM      1  C   UNL     1     144.016 142.429 134.354  1.00  0.00    -0.067 C 
ATOM      2  C   UNL     1     143.454 142.770 135.517  1.00  0.00    -0.068 C 
ATOM      3  C   UNL     1     143.723 141.747 136.572  1.00  0.00     0.032 C 
ATOM      4  C   UNL     1     144.737 140.798 135.935  1.00  0.00     0.012 C 
ATOM      5  C   UNL     1     144.708 141.104 134.432  1.00  0.00     0.012 C 
ATOM      6  C   UNL     1     143.932 140.037 133.651  1.00  0.00     0.012 C 
ENDROOT
BRANCH   2   7
ATOM      7  C   UNL     1     142.559 143.975 135.782  1.00  0.00     0.012 C 
ATOM      8  C   UNL     1     142.078 143.952 137.237  1.00  0.00     0.012 C 
BRANCH   7   9
ATOM      9  C   UNL     1     141.357 144.160 134.816  1.00  0.00     0.008 CG0
ATOM     10  G   UNL     1     141.756 144.625 133.408  1.00  0.00     0.000 G0
ENDBRANCH   7   9
ENDBRANCH   2   7
BRANCH   1  11
ATOM     11  C   UNL     1     143.955 143.250 133.092  1.00  0.00     0.039 C 
BRANCH  11  12
ATOM     12  C   UNL     1     142.509 143.522 132.605  1.00  0.00     0.018 C 
BRANCH  12  13
ATOM     13  C   UNL     1     141.762 144.629 133.394  1.00  0.00     0.009 CG0
ATOM     14  G   UNL     1     141.362 144.168 134.803  1.00  0.00     0.000 G0
ENDBRANCH  12  13
BRANCH  12  15
ATOM     15  C   UNL     1     142.456 143.778 131.103  1.00  0.00    -0.077 C 
ATOM     16  C   UNL     1     141.357 143.496 130.383  1.00  0.00     0.008 C 
ATOM     17  C   UNL     1     143.649 144.362 130.391  1.00  0.00     0.039 C 
ENDBRANCH  12  15
ENDBRANCH  11  12
ENDBRANCH   1  11
TORSDOF 1
ENDMDL
MODEL 6
REMARK VINA RESULT:    -3.941      2.818      5.260
REMARK INTER + INTRA:          -5.301
REMARK INTER:                  -5.299
REMARK INTRA:                  -0.002
REMARK UNBOUND:                 0.022
REMARK SMILES C=C(C)[C@@H]1CC[C@@H](C)C2=C(C1)[C@H](C)CC2
REMARK SMILES IDX 10 1 9 2 15 3 14 4 12 5 13 6 7 7 8 8 6 9 11 11 4 12 5 13
REMARK SMILES IDX 2 15 1 16 3 17
REMARK H PARENT
REMARK Flexibility Score: 80.00
ROOT
ATOM      1  C   UNL     1     142.373 138.199 134.398  1.00  0.00    -0.067 C 
ATOM      2  C   UNL     1     142.745 138.744 135.560  1.00  0.00    -0.068 C 
ATOM      3  C   UNL     1     141.705 138.543 136.613  1.00  0.00     0.032 C 
ATOM      4  C   UNL     1     140.698 137.584 135.979  1.00  0.00     0.012 C 
ATOM      5  C   UNL     1     141.009 137.587 134.476  1.00  0.00     0.012 C 
ATOM      6  C   UNL     1     139.993 138.423 133.688  1.00  0.00     0.012 C 
ENDROOT
BRANCH   2   7
ATOM      7  C   UNL     1     144.000 139.567 135.824  1.00  0.00     0.012 C 
ATOM      8  C   UNL     1     143.999 140.062 137.275  1.00  0.00     0.012 C 
BRANCH   7   9
ATOM      9  C   UNL     1     144.263 140.747 134.849  1.00  0.00     0.008 CG0
ATOM     10  G   UNL     1     144.698 140.307 133.443  1.00  0.00     0.000 G0
ENDBRANCH   7   9
ENDBRANCH   2   7
BRANCH   1  11
ATOM     11  C   UNL     1     143.200 138.204 133.139  1.00  0.00     0.039 C 
BRANCH  11  12
ATOM     12  C   UNL     1     143.565 139.629 132.650  1.00  0.00     0.018 C 
BRANCH  12  13
ATOM     13  C   UNL     1     144.710 140.309 133.445  1.00  0.00     0.009 CG0
ATOM     14  G   UNL     1     144.260 140.754 134.844  1.00  0.00     0.000 G0
ENDBRANCH  12  13
BRANCH  12  15
ATOM     15  C   UNL     1     143.835 139.661 131.149  1.00  0.00    -0.077 C 
ATOM     16  C   UNL     1     143.928 140.823 130.479  1.00  0.00     0.008 C 
ATOM     17  C   UNL     1     144.008 138.375 130.383  1.00  0.00     0.039 C 
ENDBRANCH  12  15
ENDBRANCH  11  12
ENDBRANCH   1  11
TORSDOF 1
ENDMDL
MODEL 7
REMARK VINA RESULT:    -3.939      2.771      4.832
REMARK INTER + INTRA:          -5.299
REMARK INTER:                  -5.273
REMARK INTRA:                  -0.026
REMARK UNBOUND:                 0.022
REMARK SMILES C=C(C)[C@@H]1CC[C@@H](C)C2=C(C1)[C@H](C)CC2
REMARK SMILES IDX 10 1 9 2 15 3 14 4 12 5 13 6 7 7 8 8 6 9 11 11 4 12 5 13
REMARK SMILES IDX 2 15 1 16 3 17
REMARK H PARENT
REMARK Flexibility Score: 80.00
ROOT
ATOM      1  C   UNL     1     140.993 144.114 134.267  1.00  0.00    -0.067 C 
ATOM      2  C   UNL     1     139.836 143.446 134.290  1.00  0.00    -0.068 C 
ATOM      3  C   UNL     1     139.381 143.194 135.690  1.00  0.00     0.032 C 
ATOM      4  C   UNL     1     140.342 144.007 136.558  1.00  0.00     0.012 C 
ATOM      5  C   UNL     1     141.519 144.373 135.644  1.00  0.00     0.012 C 
ATOM      6  C   UNL     1     142.749 143.503 135.929  1.00  0.00     0.012 C 
ENDROOT
BRANCH   2   7
ATOM      7  C   UNL     1     139.075 142.893 133.091  1.00  0.00     0.012 C 
ATOM      8  C   UNL     1     137.830 142.139 133.571  1.00  0.00     0.012 C 
BRANCH   7   9
ATOM      9  C   UNL     1     139.895 142.015 132.106  1.00  0.00     0.008 CG0
ATOM     10  G   UNL     1     140.896 142.808 131.252  1.00  0.00     0.000 G0
ENDBRANCH   7   9
ENDBRANCH   2   7
BRANCH   1  11
ATOM     11  C   UNL     1     141.715 144.546 133.018  1.00  0.00     0.039 C 
BRANCH  11  12
ATOM     12  C   UNL     1     142.084 143.366 132.082  1.00  0.00     0.018 C 
BRANCH  12  13
ATOM     13  C   UNL     1     140.901 142.818 131.241  1.00  0.00     0.009 CG0
ATOM     14  G   UNL     1     139.903 142.021 132.094  1.00  0.00     0.000 G0
ENDBRANCH  12  13
BRANCH  12  15
ATOM     15  C   UNL     1     143.286 143.695 131.202  1.00  0.00    -0.077 C 
ATOM     16  C   UNL     1     143.132 144.130 129.940  1.00  0.00     0.008 C 
ATOM     17  C   UNL     1     144.684 143.538 131.742  1.00  0.00     0.039 C 
ENDBRANCH  12  15
ENDBRANCH  11  12
ENDBRANCH   1  11
TORSDOF 1
ENDMDL
MODEL 8
REMARK VINA RESULT:    -3.921      4.814      6.506
REMARK INTER + INTRA:          -5.275
REMARK INTER:                  -5.287
REMARK INTRA:                   0.012
REMARK UNBOUND:                 0.022
REMARK SMILES C=C(C)[C@@H]1CC[C@@H](C)C2=C(C1)[C@H](C)CC2
REMARK SMILES IDX 10 1 9 2 15 3 14 4 12 5 13 6 7 7 8 8 6 9 11 11 4 12 5 13
REMARK SMILES IDX 2 15 1 16 3 17
REMARK H PARENT
REMARK Flexibility Score: 80.00
ROOT
ATOM      1  C   UNL     1     138.064 140.062 134.492  1.00  0.00    -0.067 C 
ATOM      2  C   UNL     1     138.556 139.660 135.666  1.00  0.00    -0.068 C 
ATOM      3  C   UNL     1     138.368 140.700 136.721  1.00  0.00     0.032 C 
ATOM      4  C   UNL     1     137.474 141.752 136.066  1.00  0.00     0.012 C 
ATOM      5  C   UNL     1     137.510 141.451 134.561  1.00  0.00     0.012 C 
ATOM      6  C   UNL     1     138.413 142.435 133.808  1.00  0.00     0.012 C 
ENDROOT
BRANCH   2   7
ATOM      7  C   UNL     1     139.316 138.368 135.945  1.00  0.00     0.012 C 
ATOM      8  C   UNL     1     139.750 138.330 137.415  1.00  0.00     0.012 C 
BRANCH   7   9
ATOM      9  C   UNL     1     140.523 138.069 135.014  1.00  0.00     0.008 CG0
ATOM     10  G   UNL     1     140.122 137.653 133.591  1.00  0.00     0.000 G0
ENDBRANCH   7   9
ENDBRANCH   2   7
BRANCH   1  11
ATOM     11  C   UNL     1     138.072 139.245 133.226  1.00  0.00     0.039 C 
BRANCH  11  12
ATOM     12  C   UNL     1     139.495 138.823 132.777  1.00  0.00     0.018 C 
BRANCH  12  13
ATOM     13  C   UNL     1     140.104 137.650 133.588  1.00  0.00     0.009 CG0
ATOM     14  G   UNL     1     140.509 138.074 135.007  1.00  0.00     0.000 G0
ENDBRANCH  12  13
BRANCH  12  15
ATOM     15  C   UNL     1     139.559 138.554 131.277  1.00  0.00    -0.077 C 
ATOM     16  C   UNL     1     140.674 138.799 130.568  1.00  0.00     0.008 C 
ATOM     17  C   UNL     1     138.358 138.000 130.555  1.00  0.00     0.039 C 
ENDBRANCH  12  15
ENDBRANCH  11  12
ENDBRANCH   1  11
TORSDOF 1
ENDMDL
MODEL 9
REMARK VINA RESULT:    -3.761      3.526      5.542
REMARK INTER + INTRA:          -5.058
REMARK INTER:                  -5.025
REMARK INTRA:                  -0.033
REMARK UNBOUND:                 0.022
REMARK SMILES C=C(C)[C@@H]1CC[C@@H](C)C2=C(C1)[C@H](C)CC2
REMARK SMILES IDX 10 1 9 2 15 3 14 4 12 5 13 6 7 7 8 8 6 9 11 11 4 12 5 13
REMARK SMILES IDX 2 15 1 16 3 17
REMARK H PARENT
REMARK Flexibility Score: 80.00
ROOT
ATOM      1  C   UNL     1     141.083 139.623 133.941  1.00  0.00    -0.067 C 
ATOM      2  C   UNL     1     139.949 139.307 133.308  1.00  0.00    -0.068 C 
ATOM      3  C   UNL     1     139.888 137.848 132.997  1.00  0.00     0.032 C 
ATOM      4  C   UNL     1     141.084 137.248 133.734  1.00  0.00     0.012 C 
ATOM      5  C   UNL     1     141.979 138.436 134.113  1.00  0.00     0.012 C 
ATOM      6  C   UNL     1     143.202 138.540 133.193  1.00  0.00     0.012 C 
ENDROOT
BRANCH   2   7
ATOM      7  C   UNL     1     138.864 140.270 132.842  1.00  0.00     0.012 C 
ATOM      8  C   UNL     1     137.771 139.497 132.096  1.00  0.00     0.012 C 
BRANCH   7   9
ATOM      9  C   UNL     1     139.343 141.483 131.997  1.00  0.00     0.008 CG0
ATOM     10  G   UNL     1     140.097 142.547 132.808  1.00  0.00     0.000 G0
ENDBRANCH   7   9
ENDBRANCH   2   7
BRANCH   1  11
ATOM     11  C   UNL     1     141.451 141.004 134.417  1.00  0.00     0.039 C 
BRANCH  11  12
ATOM     12  C   UNL     1     141.491 142.055 133.278  1.00  0.00     0.018 C 
BRANCH  12  13
ATOM     13  C   UNL     1     140.099 142.549 132.807  1.00  0.00     0.009 CG0
ATOM     14  G   UNL     1     139.350 141.483 131.992  1.00  0.00     0.000 G0
ENDBRANCH  12  13
BRANCH  12  15
ATOM     15  C   UNL     1     142.409 143.224 133.619  1.00  0.00    -0.077 C 
ATOM     16  C   UNL     1     143.603 143.030 134.206  1.00  0.00     0.008 C 
ATOM     17  C   UNL     1     141.990 144.636 133.296  1.00  0.00     0.039 C 
ENDBRANCH  12  15
ENDBRANCH  11  12
ENDBRANCH   1  11
TORSDOF 1
ENDMDL
