MODEL 1
REMARK VINA RESULT:    -5.447      0.000      0.000
REMARK INTER + INTRA:          -6.216
REMARK INTER:                  -6.084
REMARK INTRA:                  -0.132
REMARK UNBOUND:                -0.132
REMARK SMILES O=C([O-])C=Cc1ccccc1
REMARK SMILES IDX 4 1 5 2 2 3 1 4 3 5 6 6 7 7 11 8 8 9 10 10 9 11
REMARK H PARENT
REMARK Flexibility Score: inf
ROOT
ATOM      1  C   UNL     1      15.096  14.302  30.052  1.00  0.00     0.025 C 
ATOM      2  C   UNL     1      14.080  15.086  29.658  1.00  0.00     0.010 C 
ENDROOT
BRANCH   1   3
ATOM      3  C   UNL     1      15.067  13.562  31.325  1.00  0.00     0.064 C 
ATOM      4  O   UNL     1      14.353  13.947  32.288  1.00  0.00    -0.545 OA
ATOM      5  O   UNL     1      15.842  12.418  31.466  1.00  0.00    -0.545 OA
ENDBRANCH   1   3
BRANCH   2   6
ATOM      6  C   UNL     1      14.047  15.859  28.387  1.00  0.00    -0.026 A 
ATOM      7  C   UNL     1      13.248  17.016  28.336  1.00  0.00     0.008 A 
ATOM      8  C   UNL     1      14.775  15.491  27.234  1.00  0.00     0.008 A 
ATOM      9  C   UNL     1      13.175  17.784  27.169  1.00  0.00     0.001 A 
ATOM     10  C   UNL     1      14.699  16.263  26.071  1.00  0.00     0.001 A 
ATOM     11  C   UNL     1      13.900  17.408  26.038  1.00  0.00     0.000 A 
ENDBRANCH   2   6
TORSDOF 2
ENDMDL
MODEL 2
REMARK VINA RESULT:    -5.215      1.903      2.408
REMARK INTER + INTRA:          -5.957
REMARK INTER:                  -5.817
REMARK INTRA:                  -0.140
REMARK UNBOUND:                -0.132
REMARK SMILES O=C([O-])C=Cc1ccccc1
REMARK SMILES IDX 4 1 5 2 2 3 1 4 3 5 6 6 7 7 11 8 8 9 10 10 9 11
REMARK H PARENT
REMARK Flexibility Score: inf
ROOT
ATOM      1  C   UNL     1      13.858  15.434  28.869  1.00  0.00     0.025 C 
ATOM      2  C   UNL     1      14.132  15.602  27.566  1.00  0.00     0.010 C 
ENDROOT
BRANCH   1   3
ATOM      3  C   UNL     1      14.832  14.847  29.806  1.00  0.00     0.064 C 
ATOM      4  O   UNL     1      16.060  15.114  29.724  1.00  0.00    -0.545 OA
ATOM      5  O   UNL     1      14.386  13.982  30.798  1.00  0.00    -0.545 OA
ENDBRANCH   1   3
BRANCH   2   6
ATOM      6  C   UNL     1      13.195  16.188  26.569  1.00  0.00    -0.026 A 
ATOM      7  C   UNL     1      12.424  17.299  26.957  1.00  0.00     0.008 A 
ATOM      8  C   UNL     1      13.044  15.686  25.258  1.00  0.00     0.008 A 
ATOM      9  C   UNL     1      11.526  17.892  26.064  1.00  0.00     0.001 A 
ATOM     10  C   UNL     1      12.144  16.284  24.369  1.00  0.00     0.001 A 
ATOM     11  C   UNL     1      11.387  17.385  24.772  1.00  0.00     0.000 A 
ENDBRANCH   2   6
TORSDOF 2
ENDMDL
MODEL 3
REMARK VINA RESULT:    -5.120      1.898      2.691
REMARK INTER + INTRA:          -5.851
REMARK INTER:                  -5.720
REMARK INTRA:                  -0.131
REMARK UNBOUND:                -0.132
REMARK SMILES O=C([O-])C=Cc1ccccc1
REMARK SMILES IDX 4 1 5 2 2 3 1 4 3 5 6 6 7 7 11 8 8 9 10 10 9 11
REMARK H PARENT
REMARK Flexibility Score: inf
ROOT
ATOM      1  C   UNL     1      13.877  15.489  28.954  1.00  0.00     0.025 C 
ATOM      2  C   UNL     1      14.023  15.461  27.620  1.00  0.00     0.010 C 
ENDROOT
BRANCH   1   3
ATOM      3  C   UNL     1      14.807  14.790  29.859  1.00  0.00     0.064 C 
ATOM      4  O   UNL     1      14.385  14.035  30.774  1.00  0.00    -0.545 OA
ATOM      5  O   UNL     1      16.176  14.968  29.699  1.00  0.00    -0.545 OA
ENDBRANCH   1   3
BRANCH   2   6
ATOM      6  C   UNL     1      13.121  16.144  26.653  1.00  0.00    -0.026 A 
ATOM      7  C   UNL     1      13.032  15.623  25.349  1.00  0.00     0.008 A 
ATOM      8  C   UNL     1      12.353  17.284  26.978  1.00  0.00     0.008 A 
ATOM      9  C   UNL     1      12.202  16.221  24.395  1.00  0.00     0.001 A 
ATOM     10  C   UNL     1      11.525  17.877  26.020  1.00  0.00     0.001 A 
ATOM     11  C   UNL     1      11.450  17.347  24.731  1.00  0.00     0.000 A 
ENDBRANCH   2   6
TORSDOF 2
ENDMDL
MODEL 4
REMARK VINA RESULT:    -5.060      2.163      3.356
REMARK INTER + INTRA:          -5.784
REMARK INTER:                  -5.651
REMARK INTRA:                  -0.133
REMARK UNBOUND:                -0.132
REMARK SMILES O=C([O-])C=Cc1ccccc1
REMARK SMILES IDX 4 1 5 2 2 3 1 4 3 5 6 6 7 7 11 8 8 9 10 10 9 11
REMARK H PARENT
REMARK Flexibility Score: inf
ROOT
ATOM      1  C   UNL     1      14.031  16.077  27.879  1.00  0.00     0.025 C 
ATOM      2  C   UNL     1      13.789  15.586  26.654  1.00  0.00     0.010 C 
ENDROOT
BRANCH   1   3
ATOM      3  C   UNL     1      14.296  15.203  29.036  1.00  0.00     0.064 C 
ATOM      4  O   UNL     1      15.285  14.423  29.052  1.00  0.00    -0.545 OA
ATOM      5  O   UNL     1      13.437  15.239  30.128  1.00  0.00    -0.545 OA
ENDBRANCH   1   3
BRANCH   2   6
ATOM      6  C   UNL     1      13.516  16.413  25.446  1.00  0.00    -0.026 A 
ATOM      7  C   UNL     1      14.506  17.320  25.026  1.00  0.00     0.008 A 
ATOM      8  C   UNL     1      12.317  16.331  24.705  1.00  0.00     0.008 A 
ATOM      9  C   UNL     1      14.306  18.123  23.899  1.00  0.00     0.001 A 
ATOM     10  C   UNL     1      12.124  17.137  23.578  1.00  0.00     0.001 A 
ATOM     11  C   UNL     1      13.117  18.032  23.176  1.00  0.00     0.000 A 
ENDBRANCH   2   6
TORSDOF 2
ENDMDL
MODEL 5
REMARK VINA RESULT:    -4.781      5.235      6.697
REMARK INTER + INTRA:          -5.473
REMARK INTER:                  -5.335
REMARK INTRA:                  -0.138
REMARK UNBOUND:                -0.132
REMARK SMILES O=C([O-])C=Cc1ccccc1
REMARK SMILES IDX 4 1 5 2 2 3 1 4 3 5 6 6 7 7 11 8 8 9 10 10 9 11
REMARK H PARENT
REMARK Flexibility Score: inf
ROOT
ATOM      1  C   UNL     1      13.330  17.839  23.603  1.00  0.00     0.025 C 
ATOM      2  C   UNL     1      13.043  16.780  24.376  1.00  0.00     0.010 C 
ENDROOT
BRANCH   1   3
ATOM      3  C   UNL     1      12.797  17.980  22.236  1.00  0.00     0.064 C 
ATOM      4  O   UNL     1      11.557  17.972  22.015  1.00  0.00    -0.545 OA
ATOM      5  O   UNL     1      13.678  18.123  21.172  1.00  0.00    -0.545 OA
ENDBRANCH   1   3
BRANCH   2   6
ATOM      6  C   UNL     1      13.548  16.578  25.761  1.00  0.00    -0.026 A 
ATOM      7  C   UNL     1      13.501  17.669  26.649  1.00  0.00     0.008 A 
ATOM      8  C   UNL     1      14.068  15.351  26.227  1.00  0.00     0.008 A 
ATOM      9  C   UNL     1      13.960  17.540  27.963  1.00  0.00     0.001 A 
ATOM     10  C   UNL     1      14.526  15.229  27.543  1.00  0.00     0.001 A 
ATOM     11  C   UNL     1      14.473  16.321  28.409  1.00  0.00     0.000 A 
ENDBRANCH   2   6
TORSDOF 2
ENDMDL
MODEL 6
REMARK VINA RESULT:    -4.499      2.975      5.547
REMARK INTER + INTRA:          -5.157
REMARK INTER:                  -5.013
REMARK INTRA:                  -0.144
REMARK UNBOUND:                -0.132
REMARK SMILES O=C([O-])C=Cc1ccccc1
REMARK SMILES IDX 4 1 5 2 2 3 1 4 3 5 6 6 7 7 11 8 8 9 10 10 9 11
REMARK H PARENT
REMARK Flexibility Score: inf
ROOT
ATOM      1  C   UNL     1      14.902  15.540  27.964  1.00  0.00     0.025 C 
ATOM      2  C   UNL     1      14.363  15.386  29.184  1.00  0.00     0.010 C 
ENDROOT
BRANCH   1   3
ATOM      3  C   UNL     1      14.505  16.637  27.064  1.00  0.00     0.064 C 
ATOM      4  O   UNL     1      14.660  16.548  25.818  1.00  0.00    -0.545 OA
ATOM      5  O   UNL     1      13.949  17.792  27.602  1.00  0.00    -0.545 OA
ENDBRANCH   1   3
BRANCH   2   6
ATOM      6  C   UNL     1      14.718  14.302  30.139  1.00  0.00    -0.026 A 
ATOM      7  C   UNL     1      15.292  13.125  29.623  1.00  0.00     0.008 A 
ATOM      8  C   UNL     1      14.509  14.395  31.533  1.00  0.00     0.008 A 
ATOM      9  C   UNL     1      15.647  12.072  30.471  1.00  0.00     0.001 A 
ATOM     10  C   UNL     1      14.867  13.338  32.376  1.00  0.00     0.001 A 
ATOM     11  C   UNL     1      15.434  12.178  31.846  1.00  0.00     0.000 A 
ENDBRANCH   2   6
TORSDOF 2
ENDMDL
MODEL 7
REMARK VINA RESULT:    -4.453      4.547      6.155
REMARK INTER + INTRA:          -5.106
REMARK INTER:                  -4.979
REMARK INTRA:                  -0.128
REMARK UNBOUND:                -0.132
REMARK SMILES O=C([O-])C=Cc1ccccc1
REMARK SMILES IDX 4 1 5 2 2 3 1 4 3 5 6 6 7 7 11 8 8 9 10 10 9 11
REMARK H PARENT
REMARK Flexibility Score: inf
ROOT
ATOM      1  C   UNL     1      13.145  16.809  24.794  1.00  0.00     0.025 C 
ATOM      2  C   UNL     1      13.831  17.282  25.846  1.00  0.00     0.010 C 
ENDROOT
BRANCH   1   3
ATOM      3  C   UNL     1      12.997  17.578  23.545  1.00  0.00     0.064 C 
ATOM      4  O   UNL     1      13.988  18.125  22.994  1.00  0.00    -0.545 OA
ATOM      5  O   UNL     1      11.740  17.702  22.967  1.00  0.00    -0.545 OA
ENDBRANCH   1   3
BRANCH   2   6
ATOM      6  C   UNL     1      14.019  16.558  27.133  1.00  0.00    -0.026 A 
ATOM      7  C   UNL     1      15.223  15.857  27.329  1.00  0.00     0.008 A 
ATOM      8  C   UNL     1      13.052  16.540  28.162  1.00  0.00     0.008 A 
ATOM      9  C   UNL     1      15.457  15.158  28.518  1.00  0.00     0.001 A 
ATOM     10  C   UNL     1      13.292  15.839  29.348  1.00  0.00     0.001 A 
ATOM     11  C   UNL     1      14.492  15.149  29.526  1.00  0.00     0.000 A 
ENDBRANCH   2   6
TORSDOF 2
ENDMDL
MODEL 8
REMARK VINA RESULT:    -3.102     18.654     20.346
REMARK INTER + INTRA:          -3.596
REMARK INTER:                  -3.463
REMARK INTRA:                  -0.133
REMARK UNBOUND:                -0.132
REMARK SMILES O=C([O-])C=Cc1ccccc1
REMARK SMILES IDX 4 1 5 2 2 3 1 4 3 5 6 6 7 7 11 8 8 9 10 10 9 11
REMARK H PARENT
REMARK Flexibility Score: inf
ROOT
ATOM      1  C   UNL     1       7.607  -1.964  33.119  1.00  0.00     0.025 C 
ATOM      2  C   UNL     1       7.771  -2.005  34.451  1.00  0.00     0.010 C 
ENDROOT
BRANCH   1   3
ATOM      3  C   UNL     1       8.749  -1.927  32.189  1.00  0.00     0.064 C 
ATOM      4  O   UNL     1       8.581  -1.735  30.956  1.00  0.00    -0.545 OA
ATOM      5  O   UNL     1      10.036  -2.107  32.682  1.00  0.00    -0.545 OA
ENDBRANCH   1   3
BRANCH   2   6
ATOM      6  C   UNL     1       6.663  -2.045  35.443  1.00  0.00    -0.026 A 
ATOM      7  C   UNL     1       6.998  -2.085  36.809  1.00  0.00     0.008 A 
ATOM      8  C   UNL     1       5.298  -2.044  35.083  1.00  0.00     0.008 A 
ATOM      9  C   UNL     1       6.001  -2.123  37.789  1.00  0.00     0.001 A 
ATOM     10  C   UNL     1       4.305  -2.081  36.068  1.00  0.00     0.001 A 
ATOM     11  C   UNL     1       4.656  -2.121  37.418  1.00  0.00     0.000 A 
ENDBRANCH   2   6
TORSDOF 2
ENDMDL
MODEL 9
REMARK VINA RESULT:    -3.077     18.733     20.508
REMARK INTER + INTRA:          -3.569
REMARK INTER:                  -3.422
REMARK INTRA:                  -0.146
REMARK UNBOUND:                -0.132
REMARK SMILES O=C([O-])C=Cc1ccccc1
REMARK SMILES IDX 4 1 5 2 2 3 1 4 3 5 6 6 7 7 11 8 8 9 10 10 9 11
REMARK H PARENT
REMARK Flexibility Score: inf
ROOT
ATOM      1  C   UNL     1       7.426  -1.878  33.422  1.00  0.00     0.025 C 
ATOM      2  C   UNL     1       7.563  -2.119  34.736  1.00  0.00     0.010 C 
ENDROOT
BRANCH   1   3
ATOM      3  C   UNL     1       8.573  -1.892  32.498  1.00  0.00     0.064 C 
ATOM      4  O   UNL     1       8.414  -1.740  31.258  1.00  0.00    -0.545 OA
ATOM      5  O   UNL     1       9.853  -2.077  33.004  1.00  0.00    -0.545 OA
ENDBRANCH   1   3
BRANCH   2   6
ATOM      6  C   UNL     1       6.448  -2.120  35.721  1.00  0.00    -0.026 A 
ATOM      7  C   UNL     1       5.130  -2.117  35.230  1.00  0.00     0.008 A 
ATOM      8  C   UNL     1       6.647  -2.124  37.119  1.00  0.00     0.008 A 
ATOM      9  C   UNL     1       4.041  -2.118  36.107  1.00  0.00     0.001 A 
ATOM     10  C   UNL     1       5.554  -2.125  37.991  1.00  0.00     0.001 A 
ATOM     11  C   UNL     1       4.253  -2.122  37.486  1.00  0.00     0.000 A 
ENDBRANCH   2   6
TORSDOF 2
ENDMDL
