MODEL 1
REMARK VINA RESULT:    -3.459      0.000      0.000
REMARK INTER + INTRA:          -5.547
REMARK INTER:                  -4.874
REMARK INTRA:                  -0.672
REMARK UNBOUND:                -0.672
REMARK SMILES C=CCCCCCCC(=O)[O-]
REMARK SMILES IDX 6 1 7 2 8 3 9 4 10 5 11 6 5 7 4 8 3 9 2 10 1 11
REMARK H PARENT
REMARK Flexibility Score: inf
ROOT
ATOM      1  C   UNL     1      19.154 -22.433  -1.193  1.00  0.00     0.000 C 
ENDROOT
BRANCH   1   2
ATOM      2  C   UNL     1      18.293 -21.709  -0.147  1.00  0.00     0.006 C 
BRANCH   2   3
ATOM      3  C   UNL     1      18.977 -20.426   0.334  1.00  0.00     0.053 C 
BRANCH   3   4
ATOM      4  C   UNL     1      19.219 -19.499  -0.815  1.00  0.00     0.041 C 
ATOM      5  O   UNL     1      18.253 -19.073  -1.501  1.00  0.00    -0.550 OA
ATOM      6  O   UNL     1      20.517 -19.143  -1.160  1.00  0.00    -0.550 OA
ENDBRANCH   3   4
ENDBRANCH   2   3
ENDBRANCH   1   2
BRANCH   1   7
ATOM      7  C   UNL     1      18.334 -22.941  -2.388  1.00  0.00     0.000 C 
BRANCH   7   8
ATOM      8  C   UNL     1      18.554 -22.103  -3.657  1.00  0.00     0.004 C 
BRANCH   8   9
ATOM      9  C   UNL     1      17.299 -21.291  -4.002  1.00  0.00     0.027 C 
BRANCH   9  10
ATOM     10  C   UNL     1      16.087 -21.834  -3.296  1.00  0.00    -0.035 C 
ATOM     11  C   UNL     1      14.848 -21.511  -3.677  1.00  0.00     0.004 C 
ENDBRANCH   9  10
ENDBRANCH   8   9
ENDBRANCH   7   8
ENDBRANCH   1   7
TORSDOF 7
ENDMDL
MODEL 2
REMARK VINA RESULT:    -3.424      1.033      1.961
REMARK INTER + INTRA:          -5.498
REMARK INTER:                  -4.669
REMARK INTRA:                  -0.829
REMARK UNBOUND:                -0.672
REMARK SMILES C=CCCCCCCC(=O)[O-]
REMARK SMILES IDX 6 1 7 2 8 3 9 4 10 5 11 6 5 7 4 8 3 9 2 10 1 11
REMARK H PARENT
REMARK Flexibility Score: inf
ROOT
ATOM      1  C   UNL     1      19.802 -22.945  -0.717  1.00  0.00     0.000 C 
ENDROOT
BRANCH   1   2
ATOM      2  C   UNL     1      20.049 -21.609  -0.002  1.00  0.00     0.006 C 
BRANCH   2   3
ATOM      3  C   UNL     1      18.834 -20.685  -0.130  1.00  0.00     0.053 C 
BRANCH   3   4
ATOM      4  C   UNL     1      19.196 -19.446  -0.886  1.00  0.00     0.041 C 
ATOM      5  O   UNL     1      20.400 -19.190  -1.146  1.00  0.00    -0.550 OA
ATOM      6  O   UNL     1      18.205 -18.547  -1.261  1.00  0.00    -0.550 OA
ENDBRANCH   3   4
ENDBRANCH   2   3
ENDBRANCH   1   2
BRANCH   1   7
ATOM      7  C   UNL     1      18.310 -23.298  -0.817  1.00  0.00     0.000 C 
BRANCH   7   8
ATOM      8  C   UNL     1      17.869 -23.606  -2.256  1.00  0.00     0.004 C 
BRANCH   8   9
ATOM      9  C   UNL     1      16.820 -22.595  -2.735  1.00  0.00     0.027 C 
BRANCH   9  10
ATOM     10  C   UNL     1      17.459 -21.460  -3.487  1.00  0.00    -0.035 C 
ATOM     11  C   UNL     1      18.650 -21.590  -4.078  1.00  0.00     0.004 C 
ENDBRANCH   9  10
ENDBRANCH   8   9
ENDBRANCH   7   8
ENDBRANCH   1   7
TORSDOF 7
ENDMDL
MODEL 3
REMARK VINA RESULT:    -3.250      1.436      2.510
REMARK INTER + INTRA:          -5.253
REMARK INTER:                  -4.583
REMARK INTRA:                  -0.670
REMARK UNBOUND:                -0.672
REMARK SMILES C=CCCCCCCC(=O)[O-]
REMARK SMILES IDX 6 1 7 2 8 3 9 4 10 5 11 6 5 7 4 8 3 9 2 10 1 11
REMARK H PARENT
REMARK Flexibility Score: inf
ROOT
ATOM      1  C   UNL     1      16.627 -20.834  -0.428  1.00  0.00     0.000 C 
ENDROOT
BRANCH   1   2
ATOM      2  C   UNL     1      17.496 -19.616  -0.774  1.00  0.00     0.006 C 
BRANCH   2   3
ATOM      3  C   UNL     1      18.663 -19.479   0.208  1.00  0.00     0.053 C 
BRANCH   3   4
ATOM      4  C   UNL     1      19.947 -19.890  -0.442  1.00  0.00     0.041 C 
ATOM      5  O   UNL     1      20.280 -21.103  -0.475  1.00  0.00    -0.550 OA
ATOM      6  O   UNL     1      20.799 -18.927  -0.968  1.00  0.00    -0.550 OA
ENDBRANCH   3   4
ENDBRANCH   2   3
ENDBRANCH   1   2
BRANCH   1   7
ATOM      7  C   UNL     1      15.497 -21.065  -1.442  1.00  0.00     0.000 C 
BRANCH   7   8
ATOM      8  C   UNL     1      15.999 -21.680  -2.758  1.00  0.00     0.004 C 
BRANCH   8   9
ATOM      9  C   UNL     1      17.057 -22.757  -2.490  1.00  0.00     0.027 C 
BRANCH   9  10
ATOM     10  C   UNL     1      18.313 -22.496  -3.276  1.00  0.00    -0.035 C 
ATOM     11  C   UNL     1      18.465 -21.391  -4.011  1.00  0.00     0.004 C 
ENDBRANCH   9  10
ENDBRANCH   8   9
ENDBRANCH   7   8
ENDBRANCH   1   7
TORSDOF 7
ENDMDL
MODEL 4
REMARK VINA RESULT:    -3.187      7.670      9.418
REMARK INTER + INTRA:          -5.164
REMARK INTER:                  -4.466
REMARK INTRA:                  -0.698
REMARK UNBOUND:                -0.672
REMARK SMILES C=CCCCCCCC(=O)[O-]
REMARK SMILES IDX 6 1 7 2 8 3 9 4 10 5 11 6 5 7 4 8 3 9 2 10 1 11
REMARK H PARENT
REMARK Flexibility Score: inf
ROOT
ATOM      1  C   UNL     1      15.621 -13.943  -3.049  1.00  0.00     0.000 C 
ENDROOT
BRANCH   1   2
ATOM      2  C   UNL     1      15.639 -12.713  -3.968  1.00  0.00     0.006 C 
BRANCH   2   3
ATOM      3  C   UNL     1      16.792 -11.773  -3.604  1.00  0.00     0.053 C 
BRANCH   3   4
ATOM      4  C   UNL     1      16.311 -10.674  -2.711  1.00  0.00     0.041 C 
ATOM      5  O   UNL     1      17.090  -9.746  -2.370  1.00  0.00    -0.550 OA
ATOM      6  O   UNL     1      15.013 -10.699  -2.214  1.00  0.00    -0.550 OA
ENDBRANCH   3   4
ENDBRANCH   2   3
ENDBRANCH   1   2
BRANCH   1   7
ATOM      7  C   UNL     1      17.031 -14.416  -2.663  1.00  0.00     0.000 C 
BRANCH   7   8
ATOM      8  C   UNL     1      17.070 -15.107  -1.291  1.00  0.00     0.004 C 
BRANCH   8   9
ATOM      9  C   UNL     1      17.127 -14.073  -0.159  1.00  0.00     0.027 C 
BRANCH   9  10
ATOM     10  C   UNL     1      18.135 -12.997  -0.453  1.00  0.00    -0.035 C 
ATOM     11  C   UNL     1      18.233 -11.899   0.302  1.00  0.00     0.004 C 
ENDBRANCH   9  10
ENDBRANCH   8   9
ENDBRANCH   7   8
ENDBRANCH   1   7
TORSDOF 7
ENDMDL
MODEL 5
REMARK VINA RESULT:    -3.156      4.436      6.330
REMARK INTER + INTRA:          -5.120
REMARK INTER:                  -4.775
REMARK INTRA:                  -0.345
REMARK UNBOUND:                -0.672
REMARK SMILES C=CCCCCCCC(=O)[O-]
REMARK SMILES IDX 6 1 7 2 8 3 9 4 10 5 11 6 5 7 4 8 3 9 2 10 1 11
REMARK H PARENT
REMARK Flexibility Score: inf
ROOT
ATOM      1  C   UNL     1      17.604 -16.397   0.655  1.00  0.00     0.000 C 
ENDROOT
BRANCH   1   2
ATOM      2  C   UNL     1      17.847 -17.530  -0.353  1.00  0.00     0.006 C 
BRANCH   2   3
ATOM      3  C   UNL     1      18.838 -18.556   0.204  1.00  0.00     0.053 C 
BRANCH   3   4
ATOM      4  C   UNL     1      19.673 -19.130  -0.897  1.00  0.00     0.041 C 
ATOM      5  O   UNL     1      20.919 -18.950  -0.907  1.00  0.00    -0.550 OA
ATOM      6  O   UNL     1      19.069 -19.822  -1.940  1.00  0.00    -0.550 OA
ENDBRANCH   3   4
ENDBRANCH   2   3
ENDBRANCH   1   2
BRANCH   1   7
ATOM      7  C   UNL     1      16.974 -15.153   0.010  1.00  0.00     0.000 C 
BRANCH   7   8
ATOM      8  C   UNL     1      17.843 -13.897   0.173  1.00  0.00     0.004 C 
BRANCH   8   9
ATOM      9  C   UNL     1      17.844 -13.060  -1.112  1.00  0.00     0.027 C 
BRANCH   9  10
ATOM     10  C   UNL     1      17.268 -13.833  -2.266  1.00  0.00    -0.035 C 
ATOM     11  C   UNL     1      16.796 -13.222  -3.356  1.00  0.00     0.004 C 
ENDBRANCH   9  10
ENDBRANCH   8   9
ENDBRANCH   7   8
ENDBRANCH   1   7
TORSDOF 7
ENDMDL
MODEL 6
REMARK VINA RESULT:    -3.147     10.281     11.538
REMARK INTER + INTRA:          -5.108
REMARK INTER:                  -4.820
REMARK INTRA:                  -0.287
REMARK UNBOUND:                -0.672
REMARK SMILES C=CCCCCCCC(=O)[O-]
REMARK SMILES IDX 6 1 7 2 8 3 9 4 10 5 11 6 5 7 4 8 3 9 2 10 1 11
REMARK H PARENT
REMARK Flexibility Score: inf
ROOT
ATOM      1  C   UNL     1      15.543 -10.691  -2.199  1.00  0.00     0.000 C 
ENDROOT
BRANCH   1   2
ATOM      2  C   UNL     1      15.313  -9.173  -2.217  1.00  0.00     0.006 C 
BRANCH   2   3
ATOM      3  C   UNL     1      13.849  -8.837  -1.916  1.00  0.00     0.053 C 
BRANCH   3   4
ATOM      4  C   UNL     1      13.495  -7.493  -2.471  1.00  0.00     0.041 C 
ATOM      5  O   UNL     1      12.961  -7.396  -3.606  1.00  0.00    -0.550 OA
ATOM      6  O   UNL     1      13.802  -6.343  -1.754  1.00  0.00    -0.550 OA
ENDBRANCH   3   4
ENDBRANCH   2   3
ENDBRANCH   1   2
BRANCH   1   7
ATOM      7  C   UNL     1      16.712 -11.125  -3.097  1.00  0.00     0.000 C 
BRANCH   7   8
ATOM      8  C   UNL     1      16.304 -12.188  -4.128  1.00  0.00     0.004 C 
BRANCH   8   9
ATOM      9  C   UNL     1      15.874 -13.487  -3.435  1.00  0.00     0.027 C 
BRANCH   9  10
ATOM     10  C   UNL     1      17.059 -14.230  -2.882  1.00  0.00    -0.035 C 
ATOM     11  C   UNL     1      16.958 -15.013  -1.805  1.00  0.00     0.004 C 
ENDBRANCH   9  10
ENDBRANCH   8   9
ENDBRANCH   7   8
ENDBRANCH   1   7
TORSDOF 7
ENDMDL
MODEL 7
REMARK VINA RESULT:    -3.111      8.001     10.085
REMARK INTER + INTRA:          -5.056
REMARK INTER:                  -4.392
REMARK INTRA:                  -0.664
REMARK UNBOUND:                -0.672
REMARK SMILES C=CCCCCCCC(=O)[O-]
REMARK SMILES IDX 6 1 7 2 8 3 9 4 10 5 11 6 5 7 4 8 3 9 2 10 1 11
REMARK H PARENT
REMARK Flexibility Score: inf
ROOT
ATOM      1  C   UNL     1      16.772 -10.886  -3.100  1.00  0.00     0.000 C 
ENDROOT
BRANCH   1   2
ATOM      2  C   UNL     1      16.491 -12.085  -4.017  1.00  0.00     0.006 C 
BRANCH   2   3
ATOM      3  C   UNL     1      15.499 -13.053  -3.367  1.00  0.00     0.053 C 
BRANCH   3   4
ATOM      4  C   UNL     1      16.208 -14.266  -2.854  1.00  0.00     0.041 C 
ATOM      5  O   UNL     1      17.457 -14.366  -2.969  1.00  0.00    -0.550 OA
ATOM      6  O   UNL     1      15.483 -15.310  -2.291  1.00  0.00    -0.550 OA
ENDBRANCH   3   4
ENDBRANCH   2   3
ENDBRANCH   1   2
BRANCH   1   7
ATOM      7  C   UNL     1      15.570 -10.522  -2.214  1.00  0.00     0.000 C 
BRANCH   7   8
ATOM      8  C   UNL     1      15.886 -10.628  -0.715  1.00  0.00     0.004 C 
BRANCH   8   9
ATOM      9  C   UNL     1      17.337 -10.222  -0.431  1.00  0.00     0.027 C 
BRANCH   9  10
ATOM     10  C   UNL     1      18.048 -11.270   0.381  1.00  0.00    -0.035 C 
ATOM     11  C   UNL     1      18.127 -12.540  -0.025  1.00  0.00     0.004 C 
ENDBRANCH   9  10
ENDBRANCH   8   9
ENDBRANCH   7   8
ENDBRANCH   1   7
TORSDOF 7
ENDMDL
MODEL 8
REMARK VINA RESULT:    -3.078      8.520      9.750
REMARK INTER + INTRA:          -5.010
REMARK INTER:                  -4.141
REMARK INTRA:                  -0.868
REMARK UNBOUND:                -0.672
REMARK SMILES C=CCCCCCCC(=O)[O-]
REMARK SMILES IDX 6 1 7 2 8 3 9 4 10 5 11 6 5 7 4 8 3 9 2 10 1 11
REMARK H PARENT
REMARK Flexibility Score: inf
ROOT
ATOM      1  C   UNL     1      16.958 -12.435  -0.103  1.00  0.00     0.000 C 
ENDROOT
BRANCH   1   2
ATOM      2  C   UNL     1      16.911 -10.909  -0.272  1.00  0.00     0.006 C 
BRANCH   2   3
ATOM      3  C   UNL     1      15.589 -10.467  -0.905  1.00  0.00     0.053 C 
BRANCH   3   4
ATOM      4  C   UNL     1      15.842  -9.685  -2.156  1.00  0.00     0.041 C 
ATOM      5  O   UNL     1      16.910  -9.851  -2.802  1.00  0.00    -0.550 OA
ATOM      6  O   UNL     1      14.920  -8.737  -2.581  1.00  0.00    -0.550 OA
ENDBRANCH   3   4
ENDBRANCH   2   3
ENDBRANCH   1   2
BRANCH   1   7
ATOM      7  C   UNL     1      17.892 -13.116  -1.115  1.00  0.00     0.000 C 
BRANCH   7   8
ATOM      8  C   UNL     1      17.145 -14.056  -2.073  1.00  0.00     0.004 C 
BRANCH   8   9
ATOM      9  C   UNL     1      16.835 -13.351  -3.400  1.00  0.00     0.027 C 
BRANCH   9  10
ATOM     10  C   UNL     1      15.365 -13.064  -3.534  1.00  0.00    -0.035 C 
ATOM     11  C   UNL     1      14.446 -13.778  -2.878  1.00  0.00     0.004 C 
ENDBRANCH   9  10
ENDBRANCH   8   9
ENDBRANCH   7   8
ENDBRANCH   1   7
TORSDOF 7
ENDMDL
MODEL 9
REMARK VINA RESULT:    -3.060      7.303      9.196
REMARK INTER + INTRA:          -4.985
REMARK INTER:                  -4.202
REMARK INTRA:                  -0.782
REMARK UNBOUND:                -0.672
REMARK SMILES C=CCCCCCCC(=O)[O-]
REMARK SMILES IDX 6 1 7 2 8 3 9 4 10 5 11 6 5 7 4 8 3 9 2 10 1 11
REMARK H PARENT
REMARK Flexibility Score: inf
ROOT
ATOM      1  C   UNL     1      16.009 -12.804  -4.043  1.00  0.00     0.000 C 
ENDROOT
BRANCH   1   2
ATOM      2  C   UNL     1      15.699 -13.771  -2.891  1.00  0.00     0.006 C 
BRANCH   2   3
ATOM      3  C   UNL     1      16.950 -14.551  -2.478  1.00  0.00     0.053 C 
BRANCH   3   4
ATOM      4  C   UNL     1      16.675 -15.378  -1.262  1.00  0.00     0.041 C 
ATOM      5  O   UNL     1      16.041 -14.887  -0.292  1.00  0.00    -0.550 OA
ATOM      6  O   UNL     1      17.163 -16.676  -1.179  1.00  0.00    -0.550 OA
ENDBRANCH   3   4
ENDBRANCH   2   3
ENDBRANCH   1   2
BRANCH   1   7
ATOM      7  C   UNL     1      16.790 -11.563  -3.583  1.00  0.00     0.000 C 
BRANCH   7   8
ATOM      8  C   UNL     1      16.024 -10.735  -2.540  1.00  0.00     0.004 C 
BRANCH   8   9
ATOM      9  C   UNL     1      16.946 -10.320  -1.387  1.00  0.00     0.027 C 
BRANCH   9  10
ATOM     10  C   UNL     1      17.049 -11.408  -0.353  1.00  0.00    -0.035 C 
ATOM     11  C   UNL     1      18.215 -11.991  -0.059  1.00  0.00     0.004 C 
ENDBRANCH   9  10
ENDBRANCH   8   9
ENDBRANCH   7   8
ENDBRANCH   1   7
TORSDOF 7
ENDMDL
