MODEL 1
REMARK VINA RESULT:    -4.877      0.000      0.000
REMARK INTER + INTRA:          -6.691
REMARK INTER:                  -6.872
REMARK INTRA:                   0.181
REMARK UNBOUND:                 0.181
REMARK SMILES CC1=CCC(=C(C)C)C(=O)CC(C)=CCC1
REMARK SMILES IDX 12 1 14 2 13 3 15 4 16 5 2 6 1 7 3 8 11 10 9 11 10 12 5 13
REMARK SMILES IDX 6 14 7 15 8 16 4 17
REMARK H PARENT
REMARK Flexibility Score: 60.00
ROOT
ATOM      1  C   UNL     1      17.396 -31.592  21.543  1.00  0.00    -0.070 C 
ATOM      2  C   UNL     1      18.188 -31.982  20.510  1.00  0.00    -0.027 C 
ATOM      3  C   UNL     1      16.966 -30.145  21.575  1.00  0.00     0.039 C 
ENDROOT
BRANCH   2   4
ATOM      4  C   UNL     1      18.649 -33.391  20.226  1.00  0.00     0.032 C 
BRANCH   4   5
ATOM      5  C   UNL     1      17.798 -34.107  19.168  1.00  0.00     0.034 C 
BRANCH   5   6
ATOM      6  C   UNL     1      16.873 -35.109  19.829  1.00  0.00    -0.077 C 
ATOM      7  C   UNL     1      17.378 -36.512  20.050  1.00  0.00     0.039 C 
ATOM      8  C   UNL     1      15.589 -34.833  20.160  1.00  0.00    -0.023 CG0
ATOM      9  G   UNL     1      14.915 -33.488  20.027  1.00  0.00     0.000 G0
ENDBRANCH   5   6
ENDBRANCH   4   5
ENDBRANCH   2   4
BRANCH   1  10
ATOM     10  C   UNL     1      16.982 -32.494  22.701  1.00  0.00     0.111 C 
BRANCH  10  11
ATOM     11  C   UNL     1      15.635 -33.148  22.518  1.00  0.00     0.163 C 
ATOM     12  O   UNL     1      15.313 -34.058  23.331  1.00  0.00    -0.294 OA
BRANCH  11  13
ATOM     13  C   UNL     1      14.710 -32.799  21.389  1.00  0.00    -0.002 C 
ATOM     14  C   UNL     1      13.750 -31.834  21.544  1.00  0.00    -0.069 C 
ATOM     15  C   UNL     1      13.479 -31.188  22.886  1.00  0.00     0.039 C 
ATOM     16  C   UNL     1      12.869 -31.396  20.394  1.00  0.00     0.039 C 
BRANCH  13  17
ATOM     17  C   UNL     1      14.897 -33.499  20.044  1.00  0.00     0.066 CG0
ATOM     18  G   UNL     1      15.596 -34.830  20.186  1.00  0.00     0.000 G0
ENDBRANCH  13  17
ENDBRANCH  11  13
ENDBRANCH  10  11
ENDBRANCH   1  10
TORSDOF 0
ENDMDL
MODEL 2
REMARK VINA RESULT:    -4.391      2.216      4.995
REMARK INTER + INTRA:          -6.006
REMARK INTER:                  -6.243
REMARK INTRA:                   0.236
REMARK UNBOUND:                 0.181
REMARK SMILES CC1=CCC(=C(C)C)C(=O)CC(C)=CCC1
REMARK SMILES IDX 12 1 14 2 13 3 15 4 16 5 2 6 1 7 3 8 11 10 9 11 10 12 5 13
REMARK SMILES IDX 6 14 7 15 8 16 4 17
REMARK H PARENT
REMARK Flexibility Score: 60.00
ROOT
ATOM      1  C   UNL     1      15.192 -34.080  20.690  1.00  0.00    -0.070 C 
ATOM      2  C   UNL     1      14.291 -33.202  20.177  1.00  0.00    -0.027 C 
ATOM      3  C   UNL     1      15.755 -35.119  19.750  1.00  0.00     0.039 C 
ENDROOT
BRANCH   2   4
ATOM      4  C   UNL     1      13.681 -32.027  20.904  1.00  0.00     0.032 C 
BRANCH   4   5
ATOM      5  C   UNL     1      14.634 -30.832  21.035  1.00  0.00     0.034 C 
BRANCH   5   6
ATOM      6  C   UNL     1      14.749 -30.409  22.486  1.00  0.00    -0.077 C 
ATOM      7  C   UNL     1      13.554 -29.760  23.138  1.00  0.00     0.039 C 
ATOM      8  C   UNL     1      15.892 -30.511  23.205  1.00  0.00    -0.023 CG0
ATOM      9  G   UNL     1      17.178 -31.143  22.728  1.00  0.00     0.000 G0
ENDBRANCH   5   6
ENDBRANCH   4   5
ENDBRANCH   2   4
BRANCH   1  10
ATOM     10  C   UNL     1      15.607 -34.134  22.157  1.00  0.00     0.111 C 
BRANCH  10  11
ATOM     11  C   UNL     1      17.032 -33.710  22.407  1.00  0.00     0.163 C 
ATOM     12  O   UNL     1      17.948 -34.405  21.887  1.00  0.00    -0.294 OA
BRANCH  11  13
ATOM     13  C   UNL     1      17.390 -32.545  23.284  1.00  0.00    -0.002 C 
ATOM     14  C   UNL     1      17.927 -32.747  24.528  1.00  0.00    -0.069 C 
ATOM     15  C   UNL     1      18.046 -34.131  25.131  1.00  0.00     0.039 C 
ATOM     16  C   UNL     1      18.386 -31.593  25.394  1.00  0.00     0.039 C 
BRANCH  13  17
ATOM     17  C   UNL     1      17.198 -31.130  22.742  1.00  0.00     0.066 CG0
ATOM     18  G   UNL     1      15.900 -30.514  23.207  1.00  0.00     0.000 G0
ENDBRANCH  13  17
ENDBRANCH  11  13
ENDBRANCH  10  11
ENDBRANCH   1  10
TORSDOF 0
ENDMDL
MODEL 3
REMARK VINA RESULT:    -4.354      1.661      2.145
REMARK INTER + INTRA:          -5.954
REMARK INTER:                  -6.249
REMARK INTRA:                   0.295
REMARK UNBOUND:                 0.181
REMARK SMILES CC1=CCC(=C(C)C)C(=O)CC(C)=CCC1
REMARK SMILES IDX 12 1 14 2 13 3 15 4 16 5 2 6 1 7 3 8 11 10 9 11 10 12 5 13
REMARK SMILES IDX 6 14 7 15 8 16 4 17
REMARK H PARENT
REMARK Flexibility Score: 60.00
ROOT
ATOM      1  C   UNL     1      19.391 -31.530  21.005  1.00  0.00    -0.070 C 
ATOM      2  C   UNL     1      19.687 -32.807  20.649  1.00  0.00    -0.027 C 
ATOM      3  C   UNL     1      20.534 -30.661  21.473  1.00  0.00     0.039 C 
ENDROOT
BRANCH   2   4
ATOM      4  C   UNL     1      18.726 -33.812  20.061  1.00  0.00     0.032 C 
BRANCH   4   5
ATOM      5  C   UNL     1      17.897 -34.551  21.119  1.00  0.00     0.034 C 
BRANCH   5   6
ATOM      6  C   UNL     1      16.470 -34.728  20.638  1.00  0.00    -0.077 C 
ATOM      7  C   UNL     1      16.230 -35.554  19.399  1.00  0.00     0.039 C 
ATOM      8  C   UNL     1      15.407 -34.119  21.215  1.00  0.00    -0.023 CG0
ATOM      9  G   UNL     1      15.450 -33.271  22.464  1.00  0.00     0.000 G0
ENDBRANCH   5   6
ENDBRANCH   4   5
ENDBRANCH   2   4
BRANCH   1  10
ATOM     10  C   UNL     1      17.982 -30.948  21.037  1.00  0.00     0.111 C 
BRANCH  10  11
ATOM     11  C   UNL     1      17.185 -31.338  22.257  1.00  0.00     0.163 C 
ATOM     12  O   UNL     1      17.776 -31.317  23.371  1.00  0.00    -0.294 OA
BRANCH  11  13
ATOM     13  C   UNL     1      15.758 -31.798  22.181  1.00  0.00    -0.002 C 
ATOM     14  C   UNL     1      14.764 -30.932  21.809  1.00  0.00    -0.069 C 
ATOM     15  C   UNL     1      15.027 -29.456  21.605  1.00  0.00     0.039 C 
ATOM     16  C   UNL     1      13.333 -31.393  21.631  1.00  0.00     0.039 C 
BRANCH  13  17
ATOM     17  C   UNL     1      15.442 -33.264  22.470  1.00  0.00     0.066 CG0
ATOM     18  G   UNL     1      15.390 -34.096  21.210  1.00  0.00     0.000 G0
ENDBRANCH  13  17
ENDBRANCH  11  13
ENDBRANCH  10  11
ENDBRANCH   1  10
TORSDOF 0
ENDMDL
MODEL 4
REMARK VINA RESULT:    -4.302      1.779      3.705
REMARK INTER + INTRA:          -5.882
REMARK INTER:                  -6.111
REMARK INTRA:                   0.229
REMARK UNBOUND:                 0.181
REMARK SMILES CC1=CCC(=C(C)C)C(=O)CC(C)=CCC1
REMARK SMILES IDX 12 1 14 2 13 3 15 4 16 5 2 6 1 7 3 8 11 10 9 11 10 12 5 13
REMARK SMILES IDX 6 14 7 15 8 16 4 17
REMARK H PARENT
REMARK Flexibility Score: 60.00
ROOT
ATOM      1  C   UNL     1      16.962 -34.649  19.643  1.00  0.00    -0.070 C 
ATOM      2  C   UNL     1      18.270 -34.287  19.565  1.00  0.00    -0.027 C 
ATOM      3  C   UNL     1      16.642 -36.116  19.485  1.00  0.00     0.039 C 
ENDROOT
BRANCH   2   4
ATOM      4  C   UNL     1      18.824 -32.901  19.793  1.00  0.00     0.032 C 
BRANCH   4   5
ATOM      5  C   UNL     1      19.035 -32.567  21.275  1.00  0.00     0.034 C 
BRANCH   5   6
ATOM      6  C   UNL     1      18.663 -31.123  21.545  1.00  0.00    -0.077 C 
ATOM      7  C   UNL     1      19.591 -30.041  21.054  1.00  0.00     0.039 C 
ATOM      8  C   UNL     1      17.581 -30.754  22.272  1.00  0.00    -0.023 CG0
ATOM      9  G   UNL     1      16.536 -31.690  22.831  1.00  0.00     0.000 G0
ENDBRANCH   5   6
ENDBRANCH   4   5
ENDBRANCH   2   4
BRANCH   1  10
ATOM     10  C   UNL     1      15.803 -33.670  19.798  1.00  0.00     0.111 C 
BRANCH  10  11
ATOM     11  C   UNL     1      15.414 -33.402  21.230  1.00  0.00     0.163 C 
ATOM     12  O   UNL     1      15.020 -34.381  21.921  1.00  0.00    -0.294 OA
BRANCH  11  13
ATOM     13  C   UNL     1      15.425 -32.026  21.830  1.00  0.00    -0.002 C 
ATOM     14  C   UNL     1      14.451 -31.117  21.512  1.00  0.00    -0.069 C 
ATOM     15  C   UNL     1      13.417 -31.398  20.444  1.00  0.00     0.039 C 
ATOM     16  C   UNL     1      14.384 -29.758  22.175  1.00  0.00     0.039 C 
BRANCH  13  17
ATOM     17  C   UNL     1      16.511 -31.676  22.846  1.00  0.00     0.066 CG0
ATOM     18  G   UNL     1      17.559 -30.755  22.267  1.00  0.00     0.000 G0
ENDBRANCH  13  17
ENDBRANCH  11  13
ENDBRANCH  10  11
ENDBRANCH   1  10
TORSDOF 0
ENDMDL
MODEL 5
REMARK VINA RESULT:    -4.242      1.728      2.799
REMARK INTER + INTRA:          -5.797
REMARK INTER:                  -6.097
REMARK INTRA:                   0.300
REMARK UNBOUND:                 0.181
REMARK SMILES CC1=CCC(=C(C)C)C(=O)CC(C)=CCC1
REMARK SMILES IDX 12 1 14 2 13 3 15 4 16 5 2 6 1 7 3 8 11 10 9 11 10 12 5 13
REMARK SMILES IDX 6 14 7 15 8 16 4 17
REMARK H PARENT
REMARK Flexibility Score: 60.00
ROOT
ATOM      1  C   UNL     1      16.454 -33.867  23.306  1.00  0.00    -0.070 C 
ATOM      2  C   UNL     1      17.451 -34.790  23.281  1.00  0.00    -0.027 C 
ATOM      3  C   UNL     1      16.585 -32.738  24.300  1.00  0.00     0.039 C 
ENDROOT
BRANCH   2   4
ATOM      4  C   UNL     1      17.577 -35.937  22.308  1.00  0.00     0.032 C 
BRANCH   4   5
ATOM      5  C   UNL     1      18.430 -35.600  21.077  1.00  0.00     0.034 C 
BRANCH   5   6
ATOM      6  C   UNL     1      17.541 -35.355  19.874  1.00  0.00    -0.077 C 
ATOM      7  C   UNL     1      17.074 -36.546  19.076  1.00  0.00     0.039 C 
ATOM      8  C   UNL     1      17.208 -34.119  19.431  1.00  0.00    -0.023 CG0
ATOM      9  G   UNL     1      17.568 -32.816  20.105  1.00  0.00     0.000 G0
ENDBRANCH   5   6
ENDBRANCH   4   5
ENDBRANCH   2   4
BRANCH   1  10
ATOM     10  C   UNL     1      15.188 -33.941  22.460  1.00  0.00     0.111 C 
BRANCH  10  11
ATOM     11  C   UNL     1      15.227 -33.082  21.221  1.00  0.00     0.163 C 
ATOM     12  O   UNL     1      14.248 -33.155  20.429  1.00  0.00    -0.294 OA
BRANCH  11  13
ATOM     13  C   UNL     1      16.396 -32.205  20.879  1.00  0.00    -0.002 C 
ATOM     14  C   UNL     1      16.436 -30.900  21.295  1.00  0.00    -0.069 C 
ATOM     15  C   UNL     1      15.256 -30.245  21.979  1.00  0.00     0.039 C 
ATOM     16  C   UNL     1      17.645 -30.023  21.046  1.00  0.00     0.039 C 
BRANCH  13  17
ATOM     17  C   UNL     1      17.568 -32.810  20.108  1.00  0.00     0.066 CG0
ATOM     18  G   UNL     1      17.190 -34.098  19.415  1.00  0.00     0.000 G0
ENDBRANCH  13  17
ENDBRANCH  11  13
ENDBRANCH  10  11
ENDBRANCH   1  10
TORSDOF 0
ENDMDL
MODEL 6
REMARK VINA RESULT:    -4.218      2.003      4.094
REMARK INTER + INTRA:          -5.763
REMARK INTER:                  -5.960
REMARK INTRA:                   0.197
REMARK UNBOUND:                 0.181
REMARK SMILES CC1=CCC(=C(C)C)C(=O)CC(C)=CCC1
REMARK SMILES IDX 12 1 14 2 13 3 15 4 16 5 2 6 1 7 3 8 11 10 9 11 10 12 5 13
REMARK SMILES IDX 6 14 7 15 8 16 4 17
REMARK H PARENT
REMARK Flexibility Score: 60.00
ROOT
ATOM      1  C   UNL     1      14.575 -31.106  21.745  1.00  0.00    -0.070 C 
ATOM      2  C   UNL     1      14.007 -32.295  21.415  1.00  0.00    -0.027 C 
ATOM      3  C   UNL     1      13.737 -30.142  22.551  1.00  0.00     0.039 C 
ENDROOT
BRANCH   2   4
ATOM      4  C   UNL     1      14.690 -33.441  20.707  1.00  0.00     0.032 C 
BRANCH   4   5
ATOM      5  C   UNL     1      15.726 -34.163  21.579  1.00  0.00     0.034 C 
BRANCH   5   6
ATOM      6  C   UNL     1      17.000 -34.399  20.792  1.00  0.00    -0.077 C 
ATOM      7  C   UNL     1      16.930 -35.268  19.562  1.00  0.00     0.039 C 
ATOM      8  C   UNL     1      18.212 -33.935  21.178  1.00  0.00    -0.023 CG0
ATOM      9  G   UNL     1      18.475 -33.041  22.366  1.00  0.00     0.000 G0
ENDBRANCH   5   6
ENDBRANCH   4   5
ENDBRANCH   2   4
BRANCH   1  10
ATOM     10  C   UNL     1      15.959 -30.655  21.292  1.00  0.00     0.111 C 
BRANCH  10  11
ATOM     11  C   UNL     1      17.039 -30.857  22.325  1.00  0.00     0.163 C 
ATOM     12  O   UNL     1      16.847 -30.372  23.473  1.00  0.00    -0.294 OA
BRANCH  11  13
ATOM     13  C   UNL     1      18.334 -31.553  22.019  1.00  0.00    -0.002 C 
ATOM     14  C   UNL     1      19.390 -30.861  21.489  1.00  0.00    -0.069 C 
ATOM     15  C   UNL     1      19.260 -29.418  21.052  1.00  0.00     0.039 C 
ATOM     16  C   UNL     1      20.737 -31.515  21.261  1.00  0.00     0.039 C 
BRANCH  13  17
ATOM     17  C   UNL     1      18.471 -33.035  22.363  1.00  0.00     0.066 CG0
ATOM     18  G   UNL     1      18.221 -33.923  21.167  1.00  0.00     0.000 G0
ENDBRANCH  13  17
ENDBRANCH  11  13
ENDBRANCH  10  11
ENDBRANCH   1  10
TORSDOF 0
ENDMDL
MODEL 7
REMARK VINA RESULT:    -4.215      1.893      2.870
REMARK INTER + INTRA:          -5.760
REMARK INTER:                  -6.215
REMARK INTRA:                   0.456
REMARK UNBOUND:                 0.181
REMARK SMILES CC1=CCC(=C(C)C)C(=O)CC(C)=CCC1
REMARK SMILES IDX 12 1 14 2 13 3 15 4 16 5 2 6 1 7 3 8 11 10 9 11 10 12 5 13
REMARK SMILES IDX 6 14 7 15 8 16 4 17
REMARK H PARENT
REMARK Flexibility Score: 60.00
ROOT
ATOM      1  C   UNL     1      18.874 -32.631  20.547  1.00  0.00    -0.070 C 
ATOM      2  C   UNL     1      18.872 -33.762  19.793  1.00  0.00    -0.027 C 
ATOM      3  C   UNL     1      19.963 -32.495  21.584  1.00  0.00     0.039 C 
ENDROOT
BRANCH   2   4
ATOM      4  C   UNL     1      17.946 -34.059  18.639  1.00  0.00     0.032 C 
BRANCH   4   5
ATOM      5  C   UNL     1      16.541 -34.489  19.082  1.00  0.00     0.034 C 
BRANCH   5   6
ATOM      6  C   UNL     1      16.620 -35.305  20.357  1.00  0.00    -0.077 C 
ATOM      7  C   UNL     1      17.212 -36.689  20.285  1.00  0.00     0.039 C 
ATOM      8  C   UNL     1      16.115 -34.887  21.543  1.00  0.00    -0.023 CG0
ATOM      9  G   UNL     1      15.501 -33.534  21.811  1.00  0.00     0.000 G0
ENDBRANCH   5   6
ENDBRANCH   4   5
ENDBRANCH   2   4
BRANCH   1  10
ATOM     10  C   UNL     1      17.812 -31.539  20.468  1.00  0.00     0.111 C 
BRANCH  10  11
ATOM     11  C   UNL     1      16.986 -31.396  21.721  1.00  0.00     0.163 C 
ATOM     12  O   UNL     1      16.767 -30.228  22.146  1.00  0.00    -0.294 OA
BRANCH  11  13
ATOM     13  C   UNL     1      16.475 -32.576  22.495  1.00  0.00    -0.002 C 
ATOM     14  C   UNL     1      16.840 -32.765  23.802  1.00  0.00    -0.069 C 
ATOM     15  C   UNL     1      17.877 -31.892  24.474  1.00  0.00     0.039 C 
ATOM     16  C   UNL     1      16.264 -33.892  24.634  1.00  0.00     0.039 C 
BRANCH  13  17
ATOM     17  C   UNL     1      15.496 -33.532  21.817  1.00  0.00     0.066 CG0
ATOM     18  G   UNL     1      16.112 -34.884  21.547  1.00  0.00     0.000 G0
ENDBRANCH  13  17
ENDBRANCH  11  13
ENDBRANCH  10  11
ENDBRANCH   1  10
TORSDOF 0
ENDMDL
MODEL 8
REMARK VINA RESULT:    -4.206      2.125      4.523
REMARK INTER + INTRA:          -5.746
REMARK INTER:                  -5.968
REMARK INTRA:                   0.222
REMARK UNBOUND:                 0.181
REMARK SMILES CC1=CCC(=C(C)C)C(=O)CC(C)=CCC1
REMARK SMILES IDX 12 1 14 2 13 3 15 4 16 5 2 6 1 7 3 8 11 10 9 11 10 12 5 13
REMARK SMILES IDX 6 14 7 15 8 16 4 17
REMARK H PARENT
REMARK Flexibility Score: 60.00
ROOT
ATOM      1  C   UNL     1      17.268 -31.183  21.475  1.00  0.00    -0.070 C 
ATOM      2  C   UNL     1      16.754 -29.999  21.898  1.00  0.00    -0.027 C 
ATOM      3  C   UNL     1      18.668 -31.527  21.922  1.00  0.00     0.039 C 
ENDROOT
BRANCH   2   4
ATOM      4  C   UNL     1      15.348 -29.502  21.657  1.00  0.00     0.032 C 
BRANCH   4   5
ATOM      5  C   UNL     1      14.413 -29.722  22.853  1.00  0.00     0.034 C 
BRANCH   5   6
ATOM      6  C   UNL     1      13.488 -30.893  22.587  1.00  0.00    -0.077 C 
ATOM      7  C   UNL     1      12.160 -30.620  21.926  1.00  0.00     0.039 C 
ATOM      8  C   UNL     1      13.755 -32.161  22.982  1.00  0.00    -0.023 CG0
ATOM      9  G   UNL     1      15.032 -32.626  23.642  1.00  0.00     0.000 G0
ENDBRANCH   5   6
ENDBRANCH   4   5
ENDBRANCH   2   4
BRANCH   1  10
ATOM     10  C   UNL     1      16.559 -32.140  20.522  1.00  0.00     0.111 C 
BRANCH  10  11
ATOM     11  C   UNL     1      15.791 -33.238  21.214  1.00  0.00     0.163 C 
ATOM     12  O   UNL     1      15.005 -33.932  20.513  1.00  0.00    -0.294 OA
BRANCH  11  13
ATOM     13  C   UNL     1      15.886 -33.487  22.692  1.00  0.00    -0.002 C 
ATOM     14  C   UNL     1      16.761 -34.417  23.189  1.00  0.00    -0.069 C 
ATOM     15  C   UNL     1      17.554 -35.331  22.280  1.00  0.00     0.039 C 
ATOM     16  C   UNL     1      16.946 -34.619  24.678  1.00  0.00     0.039 C 
BRANCH  13  17
ATOM     17  C   UNL     1      15.031 -32.644  23.635  1.00  0.00     0.066 CG0
ATOM     18  G   UNL     1      13.758 -32.166  22.977  1.00  0.00     0.000 G0
ENDBRANCH  13  17
ENDBRANCH  11  13
ENDBRANCH  10  11
ENDBRANCH   1  10
TORSDOF 0
ENDMDL
MODEL 9
REMARK VINA RESULT:    -4.118      2.265      3.470
REMARK INTER + INTRA:          -5.622
REMARK INTER:                  -5.953
REMARK INTRA:                   0.331
REMARK UNBOUND:                 0.181
REMARK SMILES CC1=CCC(=C(C)C)C(=O)CC(C)=CCC1
REMARK SMILES IDX 12 1 14 2 13 3 15 4 16 5 2 6 1 7 3 8 11 10 9 11 10 12 5 13
REMARK SMILES IDX 6 14 7 15 8 16 4 17
REMARK H PARENT
REMARK Flexibility Score: 60.00
ROOT
ATOM      1  C   UNL     1      15.099 -33.500  23.398  1.00  0.00    -0.070 C 
ATOM      2  C   UNL     1      16.178 -33.687  24.202  1.00  0.00    -0.027 C 
ATOM      3  C   UNL     1      13.892 -32.826  24.007  1.00  0.00     0.039 C 
ENDROOT
BRANCH   2   4
ATOM      4  C   UNL     1      17.516 -34.243  23.780  1.00  0.00     0.032 C 
BRANCH   4   5
ATOM      5  C   UNL     1      18.561 -33.157  23.490  1.00  0.00     0.034 C 
BRANCH   5   6
ATOM      6  C   UNL     1      18.814 -33.058  21.999  1.00  0.00    -0.077 C 
ATOM      7  C   UNL     1      19.840 -33.976  21.384  1.00  0.00     0.039 C 
ATOM      8  C   UNL     1      18.225 -32.135  21.202  1.00  0.00    -0.023 CG0
ATOM      9  G   UNL     1      17.168 -31.146  21.633  1.00  0.00     0.000 G0
ENDBRANCH   5   6
ENDBRANCH   4   5
ENDBRANCH   2   4
BRANCH   1  10
ATOM     10  C   UNL     1      15.000 -33.994  21.958  1.00  0.00     0.111 C 
BRANCH  10  11
ATOM     11  C   UNL     1      15.513 -33.011  20.936  1.00  0.00     0.163 C 
ATOM     12  O   UNL     1      15.783 -33.452  19.785  1.00  0.00    -0.294 OA
BRANCH  11  13
ATOM     13  C   UNL     1      15.764 -31.566  21.255  1.00  0.00    -0.002 C 
ATOM     14  C   UNL     1      14.735 -30.662  21.259  1.00  0.00    -0.069 C 
ATOM     15  C   UNL     1      13.342 -31.038  20.803  1.00  0.00     0.039 C 
ATOM     16  C   UNL     1      14.944 -29.220  21.671  1.00  0.00     0.039 C 
BRANCH  13  17
ATOM     17  C   UNL     1      17.180 -31.132  21.632  1.00  0.00     0.066 CG0
ATOM     18  G   UNL     1      18.220 -32.132  21.188  1.00  0.00     0.000 G0
ENDBRANCH  13  17
ENDBRANCH  11  13
ENDBRANCH  10  11
ENDBRANCH   1  10
TORSDOF 0
ENDMDL
