MODEL 1
REMARK VINA RESULT:    -3.902      0.000      0.000
REMARK INTER + INTRA:          -5.826
REMARK INTER:                  -5.042
REMARK INTRA:                  -0.784
REMARK UNBOUND:                -0.784
REMARK SMILES CO[C@@]1(CO)O[C@@H](CO)[C@@H](O)[C@@H]1O
REMARK SMILES IDX 3 1 12 2 10 3 7 4 6 5 2 6 1 7 4 8 5 9 13 11 11 13 8 15 9 16
REMARK H PARENT 5 10 13 12 11 14 9 17
REMARK Flexibility Score: inf
ROOT
ATOM      1  C   UNL     1      37.330 -50.631   4.296  1.00  0.00     0.221 C 
ATOM      2  C   UNL     1      38.811 -50.218   4.238  1.00  0.00     0.207 C 
ATOM      3  C   UNL     1      39.490 -51.536   3.956  1.00  0.00     0.180 C 
ATOM      4  C   UNL     1      38.562 -52.527   4.668  1.00  0.00     0.179 C 
ATOM      5  O   UNL     1      37.291 -51.936   4.845  1.00  0.00    -0.337 OA
ENDROOT
BRANCH   1   6
ATOM      6  O   UNL     1      36.858 -50.633   2.948  1.00  0.00    -0.349 OA
ATOM      7  C   UNL     1      35.449 -50.678   2.832  1.00  0.00     0.198 C 
ENDBRANCH   1   6
BRANCH   1   8
ATOM      8  C   UNL     1      36.504 -49.648   5.175  1.00  0.00     0.224 C 
BRANCH   8   9
ATOM      9  O   UNL     1      36.303 -50.150   6.469  1.00  0.00    -0.391 OA
ATOM     10  H   UNL     1      35.322 -50.195   6.611  1.00  0.00     0.210 HD
ENDBRANCH   8   9
ENDBRANCH   1   8
BRANCH   2  11
ATOM     11  O   UNL     1      39.265 -49.716   5.471  1.00  0.00    -0.385 OA
ATOM     12  H   UNL     1      39.968 -50.340   5.791  1.00  0.00     0.211 HD
ENDBRANCH   2  11
BRANCH   3  13
ATOM     13  O   UNL     1      39.533 -51.771   2.569  1.00  0.00    -0.387 OA
ATOM     14  H   UNL     1      38.751 -51.298   2.178  1.00  0.00     0.211 HD
ENDBRANCH   3  13
BRANCH   4  15
ATOM     15  C   UNL     1      38.420 -53.874   3.947  1.00  0.00     0.191 C 
BRANCH  15  16
ATOM     16  O   UNL     1      37.448 -53.770   2.944  1.00  0.00    -0.394 OA
ATOM     17  H   UNL     1      37.107 -54.690   2.796  1.00  0.00     0.210 HD
ENDBRANCH  15  16
ENDBRANCH   4  15
TORSDOF 7
ENDMDL
MODEL 2
REMARK VINA RESULT:    -3.838     12.266     13.804
REMARK INTER + INTRA:          -5.744
REMARK INTER:                  -4.957
REMARK INTRA:                  -0.787
REMARK UNBOUND:                -0.784
REMARK SMILES CO[C@@]1(CO)O[C@@H](CO)[C@@H](O)[C@@H]1O
REMARK SMILES IDX 3 1 12 2 10 3 7 4 6 5 2 6 1 7 4 8 5 9 13 11 11 13 8 15 9 16
REMARK H PARENT 5 10 13 12 11 14 9 17
REMARK Flexibility Score: inf
ROOT
ATOM      1  C   UNL     1      31.146 -44.419  -4.119  1.00  0.00     0.221 C 
ATOM      2  C   UNL     1      32.480 -44.352  -4.883  1.00  0.00     0.207 C 
ATOM      3  C   UNL     1      32.380 -43.009  -5.564  1.00  0.00     0.180 C 
ATOM      4  C   UNL     1      30.870 -42.886  -5.800  1.00  0.00     0.179 C 
ATOM      5  O   UNL     1      30.185 -43.747  -4.914  1.00  0.00    -0.337 OA
ENDROOT
BRANCH   1   6
ATOM      6  O   UNL     1      31.353 -43.731  -2.884  1.00  0.00    -0.349 OA
ATOM      7  C   UNL     1      30.252 -43.798  -1.998  1.00  0.00     0.198 C 
ENDBRANCH   1   6
BRANCH   1   8
ATOM      8  C   UNL     1      30.710 -45.892  -3.871  1.00  0.00     0.224 C 
BRANCH   8   9
ATOM      9  O   UNL     1      30.244 -46.501  -5.045  1.00  0.00    -0.391 OA
ATOM     10  H   UNL     1      30.487 -47.463  -4.987  1.00  0.00     0.210 HD
ENDBRANCH   8   9
ENDBRANCH   1   8
BRANCH   2  11
ATOM     11  O   UNL     1      32.577 -45.362  -5.858  1.00  0.00    -0.385 OA
ATOM     12  H   UNL     1      31.814 -45.978  -5.706  1.00  0.00     0.211 HD
ENDBRANCH   2  11
BRANCH   3  13
ATOM     13  O   UNL     1      32.855 -41.998  -4.709  1.00  0.00    -0.387 OA
ATOM     14  H   UNL     1      33.845 -42.072  -4.705  1.00  0.00     0.211 HD
ENDBRANCH   3  13
BRANCH   4  15
ATOM     15  C   UNL     1      30.334 -41.456  -5.663  1.00  0.00     0.191 C 
BRANCH  15  16
ATOM     16  O   UNL     1      30.211 -41.128  -4.307  1.00  0.00    -0.394 OA
ATOM     17  H   UNL     1      30.981 -40.537  -4.097  1.00  0.00     0.210 HD
ENDBRANCH  15  16
ENDBRANCH   4  15
TORSDOF 7
ENDMDL
MODEL 3
REMARK VINA RESULT:    -3.825     12.424     13.547
REMARK INTER + INTRA:          -5.727
REMARK INTER:                  -4.906
REMARK INTRA:                  -0.821
REMARK UNBOUND:                -0.784
REMARK SMILES CO[C@@]1(CO)O[C@@H](CO)[C@@H](O)[C@@H]1O
REMARK SMILES IDX 3 1 12 2 10 3 7 4 6 5 2 6 1 7 4 8 5 9 13 11 11 13 8 15 9 16
REMARK H PARENT 5 10 13 12 11 14 9 17
REMARK Flexibility Score: inf
ROOT
ATOM      1  C   UNL     1      28.646 -44.030  -3.283  1.00  0.00     0.221 C 
ATOM      2  C   UNL     1      29.398 -42.788  -3.795  1.00  0.00     0.207 C 
ATOM      3  C   UNL     1      30.603 -43.408  -4.459  1.00  0.00     0.180 C 
ATOM      4  C   UNL     1      30.826 -44.661  -3.605  1.00  0.00     0.179 C 
ATOM      5  O   UNL     1      29.630 -44.985  -2.926  1.00  0.00    -0.337 OA
ENDROOT
BRANCH   1   6
ATOM      6  O   UNL     1      27.854 -44.501  -4.374  1.00  0.00    -0.349 OA
ATOM      7  C   UNL     1      26.875 -45.453  -4.005  1.00  0.00     0.198 C 
ENDBRANCH   1   6
BRANCH   1   8
ATOM      8  C   UNL     1      27.756 -43.684  -2.055  1.00  0.00     0.224 C 
BRANCH   8   9
ATOM      9  O   UNL     1      28.456 -43.826  -0.848  1.00  0.00    -0.391 OA
ATOM     10  H   UNL     1      28.125 -43.116  -0.238  1.00  0.00     0.210 HD
ENDBRANCH   8   9
ENDBRANCH   1   8
BRANCH   2  11
ATOM     11  O   UNL     1      29.824 -41.961  -2.740  1.00  0.00    -0.385 OA
ATOM     12  H   UNL     1      30.718 -42.290  -2.463  1.00  0.00     0.211 HD
ENDBRANCH   2  11
BRANCH   3  13
ATOM     13  O   UNL     1      30.302 -43.738  -5.794  1.00  0.00    -0.387 OA
ATOM     14  H   UNL     1      31.172 -43.883  -6.252  1.00  0.00     0.211 HD
ENDBRANCH   3  13
BRANCH   4  15
ATOM     15  C   UNL     1      31.326 -45.874  -4.399  1.00  0.00     0.191 C 
BRANCH  15  16
ATOM     16  O   UNL     1      30.242 -46.509  -5.020  1.00  0.00    -0.394 OA
ATOM     17  H   UNL     1      29.433 -46.212  -4.529  1.00  0.00     0.210 HD
ENDBRANCH  15  16
ENDBRANCH   4  15
TORSDOF 7
ENDMDL
MODEL 4
REMARK VINA RESULT:    -3.812     11.173     13.599
REMARK INTER + INTRA:          -5.711
REMARK INTER:                  -4.921
REMARK INTRA:                  -0.790
REMARK UNBOUND:                -0.784
REMARK SMILES CO[C@@]1(CO)O[C@@H](CO)[C@@H](O)[C@@H]1O
REMARK SMILES IDX 3 1 12 2 10 3 7 4 6 5 2 6 1 7 4 8 5 9 13 11 11 13 8 15 9 16
REMARK H PARENT 5 10 13 12 11 14 9 17
REMARK Flexibility Score: inf
ROOT
ATOM      1  C   UNL     1      30.535 -44.578  -3.558  1.00  0.00     0.221 C 
ATOM      2  C   UNL     1      30.366 -43.325  -4.437  1.00  0.00     0.207 C 
ATOM      3  C   UNL     1      29.195 -42.639  -3.778  1.00  0.00     0.180 C 
ATOM      4  C   UNL     1      28.391 -43.831  -3.244  1.00  0.00     0.179 C 
ATOM      5  O   UNL     1      29.238 -44.957  -3.134  1.00  0.00    -0.337 OA
ENDROOT
BRANCH   1   6
ATOM      6  O   UNL     1      31.338 -44.184  -2.444  1.00  0.00    -0.349 OA
ATOM      7  C   UNL     1      32.134 -45.226  -1.913  1.00  0.00     0.198 C 
ENDBRANCH   1   6
BRANCH   1   8
ATOM      8  C   UNL     1      31.207 -45.736  -4.350  1.00  0.00     0.224 C 
BRANCH   8   9
ATOM      9  O   UNL     1      30.264 -46.509  -5.041  1.00  0.00    -0.391 OA
ATOM     10  H   UNL     1      29.462 -46.574  -4.459  1.00  0.00     0.210 HD
ENDBRANCH   8   9
ENDBRANCH   1   8
BRANCH   2  11
ATOM     11  O   UNL     1      30.027 -43.656  -5.761  1.00  0.00    -0.385 OA
ATOM     12  H   UNL     1      30.631 -44.395  -6.033  1.00  0.00     0.211 HD
ENDBRANCH   2  11
BRANCH   3  13
ATOM     13  O   UNL     1      29.645 -41.810  -2.735  1.00  0.00    -0.387 OA
ATOM     14  H   UNL     1      29.277 -40.904  -2.914  1.00  0.00     0.211 HD
ENDBRANCH   3  13
BRANCH   4  15
ATOM     15  C   UNL     1      27.697 -43.562  -1.903  1.00  0.00     0.191 C 
BRANCH  15  16
ATOM     16  O   UNL     1      28.596 -43.791  -0.854  1.00  0.00    -0.394 OA
ATOM     17  H   UNL     1      29.097 -42.943  -0.732  1.00  0.00     0.210 HD
ENDBRANCH  15  16
ENDBRANCH   4  15
TORSDOF 7
ENDMDL
MODEL 5
REMARK VINA RESULT:    -3.670     10.288     11.473
REMARK INTER + INTRA:          -5.527
REMARK INTER:                  -4.758
REMARK INTRA:                  -0.769
REMARK UNBOUND:                -0.784
REMARK SMILES CO[C@@]1(CO)O[C@@H](CO)[C@@H](O)[C@@H]1O
REMARK SMILES IDX 3 1 12 2 10 3 7 4 6 5 2 6 1 7 4 8 5 9 13 11 11 13 8 15 9 16
REMARK H PARENT 5 10 13 12 11 14 9 17
REMARK Flexibility Score: inf
ROOT
ATOM      1  C   UNL     1      30.988 -44.778  -2.742  1.00  0.00     0.221 C 
ATOM      2  C   UNL     1      31.901 -44.100  -3.779  1.00  0.00     0.207 C 
ATOM      3  C   UNL     1      32.681 -45.273  -4.321  1.00  0.00     0.180 C 
ATOM      4  C   UNL     1      32.755 -46.194  -3.097  1.00  0.00     0.179 C 
ATOM      5  O   UNL     1      31.726 -45.854  -2.190  1.00  0.00    -0.337 OA
ENDROOT
BRANCH   1   6
ATOM      6  O   UNL     1      29.850 -45.258  -3.458  1.00  0.00    -0.349 OA
ATOM      7  C   UNL     1      29.069 -44.236  -4.048  1.00  0.00     0.198 C 
ENDBRANCH   1   6
BRANCH   1   8
ATOM      8  C   UNL     1      30.566 -43.781  -1.624  1.00  0.00     0.224 C 
BRANCH   8   9
ATOM      9  O   UNL     1      31.382 -43.896  -0.489  1.00  0.00    -0.391 OA
ATOM     10  H   UNL     1      32.322 -43.848  -0.805  1.00  0.00     0.210 HD
ENDBRANCH   8   9
ENDBRANCH   1   8
BRANCH   2  11
ATOM     11  O   UNL     1      32.789 -43.188  -3.180  1.00  0.00    -0.385 OA
ATOM     12  H   UNL     1      33.479 -42.975  -3.861  1.00  0.00     0.211 HD
ENDBRANCH   2  11
BRANCH   3  13
ATOM     13  O   UNL     1      31.975 -45.875  -5.379  1.00  0.00    -0.387 OA
ATOM     14  H   UNL     1      31.226 -46.381  -4.968  1.00  0.00     0.211 HD
ENDBRANCH   3  13
BRANCH   4  15
ATOM     15  C   UNL     1      32.684 -47.688  -3.438  1.00  0.00     0.191 C 
BRANCH  15  16
ATOM     16  O   UNL     1      31.378 -48.021  -3.821  1.00  0.00    -0.394 OA
ATOM     17  H   UNL     1      30.777 -47.533  -3.200  1.00  0.00     0.210 HD
ENDBRANCH  15  16
ENDBRANCH   4  15
TORSDOF 7
ENDMDL
MODEL 6
REMARK VINA RESULT:    -3.661      1.404      2.517
REMARK INTER + INTRA:          -5.515
REMARK INTER:                  -4.694
REMARK INTRA:                  -0.821
REMARK UNBOUND:                -0.784
REMARK SMILES CO[C@@]1(CO)O[C@@H](CO)[C@@H](O)[C@@H]1O
REMARK SMILES IDX 3 1 12 2 10 3 7 4 6 5 2 6 1 7 4 8 5 9 13 11 11 13 8 15 9 16
REMARK H PARENT 5 10 13 12 11 14 9 17
REMARK Flexibility Score: inf
ROOT
ATOM      1  C   UNL     1      36.769 -51.207   3.936  1.00  0.00     0.221 C 
ATOM      2  C   UNL     1      36.734 -50.024   4.921  1.00  0.00     0.207 C 
ATOM      3  C   UNL     1      38.200 -49.690   5.057  1.00  0.00     0.180 C 
ATOM      4  C   UNL     1      38.854 -51.065   4.876  1.00  0.00     0.179 C 
ATOM      5  O   UNL     1      37.959 -51.927   4.205  1.00  0.00    -0.337 OA
ENDROOT
BRANCH   1   6
ATOM      6  O   UNL     1      36.804 -50.640   2.626  1.00  0.00    -0.349 OA
ATOM      7  C   UNL     1      35.626 -49.942   2.270  1.00  0.00     0.198 C 
ENDBRANCH   1   6
BRANCH   1   8
ATOM      8  C   UNL     1      35.526 -52.126   4.115  1.00  0.00     0.224 C 
BRANCH   8   9
ATOM      9  O   UNL     1      35.705 -53.046   5.158  1.00  0.00    -0.391 OA
ATOM     10  H   UNL     1      36.256 -53.788   4.796  1.00  0.00     0.210 HD
ENDBRANCH   8   9
ENDBRANCH   1   8
BRANCH   2  11
ATOM     11  O   UNL     1      36.225 -50.402   6.177  1.00  0.00    -0.385 OA
ATOM     12  H   UNL     1      35.236 -50.341   6.113  1.00  0.00     0.211 HD
ENDBRANCH   2  11
BRANCH   3  13
ATOM     13  O   UNL     1      38.587 -48.795   4.043  1.00  0.00    -0.387 OA
ATOM     14  H   UNL     1      38.166 -47.922   4.260  1.00  0.00     0.211 HD
ENDBRANCH   3  13
BRANCH   4  15
ATOM     15  C   UNL     1      40.197 -51.022   4.136  1.00  0.00     0.191 C 
BRANCH  15  16
ATOM     16  O   UNL     1      39.971 -50.973   2.755  1.00  0.00    -0.394 OA
ATOM     17  H   UNL     1      40.797 -50.595   2.354  1.00  0.00     0.210 HD
ENDBRANCH  15  16
ENDBRANCH   4  15
TORSDOF 7
ENDMDL
MODEL 7
REMARK VINA RESULT:    -3.633      9.987     12.035
REMARK INTER + INTRA:          -5.478
REMARK INTER:                  -4.693
REMARK INTRA:                  -0.786
REMARK UNBOUND:                -0.784
REMARK SMILES CO[C@@]1(CO)O[C@@H](CO)[C@@H](O)[C@@H]1O
REMARK SMILES IDX 3 1 12 2 10 3 7 4 6 5 2 6 1 7 4 8 5 9 13 11 11 13 8 15 9 16
REMARK H PARENT 5 10 13 12 11 14 9 17
REMARK Flexibility Score: inf
ROOT
ATOM      1  C   UNL     1      32.317 -45.689  -3.338  1.00  0.00     0.221 C 
ATOM      2  C   UNL     1      31.732 -45.104  -4.636  1.00  0.00     0.207 C 
ATOM      3  C   UNL     1      30.835 -44.012  -4.108  1.00  0.00     0.180 C 
ATOM      4  C   UNL     1      30.386 -44.595  -2.763  1.00  0.00     0.179 C 
ATOM      5  O   UNL     1      31.303 -45.589  -2.353  1.00  0.00    -0.337 OA
ENDROOT
BRANCH   1   6
ATOM      6  O   UNL     1      33.439 -44.874  -2.997  1.00  0.00    -0.349 OA
ATOM      7  C   UNL     1      34.199 -45.369  -1.911  1.00  0.00     0.198 C 
ENDBRANCH   1   6
BRANCH   1   8
ATOM      8  C   UNL     1      32.741 -47.174  -3.529  1.00  0.00     0.224 C 
BRANCH   8   9
ATOM      9  O   UNL     1      31.631 -48.026  -3.617  1.00  0.00    -0.391 OA
ATOM     10  H   UNL     1      31.962 -48.948  -3.454  1.00  0.00     0.210 HD
ENDBRANCH   8   9
ENDBRANCH   1   8
BRANCH   2  11
ATOM     11  O   UNL     1      30.956 -46.047  -5.334  1.00  0.00    -0.385 OA
ATOM     12  H   UNL     1      30.070 -46.072  -4.887  1.00  0.00     0.211 HD
ENDBRANCH   2  11
BRANCH   3  13
ATOM     13  O   UNL     1      31.568 -42.823  -3.938  1.00  0.00    -0.387 OA
ATOM     14  H   UNL     1      31.572 -42.630  -2.963  1.00  0.00     0.211 HD
ENDBRANCH   3  13
BRANCH   4  15
ATOM     15  C   UNL     1      30.217 -43.547  -1.656  1.00  0.00     0.191 C 
BRANCH  15  16
ATOM     16  O   UNL     1      31.471 -43.210  -1.132  1.00  0.00    -0.394 OA
ATOM     17  H   UNL     1      31.631 -43.834  -0.378  1.00  0.00     0.210 HD
ENDBRANCH  15  16
ENDBRANCH   4  15
TORSDOF 7
ENDMDL
MODEL 8
REMARK VINA RESULT:    -3.595      2.332      4.498
REMARK INTER + INTRA:          -5.429
REMARK INTER:                  -4.668
REMARK INTRA:                  -0.762
REMARK UNBOUND:                -0.784
REMARK SMILES CO[C@@]1(CO)O[C@@H](CO)[C@@H](O)[C@@H]1O
REMARK SMILES IDX 3 1 12 2 10 3 7 4 6 5 2 6 1 7 4 8 5 9 13 11 11 13 8 15 9 16
REMARK H PARENT 5 10 13 12 11 14 9 17
REMARK Flexibility Score: inf
ROOT
ATOM      1  C   UNL     1      36.955 -49.572   4.043  1.00  0.00     0.221 C 
ATOM      2  C   UNL     1      36.309 -50.358   2.888  1.00  0.00     0.207 C 
ATOM      3  C   UNL     1      35.596 -49.266   2.129  1.00  0.00     0.180 C 
ATOM      4  C   UNL     1      35.226 -48.291   3.253  1.00  0.00     0.179 C 
ATOM      5  O   UNL     1      36.065 -48.518   4.367  1.00  0.00    -0.337 OA
ENDROOT
BRANCH   1   6
ATOM      6  O   UNL     1      38.189 -49.057   3.541  1.00  0.00    -0.349 OA
ATOM      7  C   UNL     1      38.987 -48.421   4.520  1.00  0.00     0.198 C 
ENDBRANCH   1   6
BRANCH   1   8
ATOM      8  C   UNL     1      37.192 -50.482   5.282  1.00  0.00     0.224 C 
BRANCH   8   9
ATOM      9  O   UNL     1      36.237 -50.256   6.284  1.00  0.00    -0.391 OA
ATOM     10  H   UNL     1      35.456 -50.832   6.073  1.00  0.00     0.210 HD
ENDBRANCH   8   9
ENDBRANCH   1   8
BRANCH   2  11
ATOM     11  O   UNL     1      35.366 -51.293   3.353  1.00  0.00    -0.385 OA
ATOM     12  H   UNL     1      35.245 -51.116   4.322  1.00  0.00     0.211 HD
ENDBRANCH   2  11
BRANCH   3  13
ATOM     13  O   UNL     1      36.470 -48.675   1.198  1.00  0.00    -0.387 OA
ATOM     14  H   UNL     1      35.903 -48.319   0.464  1.00  0.00     0.211 HD
ENDBRANCH   3  13
BRANCH   4  15
ATOM     15  C   UNL     1      35.288 -46.814   2.840  1.00  0.00     0.191 C 
BRANCH  15  16
ATOM     16  O   UNL     1      36.620 -46.382   2.839  1.00  0.00    -0.394 OA
ATOM     17  H   UNL     1      36.815 -46.094   1.910  1.00  0.00     0.210 HD
ENDBRANCH  15  16
ENDBRANCH   4  15
TORSDOF 7
ENDMDL
MODEL 9
REMARK VINA RESULT:    -3.579     13.046     14.437
REMARK INTER + INTRA:          -5.409
REMARK INTER:                  -4.613
REMARK INTRA:                  -0.797
REMARK UNBOUND:                -0.784
REMARK SMILES CO[C@@]1(CO)O[C@@H](CO)[C@@H](O)[C@@H]1O
REMARK SMILES IDX 3 1 12 2 10 3 7 4 6 5 2 6 1 7 4 8 5 9 13 11 11 13 8 15 9 16
REMARK H PARENT 5 10 13 12 11 14 9 17
REMARK Flexibility Score: inf
ROOT
ATOM      1  C   UNL     1      28.871 -43.954  -4.042  1.00  0.00     0.221 C 
ATOM      2  C   UNL     1      30.105 -44.873  -4.075  1.00  0.00     0.207 C 
ATOM      3  C   UNL     1      31.155 -43.962  -4.663  1.00  0.00     0.180 C 
ATOM      4  C   UNL     1      30.316 -43.068  -5.584  1.00  0.00     0.179 C 
ATOM      5  O   UNL     1      28.966 -43.102  -5.169  1.00  0.00    -0.337 OA
ENDROOT
BRANCH   1   6
ATOM      6  O   UNL     1      28.958 -43.204  -2.830  1.00  0.00    -0.349 OA
ATOM      7  C   UNL     1      27.861 -42.338  -2.610  1.00  0.00     0.198 C 
ENDBRANCH   1   6
BRANCH   1   8
ATOM      8  C   UNL     1      27.552 -44.778  -4.095  1.00  0.00     0.224 C 
BRANCH   8   9
ATOM      9  O   UNL     1      27.555 -45.825  -3.162  1.00  0.00    -0.391 OA
ATOM     10  H   UNL     1      26.632 -45.892  -2.802  1.00  0.00     0.210 HD
ENDBRANCH   8   9
ENDBRANCH   1   8
BRANCH   2  11
ATOM     11  O   UNL     1      29.916 -45.975  -4.928  1.00  0.00    -0.385 OA
ATOM     12  H   UNL     1      30.515 -46.696  -4.599  1.00  0.00     0.211 HD
ENDBRANCH   2  11
BRANCH   3  13
ATOM     13  O   UNL     1      31.774 -43.217  -3.642  1.00  0.00    -0.387 OA
ATOM     14  H   UNL     1      31.175 -43.267  -2.852  1.00  0.00     0.211 HD
ENDBRANCH   3  13
BRANCH   4  15
ATOM     15  C   UNL     1      30.808 -41.617  -5.658  1.00  0.00     0.191 C 
BRANCH  15  16
ATOM     16  O   UNL     1      30.348 -40.908  -4.541  1.00  0.00    -0.394 OA
ATOM     17  H   UNL     1      31.034 -41.033  -3.835  1.00  0.00     0.210 HD
ENDBRANCH  15  16
ENDBRANCH   4  15
TORSDOF 7
ENDMDL
