MODEL 1
REMARK VINA RESULT:    -1.763      0.000      0.000
REMARK INTER + INTRA:          -4.519
REMARK INTER:                  -3.411
REMARK INTRA:                  -1.107
REMARK UNBOUND:                -1.107
REMARK SMILES CCCCCCCCCCCCCCCCCC(=O)[O-]
REMARK SMILES IDX 10 1 11 2 12 3 13 4 14 5 15 6 16 7 17 8 18 9 19 10 20 11
REMARK SMILES IDX 9 12 8 13 7 14 6 15 5 16 4 17 3 18 2 19 1 20
REMARK H PARENT
REMARK Flexibility Score: inf
ROOT
ATOM      1  C   UNL     1      -1.511  37.712  19.035  1.00  0.00     0.000 C 
ENDROOT
BRANCH   1   2
ATOM      2  C   UNL     1      -3.032  37.690  19.262  1.00  0.00     0.000 C 
BRANCH   2   3
ATOM      3  C   UNL     1      -3.474  36.576  20.223  1.00  0.00     0.000 C 
BRANCH   3   4
ATOM      4  C   UNL     1      -4.648  35.781  19.639  1.00  0.00     0.000 C 
BRANCH   4   5
ATOM      5  C   UNL     1      -5.832  35.749  20.617  1.00  0.00     0.000 C 
BRANCH   5   6
ATOM      6  C   UNL     1      -5.944  34.413  21.368  1.00  0.00     0.000 C 
BRANCH   6   7
ATOM      7  C   UNL     1      -6.125  34.600  22.884  1.00  0.00     0.006 C 
BRANCH   7   8
ATOM      8  C   UNL     1      -5.847  36.043  23.327  1.00  0.00     0.053 C 
BRANCH   8   9
ATOM      9  C   UNL     1      -5.582  36.131  24.799  1.00  0.00     0.041 C 
ATOM     10  O   UNL     1      -5.753  35.124  25.534  1.00  0.00    -0.550 OA
ATOM     11  O   UNL     1      -5.113  37.316  25.352  1.00  0.00    -0.550 OA
ENDBRANCH   8   9
ENDBRANCH   7   8
ENDBRANCH   6   7
ENDBRANCH   5   6
ENDBRANCH   4   5
ENDBRANCH   3   4
ENDBRANCH   2   3
ENDBRANCH   1   2
BRANCH   1  12
ATOM     12  C   UNL     1      -1.134  37.586  17.549  1.00  0.00     0.000 C 
BRANCH  12  13
ATOM     13  C   UNL     1      -1.793  36.369  16.876  1.00  0.00    -0.000 C 
BRANCH  13  14
ATOM     14  C   UNL     1      -1.873  36.514  15.345  1.00  0.00    -0.000 C 
BRANCH  14  15
ATOM     15  C   UNL     1      -3.076  35.769  14.743  1.00  0.00    -0.000 C 
BRANCH  15  16
ATOM     16  C   UNL     1      -4.353  36.626  14.722  1.00  0.00    -0.000 C 
BRANCH  16  17
ATOM     17  C   UNL     1      -4.186  37.912  13.894  1.00  0.00    -0.000 C 
BRANCH  17  18
ATOM     18  C   UNL     1      -4.522  39.182  14.695  1.00  0.00    -0.000 C 
BRANCH  18  19
ATOM     19  C   UNL     1      -5.359  40.184  13.885  1.00  0.00    -0.003 C 
ATOM     20  C   UNL     1      -5.314  41.597  14.466  1.00  0.00     0.004 C 
ENDBRANCH  18  19
ENDBRANCH  17  18
ENDBRANCH  16  17
ENDBRANCH  15  16
ENDBRANCH  14  15
ENDBRANCH  13  14
ENDBRANCH  12  13
ENDBRANCH   1  12
TORSDOF 16
ENDMDL
MODEL 2
REMARK VINA RESULT:    -1.690      2.215      4.388
REMARK INTER + INTRA:          -4.379
REMARK INTER:                  -3.146
REMARK INTRA:                  -1.233
REMARK UNBOUND:                -1.107
REMARK SMILES CCCCCCCCCCCCCCCCCC(=O)[O-]
REMARK SMILES IDX 10 1 11 2 12 3 13 4 14 5 15 6 16 7 17 8 18 9 19 10 20 11
REMARK SMILES IDX 9 12 8 13 7 14 6 15 5 16 4 17 3 18 2 19 1 20
REMARK H PARENT
REMARK Flexibility Score: inf
ROOT
ATOM      1  C   UNL     1      -4.632  35.310  21.737  1.00  0.00     0.000 C 
ENDROOT
BRANCH   1   2
ATOM      2  C   UNL     1      -4.729  34.462  23.016  1.00  0.00     0.000 C 
BRANCH   2   3
ATOM      3  C   UNL     1      -6.125  34.507  23.654  1.00  0.00     0.000 C 
BRANCH   3   4
ATOM      4  C   UNL     1      -6.052  35.018  25.099  1.00  0.00     0.000 C 
BRANCH   4   5
ATOM      5  C   UNL     1      -4.874  35.987  25.282  1.00  0.00     0.000 C 
BRANCH   5   6
ATOM      6  C   UNL     1      -5.317  37.458  25.318  1.00  0.00     0.000 C 
BRANCH   6   7
ATOM      7  C   UNL     1      -5.882  37.940  23.971  1.00  0.00     0.006 C 
BRANCH   7   8
ATOM      8  C   UNL     1      -5.679  39.447  23.764  1.00  0.00     0.053 C 
BRANCH   8   9
ATOM      9  C   UNL     1      -5.650  39.808  22.310  1.00  0.00     0.041 C 
ATOM     10  O   UNL     1      -5.370  38.937  21.446  1.00  0.00    -0.550 OA
ATOM     11  O   UNL     1      -5.966  41.100  21.908  1.00  0.00    -0.550 OA
ENDBRANCH   8   9
ENDBRANCH   7   8
ENDBRANCH   6   7
ENDBRANCH   5   6
ENDBRANCH   4   5
ENDBRANCH   3   4
ENDBRANCH   2   3
ENDBRANCH   1   2
BRANCH   1  12
ATOM     12  C   UNL     1      -5.941  35.311  20.929  1.00  0.00     0.000 C 
BRANCH  12  13
ATOM     13  C   UNL     1      -5.697  35.249  19.411  1.00  0.00    -0.000 C 
BRANCH  13  14
ATOM     14  C   UNL     1      -4.264  35.657  19.027  1.00  0.00    -0.000 C 
BRANCH  14  15
ATOM     15  C   UNL     1      -4.017  35.597  17.510  1.00  0.00    -0.000 C 
BRANCH  15  16
ATOM     16  C   UNL     1      -2.775  36.395  17.080  1.00  0.00    -0.000 C 
BRANCH  16  17
ATOM     17  C   UNL     1      -3.071  37.369  15.926  1.00  0.00    -0.000 C 
BRANCH  17  18
ATOM     18  C   UNL     1      -3.466  36.647  14.626  1.00  0.00    -0.000 C 
BRANCH  18  19
ATOM     19  C   UNL     1      -4.622  37.344  13.894  1.00  0.00    -0.003 C 
ATOM     20  C   UNL     1      -4.627  38.858  14.104  1.00  0.00     0.004 C 
ENDBRANCH  18  19
ENDBRANCH  17  18
ENDBRANCH  16  17
ENDBRANCH  15  16
ENDBRANCH  14  15
ENDBRANCH  13  14
ENDBRANCH  12  13
ENDBRANCH   1  12
TORSDOF 16
ENDMDL
MODEL 3
REMARK VINA RESULT:    -1.327      4.090      8.274
REMARK INTER + INTRA:          -3.676
REMARK INTER:                  -2.304
REMARK INTRA:                  -1.371
REMARK UNBOUND:                -1.107
REMARK SMILES CCCCCCCCCCCCCCCCCC(=O)[O-]
REMARK SMILES IDX 10 1 11 2 12 3 13 4 14 5 15 6 16 7 17 8 18 9 19 10 20 11
REMARK SMILES IDX 9 12 8 13 7 14 6 15 5 16 4 17 3 18 2 19 1 20
REMARK H PARENT
REMARK Flexibility Score: inf
ROOT
ATOM      1  C   UNL     1      -4.407  37.386  20.115  1.00  0.00     0.000 C 
ENDROOT
BRANCH   1   2
ATOM      2  C   UNL     1      -4.378  35.850  20.184  1.00  0.00     0.000 C 
BRANCH   2   3
ATOM      3  C   UNL     1      -5.770  35.222  20.014  1.00  0.00     0.000 C 
BRANCH   3   4
ATOM      4  C   UNL     1      -5.795  34.259  18.820  1.00  0.00     0.000 C 
BRANCH   4   5
ATOM      5  C   UNL     1      -4.465  34.296  18.053  1.00  0.00     0.000 C 
BRANCH   5   6
ATOM      6  C   UNL     1      -4.457  35.348  16.932  1.00  0.00     0.000 C 
BRANCH   6   7
ATOM      7  C   UNL     1      -3.045  35.877  16.628  1.00  0.00     0.006 C 
BRANCH   7   8
ATOM      8  C   UNL     1      -3.070  37.307  16.071  1.00  0.00     0.053 C 
BRANCH   8   9
ATOM      9  C   UNL     1      -3.713  37.365  14.719  1.00  0.00     0.041 C 
ATOM     10  O   UNL     1      -4.226  38.439  14.308  1.00  0.00    -0.550 OA
ATOM     11  O   UNL     1      -3.713  36.244  13.900  1.00  0.00    -0.550 OA
ENDBRANCH   8   9
ENDBRANCH   7   8
ENDBRANCH   6   7
ENDBRANCH   5   6
ENDBRANCH   4   5
ENDBRANCH   3   4
ENDBRANCH   2   3
ENDBRANCH   1   2
BRANCH   1  12
ATOM     12  C   UNL     1      -5.811  37.962  20.367  1.00  0.00     0.000 C 
BRANCH  12  13
ATOM     13  C   UNL     1      -5.768  39.362  21.002  1.00  0.00    -0.000 C 
BRANCH  13  14
ATOM     14  C   UNL     1      -4.771  39.449  22.172  1.00  0.00    -0.000 C 
BRANCH  14  15
ATOM     15  C   UNL     1      -5.467  39.470  23.543  1.00  0.00    -0.000 C 
BRANCH  15  16
ATOM     16  C   UNL     1      -6.122  38.123  23.895  1.00  0.00    -0.000 C 
BRANCH  16  17
ATOM     17  C   UNL     1      -5.322  37.337  24.947  1.00  0.00    -0.000 C 
BRANCH  17  18
ATOM     18  C   UNL     1      -5.785  35.875  25.076  1.00  0.00    -0.000 C 
BRANCH  18  19
ATOM     19  C   UNL     1      -6.073  35.228  23.714  1.00  0.00    -0.003 C 
ATOM     20  C   UNL     1      -4.909  34.375  23.207  1.00  0.00     0.004 C 
ENDBRANCH  18  19
ENDBRANCH  17  18
ENDBRANCH  16  17
ENDBRANCH  15  16
ENDBRANCH  14  15
ENDBRANCH  13  14
ENDBRANCH  12  13
ENDBRANCH   1  12
TORSDOF 16
ENDMDL
MODEL 4
REMARK VINA RESULT:    -1.261      3.246      7.757
REMARK INTER + INTRA:          -3.548
REMARK INTER:                  -2.101
REMARK INTRA:                  -1.447
REMARK UNBOUND:                -1.107
REMARK SMILES CCCCCCCCCCCCCCCCCC(=O)[O-]
REMARK SMILES IDX 10 1 11 2 12 3 13 4 14 5 15 6 16 7 17 8 18 9 19 10 20 11
REMARK SMILES IDX 9 12 8 13 7 14 6 15 5 16 4 17 3 18 2 19 1 20
REMARK H PARENT
REMARK Flexibility Score: inf
ROOT
ATOM      1  C   UNL     1      -4.666  36.103  20.304  1.00  0.00     0.000 C 
ENDROOT
BRANCH   1   2
ATOM      2  C   UNL     1      -5.884  35.221  19.985  1.00  0.00     0.000 C 
BRANCH   2   3
ATOM      3  C   UNL     1      -5.659  34.316  18.764  1.00  0.00     0.000 C 
BRANCH   3   4
ATOM      4  C   UNL     1      -4.250  34.508  18.191  1.00  0.00     0.000 C 
BRANCH   4   5
ATOM      5  C   UNL     1      -4.255  35.532  17.045  1.00  0.00     0.000 C 
BRANCH   5   6
ATOM      6  C   UNL     1      -2.986  35.461  16.181  1.00  0.00     0.000 C 
BRANCH   6   7
ATOM      7  C   UNL     1      -1.970  36.561  16.532  1.00  0.00     0.006 C 
BRANCH   7   8
ATOM      8  C   UNL     1      -2.397  37.372  17.763  1.00  0.00     0.053 C 
BRANCH   8   9
ATOM      9  C   UNL     1      -1.289  37.486  18.765  1.00  0.00     0.041 C 
ATOM     10  O   UNL     1      -0.125  37.787  18.390  1.00  0.00    -0.550 OA
ATOM     11  O   UNL     1      -1.549  37.294  20.116  1.00  0.00    -0.550 OA
ENDBRANCH   8   9
ENDBRANCH   7   8
ENDBRANCH   6   7
ENDBRANCH   5   6
ENDBRANCH   4   5
ENDBRANCH   3   4
ENDBRANCH   2   3
ENDBRANCH   1   2
BRANCH   1  12
ATOM     12  C   UNL     1      -4.986  37.605  20.217  1.00  0.00     0.000 C 
BRANCH  12  13
ATOM     13  C   UNL     1      -5.812  38.102  21.416  1.00  0.00    -0.000 C 
BRANCH  13  14
ATOM     14  C   UNL     1      -5.427  39.529  21.846  1.00  0.00    -0.000 C 
BRANCH  14  15
ATOM     15  C   UNL     1      -5.035  39.615  23.331  1.00  0.00    -0.000 C 
BRANCH  15  16
ATOM     16  C   UNL     1      -5.889  38.697  24.223  1.00  0.00    -0.000 C 
BRANCH  16  17
ATOM     17  C   UNL     1      -5.035  37.726  25.057  1.00  0.00    -0.000 C 
BRANCH  17  18
ATOM     18  C   UNL     1      -5.671  36.330  25.178  1.00  0.00    -0.000 C 
BRANCH  18  19
ATOM     19  C   UNL     1      -6.078  35.749  23.816  1.00  0.00    -0.003 C 
ATOM     20  C   UNL     1      -5.494  34.358  23.569  1.00  0.00     0.004 C 
ENDBRANCH  18  19
ENDBRANCH  17  18
ENDBRANCH  16  17
ENDBRANCH  15  16
ENDBRANCH  14  15
ENDBRANCH  13  14
ENDBRANCH  12  13
ENDBRANCH   1  12
TORSDOF 16
ENDMDL
MODEL 5
REMARK VINA RESULT:    -1.070      2.156      3.573
REMARK INTER + INTRA:          -3.179
REMARK INTER:                  -2.305
REMARK INTRA:                  -0.873
REMARK UNBOUND:                -1.107
REMARK SMILES CCCCCCCCCCCCCCCCCC(=O)[O-]
REMARK SMILES IDX 10 1 11 2 12 3 13 4 14 5 15 6 16 7 17 8 18 9 19 10 20 11
REMARK SMILES IDX 9 12 8 13 7 14 6 15 5 16 4 17 3 18 2 19 1 20
REMARK H PARENT
REMARK Flexibility Score: inf
ROOT
ATOM      1  C   UNL     1      -4.575  35.799  19.849  1.00  0.00     0.000 C 
ENDROOT
BRANCH   1   2
ATOM      2  C   UNL     1      -4.126  35.392  21.263  1.00  0.00     0.000 C 
BRANCH   2   3
ATOM      3  C   UNL     1      -5.228  34.666  22.049  1.00  0.00     0.000 C 
BRANCH   3   4
ATOM      4  C   UNL     1      -4.966  34.742  23.559  1.00  0.00     0.000 C 
BRANCH   4   5
ATOM      5  C   UNL     1      -6.125  35.442  24.285  1.00  0.00     0.000 C 
BRANCH   5   6
ATOM      6  C   UNL     1      -5.796  36.895  24.662  1.00  0.00     0.000 C 
BRANCH   6   7
ATOM      7  C   UNL     1      -5.838  37.844  23.452  1.00  0.00     0.006 C 
BRANCH   7   8
ATOM      8  C   UNL     1      -5.377  39.263  23.812  1.00  0.00     0.053 C 
BRANCH   8   9
ATOM      9  C   UNL     1      -5.780  40.260  22.769  1.00  0.00     0.041 C 
ATOM     10  O   UNL     1      -5.818  41.487  23.047  1.00  0.00    -0.550 OA
ATOM     11  O   UNL     1      -6.079  39.836  21.481  1.00  0.00    -0.550 OA
ENDBRANCH   8   9
ENDBRANCH   7   8
ENDBRANCH   6   7
ENDBRANCH   5   6
ENDBRANCH   4   5
ENDBRANCH   3   4
ENDBRANCH   2   3
ENDBRANCH   1   2
BRANCH   1  12
ATOM     12  C   UNL     1      -4.108  37.215  19.468  1.00  0.00     0.000 C 
BRANCH  12  13
ATOM     13  C   UNL     1      -2.719  37.219  18.807  1.00  0.00    -0.000 C 
BRANCH  13  14
ATOM     14  C   UNL     1      -2.796  37.297  17.272  1.00  0.00    -0.000 C 
BRANCH  14  15
ATOM     15  C   UNL     1      -2.396  35.977  16.592  1.00  0.00    -0.000 C 
BRANCH  15  16
ATOM     16  C   UNL     1      -1.707  36.196  15.233  1.00  0.00    -0.000 C 
BRANCH  16  17
ATOM     17  C   UNL     1      -2.685  36.679  14.149  1.00  0.00    -0.000 C 
BRANCH  17  18
ATOM     18  C   UNL     1      -4.155  36.403  14.509  1.00  0.00    -0.000 C 
BRANCH  18  19
ATOM     19  C   UNL     1      -5.102  37.499  13.996  1.00  0.00    -0.003 C 
ATOM     20  C   UNL     1      -4.447  38.880  13.969  1.00  0.00     0.004 C 
ENDBRANCH  18  19
ENDBRANCH  17  18
ENDBRANCH  16  17
ENDBRANCH  15  16
ENDBRANCH  14  15
ENDBRANCH  13  14
ENDBRANCH  12  13
ENDBRANCH   1  12
TORSDOF 16
ENDMDL
MODEL 6
REMARK VINA RESULT:    -1.043      3.377      7.265
REMARK INTER + INTRA:          -3.125
REMARK INTER:                  -1.545
REMARK INTRA:                  -1.581
REMARK UNBOUND:                -1.107
REMARK SMILES CCCCCCCCCCCCCCCCCC(=O)[O-]
REMARK SMILES IDX 10 1 11 2 12 3 13 4 14 5 15 6 16 7 17 8 18 9 19 10 20 11
REMARK SMILES IDX 9 12 8 13 7 14 6 15 5 16 4 17 3 18 2 19 1 20
REMARK H PARENT
REMARK Flexibility Score: inf
ROOT
ATOM      1  C   UNL     1      -4.338  34.792  22.182  1.00  0.00     0.000 C 
ENDROOT
BRANCH   1   2
ATOM      2  C   UNL     1      -4.164  35.191  20.707  1.00  0.00     0.000 C 
BRANCH   2   3
ATOM      3  C   UNL     1      -5.384  34.831  19.846  1.00  0.00     0.000 C 
BRANCH   3   4
ATOM      4  C   UNL     1      -4.962  34.478  18.415  1.00  0.00     0.000 C 
BRANCH   4   5
ATOM      5  C   UNL     1      -4.599  35.742  17.620  1.00  0.00     0.000 C 
BRANCH   5   6
ATOM      6  C   UNL     1      -3.459  35.503  16.617  1.00  0.00     0.000 C 
BRANCH   6   7
ATOM      7  C   UNL     1      -2.224  36.373  16.907  1.00  0.00     0.006 C 
BRANCH   7   8
ATOM      8  C   UNL     1      -2.426  37.275  18.132  1.00  0.00     0.053 C 
BRANCH   8   9
ATOM      9  C   UNL     1      -1.143  37.504  18.871  1.00  0.00     0.041 C 
ATOM     10  O   UNL     1      -0.139  37.965  18.268  1.00  0.00    -0.550 OA
ATOM     11  O   UNL     1      -1.068  37.240  20.233  1.00  0.00    -0.550 OA
ENDBRANCH   8   9
ENDBRANCH   7   8
ENDBRANCH   6   7
ENDBRANCH   5   6
ENDBRANCH   4   5
ENDBRANCH   3   4
ENDBRANCH   2   3
ENDBRANCH   1   2
BRANCH   1  12
ATOM     12  C   UNL     1      -5.785  34.970  22.674  1.00  0.00     0.000 C 
BRANCH  12  13
ATOM     13  C   UNL     1      -5.924  34.740  24.189  1.00  0.00    -0.000 C 
BRANCH  13  14
ATOM     14  C   UNL     1      -5.711  36.028  25.004  1.00  0.00    -0.000 C 
BRANCH  14  15
ATOM     15  C   UNL     1      -6.125  37.292  24.231  1.00  0.00    -0.000 C 
BRANCH  15  16
ATOM     16  C   UNL     1      -4.944  38.246  23.980  1.00  0.00    -0.000 C 
BRANCH  16  17
ATOM     17  C   UNL     1      -5.404  39.667  23.610  1.00  0.00    -0.000 C 
BRANCH  17  18
ATOM     18  C   UNL     1      -5.741  39.812  22.115  1.00  0.00    -0.000 C 
BRANCH  18  19
ATOM     19  C   UNL     1      -5.921  38.455  21.419  1.00  0.00    -0.003 C 
ATOM     20  C   UNL     1      -5.366  38.444  19.994  1.00  0.00     0.004 C 
ENDBRANCH  18  19
ENDBRANCH  17  18
ENDBRANCH  16  17
ENDBRANCH  15  16
ENDBRANCH  14  15
ENDBRANCH  13  14
ENDBRANCH  12  13
ENDBRANCH   1  12
TORSDOF 16
ENDMDL
