MODEL 1
REMARK VINA RESULT:    -3.912      0.000      0.000
REMARK INTER + INTRA:          -6.381
REMARK INTER:                  -5.970
REMARK INTRA:                  -0.411
REMARK UNBOUND:                -0.411
REMARK SMILES CC1=CCC[C@H](C)C(=O)C[C@H](C(C)C)C(=O)C1
REMARK SMILES IDX 8 1 9 2 6 3 7 4 5 5 4 6 3 7 2 8 1 9 10 11 11 12 15 13 16 14
REMARK SMILES IDX 17 15 12 17 13 18 14 19
REMARK H PARENT
REMARK Flexibility Score: 70.00
ROOT
ATOM      1  C   UNL     1      37.054   9.331  25.390  1.00  0.00     0.136 C 
ATOM      2  O   UNL     1      36.503   9.560  24.323  1.00  0.00    -0.299 OA
ENDROOT
BRANCH   1   3
ATOM      3  C   UNL     1      36.239   8.825  26.571  1.00  0.00     0.053 C 
ATOM      4  C   UNL     1      34.862   9.504  26.612  1.00  0.00     0.016 C 
BRANCH   3   5
ATOM      5  C   UNL     1      36.094   7.285  26.519  1.00  0.00     0.015 C 
BRANCH   5   6
ATOM      6  C   UNL     1      36.894   6.579  27.633  1.00  0.00     0.028 C 
BRANCH   6   7
ATOM      7  C   UNL     1      38.011   5.744  27.062  1.00  0.00    -0.028 C 
ATOM      8  C   UNL     1      39.329   6.023  27.197  1.00  0.00    -0.070 CG0
ATOM      9  C   UNL     1      40.320   5.111  26.519  1.00  0.00     0.039 C 
ATOM     10  G   UNL     1      39.847   7.211  27.996  1.00  0.00     0.000 G0
ENDBRANCH   6   7
ENDBRANCH   5   6
ENDBRANCH   3   5
ENDBRANCH   1   3
BRANCH   1  11
ATOM     11  C   UNL     1      38.547   9.538  25.509  1.00  0.00     0.087 C 
BRANCH  11  12
ATOM     12  C   UNL     1      39.080   9.501  26.969  1.00  0.00     0.066 C 
BRANCH  12  13
ATOM     13  C   UNL     1      40.136   8.415  27.125  1.00  0.00     0.140 C 
ATOM     14  O   UNL     1      41.228   8.549  26.586  1.00  0.00    -0.299 OA
BRANCH  13  15
ATOM     15  C   UNL     1      39.878   7.205  27.986  1.00  0.00     0.106 CG0
ATOM     16  G   UNL     1      39.327   6.034  27.184  1.00  0.00     0.000 G0
ENDBRANCH  13  15
ENDBRANCH  12  13
BRANCH  12  17
ATOM     17  C   UNL     1      39.593  10.878  27.512  1.00  0.00    -0.006 C 
ATOM     18  C   UNL     1      40.145  11.787  26.399  1.00  0.00     0.008 C 
ATOM     19  C   UNL     1      38.468  11.629  28.248  1.00  0.00     0.008 C 
ENDBRANCH  12  17
ENDBRANCH  11  12
ENDBRANCH   1  11
TORSDOF 1
ENDMDL
MODEL 2
REMARK VINA RESULT:    -3.903      2.435      4.663
REMARK INTER + INTRA:          -6.368
REMARK INTER:                  -6.433
REMARK INTRA:                   0.065
REMARK UNBOUND:                -0.411
REMARK SMILES CC1=CCC[C@H](C)C(=O)C[C@H](C(C)C)C(=O)C1
REMARK SMILES IDX 8 1 9 2 6 3 7 4 5 5 4 6 3 7 2 8 1 9 10 11 11 12 15 13 16 14
REMARK SMILES IDX 17 15 12 17 13 18 14 19
REMARK H PARENT
REMARK Flexibility Score: 70.00
ROOT
ATOM      1  C   UNL     1      38.083  10.505  28.382  1.00  0.00     0.136 C 
ATOM      2  O   UNL     1      38.304  11.618  27.926  1.00  0.00    -0.299 OA
ENDROOT
BRANCH   1   3
ATOM      3  C   UNL     1      39.241   9.572  28.702  1.00  0.00     0.053 C 
ATOM      4  C   UNL     1      38.747   8.331  29.459  1.00  0.00     0.016 C 
BRANCH   3   5
ATOM      5  C   UNL     1      39.993   9.168  27.410  1.00  0.00     0.015 C 
BRANCH   5   6
ATOM      6  C   UNL     1      39.244   8.085  26.607  1.00  0.00     0.028 C 
BRANCH   6   7
ATOM      7  C   UNL     1      38.566   8.670  25.395  1.00  0.00    -0.028 C 
ATOM      8  C   UNL     1      37.225   8.775  25.237  1.00  0.00    -0.070 CG0
ATOM      9  C   UNL     1      36.707   9.338  23.938  1.00  0.00     0.039 C 
ATOM     10  G   UNL     1      36.229   8.350  26.307  1.00  0.00     0.000 G0
ENDBRANCH   6   7
ENDBRANCH   5   6
ENDBRANCH   3   5
ENDBRANCH   1   3
BRANCH   1  11
ATOM     11  C   UNL     1      36.654  10.086  28.641  1.00  0.00     0.087 C 
BRANCH  11  12
ATOM     12  C   UNL     1      35.642  10.579  27.568  1.00  0.00     0.066 C 
BRANCH  12  13
ATOM     13  C   UNL     1      35.249   9.438  26.640  1.00  0.00     0.140 C 
ATOM     14  O   UNL     1      34.141   9.434  26.119  1.00  0.00    -0.299 OA
BRANCH  13  15
ATOM     15  C   UNL     1      36.231   8.344  26.303  1.00  0.00     0.106 CG0
ATOM     16  G   UNL     1      37.221   8.770  25.228  1.00  0.00     0.000 G0
ENDBRANCH  13  15
ENDBRANCH  12  13
BRANCH  12  17
ATOM     17  C   UNL     1      34.380  11.305  28.147  1.00  0.00    -0.006 C 
ATOM     18  C   UNL     1      33.558  10.407  29.090  1.00  0.00     0.008 C 
ATOM     19  C   UNL     1      34.784  12.580  28.910  1.00  0.00     0.008 C 
ENDBRANCH  12  17
ENDBRANCH  11  12
ENDBRANCH   1  11
TORSDOF 1
ENDMDL
MODEL 3
REMARK VINA RESULT:    -3.746      1.781      4.063
REMARK INTER + INTRA:          -6.128
REMARK INTER:                  -6.039
REMARK INTRA:                  -0.089
REMARK UNBOUND:                -0.411
REMARK SMILES CC1=CCC[C@H](C)C(=O)C[C@H](C(C)C)C(=O)C1
REMARK SMILES IDX 8 1 9 2 6 3 7 4 5 5 4 6 3 7 2 8 1 9 10 11 11 12 15 13 16 14
REMARK SMILES IDX 17 15 12 17 13 18 14 19
REMARK H PARENT
REMARK Flexibility Score: 70.00
ROOT
ATOM      1  C   UNL     1      36.180   7.191  26.483  1.00  0.00     0.136 C 
ATOM      2  O   UNL     1      35.484   6.411  25.849  1.00  0.00    -0.299 OA
ENDROOT
BRANCH   1   3
ATOM      3  C   UNL     1      36.131   8.679  26.169  1.00  0.00     0.053 C 
ATOM      4  C   UNL     1      35.683   8.914  24.720  1.00  0.00     0.016 C 
BRANCH   3   5
ATOM      5  C   UNL     1      35.201   9.419  27.161  1.00  0.00     0.015 C 
BRANCH   5   6
ATOM      6  C   UNL     1      35.986  10.192  28.240  1.00  0.00     0.028 C 
BRANCH   6   7
ATOM      7  C   UNL     1      37.354  10.590  27.745  1.00  0.00    -0.028 C 
ATOM      8  C   UNL     1      38.511   9.989  28.113  1.00  0.00    -0.070 CG0
ATOM      9  C   UNL     1      39.802  10.544  27.565  1.00  0.00     0.039 C 
ATOM     10  G   UNL     1      38.561   8.790  29.050  1.00  0.00     0.000 G0
ENDBRANCH   6   7
ENDBRANCH   5   6
ENDBRANCH   3   5
ENDBRANCH   1   3
BRANCH   1  11
ATOM     11  C   UNL     1      37.064   6.659  27.587  1.00  0.00     0.087 C 
BRANCH  11  12
ATOM     12  C   UNL     1      38.588   6.787  27.299  1.00  0.00     0.066 C 
BRANCH  12  13
ATOM     13  C   UNL     1      39.273   7.586  28.399  1.00  0.00     0.140 C 
ATOM     14  O   UNL     1      40.419   7.307  28.727  1.00  0.00    -0.299 OA
BRANCH  13  15
ATOM     15  C   UNL     1      38.581   8.758  29.048  1.00  0.00     0.106 CG0
ATOM     16  G   UNL     1      38.508   9.967  28.126  1.00  0.00     0.000 G0
ENDBRANCH  13  15
ENDBRANCH  12  13
BRANCH  12  17
ATOM     17  C   UNL     1      39.320   5.427  27.041  1.00  0.00    -0.006 C 
ATOM     18  C   UNL     1      38.342   4.253  26.849  1.00  0.00     0.008 C 
ATOM     19  C   UNL     1      40.226   5.521  25.799  1.00  0.00     0.008 C 
ENDBRANCH  12  17
ENDBRANCH  11  12
ENDBRANCH   1  11
TORSDOF 1
ENDMDL
MODEL 4
REMARK VINA RESULT:    -3.723      2.021      3.186
REMARK INTER + INTRA:          -6.094
REMARK INTER:                  -6.241
REMARK INTRA:                   0.148
REMARK UNBOUND:                -0.411
REMARK SMILES CC1=CCC[C@H](C)C(=O)C[C@H](C(C)C)C(=O)C1
REMARK SMILES IDX 8 1 9 2 6 3 7 4 5 5 4 6 3 7 2 8 1 9 10 11 11 12 15 13 16 14
REMARK SMILES IDX 17 15 12 17 13 18 14 19
REMARK H PARENT
REMARK Flexibility Score: 70.00
ROOT
ATOM      1  C   UNL     1      36.394   9.276  25.557  1.00  0.00     0.136 C 
ATOM      2  O   UNL     1      36.553   9.385  24.350  1.00  0.00    -0.299 OA
ENDROOT
BRANCH   1   3
ATOM      3  C   UNL     1      36.339   7.895  26.193  1.00  0.00     0.053 C 
ATOM      4  C   UNL     1      35.073   7.145  25.754  1.00  0.00     0.016 C 
BRANCH   3   5
ATOM      5  C   UNL     1      37.609   7.081  25.850  1.00  0.00     0.015 C 
BRANCH   5   6
ATOM      6  C   UNL     1      38.530   6.883  27.072  1.00  0.00     0.028 C 
BRANCH   6   7
ATOM      7  C   UNL     1      39.684   7.853  27.054  1.00  0.00    -0.028 C 
ATOM      8  C   UNL     1      39.766   8.967  27.820  1.00  0.00    -0.070 CG0
ATOM      9  C   UNL     1      40.967   9.861  27.642  1.00  0.00     0.039 C 
ATOM     10  G   UNL     1      38.705   9.350  28.842  1.00  0.00     0.000 G0
ENDBRANCH   6   7
ENDBRANCH   5   6
ENDBRANCH   3   5
ENDBRANCH   1   3
BRANCH   1  11
ATOM     11  C   UNL     1      36.277  10.524  26.401  1.00  0.00     0.087 C 
BRANCH  11  12
ATOM     12  C   UNL     1      36.413  10.274  27.930  1.00  0.00     0.066 C 
BRANCH  12  13
ATOM     13  C   UNL     1      37.848  10.509  28.383  1.00  0.00     0.140 C 
ATOM     14  O   UNL     1      38.297  11.647  28.412  1.00  0.00    -0.299 OA
BRANCH  13  15
ATOM     15  C   UNL     1      38.704   9.362  28.857  1.00  0.00     0.106 CG0
ATOM     16  G   UNL     1      39.757   8.966  27.831  1.00  0.00     0.000 G0
ENDBRANCH  13  15
ENDBRANCH  12  13
BRANCH  12  17
ATOM     17  C   UNL     1      35.397  11.073  28.815  1.00  0.00    -0.006 C 
ATOM     18  C   UNL     1      35.555  12.598  28.672  1.00  0.00     0.008 C 
ATOM     19  C   UNL     1      33.947  10.693  28.461  1.00  0.00     0.008 C 
ENDBRANCH  12  17
ENDBRANCH  11  12
ENDBRANCH   1  11
TORSDOF 1
ENDMDL
MODEL 5
REMARK VINA RESULT:    -3.680      2.071      3.197
REMARK INTER + INTRA:          -6.027
REMARK INTER:                  -5.969
REMARK INTRA:                  -0.058
REMARK UNBOUND:                -0.411
REMARK SMILES CC1=CCC[C@H](C)C(=O)C[C@H](C(C)C)C(=O)C1
REMARK SMILES IDX 8 1 9 2 6 3 7 4 5 5 4 6 3 7 2 8 1 9 10 11 11 12 15 13 16 14
REMARK SMILES IDX 17 15 12 17 13 18 14 19
REMARK H PARENT
REMARK Flexibility Score: 70.00
ROOT
ATOM      1  C   UNL     1      38.103  10.796  27.723  1.00  0.00     0.136 C 
ATOM      2  O   UNL     1      38.853  11.717  28.014  1.00  0.00    -0.299 OA
ENDROOT
BRANCH   1   3
ATOM      3  C   UNL     1      36.666  10.803  28.222  1.00  0.00     0.053 C 
ATOM      4  C   UNL     1      36.281  12.192  28.751  1.00  0.00     0.016 C 
BRANCH   3   5
ATOM      5  C   UNL     1      35.695  10.349  27.105  1.00  0.00     0.015 C 
BRANCH   5   6
ATOM      6  C   UNL     1      34.940   9.055  27.471  1.00  0.00     0.028 C 
BRANCH   6   7
ATOM      7  C   UNL     1      35.163   7.978  26.440  1.00  0.00    -0.028 C 
ATOM      8  C   UNL     1      36.133   7.036  26.507  1.00  0.00    -0.070 CG0
ATOM      9  C   UNL     1      36.253   6.060  25.363  1.00  0.00     0.039 C 
ATOM     10  G   UNL     1      37.100   6.924  27.677  1.00  0.00     0.000 G0
ENDBRANCH   6   7
ENDBRANCH   5   6
ENDBRANCH   3   5
ENDBRANCH   1   3
BRANCH   1  11
ATOM     11  C   UNL     1      38.618   9.673  26.853  1.00  0.00     0.087 C 
BRANCH  11  12
ATOM     12  C   UNL     1      39.228   8.482  27.646  1.00  0.00     0.066 C 
BRANCH  12  13
ATOM     13  C   UNL     1      38.536   7.180  27.269  1.00  0.00     0.140 C 
ATOM     14  O   UNL     1      39.161   6.309  26.677  1.00  0.00    -0.299 OA
BRANCH  13  15
ATOM     15  C   UNL     1      37.105   6.922  27.669  1.00  0.00     0.106 CG0
ATOM     16  G   UNL     1      36.147   7.032  26.491  1.00  0.00     0.000 G0
ENDBRANCH  13  15
ENDBRANCH  12  13
BRANCH  12  17
ATOM     17  C   UNL     1      40.785   8.354  27.535  1.00  0.00    -0.006 C 
ATOM     18  C   UNL     1      41.340   8.953  26.230  1.00  0.00     0.008 C 
ATOM     19  C   UNL     1      41.477   9.043  28.727  1.00  0.00     0.008 C 
ENDBRANCH  12  17
ENDBRANCH  11  12
ENDBRANCH   1  11
TORSDOF 1
ENDMDL
MODEL 6
REMARK VINA RESULT:    -3.579      1.855      4.057
REMARK INTER + INTRA:          -5.873
REMARK INTER:                  -6.513
REMARK INTRA:                   0.640
REMARK UNBOUND:                -0.411
REMARK SMILES CC1=CCC[C@H](C)C(=O)C[C@H](C(C)C)C(=O)C1
REMARK SMILES IDX 8 1 9 2 6 3 7 4 5 5 4 6 3 7 2 8 1 9 10 11 11 12 15 13 16 14
REMARK SMILES IDX 17 15 12 17 13 18 14 19
REMARK H PARENT
REMARK Flexibility Score: 70.00
ROOT
ATOM      1  C   UNL     1      36.621   6.722  26.546  1.00  0.00     0.136 C 
ATOM      2  O   UNL     1      36.612   6.193  25.443  1.00  0.00    -0.299 OA
ENDROOT
BRANCH   1   3
ATOM      3  C   UNL     1      37.543   6.190  27.634  1.00  0.00     0.053 C 
ATOM      4  C   UNL     1      38.637   5.297  27.030  1.00  0.00     0.016 C 
BRANCH   3   5
ATOM      5  C   UNL     1      38.164   7.352  28.445  1.00  0.00     0.015 C 
BRANCH   5   6
ATOM      6  C   UNL     1      39.574   7.730  27.948  1.00  0.00     0.028 C 
BRANCH   6   7
ATOM      7  C   UNL     1      39.745   9.225  27.865  1.00  0.00    -0.028 C 
ATOM      8  C   UNL     1      39.412   9.981  26.792  1.00  0.00    -0.070 CG0
ATOM      9  C   UNL     1      39.697  11.460  26.852  1.00  0.00     0.039 C 
ATOM     10  G   UNL     1      38.769   9.403  25.539  1.00  0.00     0.000 G0
ENDBRANCH   6   7
ENDBRANCH   5   6
ENDBRANCH   3   5
ENDBRANCH   1   3
BRANCH   1  11
ATOM     11  C   UNL     1      35.728   7.914  26.800  1.00  0.00     0.087 C 
BRANCH  11  12
ATOM     12  C   UNL     1      36.483   9.272  26.873  1.00  0.00     0.066 C 
BRANCH  12  13
ATOM     13  C   UNL     1      37.254   9.523  25.585  1.00  0.00     0.140 C 
ATOM     14  O   UNL     1      36.655   9.874  24.577  1.00  0.00    -0.299 OA
BRANCH  13  15
ATOM     15  C   UNL     1      38.758   9.407  25.550  1.00  0.00     0.106 CG0
ATOM     16  G   UNL     1      39.410   9.997  26.792  1.00  0.00     0.000 G0
ENDBRANCH  13  15
ENDBRANCH  12  13
BRANCH  12  17
ATOM     17  C   UNL     1      35.585  10.498  27.250  1.00  0.00    -0.006 C 
ATOM     18  C   UNL     1      34.080  10.183  27.164  1.00  0.00     0.008 C 
ATOM     19  C   UNL     1      35.904  10.994  28.673  1.00  0.00     0.008 C 
ENDBRANCH  12  17
ENDBRANCH  11  12
ENDBRANCH   1  11
TORSDOF 1
ENDMDL
MODEL 7
REMARK VINA RESULT:    -3.567      1.812      3.795
REMARK INTER + INTRA:          -5.855
REMARK INTER:                  -5.480
REMARK INTRA:                  -0.375
REMARK UNBOUND:                -0.411
REMARK SMILES CC1=CCC[C@H](C)C(=O)C[C@H](C(C)C)C(=O)C1
REMARK SMILES IDX 8 1 9 2 6 3 7 4 5 5 4 6 3 7 2 8 1 9 10 11 11 12 15 13 16 14
REMARK SMILES IDX 17 15 12 17 13 18 14 19
REMARK H PARENT
REMARK Flexibility Score: 70.00
ROOT
ATOM      1  C   UNL     1      38.312   9.878  27.784  1.00  0.00     0.136 C 
ATOM      2  O   UNL     1      38.019  10.901  28.386  1.00  0.00    -0.299 OA
ENDROOT
BRANCH   1   3
ATOM      3  C   UNL     1      39.676   9.755  27.120  1.00  0.00     0.053 C 
ATOM      4  C   UNL     1      40.024  11.037  26.352  1.00  0.00     0.016 C 
BRANCH   3   5
ATOM      5  C   UNL     1      40.768   9.424  28.165  1.00  0.00     0.015 C 
BRANCH   5   6
ATOM      6  C   UNL     1      40.759   7.937  28.576  1.00  0.00     0.028 C 
BRANCH   6   7
ATOM      7  C   UNL     1      40.940   7.035  27.381  1.00  0.00    -0.028 C 
ATOM      8  C   UNL     1      40.008   6.165  26.925  1.00  0.00    -0.070 CG0
ATOM      9  C   UNL     1      40.368   5.297  25.746  1.00  0.00     0.039 C 
ATOM     10  G   UNL     1      38.626   6.028  27.548  1.00  0.00     0.000 G0
ENDBRANCH   6   7
ENDBRANCH   5   6
ENDBRANCH   3   5
ENDBRANCH   1   3
BRANCH   1  11
ATOM     11  C   UNL     1      37.317   8.743  27.730  1.00  0.00     0.087 C 
BRANCH  11  12
ATOM     12  C   UNL     1      37.306   7.970  26.381  1.00  0.00     0.066 C 
BRANCH  12  13
ATOM     13  C   UNL     1      37.530   6.482  26.616  1.00  0.00     0.140 C 
ATOM     14  O   UNL     1      36.848   5.663  26.014  1.00  0.00    -0.299 OA
BRANCH  13  15
ATOM     15  C   UNL     1      38.626   6.003  27.535  1.00  0.00     0.106 CG0
ATOM     16  G   UNL     1      40.008   6.166  26.917  1.00  0.00     0.000 G0
ENDBRANCH  13  15
ENDBRANCH  12  13
BRANCH  12  17
ATOM     17  C   UNL     1      36.040   8.223  25.494  1.00  0.00    -0.006 C 
ATOM     18  C   UNL     1      34.805   8.625  26.321  1.00  0.00     0.008 C 
ATOM     19  C   UNL     1      36.313   9.323  24.451  1.00  0.00     0.008 C 
ENDBRANCH  12  17
ENDBRANCH  11  12
ENDBRANCH   1  11
TORSDOF 1
ENDMDL
MODEL 8
REMARK VINA RESULT:    -3.429      2.234      4.193
REMARK INTER + INTRA:          -5.644
REMARK INTER:                  -5.171
REMARK INTRA:                  -0.473
REMARK UNBOUND:                -0.411
REMARK SMILES CC1=CCC[C@H](C)C(=O)C[C@H](C(C)C)C(=O)C1
REMARK SMILES IDX 8 1 9 2 6 3 7 4 5 5 4 6 3 7 2 8 1 9 10 11 11 12 15 13 16 14
REMARK SMILES IDX 17 15 12 17 13 18 14 19
REMARK H PARENT
REMARK Flexibility Score: 70.00
ROOT
ATOM      1  C   UNL     1      38.065   5.994  26.946  1.00  0.00     0.136 C 
ATOM      2  O   UNL     1      37.511   5.142  27.625  1.00  0.00    -0.299 OA
ENDROOT
BRANCH   1   3
ATOM      3  C   UNL     1      37.671   6.177  25.488  1.00  0.00     0.053 C 
ATOM      4  C   UNL     1      37.735   4.840  24.736  1.00  0.00     0.016 C 
BRANCH   3   5
ATOM      5  C   UNL     1      36.262   6.807  25.375  1.00  0.00     0.015 C 
BRANCH   5   6
ATOM      6  C   UNL     1      36.315   8.333  25.155  1.00  0.00     0.028 C 
BRANCH   6   7
ATOM      7  C   UNL     1      36.149   9.082  26.453  1.00  0.00    -0.028 C 
ATOM      8  C   UNL     1      37.101   9.858  27.022  1.00  0.00    -0.070 CG0
ATOM      9  C   UNL     1      36.792  10.497  28.352  1.00  0.00     0.039 C 
ATOM     10  G   UNL     1      38.459  10.108  26.380  1.00  0.00     0.000 G0
ENDBRANCH   6   7
ENDBRANCH   5   6
ENDBRANCH   3   5
ENDBRANCH   1   3
BRANCH   1  11
ATOM     11  C   UNL     1      39.124   6.867  27.580  1.00  0.00     0.087 C 
BRANCH  11  12
ATOM     12  C   UNL     1      39.808   7.855  26.592  1.00  0.00     0.066 C 
BRANCH  12  13
ATOM     13  C   UNL     1      39.562   9.295  27.021  1.00  0.00     0.140 C 
ATOM     14  O   UNL     1      40.295   9.814  27.853  1.00  0.00    -0.299 OA
BRANCH  13  15
ATOM     15  C   UNL     1      38.464  10.112  26.387  1.00  0.00     0.106 CG0
ATOM     16  G   UNL     1      37.109   9.853  27.030  1.00  0.00     0.000 G0
ENDBRANCH  13  15
ENDBRANCH  12  13
BRANCH  12  17
ATOM     17  C   UNL     1      41.332   7.584  26.350  1.00  0.00    -0.006 C 
ATOM     18  C   UNL     1      41.973   6.746  27.471  1.00  0.00     0.008 C 
ATOM     19  C   UNL     1      41.552   6.862  25.007  1.00  0.00     0.008 C 
ENDBRANCH  12  17
ENDBRANCH  11  12
ENDBRANCH   1  11
TORSDOF 1
ENDMDL
MODEL 9
REMARK VINA RESULT:    -3.339      2.179      4.080
REMARK INTER + INTRA:          -5.507
REMARK INTER:                  -5.228
REMARK INTRA:                  -0.278
REMARK UNBOUND:                -0.411
REMARK SMILES CC1=CCC[C@H](C)C(=O)C[C@H](C(C)C)C(=O)C1
REMARK SMILES IDX 8 1 9 2 6 3 7 4 5 5 4 6 3 7 2 8 1 9 10 11 11 12 15 13 16 14
REMARK SMILES IDX 17 15 12 17 13 18 14 19
REMARK H PARENT
REMARK Flexibility Score: 70.00
ROOT
ATOM      1  C   UNL     1      38.600   8.215  28.359  1.00  0.00     0.136 C 
ATOM      2  O   UNL     1      38.633   8.674  29.492  1.00  0.00    -0.299 OA
ENDROOT
BRANCH   1   3
ATOM      3  C   UNL     1      39.892   8.038  27.575  1.00  0.00     0.053 C 
ATOM      4  C   UNL     1      40.862   9.193  27.859  1.00  0.00     0.016 C 
BRANCH   3   5
ATOM      5  C   UNL     1      40.548   6.674  27.898  1.00  0.00     0.015 C 
BRANCH   5   6
ATOM      6  C   UNL     1      40.671   5.770  26.654  1.00  0.00     0.028 C 
BRANCH   6   7
ATOM      7  C   UNL     1      39.684   4.631  26.703  1.00  0.00    -0.028 C 
ATOM      8  C   UNL     1      38.517   4.593  26.017  1.00  0.00    -0.070 CG0
ATOM      9  C   UNL     1      37.616   3.400  26.219  1.00  0.00     0.039 C 
ATOM     10  G   UNL     1      38.079   5.696  25.063  1.00  0.00     0.000 G0
ENDBRANCH   6   7
ENDBRANCH   5   6
ENDBRANCH   3   5
ENDBRANCH   1   3
BRANCH   1  11
ATOM     11  C   UNL     1      37.270   7.810  27.766  1.00  0.00     0.087 C 
BRANCH  11  12
ATOM     12  C   UNL     1      37.212   7.899  26.214  1.00  0.00     0.066 C 
BRANCH  12  13
ATOM     13  C   UNL     1      36.947   6.527  25.611  1.00  0.00     0.140 C 
ATOM     14  O   UNL     1      35.798   6.114  25.522  1.00  0.00    -0.299 OA
BRANCH  13  15
ATOM     15  C   UNL     1      38.078   5.693  25.062  1.00  0.00     0.106 CG0
ATOM     16  G   UNL     1      38.516   4.605  26.033  1.00  0.00     0.000 G0
ENDBRANCH  13  15
ENDBRANCH  12  13
BRANCH  12  17
ATOM     17  C   UNL     1      36.213   8.969  25.659  1.00  0.00    -0.006 C 
ATOM     18  C   UNL     1      35.612   9.854  26.767  1.00  0.00     0.008 C 
ATOM     19  C   UNL     1      36.903   9.877  24.623  1.00  0.00     0.008 C 
ENDBRANCH  12  17
ENDBRANCH  11  12
ENDBRANCH   1  11
TORSDOF 1
ENDMDL
