MODEL 1
REMARK VINA RESULT:    -7.875      0.000      0.000
REMARK INTER + INTRA:         -14.197
REMARK INTER:                 -12.939
REMARK INTRA:                  -1.257
REMARK UNBOUND:                -1.257
REMARK SMILES C[C@H]1O[C@H](OC[C@@H]2O[C@@H](Oc3c(-c4ccc(O)c(O)c4)oc4cc(O)cc(O)c4c3=O)[C@H](O)[C@H](O)[C@H]2O)[C@H](O)[C@H](O)[C@@H]1O
REMARK SMILES IDX 7 1 36 2 34 3 32 4 9 5 8 6 6 7 5 8 4 9 1 10 2 11 42 12 3 13
REMARK SMILES IDX 40 14 38 15 43 16 41 18 39 20 37 22 35 24 10 26 11 27 12 28
REMARK SMILES IDX 30 29 21 30 29 31 31 32 22 33 27 34 23 35 26 36 24 37 13 38
REMARK SMILES IDX 20 39 14 40 18 41 15 42 16 43 19 44 17 46 28 48 25 50 33 52
REMARK H PARENT 43 17 41 19 39 21 37 23 35 25 19 45 17 47 28 49 25 51 33 53
REMARK Flexibility Score: inf
ROOT
ATOM      1  C   UNL     1       6.366  -7.105  35.643  1.00  0.00     0.180 C 
ATOM      2  C   UNL     1       6.238  -5.748  34.866  1.00  0.00     0.177 C 
ATOM      3  C   UNL     1       4.787  -5.277  34.552  1.00  0.00     0.180 C 
ATOM      4  C   UNL     1       3.726  -6.180  35.194  1.00  0.00     0.214 C 
ATOM      5  C   UNL     1       4.177  -6.651  36.593  1.00  0.00     0.339 C 
ATOM      6  O   UNL     1       5.362  -7.431  36.603  1.00  0.00    -0.332 OA
ENDROOT
BRANCH   1   7
ATOM      7  C   UNL     1       6.705  -8.328  34.734  1.00  0.00     0.198 C 
BRANCH   7   8
ATOM      8  O   UNL     1       5.564  -8.934  34.142  1.00  0.00    -0.347 OA
BRANCH   8   9
ATOM      9  C   UNL     1       5.561 -10.347  34.318  1.00  0.00     0.281 C 
ATOM     10  C   UNL     1       7.194 -12.769  33.693  1.00  0.00     0.041 C 
ATOM     11  C   UNL     1       6.822 -12.187  35.075  1.00  0.00     0.150 C 
ATOM     12  C   UNL     1       5.578 -12.878  35.709  1.00  0.00     0.174 C 
ATOM     13  O   UNL     1       6.698 -10.769  35.058  1.00  0.00    -0.344 OA
ATOM     14  C   UNL     1       4.266 -12.321  35.129  1.00  0.00     0.179 C 
ATOM     15  C   UNL     1       4.271 -10.779  35.057  1.00  0.00     0.202 C 
BRANCH  12  16
ATOM     16  O   UNL     1       5.591 -12.690  37.100  1.00  0.00    -0.388 OA
ATOM     17  H   UNL     1       5.478 -13.587  37.511  1.00  0.00     0.211 HD
ENDBRANCH  12  16
BRANCH  14  18
ATOM     18  O   UNL     1       3.142 -12.808  35.822  1.00  0.00    -0.387 OA
ATOM     19  H   UNL     1       2.621 -12.024  36.127  1.00  0.00     0.211 HD
ENDBRANCH  14  18
BRANCH  15  20
ATOM     20  O   UNL     1       4.177 -10.169  36.326  1.00  0.00    -0.385 OA
ATOM     21  H   UNL     1       4.587  -9.266  36.271  1.00  0.00     0.211 HD
ENDBRANCH  15  20
ENDBRANCH   8   9
ENDBRANCH   7   8
ENDBRANCH   1   7
BRANCH   2  22
ATOM     22  O   UNL     1       6.927  -4.729  35.564  1.00  0.00    -0.387 OA
ATOM     23  H   UNL     1       6.693  -3.859  35.148  1.00  0.00     0.211 HD
ENDBRANCH   2  22
BRANCH   3  24
ATOM     24  O   UNL     1       4.555  -5.189  33.164  1.00  0.00    -0.387 OA
ATOM     25  H   UNL     1       5.360  -4.743  32.783  1.00  0.00     0.211 HD
ENDBRANCH   3  24
BRANCH   5  26
ATOM     26  O   UNL     1       4.218  -5.585  37.569  1.00  0.00    -0.454 OA
BRANCH  26  27
ATOM     27  C   UNL     1       3.021  -5.007  38.045  1.00  0.00     0.214 A 
ATOM     28  C   UNL     1       2.940  -3.667  38.464  1.00  0.00     0.180 A 
ATOM     29  C   UNL     1       1.925  -5.840  38.310  1.00  0.00     0.239 A 
ATOM     30  O   UNL     1       2.104  -3.367  39.450  1.00  0.00    -0.452 OA
ATOM     31  C   UNL     1       1.027  -5.489  39.346  1.00  0.00     0.111 A 
ATOM     32  O   UNL     1       1.833  -6.927  37.684  1.00  0.00    -0.285 OA
ATOM     33  C   UNL     1       1.241  -4.235  39.968  1.00  0.00     0.146 A 
ATOM     34  C   UNL     1       0.038  -6.366  39.895  1.00  0.00     0.134 A 
ATOM     35  C   UNL     1       0.565  -3.901  41.140  1.00  0.00     0.094 A 
ATOM     36  C   UNL     1      -0.575  -6.024  41.107  1.00  0.00     0.093 A 
ATOM     37  C   UNL     1      -0.300  -4.823  41.745  1.00  0.00     0.123 A 
BRANCH  28  38
ATOM     38  C   UNL     1       3.588  -2.559  37.747  1.00  0.00     0.025 A 
ATOM     39  C   UNL     1       3.109  -1.269  38.012  1.00  0.00     0.062 A 
ATOM     40  C   UNL     1       4.744  -2.715  36.971  1.00  0.00     0.016 A 
ATOM     41  C   UNL     1       3.774  -0.140  37.527  1.00  0.00     0.158 A 
ATOM     42  C   UNL     1       5.388  -1.594  36.440  1.00  0.00     0.051 A 
ATOM     43  C   UNL     1       4.915  -0.304  36.710  1.00  0.00     0.157 A 
BRANCH  41  44
ATOM     44  O   UNL     1       3.303   1.121  37.928  1.00  0.00    -0.504 OA
ATOM     45  H   UNL     1       2.416   1.265  38.409  1.00  0.00     0.293 HD
ENDBRANCH  41  44
BRANCH  43  46
ATOM     46  O   UNL     1       5.613   0.777  36.174  1.00  0.00    -0.504 OA
ATOM     47  H   UNL     1       6.602   0.929  36.304  1.00  0.00     0.293 HD
ENDBRANCH  43  46
ENDBRANCH  28  38
BRANCH  34  48
ATOM     48  O   UNL     1      -0.377  -7.551  39.271  1.00  0.00    -0.507 OA
ATOM     49  H   UNL     1      -1.176  -8.095  39.574  1.00  0.00     0.293 HD
ENDBRANCH  34  48
BRANCH  37  50
ATOM     50  O   UNL     1      -0.902  -4.541  42.967  1.00  0.00    -0.508 OA
ATOM     51  H   UNL     1      -1.898  -4.688  43.118  1.00  0.00     0.293 HD
ENDBRANCH  37  50
ENDBRANCH  26  27
ENDBRANCH   5  26
BRANCH   4  52
ATOM     52  O   UNL     1       3.448  -7.278  34.368  1.00  0.00    -0.384 OA
ATOM     53  H   UNL     1       2.800  -7.856  34.840  1.00  0.00     0.211 HD
ENDBRANCH   4  52
TORSDOF 16
ENDMDL
MODEL 2
REMARK VINA RESULT:    -7.796      1.711      2.366
REMARK INTER + INTRA:         -14.066
REMARK INTER:                 -11.343
REMARK INTRA:                  -2.724
REMARK UNBOUND:                -1.257
REMARK SMILES C[C@H]1O[C@H](OC[C@@H]2O[C@@H](Oc3c(-c4ccc(O)c(O)c4)oc4cc(O)cc(O)c4c3=O)[C@H](O)[C@H](O)[C@H]2O)[C@H](O)[C@H](O)[C@@H]1O
REMARK SMILES IDX 7 1 36 2 34 3 32 4 9 5 8 6 6 7 5 8 4 9 1 10 2 11 42 12 3 13
REMARK SMILES IDX 40 14 38 15 43 16 41 18 39 20 37 22 35 24 10 26 11 27 12 28
REMARK SMILES IDX 30 29 21 30 29 31 31 32 22 33 27 34 23 35 26 36 24 37 13 38
REMARK SMILES IDX 20 39 14 40 18 41 15 42 16 43 19 44 17 46 28 48 25 50 33 52
REMARK H PARENT 43 17 41 19 39 21 37 23 35 25 19 45 17 47 28 49 25 51 33 53
REMARK Flexibility Score: inf
ROOT
ATOM      1  C   UNL     1       6.096  -6.105  35.134  1.00  0.00     0.180 C 
ATOM      2  C   UNL     1       5.921  -5.641  33.646  1.00  0.00     0.177 C 
ATOM      3  C   UNL     1       4.494  -5.802  33.045  1.00  0.00     0.180 C 
ATOM      4  C   UNL     1       3.469  -6.271  34.087  1.00  0.00     0.214 C 
ATOM      5  C   UNL     1       3.739  -5.616  35.457  1.00  0.00     0.339 C 
ATOM      6  O   UNL     1       4.998  -5.933  36.029  1.00  0.00    -0.332 OA
ENDROOT
BRANCH   1   7
ATOM      7  C   UNL     1       6.740  -7.519  35.287  1.00  0.00     0.198 C 
BRANCH   7   8
ATOM      8  O   UNL     1       6.783  -8.262  34.076  1.00  0.00    -0.347 OA
BRANCH   8   9
ATOM      9  C   UNL     1       6.356  -9.607  34.264  1.00  0.00     0.281 C 
ATOM     10  C   UNL     1       6.243 -11.740  36.353  1.00  0.00     0.041 C 
ATOM     11  C   UNL     1       5.073 -11.041  35.624  1.00  0.00     0.150 C 
ATOM     12  C   UNL     1       4.546 -11.854  34.404  1.00  0.00     0.174 C 
ATOM     13  O   UNL     1       5.368  -9.691  35.282  1.00  0.00    -0.344 OA
ATOM     14  C   UNL     1       5.434 -11.650  33.163  1.00  0.00     0.179 C 
ATOM     15  C   UNL     1       5.782 -10.163  32.937  1.00  0.00     0.202 C 
BRANCH  12  16
ATOM     16  O   UNL     1       3.232 -11.464  34.108  1.00  0.00    -0.388 OA
ATOM     17  H   UNL     1       3.295 -10.667  33.519  1.00  0.00     0.211 HD
ENDBRANCH  12  16
BRANCH  14  18
ATOM     18  O   UNL     1       4.866 -12.233  32.015  1.00  0.00    -0.387 OA
ATOM     19  H   UNL     1       4.144 -12.838  32.318  1.00  0.00     0.211 HD
ENDBRANCH  14  18
BRANCH  15  20
ATOM     20  O   UNL     1       4.680  -9.401  32.495  1.00  0.00    -0.385 OA
ATOM     21  H   UNL     1       4.747  -9.296  31.510  1.00  0.00     0.211 HD
ENDBRANCH  15  20
ENDBRANCH   8   9
ENDBRANCH   7   8
ENDBRANCH   1   7
BRANCH   2  22
ATOM     22  O   UNL     1       6.344  -4.298  33.511  1.00  0.00    -0.387 OA
ATOM     23  H   UNL     1       6.886  -4.229  32.682  1.00  0.00     0.211 HD
ENDBRANCH   2  22
BRANCH   3  24
ATOM     24  O   UNL     1       4.487  -6.685  31.946  1.00  0.00    -0.387 OA
ATOM     25  H   UNL     1       5.318  -6.486  31.433  1.00  0.00     0.211 HD
ENDBRANCH   3  24
BRANCH   5  26
ATOM     26  O   UNL     1       3.476  -4.194  35.473  1.00  0.00    -0.454 OA
BRANCH  26  27
ATOM     27  C   UNL     1       2.838  -3.599  36.584  1.00  0.00     0.214 A 
ATOM     28  C   UNL     1       3.520  -2.786  37.505  1.00  0.00     0.180 A 
ATOM     29  C   UNL     1       1.531  -3.993  36.906  1.00  0.00     0.239 A 
ATOM     30  O   UNL     1       3.130  -2.808  38.773  1.00  0.00    -0.452 OA
ATOM     31  C   UNL     1       1.123  -3.985  38.261  1.00  0.00     0.111 A 
ATOM     32  O   UNL     1       0.797  -4.443  35.989  1.00  0.00    -0.285 OA
ATOM     33  C   UNL     1       2.045  -3.450  39.194  1.00  0.00     0.146 A 
ATOM     34  C   UNL     1      -0.068  -4.607  38.755  1.00  0.00     0.134 A 
ATOM     35  C   UNL     1       1.838  -3.606  40.563  1.00  0.00     0.094 A 
ATOM     36  C   UNL     1      -0.211  -4.800  40.134  1.00  0.00     0.093 A 
ATOM     37  C   UNL     1       0.738  -4.336  41.033  1.00  0.00     0.123 A 
BRANCH  28  38
ATOM     38  C   UNL     1       4.513  -1.776  37.106  1.00  0.00     0.025 A 
ATOM     39  C   UNL     1       5.617  -2.231  36.371  1.00  0.00     0.062 A 
ATOM     40  C   UNL     1       4.318  -0.399  37.269  1.00  0.00     0.016 A 
ATOM     41  C   UNL     1       6.514  -1.332  35.790  1.00  0.00     0.158 A 
ATOM     42  C   UNL     1       5.238   0.507  36.733  1.00  0.00     0.051 A 
ATOM     43  C   UNL     1       6.338   0.054  35.993  1.00  0.00     0.157 A 
BRANCH  41  44
ATOM     44  O   UNL     1       7.530  -1.857  34.974  1.00  0.00    -0.504 OA
ATOM     45  H   UNL     1       8.111  -2.651  35.235  1.00  0.00     0.293 HD
ENDBRANCH  41  44
BRANCH  43  46
ATOM     46  O   UNL     1       7.208   1.006  35.462  1.00  0.00    -0.504 OA
ATOM     47  H   UNL     1       7.086   1.437  34.558  1.00  0.00     0.293 HD
ENDBRANCH  43  46
ENDBRANCH  28  38
BRANCH  34  48
ATOM     48  O   UNL     1      -1.124  -5.017  37.930  1.00  0.00    -0.507 OA
ATOM     49  H   UNL     1      -1.280  -5.979  37.655  1.00  0.00     0.293 HD
ENDBRANCH  34  48
BRANCH  37  50
ATOM     50  O   UNL     1       0.576  -4.584  42.392  1.00  0.00    -0.508 OA
ATOM     51  H   UNL     1       0.633  -3.838  43.083  1.00  0.00     0.293 HD
ENDBRANCH  37  50
ENDBRANCH  26  27
ENDBRANCH   5  26
BRANCH   4  52
ATOM     52  O   UNL     1       3.480  -7.668  34.195  1.00  0.00    -0.384 OA
ATOM     53  H   UNL     1       3.927  -8.032  33.393  1.00  0.00     0.211 HD
ENDBRANCH   4  52
TORSDOF 16
ENDMDL
MODEL 3
REMARK VINA RESULT:    -7.696      2.379      6.867
REMARK INTER + INTRA:         -13.901
REMARK INTER:                 -10.403
REMARK INTRA:                  -3.498
REMARK UNBOUND:                -1.257
REMARK SMILES C[C@H]1O[C@H](OC[C@@H]2O[C@@H](Oc3c(-c4ccc(O)c(O)c4)oc4cc(O)cc(O)c4c3=O)[C@H](O)[C@H](O)[C@H]2O)[C@H](O)[C@H](O)[C@@H]1O
REMARK SMILES IDX 7 1 36 2 34 3 32 4 9 5 8 6 6 7 5 8 4 9 1 10 2 11 42 12 3 13
REMARK SMILES IDX 40 14 38 15 43 16 41 18 39 20 37 22 35 24 10 26 11 27 12 28
REMARK SMILES IDX 30 29 21 30 29 31 31 32 22 33 27 34 23 35 26 36 24 37 13 38
REMARK SMILES IDX 20 39 14 40 18 41 15 42 16 43 19 44 17 46 28 48 25 50 33 52
REMARK H PARENT 43 17 41 19 39 21 37 23 35 25 19 45 17 47 28 49 25 51 33 53
REMARK Flexibility Score: inf
ROOT
ATOM      1  C   UNL     1       1.136  -4.988  36.802  1.00  0.00     0.180 C 
ATOM      2  C   UNL     1       0.830  -4.597  38.290  1.00  0.00     0.177 C 
ATOM      3  C   UNL     1       1.597  -5.406  39.378  1.00  0.00     0.180 C 
ATOM      4  C   UNL     1       2.632  -6.364  38.775  1.00  0.00     0.214 C 
ATOM      5  C   UNL     1       3.324  -5.728  37.552  1.00  0.00     0.339 C 
ATOM      6  O   UNL     1       2.457  -5.418  36.473  1.00  0.00    -0.332 OA
ENDROOT
BRANCH   1   7
ATOM      7  C   UNL     1       0.059  -5.914  36.154  1.00  0.00     0.198 C 
BRANCH   7   8
ATOM      8  O   UNL     1       0.232  -7.292  36.455  1.00  0.00    -0.347 OA
BRANCH   8   9
ATOM      9  C   UNL     1       0.301  -8.088  35.277  1.00  0.00     0.281 C 
ATOM     10  C   UNL     1      -1.102  -8.513  32.674  1.00  0.00     0.041 C 
ATOM     11  C   UNL     1       0.344  -8.029  32.922  1.00  0.00     0.150 C 
ATOM     12  C   UNL     1       1.392  -9.178  32.835  1.00  0.00     0.174 C 
ATOM     13  O   UNL     1       0.473  -7.276  34.123  1.00  0.00    -0.344 OA
ATOM     14  C   UNL     1       1.448  -9.993  34.140  1.00  0.00     0.179 C 
ATOM     15  C   UNL     1       1.481  -9.085  35.388  1.00  0.00     0.202 C 
BRANCH  12  16
ATOM     16  O   UNL     1       2.660  -8.643  32.564  1.00  0.00    -0.388 OA
ATOM     17  H   UNL     1       2.550  -7.658  32.507  1.00  0.00     0.211 HD
ENDBRANCH  12  16
BRANCH  14  18
ATOM     18  O   UNL     1       2.512 -10.913  34.134  1.00  0.00    -0.387 OA
ATOM     19  H   UNL     1       3.283 -10.476  34.575  1.00  0.00     0.211 HD
ENDBRANCH  14  18
BRANCH  15  20
ATOM     20  O   UNL     1       2.710  -8.412  35.547  1.00  0.00    -0.385 OA
ATOM     21  H   UNL     1       2.524  -7.493  35.872  1.00  0.00     0.211 HD
ENDBRANCH  15  20
ENDBRANCH   8   9
ENDBRANCH   7   8
ENDBRANCH   1   7
BRANCH   2  22
ATOM     22  O   UNL     1       1.058  -3.214  38.478  1.00  0.00    -0.387 OA
ATOM     23  H   UNL     1       0.389  -2.878  39.129  1.00  0.00     0.211 HD
ENDBRANCH   2  22
BRANCH   3  24
ATOM     24  O   UNL     1       0.716  -6.125  40.211  1.00  0.00    -0.387 OA
ATOM     25  H   UNL     1      -0.006  -5.485  40.460  1.00  0.00     0.211 HD
ENDBRANCH   3  24
BRANCH   5  26
ATOM     26  O   UNL     1       4.185  -4.617  37.895  1.00  0.00    -0.454 OA
BRANCH  26  27
ATOM     27  C   UNL     1       4.682  -3.762  36.887  1.00  0.00     0.214 A 
ATOM     28  C   UNL     1       5.656  -4.170  35.959  1.00  0.00     0.180 A 
ATOM     29  C   UNL     1       4.357  -2.399  36.933  1.00  0.00     0.239 A 
ATOM     30  O   UNL     1       6.525  -3.268  35.522  1.00  0.00    -0.452 OA
ATOM     31  C   UNL     1       5.284  -1.452  36.438  1.00  0.00     0.111 A 
ATOM     32  O   UNL     1       3.293  -2.056  37.511  1.00  0.00    -0.285 OA
ATOM     33  C   UNL     1       6.441  -1.972  35.807  1.00  0.00     0.146 A 
ATOM     34  C   UNL     1       5.203  -0.041  36.663  1.00  0.00     0.134 A 
ATOM     35  C   UNL     1       7.513  -1.139  35.496  1.00  0.00     0.094 A 
ATOM     36  C   UNL     1       6.324   0.755  36.395  1.00  0.00     0.093 A 
ATOM     37  C   UNL     1       7.479   0.218  35.846  1.00  0.00     0.123 A 
BRANCH  28  38
ATOM     38  C   UNL     1       5.644  -5.489  35.307  1.00  0.00     0.025 A 
ATOM     39  C   UNL     1       5.066  -5.558  34.032  1.00  0.00     0.062 A 
ATOM     40  C   UNL     1       6.323  -6.604  35.814  1.00  0.00     0.016 A 
ATOM     41  C   UNL     1       5.171  -6.716  33.257  1.00  0.00     0.158 A 
ATOM     42  C   UNL     1       6.391  -7.783  35.066  1.00  0.00     0.051 A 
ATOM     43  C   UNL     1       5.820  -7.852  33.789  1.00  0.00     0.157 A 
BRANCH  41  44
ATOM     44  O   UNL     1       4.668  -6.674  31.946  1.00  0.00    -0.504 OA
ATOM     45  H   UNL     1       5.152  -6.229  31.169  1.00  0.00     0.293 HD
ENDBRANCH  41  44
BRANCH  43  46
ATOM     46  O   UNL     1       5.940  -9.047  33.080  1.00  0.00    -0.504 OA
ATOM     47  H   UNL     1       5.999  -9.956  33.514  1.00  0.00     0.293 HD
ENDBRANCH  43  46
ENDBRANCH  28  38
BRANCH  34  48
ATOM     48  O   UNL     1       4.046   0.603  37.121  1.00  0.00    -0.507 OA
ATOM     49  H   UNL     1       3.881   0.839  38.092  1.00  0.00     0.293 HD
ENDBRANCH  34  48
BRANCH  37  50
ATOM     50  O   UNL     1       8.582   1.037  35.632  1.00  0.00    -0.508 OA
ATOM     51  H   UNL     1       9.494   0.822  36.031  1.00  0.00     0.293 HD
ENDBRANCH  37  50
ENDBRANCH  26  27
ENDBRANCH   5  26
BRANCH   4  52
ATOM     52  O   UNL     1       2.033  -7.582  38.427  1.00  0.00    -0.384 OA
ATOM     53  H   UNL     1       2.657  -8.308  38.669  1.00  0.00     0.211 HD
ENDBRANCH   4  52
TORSDOF 16
ENDMDL
MODEL 4
REMARK VINA RESULT:    -7.632      2.444      4.758
REMARK INTER + INTRA:         -13.797
REMARK INTER:                 -10.659
REMARK INTRA:                  -3.137
REMARK UNBOUND:                -1.257
REMARK SMILES C[C@H]1O[C@H](OC[C@@H]2O[C@@H](Oc3c(-c4ccc(O)c(O)c4)oc4cc(O)cc(O)c4c3=O)[C@H](O)[C@H](O)[C@H]2O)[C@H](O)[C@H](O)[C@@H]1O
REMARK SMILES IDX 7 1 36 2 34 3 32 4 9 5 8 6 6 7 5 8 4 9 1 10 2 11 42 12 3 13
REMARK SMILES IDX 40 14 38 15 43 16 41 18 39 20 37 22 35 24 10 26 11 27 12 28
REMARK SMILES IDX 30 29 21 30 29 31 31 32 22 33 27 34 23 35 26 36 24 37 13 38
REMARK SMILES IDX 20 39 14 40 18 41 15 42 16 43 19 44 17 46 28 48 25 50 33 52
REMARK H PARENT 43 17 41 19 39 21 37 23 35 25 19 45 17 47 28 49 25 51 33 53
REMARK Flexibility Score: inf
ROOT
ATOM      1  C   UNL     1       1.415  -9.076  35.981  1.00  0.00     0.180 C 
ATOM      2  C   UNL     1       0.704  -9.653  37.254  1.00  0.00     0.177 C 
ATOM      3  C   UNL     1       1.241  -9.143  38.624  1.00  0.00     0.180 C 
ATOM      4  C   UNL     1       2.299  -8.043  38.466  1.00  0.00     0.214 C 
ATOM      5  C   UNL     1       1.946  -7.104  37.294  1.00  0.00     0.339 C 
ATOM      6  O   UNL     1       1.893  -7.732  36.024  1.00  0.00    -0.332 OA
ENDROOT
BRANCH   1   7
ATOM      7  C   UNL     1       2.473 -10.038  35.353  1.00  0.00     0.198 C 
BRANCH   7   8
ATOM      8  O   UNL     1       3.752  -9.961  35.968  1.00  0.00    -0.347 OA
BRANCH   8   9
ATOM      9  C   UNL     1       4.784  -9.710  35.019  1.00  0.00     0.281 C 
ATOM     10  C   UNL     1       5.741 -10.611  32.337  1.00  0.00     0.041 C 
ATOM     11  C   UNL     1       5.232  -9.215  32.760  1.00  0.00     0.150 C 
ATOM     12  C   UNL     1       6.385  -8.233  33.123  1.00  0.00     0.174 C 
ATOM     13  O   UNL     1       4.240  -9.279  33.779  1.00  0.00    -0.344 OA
ATOM     14  C   UNL     1       6.900  -8.471  34.554  1.00  0.00     0.179 C 
ATOM     15  C   UNL     1       5.747  -8.629  35.567  1.00  0.00     0.202 C 
BRANCH  12  16
ATOM     16  O   UNL     1       5.934  -6.910  33.003  1.00  0.00    -0.388 OA
ATOM     17  H   UNL     1       6.742  -6.333  32.974  1.00  0.00     0.211 HD
ENDBRANCH  12  16
BRANCH  14  18
ATOM     18  O   UNL     1       7.812  -7.476  34.951  1.00  0.00    -0.387 OA
ATOM     19  H   UNL     1       7.361  -6.916  35.631  1.00  0.00     0.211 HD
ENDBRANCH  14  18
BRANCH  15  20
ATOM     20  O   UNL     1       5.069  -7.418  35.822  1.00  0.00    -0.385 OA
ATOM     21  H   UNL     1       4.458  -7.235  35.062  1.00  0.00     0.211 HD
ENDBRANCH  15  20
ENDBRANCH   8   9
ENDBRANCH   7   8
ENDBRANCH   1   7
BRANCH   2  22
ATOM     22  O   UNL     1      -0.688  -9.419  37.173  1.00  0.00    -0.387 OA
ATOM     23  H   UNL     1      -1.051  -9.977  36.437  1.00  0.00     0.211 HD
ENDBRANCH   2  22
BRANCH   3  24
ATOM     24  O   UNL     1       1.765 -10.194  39.404  1.00  0.00    -0.387 OA
ATOM     25  H   UNL     1       1.009 -10.515  39.969  1.00  0.00     0.211 HD
ENDBRANCH   3  24
BRANCH   5  26
ATOM     26  O   UNL     1       0.778  -6.289  37.547  1.00  0.00    -0.454 OA
BRANCH  26  27
ATOM     27  C   UNL     1       0.916  -4.910  37.819  1.00  0.00     0.214 A 
ATOM     28  C   UNL     1       1.925  -4.121  37.239  1.00  0.00     0.180 A 
ATOM     29  C   UNL     1       0.160  -4.343  38.855  1.00  0.00     0.239 A 
ATOM     30  O   UNL     1       2.426  -3.119  37.951  1.00  0.00    -0.452 OA
ATOM     31  C   UNL     1       0.698  -3.257  39.586  1.00  0.00     0.111 A 
ATOM     32  O   UNL     1      -0.928  -4.888  39.170  1.00  0.00    -0.285 OA
ATOM     33  C   UNL     1       1.931  -2.735  39.124  1.00  0.00     0.146 A 
ATOM     34  C   UNL     1       0.166  -2.765  40.820  1.00  0.00     0.134 A 
ATOM     35  C   UNL     1       2.651  -1.828  39.899  1.00  0.00     0.094 A 
ATOM     36  C   UNL     1       0.946  -1.903  41.601  1.00  0.00     0.093 A 
ATOM     37  C   UNL     1       2.187  -1.458  41.169  1.00  0.00     0.123 A 
BRANCH  28  38
ATOM     38  C   UNL     1       2.320  -4.228  35.826  1.00  0.00     0.025 A 
ATOM     39  C   UNL     1       3.691  -4.159  35.546  1.00  0.00     0.062 A 
ATOM     40  C   UNL     1       1.426  -4.564  34.801  1.00  0.00     0.016 A 
ATOM     41  C   UNL     1       4.179  -4.434  34.266  1.00  0.00     0.158 A 
ATOM     42  C   UNL     1       1.900  -4.793  33.506  1.00  0.00     0.051 A 
ATOM     43  C   UNL     1       3.271  -4.731  33.226  1.00  0.00     0.157 A 
BRANCH  41  44
ATOM     44  O   UNL     1       5.572  -4.458  34.088  1.00  0.00    -0.504 OA
ATOM     45  H   UNL     1       6.240  -4.443  34.857  1.00  0.00     0.293 HD
ENDBRANCH  41  44
BRANCH  43  46
ATOM     46  O   UNL     1       3.687  -4.993  31.921  1.00  0.00    -0.504 OA
ATOM     47  H   UNL     1       4.298  -5.755  31.667  1.00  0.00     0.293 HD
ENDBRANCH  43  46
ENDBRANCH  28  38
BRANCH  34  48
ATOM     48  O   UNL     1      -1.117  -3.081  41.288  1.00  0.00    -0.507 OA
ATOM     49  H   UNL     1      -1.935  -3.131  40.694  1.00  0.00     0.293 HD
ENDBRANCH  34  48
BRANCH  37  50
ATOM     50  O   UNL     1       2.945  -0.634  41.993  1.00  0.00    -0.508 OA
ATOM     51  H   UNL     1       3.230  -0.927  42.926  1.00  0.00     0.293 HD
ENDBRANCH  37  50
ENDBRANCH  26  27
ENDBRANCH   5  26
BRANCH   4  52
ATOM     52  O   UNL     1       3.570  -8.605  38.284  1.00  0.00    -0.384 OA
ATOM     53  H   UNL     1       3.901  -8.327  37.396  1.00  0.00     0.211 HD
ENDBRANCH   4  52
TORSDOF 16
ENDMDL
MODEL 5
REMARK VINA RESULT:    -7.611      2.468      4.642
REMARK INTER + INTRA:         -13.762
REMARK INTER:                 -10.260
REMARK INTRA:                  -3.502
REMARK UNBOUND:                -1.257
REMARK SMILES C[C@H]1O[C@H](OC[C@@H]2O[C@@H](Oc3c(-c4ccc(O)c(O)c4)oc4cc(O)cc(O)c4c3=O)[C@H](O)[C@H](O)[C@H]2O)[C@H](O)[C@H](O)[C@@H]1O
REMARK SMILES IDX 7 1 36 2 34 3 32 4 9 5 8 6 6 7 5 8 4 9 1 10 2 11 42 12 3 13
REMARK SMILES IDX 40 14 38 15 43 16 41 18 39 20 37 22 35 24 10 26 11 27 12 28
REMARK SMILES IDX 30 29 21 30 29 31 31 32 22 33 27 34 23 35 26 36 24 37 13 38
REMARK SMILES IDX 20 39 14 40 18 41 15 42 16 43 19 44 17 46 28 48 25 50 33 52
REMARK H PARENT 43 17 41 19 39 21 37 23 35 25 19 45 17 47 28 49 25 51 33 53
REMARK Flexibility Score: inf
ROOT
ATOM      1  C   UNL     1       1.032  -9.145  35.522  1.00  0.00     0.180 C 
ATOM      2  C   UNL     1      -0.087  -8.795  36.565  1.00  0.00     0.177 C 
ATOM      3  C   UNL     1       0.383  -8.032  37.838  1.00  0.00     0.180 C 
ATOM      4  C   UNL     1       1.865  -7.638  37.771  1.00  0.00     0.214 C 
ATOM      5  C   UNL     1       2.257  -7.215  36.340  1.00  0.00     0.339 C 
ATOM      6  O   UNL     1       2.116  -8.231  35.361  1.00  0.00    -0.332 OA
ENDROOT
BRANCH   1   7
ATOM      7  C   UNL     1       1.538 -10.620  35.604  1.00  0.00     0.198 C 
BRANCH   7   8
ATOM      8  O   UNL     1       2.704 -10.781  36.402  1.00  0.00    -0.347 OA
BRANCH   8   9
ATOM      9  C   UNL     1       3.843 -11.113  35.616  1.00  0.00     0.281 C 
ATOM     10  C   UNL     1       4.621 -12.689  33.201  1.00  0.00     0.041 C 
ATOM     11  C   UNL     1       4.715 -11.164  33.428  1.00  0.00     0.150 C 
ATOM     12  C   UNL     1       6.129 -10.707  33.898  1.00  0.00     0.174 C 
ATOM     13  O   UNL     1       3.684 -10.671  34.276  1.00  0.00    -0.344 OA
ATOM     14  C   UNL     1       6.325 -10.938  35.407  1.00  0.00     0.179 C 
ATOM     15  C   UNL     1       5.108 -10.463  36.229  1.00  0.00     0.202 C 
BRANCH  12  16
ATOM     16  O   UNL     1       6.307  -9.347  33.606  1.00  0.00    -0.388 OA
ATOM     17  H   UNL     1       6.975  -8.999  34.254  1.00  0.00     0.211 HD
ENDBRANCH  12  16
BRANCH  14  18
ATOM     18  O   UNL     1       7.524 -10.365  35.870  1.00  0.00    -0.387 OA
ATOM     19  H   UNL     1       7.550 -10.487  36.851  1.00  0.00     0.211 HD
ENDBRANCH  14  18
BRANCH  15  20
ATOM     20  O   UNL     1       4.991  -9.058  36.278  1.00  0.00    -0.385 OA
ATOM     21  H   UNL     1       4.729  -8.734  35.378  1.00  0.00     0.211 HD
ENDBRANCH  15  20
ENDBRANCH   8   9
ENDBRANCH   7   8
ENDBRANCH   1   7
BRANCH   2  22
ATOM     22  O   UNL     1      -1.121  -8.069  35.931  1.00  0.00    -0.387 OA
ATOM     23  H   UNL     1      -1.609  -8.690  35.330  1.00  0.00     0.211 HD
ENDBRANCH   2  22
BRANCH   3  24
ATOM     24  O   UNL     1       0.146  -8.778  39.011  1.00  0.00    -0.387 OA
ATOM     25  H   UNL     1       0.946  -9.361  39.127  1.00  0.00     0.211 HD
ENDBRANCH   3  24
BRANCH   5  26
ATOM     26  O   UNL     1       1.650  -5.969  35.925  1.00  0.00    -0.454 OA
BRANCH  26  27
ATOM     27  C   UNL     1       2.056  -4.749  36.508  1.00  0.00     0.214 A 
ATOM     28  C   UNL     1       3.406  -4.428  36.732  1.00  0.00     0.180 A 
ATOM     29  C   UNL     1       1.085  -3.912  37.075  1.00  0.00     0.239 A 
ATOM     30  O   UNL     1       3.709  -3.687  37.791  1.00  0.00    -0.452 OA
ATOM     31  C   UNL     1       1.432  -3.107  38.187  1.00  0.00     0.111 A 
ATOM     32  O   UNL     1      -0.094  -3.982  36.643  1.00  0.00    -0.285 OA
ATOM     33  C   UNL     1       2.796  -3.118  38.571  1.00  0.00     0.146 A 
ATOM     34  C   UNL     1       0.491  -2.423  39.020  1.00  0.00     0.134 A 
ATOM     35  C   UNL     1       3.195  -2.549  39.779  1.00  0.00     0.094 A 
ATOM     36  C   UNL     1       0.918  -1.919  40.255  1.00  0.00     0.093 A 
ATOM     37  C   UNL     1       2.245  -2.002  40.652  1.00  0.00     0.123 A 
BRANCH  28  38
ATOM     38  C   UNL     1       4.473  -4.709  35.758  1.00  0.00     0.025 A 
ATOM     39  C   UNL     1       5.419  -5.677  36.121  1.00  0.00     0.062 A 
ATOM     40  C   UNL     1       4.480  -4.196  34.455  1.00  0.00     0.016 A 
ATOM     41  C   UNL     1       6.358  -6.147  35.198  1.00  0.00     0.158 A 
ATOM     42  C   UNL     1       5.445  -4.624  33.539  1.00  0.00     0.051 A 
ATOM     43  C   UNL     1       6.388  -5.596  33.897  1.00  0.00     0.157 A 
BRANCH  41  44
ATOM     44  O   UNL     1       7.199  -7.198  35.597  1.00  0.00    -0.504 OA
ATOM     45  H   UNL     1       7.230  -7.567  36.545  1.00  0.00     0.293 HD
ENDBRANCH  41  44
BRANCH  43  46
ATOM     46  O   UNL     1       7.311  -6.001  32.934  1.00  0.00    -0.504 OA
ATOM     47  H   UNL     1       7.161  -5.919  31.940  1.00  0.00     0.293 HD
ENDBRANCH  43  46
ENDBRANCH  28  38
BRANCH  34  48
ATOM     48  O   UNL     1      -0.845  -2.203  38.658  1.00  0.00    -0.507 OA
ATOM     49  H   UNL     1      -1.493  -1.655  39.211  1.00  0.00     0.293 HD
ENDBRANCH  34  48
BRANCH  37  50
ATOM     50  O   UNL     1       2.619  -1.524  41.903  1.00  0.00    -0.508 OA
ATOM     51  H   UNL     1       2.091  -1.755  42.743  1.00  0.00     0.293 HD
ENDBRANCH  37  50
ENDBRANCH  26  27
ENDBRANCH   5  26
BRANCH   4  52
ATOM     52  O   UNL     1       2.676  -8.690  38.217  1.00  0.00    -0.384 OA
ATOM     53  H   UNL     1       3.028  -9.159  37.422  1.00  0.00     0.211 HD
ENDBRANCH   4  52
TORSDOF 16
ENDMDL
MODEL 6
REMARK VINA RESULT:    -7.497      2.570      6.838
REMARK INTER + INTRA:         -13.575
REMARK INTER:                 -10.402
REMARK INTRA:                  -3.172
REMARK UNBOUND:                -1.257
REMARK SMILES C[C@H]1O[C@H](OC[C@@H]2O[C@@H](Oc3c(-c4ccc(O)c(O)c4)oc4cc(O)cc(O)c4c3=O)[C@H](O)[C@H](O)[C@H]2O)[C@H](O)[C@H](O)[C@@H]1O
REMARK SMILES IDX 7 1 36 2 34 3 32 4 9 5 8 6 6 7 5 8 4 9 1 10 2 11 42 12 3 13
REMARK SMILES IDX 40 14 38 15 43 16 41 18 39 20 37 22 35 24 10 26 11 27 12 28
REMARK SMILES IDX 30 29 21 30 29 31 31 32 22 33 27 34 23 35 26 36 24 37 13 38
REMARK SMILES IDX 20 39 14 40 18 41 15 42 16 43 19 44 17 46 28 48 25 50 33 52
REMARK H PARENT 43 17 41 19 39 21 37 23 35 25 19 45 17 47 28 49 25 51 33 53
REMARK Flexibility Score: inf
ROOT
ATOM      1  C   UNL     1       1.569  -5.342  36.511  1.00  0.00     0.180 C 
ATOM      2  C   UNL     1       1.338  -5.133  38.048  1.00  0.00     0.177 C 
ATOM      3  C   UNL     1       2.227  -5.993  38.994  1.00  0.00     0.180 C 
ATOM      4  C   UNL     1       3.282  -6.804  38.228  1.00  0.00     0.214 C 
ATOM      5  C   UNL     1       3.846  -5.993  37.043  1.00  0.00     0.339 C 
ATOM      6  O   UNL     1       2.890  -5.635  36.059  1.00  0.00    -0.332 OA
ENDROOT
BRANCH   1   7
ATOM      7  C   UNL     1       0.514  -6.270  35.830  1.00  0.00     0.198 C 
BRANCH   7   8
ATOM      8  O   UNL     1      -0.193  -7.098  36.743  1.00  0.00    -0.347 OA
BRANCH   8   9
ATOM      9  C   UNL     1      -0.201  -8.460  36.329  1.00  0.00     0.281 C 
ATOM     10  C   UNL     1       0.174 -10.151  33.894  1.00  0.00     0.041 C 
ATOM     11  C   UNL     1       1.016 -10.125  35.189  1.00  0.00     0.150 C 
ATOM     12  C   UNL     1       0.603 -11.232  36.205  1.00  0.00     0.174 C 
ATOM     13  O   UNL     1       1.060  -8.835  35.790  1.00  0.00    -0.344 OA
ATOM     14  C   UNL     1      -0.641 -10.821  37.013  1.00  0.00     0.179 C 
ATOM     15  C   UNL     1      -0.541  -9.371  37.534  1.00  0.00     0.202 C 
BRANCH  12  16
ATOM     16  O   UNL     1       1.666 -11.490  37.082  1.00  0.00    -0.388 OA
ATOM     17  H   UNL     1       1.271 -11.601  37.986  1.00  0.00     0.211 HD
ENDBRANCH  12  16
BRANCH  14  18
ATOM     18  O   UNL     1      -0.912 -11.732  38.051  1.00  0.00    -0.387 OA
ATOM     19  H   UNL     1      -1.689 -11.383  38.554  1.00  0.00     0.211 HD
ENDBRANCH  14  18
BRANCH  15  20
ATOM     20  O   UNL     1       0.402  -9.224  38.573  1.00  0.00    -0.385 OA
ATOM     21  H   UNL     1      -0.061  -9.365  39.439  1.00  0.00     0.211 HD
ENDBRANCH  15  20
ENDBRANCH   8   9
ENDBRANCH   7   8
ENDBRANCH   1   7
BRANCH   2  22
ATOM     22  O   UNL     1       1.485  -3.765  38.373  1.00  0.00    -0.387 OA
ATOM     23  H   UNL     1       1.297  -3.657  39.342  1.00  0.00     0.211 HD
ENDBRANCH   2  22
BRANCH   3  24
ATOM     24  O   UNL     1       1.455  -6.860  39.793  1.00  0.00    -0.387 OA
ATOM     25  H   UNL     1       0.576  -6.943  39.331  1.00  0.00     0.211 HD
ENDBRANCH   3  24
BRANCH   5  26
ATOM     26  O   UNL     1       4.653  -4.865  37.455  1.00  0.00    -0.454 OA
BRANCH  26  27
ATOM     27  C   UNL     1       5.029  -3.878  36.519  1.00  0.00     0.214 A 
ATOM     28  C   UNL     1       5.966  -4.119  35.499  1.00  0.00     0.180 A 
ATOM     29  C   UNL     1       4.620  -2.553  36.728  1.00  0.00     0.239 A 
ATOM     30  O   UNL     1       6.747  -3.117  35.113  1.00  0.00    -0.452 OA
ATOM     31  C   UNL     1       5.452  -1.497  36.285  1.00  0.00     0.111 A 
ATOM     32  O   UNL     1       3.576  -2.346  37.397  1.00  0.00    -0.285 OA
ATOM     33  C   UNL     1       6.598  -1.867  35.539  1.00  0.00     0.146 A 
ATOM     34  C   UNL     1       5.295  -0.126  36.664  1.00  0.00     0.134 A 
ATOM     35  C   UNL     1       7.593  -0.932  35.259  1.00  0.00     0.094 A 
ATOM     36  C   UNL     1       6.343   0.771  36.420  1.00  0.00     0.093 A 
ATOM     37  C   UNL     1       7.494   0.376  35.753  1.00  0.00     0.123 A 
BRANCH  28  38
ATOM     38  C   UNL     1       5.998  -5.361  34.712  1.00  0.00     0.025 A 
ATOM     39  C   UNL     1       6.791  -6.404  35.210  1.00  0.00     0.062 A 
ATOM     40  C   UNL     1       5.158  -5.601  33.617  1.00  0.00     0.016 A 
ATOM     41  C   UNL     1       6.743  -7.679  34.640  1.00  0.00     0.158 A 
ATOM     42  C   UNL     1       5.140  -6.859  33.010  1.00  0.00     0.051 A 
ATOM     43  C   UNL     1       5.926  -7.905  33.510  1.00  0.00     0.157 A 
BRANCH  41  44
ATOM     44  O   UNL     1       7.477  -8.702  35.263  1.00  0.00    -0.504 OA
ATOM     45  H   UNL     1       8.366  -8.551  35.737  1.00  0.00     0.293 HD
ENDBRANCH  41  44
BRANCH  43  46
ATOM     46  O   UNL     1       5.849  -9.145  32.878  1.00  0.00    -0.504 OA
ATOM     47  H   UNL     1       5.462  -9.973  33.308  1.00  0.00     0.293 HD
ENDBRANCH  43  46
ENDBRANCH  28  38
BRANCH  34  48
ATOM     48  O   UNL     1       4.130   0.385  37.252  1.00  0.00    -0.507 OA
ATOM     49  H   UNL     1       3.808   1.337  37.124  1.00  0.00     0.293 HD
ENDBRANCH  34  48
BRANCH  37  50
ATOM     50  O   UNL     1       8.527   1.288  35.566  1.00  0.00    -0.508 OA
ATOM     51  H   UNL     1       9.367   1.045  35.044  1.00  0.00     0.293 HD
ENDBRANCH  37  50
ENDBRANCH  26  27
ENDBRANCH   5  26
BRANCH   4  52
ATOM     52  O   UNL     1       2.743  -8.019  37.784  1.00  0.00    -0.384 OA
ATOM     53  H   UNL     1       2.338  -8.474  38.561  1.00  0.00     0.211 HD
ENDBRANCH   4  52
TORSDOF 16
ENDMDL
MODEL 7
REMARK VINA RESULT:    -7.387      1.976      5.741
REMARK INTER + INTRA:         -13.394
REMARK INTER:                 -11.423
REMARK INTRA:                  -1.971
REMARK UNBOUND:                -1.257
REMARK SMILES C[C@H]1O[C@H](OC[C@@H]2O[C@@H](Oc3c(-c4ccc(O)c(O)c4)oc4cc(O)cc(O)c4c3=O)[C@H](O)[C@H](O)[C@H]2O)[C@H](O)[C@H](O)[C@@H]1O
REMARK SMILES IDX 7 1 36 2 34 3 32 4 9 5 8 6 6 7 5 8 4 9 1 10 2 11 42 12 3 13
REMARK SMILES IDX 40 14 38 15 43 16 41 18 39 20 37 22 35 24 10 26 11 27 12 28
REMARK SMILES IDX 30 29 21 30 29 31 31 32 22 33 27 34 23 35 26 36 24 37 13 38
REMARK SMILES IDX 20 39 14 40 18 41 15 42 16 43 19 44 17 46 28 48 25 50 33 52
REMARK H PARENT 43 17 41 19 39 21 37 23 35 25 19 45 17 47 28 49 25 51 33 53
REMARK Flexibility Score: inf
ROOT
ATOM      1  C   UNL     1       1.070  -7.578  35.253  1.00  0.00     0.180 C 
ATOM      2  C   UNL     1      -0.292  -7.158  35.910  1.00  0.00     0.177 C 
ATOM      3  C   UNL     1      -0.236  -6.800  37.425  1.00  0.00     0.180 C 
ATOM      4  C   UNL     1       1.198  -6.795  37.973  1.00  0.00     0.214 C 
ATOM      5  C   UNL     1       2.183  -6.222  36.933  1.00  0.00     0.339 C 
ATOM      6  O   UNL     1       2.267  -6.960  35.724  1.00  0.00    -0.332 OA
ENDROOT
BRANCH   1   7
ATOM      7  C   UNL     1       1.249  -9.120  35.094  1.00  0.00     0.198 C 
BRANCH   7   8
ATOM      8  O   UNL     1       2.280  -9.664  35.908  1.00  0.00    -0.347 OA
BRANCH   8   9
ATOM      9  C   UNL     1       3.421 -10.034  35.142  1.00  0.00     0.281 C 
ATOM     10  C   UNL     1       4.172 -11.075  32.444  1.00  0.00     0.041 C 
ATOM     11  C   UNL     1       4.539  -9.721  33.091  1.00  0.00     0.150 C 
ATOM     12  C   UNL     1       5.943  -9.732  33.766  1.00  0.00     0.174 C 
ATOM     13  O   UNL     1       3.526  -9.239  33.969  1.00  0.00    -0.344 OA
ATOM     14  C   UNL     1       5.894 -10.379  35.162  1.00  0.00     0.179 C 
ATOM     15  C   UNL     1       4.701  -9.866  35.997  1.00  0.00     0.202 C 
BRANCH  12  16
ATOM     16  O   UNL     1       6.425  -8.419  33.876  1.00  0.00    -0.388 OA
ATOM     17  H   UNL     1       6.976  -8.384  34.702  1.00  0.00     0.211 HD
ENDBRANCH  12  16
BRANCH  14  18
ATOM     18  O   UNL     1       7.114 -10.231  35.848  1.00  0.00    -0.387 OA
ATOM     19  H   UNL     1       7.838 -10.460  35.214  1.00  0.00     0.211 HD
ENDBRANCH  14  18
BRANCH  15  20
ATOM     20  O   UNL     1       4.863  -8.532  36.426  1.00  0.00    -0.385 OA
ATOM     21  H   UNL     1       5.599  -8.122  35.902  1.00  0.00     0.211 HD
ENDBRANCH  15  20
ENDBRANCH   8   9
ENDBRANCH   7   8
ENDBRANCH   1   7
BRANCH   2  22
ATOM     22  O   UNL     1      -0.859  -6.082  35.189  1.00  0.00    -0.387 OA
ATOM     23  H   UNL     1      -0.119  -5.553  34.793  1.00  0.00     0.211 HD
ENDBRANCH   2  22
BRANCH   3  24
ATOM     24  O   UNL     1      -1.033  -7.670  38.197  1.00  0.00    -0.387 OA
ATOM     25  H   UNL     1      -1.706  -8.050  37.568  1.00  0.00     0.211 HD
ENDBRANCH   3  24
BRANCH   5  26
ATOM     26  O   UNL     1       2.003  -4.806  36.695  1.00  0.00    -0.454 OA
BRANCH  26  27
ATOM     27  C   UNL     1       2.917  -3.872  37.231  1.00  0.00     0.214 A 
ATOM     28  C   UNL     1       2.510  -2.780  38.018  1.00  0.00     0.180 A 
ATOM     29  C   UNL     1       4.250  -3.904  36.801  1.00  0.00     0.239 A 
ATOM     30  O   UNL     1       3.205  -1.652  37.935  1.00  0.00    -0.452 OA
ATOM     31  C   UNL     1       4.986  -2.696  36.745  1.00  0.00     0.111 A 
ATOM     32  O   UNL     1       4.718  -4.992  36.377  1.00  0.00    -0.285 OA
ATOM     33  C   UNL     1       4.343  -1.542  37.257  1.00  0.00     0.146 A 
ATOM     34  C   UNL     1       6.245  -2.541  36.082  1.00  0.00     0.134 A 
ATOM     35  C   UNL     1       4.883  -0.276  37.041  1.00  0.00     0.094 A 
ATOM     36  C   UNL     1       6.724  -1.249  35.828  1.00  0.00     0.093 A 
ATOM     37  C   UNL     1       6.044  -0.124  36.271  1.00  0.00     0.123 A 
BRANCH  28  38
ATOM     38  C   UNL     1       1.477  -2.879  39.061  1.00  0.00     0.025 A 
ATOM     39  C   UNL     1       1.760  -3.711  40.153  1.00  0.00     0.062 A 
ATOM     40  C   UNL     1       0.337  -2.066  39.095  1.00  0.00     0.016 A 
ATOM     41  C   UNL     1       0.931  -3.729  41.277  1.00  0.00     0.158 A 
ATOM     42  C   UNL     1      -0.525  -2.114  40.194  1.00  0.00     0.051 A 
ATOM     43  C   UNL     1      -0.240  -2.939  41.289  1.00  0.00     0.157 A 
BRANCH  41  44
ATOM     44  O   UNL     1       1.338  -4.500  42.378  1.00  0.00    -0.504 OA
ATOM     45  H   UNL     1       2.197  -4.331  42.899  1.00  0.00     0.293 HD
ENDBRANCH  41  44
BRANCH  43  46
ATOM     46  O   UNL     1      -1.124  -2.926  42.368  1.00  0.00    -0.504 OA
ATOM     47  H   UNL     1      -1.331  -3.735  42.936  1.00  0.00     0.293 HD
ENDBRANCH  43  46
ENDBRANCH  28  38
BRANCH  34  48
ATOM     48  O   UNL     1       7.048  -3.619  35.688  1.00  0.00    -0.507 OA
ATOM     49  H   UNL     1       8.048  -3.660  35.844  1.00  0.00     0.293 HD
ENDBRANCH  34  48
BRANCH  37  50
ATOM     50  O   UNL     1       6.536   1.140  35.964  1.00  0.00    -0.508 OA
ATOM     51  H   UNL     1       6.795   1.396  35.013  1.00  0.00     0.293 HD
ENDBRANCH  37  50
ENDBRANCH  26  27
ENDBRANCH   5  26
BRANCH   4  52
ATOM     52  O   UNL     1       1.583  -8.086  38.360  1.00  0.00    -0.384 OA
ATOM     53  H   UNL     1       1.764  -8.071  39.330  1.00  0.00     0.211 HD
ENDBRANCH   4  52
TORSDOF 16
ENDMDL
MODEL 8
REMARK VINA RESULT:    -6.975      2.153      8.040
REMARK INTER + INTRA:         -12.718
REMARK INTER:                 -10.621
REMARK INTRA:                  -2.097
REMARK UNBOUND:                -1.257
REMARK SMILES C[C@H]1O[C@H](OC[C@@H]2O[C@@H](Oc3c(-c4ccc(O)c(O)c4)oc4cc(O)cc(O)c4c3=O)[C@H](O)[C@H](O)[C@H]2O)[C@H](O)[C@H](O)[C@@H]1O
REMARK SMILES IDX 7 1 36 2 34 3 32 4 9 5 8 6 6 7 5 8 4 9 1 10 2 11 42 12 3 13
REMARK SMILES IDX 40 14 38 15 43 16 41 18 39 20 37 22 35 24 10 26 11 27 12 28
REMARK SMILES IDX 30 29 21 30 29 31 31 32 22 33 27 34 23 35 26 36 24 37 13 38
REMARK SMILES IDX 20 39 14 40 18 41 15 42 16 43 19 44 17 46 28 48 25 50 33 52
REMARK H PARENT 43 17 41 19 39 21 37 23 35 25 19 45 17 47 28 49 25 51 33 53
REMARK Flexibility Score: inf
ROOT
ATOM      1  C   UNL     1       0.751  -7.305  36.770  1.00  0.00     0.180 C 
ATOM      2  C   UNL     1      -0.167  -7.992  35.699  1.00  0.00     0.177 C 
ATOM      3  C   UNL     1       0.040  -7.529  34.226  1.00  0.00     0.180 C 
ATOM      4  C   UNL     1       1.222  -6.562  34.077  1.00  0.00     0.214 C 
ATOM      5  C   UNL     1       2.385  -6.968  35.006  1.00  0.00     0.339 C 
ATOM      6  O   UNL     1       2.077  -6.941  36.390  1.00  0.00    -0.332 OA
ENDROOT
BRANCH   1   7
ATOM      7  C   UNL     1       0.050  -6.158  37.564  1.00  0.00     0.198 C 
BRANCH   7   8
ATOM      8  O   UNL     1       0.553  -4.864  37.263  1.00  0.00    -0.347 OA
BRANCH   8   9
ATOM      9  C   UNL     1       0.596  -4.029  38.415  1.00  0.00     0.281 C 
ATOM     10  C   UNL     1      -1.125  -2.181  40.011  1.00  0.00     0.041 C 
ATOM     11  C   UNL     1      -0.474  -3.512  40.449  1.00  0.00     0.150 C 
ATOM     12  C   UNL     1       0.877  -3.309  41.198  1.00  0.00     0.174 C 
ATOM     13  O   UNL     1      -0.360  -4.445  39.381  1.00  0.00    -0.344 OA
ATOM     14  C   UNL     1       2.038  -3.073  40.215  1.00  0.00     0.179 C 
ATOM     15  C   UNL     1       2.013  -4.071  39.037  1.00  0.00     0.202 C 
BRANCH  12  16
ATOM     16  O   UNL     1       1.155  -4.436  41.986  1.00  0.00    -0.388 OA
ATOM     17  H   UNL     1       1.280  -4.111  42.916  1.00  0.00     0.211 HD
ENDBRANCH  12  16
BRANCH  14  18
ATOM     18  O   UNL     1       3.283  -3.069  40.871  1.00  0.00    -0.387 OA
ATOM     19  H   UNL     1       3.484  -2.132  41.117  1.00  0.00     0.211 HD
ENDBRANCH  14  18
BRANCH  15  20
ATOM     20  O   UNL     1       2.368  -5.381  39.420  1.00  0.00    -0.385 OA
ATOM     21  H   UNL     1       3.251  -5.347  39.872  1.00  0.00     0.211 HD
ENDBRANCH  15  20
ENDBRANCH   8   9
ENDBRANCH   7   8
ENDBRANCH   1   7
BRANCH   2  22
ATOM     22  O   UNL     1      -0.026  -9.397  35.778  1.00  0.00    -0.387 OA
ATOM     23  H   UNL     1       0.901  -9.629  35.509  1.00  0.00     0.211 HD
ENDBRANCH   2  22
BRANCH   3  24
ATOM     24  O   UNL     1      -1.124  -6.936  33.697  1.00  0.00    -0.387 OA
ATOM     25  H   UNL     1      -1.352  -6.188  34.315  1.00  0.00     0.211 HD
ENDBRANCH   3  24
BRANCH   5  26
ATOM     26  O   UNL     1       3.026  -8.205  34.614  1.00  0.00    -0.454 OA
BRANCH  26  27
ATOM     27  C   UNL     1       4.074  -8.742  35.392  1.00  0.00     0.214 A 
ATOM     28  C   UNL     1       5.329  -8.119  35.507  1.00  0.00     0.180 A 
ATOM     29  C   UNL     1       3.943 -10.042  35.901  1.00  0.00     0.239 A 
ATOM     30  O   UNL     1       6.402  -8.888  35.642  1.00  0.00    -0.452 OA
ATOM     31  C   UNL     1       5.102 -10.838  36.065  1.00  0.00     0.111 A 
ATOM     32  O   UNL     1       2.786 -10.495  36.098  1.00  0.00    -0.285 OA
ATOM     33  C   UNL     1       6.344 -10.205  35.813  1.00  0.00     0.146 A 
ATOM     34  C   UNL     1       5.090 -12.248  36.313  1.00  0.00     0.134 A 
ATOM     35  C   UNL     1       7.515 -10.953  35.722  1.00  0.00     0.094 A 
ATOM     36  C   UNL     1       6.276 -12.976  36.151  1.00  0.00     0.093 A 
ATOM     37  C   UNL     1       7.472 -12.350  35.830  1.00  0.00     0.123 A 
BRANCH  28  38
ATOM     38  C   UNL     1       5.495  -6.667  35.675  1.00  0.00     0.025 A 
ATOM     39  C   UNL     1       5.994  -5.957  34.575  1.00  0.00     0.062 A 
ATOM     40  C   UNL     1       5.022  -5.962  36.789  1.00  0.00     0.016 A 
ATOM     41  C   UNL     1       6.013  -4.560  34.569  1.00  0.00     0.158 A 
ATOM     42  C   UNL     1       5.082  -4.566  36.813  1.00  0.00     0.051 A 
ATOM     43  C   UNL     1       5.574  -3.854  35.711  1.00  0.00     0.157 A 
BRANCH  41  44
ATOM     44  O   UNL     1       6.419  -3.916  33.389  1.00  0.00    -0.504 OA
ATOM     45  H   UNL     1       5.911  -3.977  32.508  1.00  0.00     0.293 HD
ENDBRANCH  41  44
BRANCH  43  46
ATOM     46  O   UNL     1       5.588  -2.462  35.782  1.00  0.00    -0.504 OA
ATOM     47  H   UNL     1       5.874  -1.942  36.599  1.00  0.00     0.293 HD
ENDBRANCH  43  46
ENDBRANCH  28  38
BRANCH  34  48
ATOM     48  O   UNL     1       3.953 -12.948  36.738  1.00  0.00    -0.507 OA
ATOM     49  H   UNL     1       3.202 -12.528  37.273  1.00  0.00     0.293 HD
ENDBRANCH  34  48
BRANCH  37  50
ATOM     50  O   UNL     1       8.617 -13.115  35.640  1.00  0.00    -0.508 OA
ATOM     51  H   UNL     1       9.016 -13.261  34.714  1.00  0.00     0.293 HD
ENDBRANCH  37  50
ENDBRANCH  26  27
ENDBRANCH   5  26
BRANCH   4  52
ATOM     52  O   UNL     1       0.818  -5.245  34.336  1.00  0.00    -0.384 OA
ATOM     53  H   UNL     1      -0.037  -5.092  33.866  1.00  0.00     0.211 HD
ENDBRANCH   4  52
TORSDOF 16
ENDMDL
