MODEL 1
REMARK VINA RESULT:    -6.201      0.000      0.000
REMARK INTER + INTRA:          -6.962
REMARK INTER:                  -6.926
REMARK INTRA:                  -0.036
REMARK UNBOUND:                -0.036
REMARK SMILES O=C([O-])c1ccc(O)c(O)c1
REMARK SMILES IDX 4 1 11 2 5 3 9 4 6 5 7 6 2 7 1 8 3 9 10 10 8 12
REMARK H PARENT 10 11 8 13
REMARK Flexibility Score: inf
ROOT
ATOM      1  C   UNL     1      16.622  -1.062  26.379  1.00  0.00     0.001 A 
ATOM      2  C   UNL     1      17.861  -0.562  25.935  1.00  0.00     0.060 A 
ATOM      3  C   UNL     1      16.591  -2.276  27.085  1.00  0.00     0.014 A 
ATOM      4  C   UNL     1      19.048  -1.263  26.195  1.00  0.00     0.158 A 
ATOM      5  C   UNL     1      17.773  -2.976  27.343  1.00  0.00     0.051 A 
ATOM      6  C   UNL     1      19.002  -2.476  26.902  1.00  0.00     0.157 A 
ENDROOT
BRANCH   1   7
ATOM      7  C   UNL     1      15.370  -0.323  26.106  1.00  0.00     0.072 C 
ATOM      8  O   UNL     1      14.670  -0.597  25.094  1.00  0.00    -0.545 OA
ATOM      9  O   UNL     1      14.947   0.687  26.964  1.00  0.00    -0.545 OA
ENDBRANCH   1   7
BRANCH   4  10
ATOM     10  O   UNL     1      20.270  -0.759  25.752  1.00  0.00    -0.504 OA
ATOM     11  H   UNL     1      20.833  -1.253  25.070  1.00  0.00     0.293 HD
ENDBRANCH   4  10
BRANCH   6  12
ATOM     12  O   UNL     1      20.164  -3.196  27.175  1.00  0.00    -0.504 OA
ATOM     13  H   UNL     1      21.024  -2.744  27.460  1.00  0.00     0.293 HD
ENDBRANCH   6  12
TORSDOF 3
ENDMDL
MODEL 2
REMARK VINA RESULT:    -6.168     12.196     13.247
REMARK INTER + INTRA:          -6.925
REMARK INTER:                  -6.889
REMARK INTRA:                  -0.036
REMARK UNBOUND:                -0.036
REMARK SMILES O=C([O-])c1ccc(O)c(O)c1
REMARK SMILES IDX 4 1 11 2 5 3 9 4 6 5 7 6 2 7 1 8 3 9 10 10 8 12
REMARK H PARENT 10 11 8 13
REMARK Flexibility Score: inf
ROOT
ATOM      1  C   UNL     1      13.519 -13.355  28.212  1.00  0.00     0.001 A 
ATOM      2  C   UNL     1      13.509 -12.559  29.373  1.00  0.00     0.060 A 
ATOM      3  C   UNL     1      12.373 -13.390  27.401  1.00  0.00     0.014 A 
ATOM      4  C   UNL     1      12.373 -11.811  29.716  1.00  0.00     0.158 A 
ATOM      5  C   UNL     1      11.240 -12.646  27.742  1.00  0.00     0.051 A 
ATOM      6  C   UNL     1      11.233 -11.856  28.896  1.00  0.00     0.157 A 
ENDROOT
BRANCH   1   7
ATOM      7  C   UNL     1      14.716 -14.144  27.849  1.00  0.00     0.072 C 
ATOM      8  O   UNL     1      15.504 -13.741  26.952  1.00  0.00    -0.545 OA
ATOM      9  O   UNL     1      14.989 -15.346  28.494  1.00  0.00    -0.545 OA
ENDBRANCH   1   7
BRANCH   4  10
ATOM     10  O   UNL     1      12.374 -11.025  30.867  1.00  0.00    -0.504 OA
ATOM     11  H   UNL     1      13.121 -10.369  31.063  1.00  0.00     0.293 HD
ENDBRANCH   4  10
BRANCH   6  12
ATOM     12  O   UNL     1      10.089 -11.124  29.210  1.00  0.00    -0.504 OA
ATOM     13  H   UNL     1       9.571 -11.276  30.067  1.00  0.00     0.293 HD
ENDBRANCH   6  12
TORSDOF 3
ENDMDL
MODEL 3
REMARK VINA RESULT:    -6.128     11.921     13.450
REMARK INTER + INTRA:          -6.881
REMARK INTER:                  -6.845
REMARK INTRA:                  -0.036
REMARK UNBOUND:                -0.036
REMARK SMILES O=C([O-])c1ccc(O)c(O)c1
REMARK SMILES IDX 4 1 11 2 5 3 9 4 6 5 7 6 2 7 1 8 3 9 10 10 8 12
REMARK H PARENT 10 11 8 13
REMARK Flexibility Score: inf
ROOT
ATOM      1  C   UNL     1      13.800 -13.381  28.073  1.00  0.00     0.001 A 
ATOM      2  C   UNL     1      12.531 -13.752  27.591  1.00  0.00     0.060 A 
ATOM      3  C   UNL     1      13.903 -12.288  28.949  1.00  0.00     0.014 A 
ATOM      4  C   UNL     1      11.384 -13.043  27.980  1.00  0.00     0.158 A 
ATOM      5  C   UNL     1      12.762 -11.580  29.337  1.00  0.00     0.051 A 
ATOM      6  C   UNL     1      11.503 -11.951  28.857  1.00  0.00     0.157 A 
ENDROOT
BRANCH   1   7
ATOM      7  C   UNL     1      15.010 -14.128  27.663  1.00  0.00     0.072 C 
ATOM      8  O   UNL     1      15.767 -13.680  26.761  1.00  0.00    -0.545 OA
ATOM      9  O   UNL     1      15.328 -15.339  28.270  1.00  0.00    -0.545 OA
ENDBRANCH   1   7
BRANCH   4  10
ATOM     10  O   UNL     1      10.132 -13.418  27.498  1.00  0.00    -0.504 OA
ATOM     11  H   UNL     1       9.509 -14.008  28.038  1.00  0.00     0.293 HD
ENDBRANCH   4  10
BRANCH   6  12
ATOM     12  O   UNL     1      10.382 -11.227  29.262  1.00  0.00    -0.504 OA
ATOM     13  H   UNL     1      10.388 -10.643  30.089  1.00  0.00     0.293 HD
ENDBRANCH   6  12
TORSDOF 3
ENDMDL
MODEL 4
REMARK VINA RESULT:    -6.086      1.025      2.067
REMARK INTER + INTRA:          -6.833
REMARK INTER:                  -6.797
REMARK INTRA:                  -0.036
REMARK UNBOUND:                -0.036
REMARK SMILES O=C([O-])c1ccc(O)c(O)c1
REMARK SMILES IDX 4 1 11 2 5 3 9 4 6 5 7 6 2 7 1 8 3 9 10 10 8 12
REMARK H PARENT 10 11 8 13
REMARK Flexibility Score: inf
ROOT
ATOM      1  C   UNL     1      16.775  -0.753  26.161  1.00  0.00     0.001 A 
ATOM      2  C   UNL     1      16.697  -1.714  27.186  1.00  0.00     0.060 A 
ATOM      3  C   UNL     1      17.947  -0.673  25.391  1.00  0.00     0.014 A 
ATOM      4  C   UNL     1      17.772  -2.580  27.437  1.00  0.00     0.158 A 
ATOM      5  C   UNL     1      19.019  -1.535  25.639  1.00  0.00     0.051 A 
ATOM      6  C   UNL     1      18.938  -2.488  26.658  1.00  0.00     0.157 A 
ENDROOT
BRANCH   1   7
ATOM      7  C   UNL     1      15.642   0.161  25.896  1.00  0.00     0.072 C 
ATOM      8  O   UNL     1      14.634  -0.235  25.253  1.00  0.00    -0.545 OA
ATOM      9  O   UNL     1      15.676   1.474  26.355  1.00  0.00    -0.545 OA
ENDBRANCH   1   7
BRANCH   4  10
ATOM     10  O   UNL     1      17.684  -3.529  28.454  1.00  0.00    -0.504 OA
ATOM     11  H   UNL     1      16.946  -4.223  28.471  1.00  0.00     0.293 HD
ENDBRANCH   4  10
BRANCH   6  12
ATOM     12  O   UNL     1      20.023  -3.335  26.883  1.00  0.00    -0.504 OA
ATOM     13  H   UNL     1      20.111  -4.232  26.422  1.00  0.00     0.293 HD
ENDBRANCH   6  12
TORSDOF 3
ENDMDL
MODEL 5
REMARK VINA RESULT:    -6.054     11.542     12.675
REMARK INTER + INTRA:          -6.798
REMARK INTER:                  -6.761
REMARK INTRA:                  -0.037
REMARK UNBOUND:                -0.036
REMARK SMILES O=C([O-])c1ccc(O)c(O)c1
REMARK SMILES IDX 4 1 11 2 5 3 9 4 6 5 7 6 2 7 1 8 3 9 10 10 8 12
REMARK H PARENT 10 11 8 13
REMARK Flexibility Score: inf
ROOT
ATOM      1  C   UNL     1      12.885 -12.452  28.622  1.00  0.00     0.001 A 
ATOM      2  C   UNL     1      13.664 -12.605  29.785  1.00  0.00     0.060 A 
ATOM      3  C   UNL     1      13.077 -13.342  27.553  1.00  0.00     0.014 A 
ATOM      4  C   UNL     1      14.616 -13.631  29.877  1.00  0.00     0.158 A 
ATOM      5  C   UNL     1      14.026 -14.364  27.642  1.00  0.00     0.051 A 
ATOM      6  C   UNL     1      14.797 -14.514  28.799  1.00  0.00     0.157 A 
ENDROOT
BRANCH   1   7
ATOM      7  C   UNL     1      11.881 -11.371  28.525  1.00  0.00     0.072 C 
ATOM      8  O   UNL     1      10.658 -11.640  28.387  1.00  0.00    -0.545 OA
ATOM      9  O   UNL     1      12.274 -10.038  28.583  1.00  0.00    -0.545 OA
ENDBRANCH   1   7
BRANCH   4  10
ATOM     10  O   UNL     1      15.381 -13.775  31.033  1.00  0.00    -0.504 OA
ATOM     11  H   UNL     1      15.123 -13.322  31.901  1.00  0.00     0.293 HD
ENDBRANCH   4  10
BRANCH   6  12
ATOM     12  O   UNL     1      15.736 -15.543  28.859  1.00  0.00    -0.504 OA
ATOM     13  H   UNL     1      16.558 -15.558  28.268  1.00  0.00     0.293 HD
ENDBRANCH   6  12
TORSDOF 3
ENDMDL
MODEL 6
REMARK VINA RESULT:    -5.967     11.199     12.262
REMARK INTER + INTRA:          -6.701
REMARK INTER:                  -6.658
REMARK INTRA:                  -0.043
REMARK UNBOUND:                -0.036
REMARK SMILES O=C([O-])c1ccc(O)c(O)c1
REMARK SMILES IDX 4 1 11 2 5 3 9 4 6 5 7 6 2 7 1 8 3 9 10 10 8 12
REMARK H PARENT 10 11 8 13
REMARK Flexibility Score: inf
ROOT
ATOM      1  C   UNL     1      12.536 -11.434  29.455  1.00  0.00     0.001 A 
ATOM      2  C   UNL     1      12.016 -12.155  28.364  1.00  0.00     0.060 A 
ATOM      3  C   UNL     1      13.755 -11.841  30.021  1.00  0.00     0.014 A 
ATOM      4  C   UNL     1      12.705 -13.263  27.847  1.00  0.00     0.158 A 
ATOM      5  C   UNL     1      14.442 -12.945  29.508  1.00  0.00     0.051 A 
ATOM      6  C   UNL     1      13.924 -13.658  28.424  1.00  0.00     0.157 A 
ENDROOT
BRANCH   1   7
ATOM      7  C   UNL     1      11.811 -10.266  30.000  1.00  0.00     0.072 C 
ATOM      8  O   UNL     1      10.564 -10.156  29.851  1.00  0.00    -0.545 OA
ATOM      9  O   UNL     1      12.497  -9.269  30.686  1.00  0.00    -0.545 OA
ENDBRANCH   1   7
BRANCH   4  10
ATOM     10  O   UNL     1      12.182 -13.970  26.766  1.00  0.00    -0.504 OA
ATOM     11  H   UNL     1      12.650 -14.786  26.387  1.00  0.00     0.293 HD
ENDBRANCH   4  10
BRANCH   6  12
ATOM     12  O   UNL     1      14.631 -14.755  27.933  1.00  0.00    -0.504 OA
ATOM     13  H   UNL     1      14.384 -15.707  28.173  1.00  0.00     0.293 HD
ENDBRANCH   6  12
TORSDOF 3
ENDMDL
MODEL 7
REMARK VINA RESULT:    -5.845     11.904     13.226
REMARK INTER + INTRA:          -6.565
REMARK INTER:                  -6.529
REMARK INTRA:                  -0.036
REMARK UNBOUND:                -0.036
REMARK SMILES O=C([O-])c1ccc(O)c(O)c1
REMARK SMILES IDX 4 1 11 2 5 3 9 4 6 5 7 6 2 7 1 8 3 9 10 10 8 12
REMARK H PARENT 10 11 8 13
REMARK Flexibility Score: inf
ROOT
ATOM      1  C   UNL     1      14.084 -13.474  28.549  1.00  0.00     0.001 A 
ATOM      2  C   UNL     1      12.756 -13.304  28.116  1.00  0.00     0.060 A 
ATOM      3  C   UNL     1      14.561 -12.687  29.609  1.00  0.00     0.014 A 
ATOM      4  C   UNL     1      11.918 -12.364  28.735  1.00  0.00     0.158 A 
ATOM      5  C   UNL     1      13.729 -11.749  30.225  1.00  0.00     0.051 A 
ATOM      6  C   UNL     1      12.409 -11.583  29.794  1.00  0.00     0.157 A 
ENDROOT
BRANCH   1   7
ATOM      7  C   UNL     1      14.968 -14.466  27.897  1.00  0.00     0.072 C 
ATOM      8  O   UNL     1      15.000 -15.660  28.299  1.00  0.00    -0.545 OA
ATOM      9  O   UNL     1      15.778 -14.093  26.830  1.00  0.00    -0.545 OA
ENDBRANCH   1   7
BRANCH   4  10
ATOM     10  O   UNL     1      10.604 -12.204  28.300  1.00  0.00    -0.504 OA
ATOM     11  H   UNL     1       9.830 -12.662  28.767  1.00  0.00     0.293 HD
ENDBRANCH   4  10
BRANCH   6  12
ATOM     12  O   UNL     1      11.602 -10.639  30.429  1.00  0.00    -0.504 OA
ATOM     13  H   UNL     1      11.880  -9.670  30.525  1.00  0.00     0.293 HD
ENDBRANCH   6  12
TORSDOF 3
ENDMDL
MODEL 8
REMARK VINA RESULT:    -5.804      1.415      4.590
REMARK INTER + INTRA:          -6.518
REMARK INTER:                  -6.481
REMARK INTRA:                  -0.037
REMARK UNBOUND:                -0.036
REMARK SMILES O=C([O-])c1ccc(O)c(O)c1
REMARK SMILES IDX 4 1 11 2 5 3 9 4 6 5 7 6 2 7 1 8 3 9 10 10 8 12
REMARK H PARENT 10 11 8 13
REMARK Flexibility Score: inf
ROOT
ATOM      1  C   UNL     1      17.311  -1.668  26.953  1.00  0.00     0.001 A 
ATOM      2  C   UNL     1      16.469  -1.276  28.010  1.00  0.00     0.060 A 
ATOM      3  C   UNL     1      17.261  -0.955  25.743  1.00  0.00     0.014 A 
ATOM      4  C   UNL     1      15.594  -0.190  27.862  1.00  0.00     0.158 A 
ATOM      5  C   UNL     1      16.389   0.126  25.593  1.00  0.00     0.051 A 
ATOM      6  C   UNL     1      15.555   0.514  26.646  1.00  0.00     0.157 A 
ENDROOT
BRANCH   1   7
ATOM      7  C   UNL     1      18.234  -2.813  27.109  1.00  0.00     0.072 C 
ATOM      8  O   UNL     1      17.789  -3.984  27.244  1.00  0.00    -0.545 OA
ATOM      9  O   UNL     1      19.611  -2.612  27.108  1.00  0.00    -0.545 OA
ENDBRANCH   1   7
BRANCH   4  10
ATOM     10  O   UNL     1      14.765   0.191  28.915  1.00  0.00    -0.504 OA
ATOM     11  H   UNL     1      13.782   0.392  28.773  1.00  0.00     0.293 HD
ENDBRANCH   4  10
BRANCH   6  12
ATOM     12  O   UNL     1      14.695   1.597  26.467  1.00  0.00    -0.504 OA
ATOM     13  H   UNL     1      13.694   1.517  26.593  1.00  0.00     0.293 HD
ENDBRANCH   6  12
TORSDOF 3
ENDMDL
MODEL 9
REMARK VINA RESULT:    -5.653      2.527      4.756
REMARK INTER + INTRA:          -6.350
REMARK INTER:                  -6.310
REMARK INTRA:                  -0.040
REMARK UNBOUND:                -0.036
REMARK SMILES O=C([O-])c1ccc(O)c(O)c1
REMARK SMILES IDX 4 1 11 2 5 3 9 4 6 5 7 6 2 7 1 8 3 9 10 10 8 12
REMARK H PARENT 10 11 8 13
REMARK Flexibility Score: inf
ROOT
ATOM      1  C   UNL     1      15.947  -0.817  27.328  1.00  0.00     0.001 A 
ATOM      2  C   UNL     1      15.888   0.470  27.894  1.00  0.00     0.060 A 
ATOM      3  C   UNL     1      15.495  -1.003  26.011  1.00  0.00     0.014 A 
ATOM      4  C   UNL     1      15.387   1.553  27.156  1.00  0.00     0.158 A 
ATOM      5  C   UNL     1      14.994   0.074  25.275  1.00  0.00     0.051 A 
ATOM      6  C   UNL     1      14.938   1.351  25.839  1.00  0.00     0.157 A 
ENDROOT
BRANCH   1   7
ATOM      7  C   UNL     1      16.475  -1.959  28.106  1.00  0.00     0.072 C 
ATOM      8  O   UNL     1      16.198  -2.087  29.328  1.00  0.00    -0.545 OA
ATOM      9  O   UNL     1      17.289  -2.909  27.497  1.00  0.00    -0.545 OA
ENDBRANCH   1   7
BRANCH   4  10
ATOM     10  O   UNL     1      15.334   2.824  27.725  1.00  0.00    -0.504 OA
ATOM     11  H   UNL     1      16.174   3.361  27.906  1.00  0.00     0.293 HD
ENDBRANCH   4  10
BRANCH   6  12
ATOM     12  O   UNL     1      14.434   2.407  25.080  1.00  0.00    -0.504 OA
ATOM     13  H   UNL     1      14.628   2.500  24.091  1.00  0.00     0.293 HD
ENDBRANCH   6  12
TORSDOF 3
ENDMDL
