MODEL 1
REMARK VINA RESULT:    -4.696      0.000      0.000
REMARK INTER + INTRA:          -5.381
REMARK INTER:                  -5.245
REMARK INTRA:                  -0.136
REMARK UNBOUND:                -0.136
REMARK SMILES O=C([O-])C=Cc1ccccc1
REMARK SMILES IDX 4 1 5 2 2 3 1 4 3 5 6 6 7 7 11 8 8 9 10 10 9 11
REMARK H PARENT
REMARK Flexibility Score: inf
ROOT
ATOM      1  C   UNL     1      -9.335  -7.803  -5.454  1.00  0.00     0.025 C 
ATOM      2  C   UNL     1     -10.573  -7.569  -5.912  1.00  0.00     0.010 C 
ENDROOT
BRANCH   1   3
ATOM      3  C   UNL     1      -8.908  -9.143  -5.020  1.00  0.00     0.064 C 
ATOM      4  O   UNL     1      -7.700  -9.346  -4.727  1.00  0.00    -0.545 OA
ATOM      5  O   UNL     1      -9.817 -10.192  -4.927  1.00  0.00    -0.545 OA
ENDBRANCH   1   3
BRANCH   2   6
ATOM      6  C   UNL     1     -11.075  -6.244  -6.366  1.00  0.00    -0.026 A 
ATOM      7  C   UNL     1     -12.237  -5.633  -5.846  1.00  0.00     0.008 A 
ATOM      8  C   UNL     1     -10.350  -5.568  -7.366  1.00  0.00     0.008 A 
ATOM      9  C   UNL     1     -12.652  -4.383  -6.319  1.00  0.00     0.001 A 
ATOM     10  C   UNL     1     -10.771  -4.319  -7.833  1.00  0.00     0.001 A 
ATOM     11  C   UNL     1     -11.921  -3.728  -7.310  1.00  0.00     0.000 A 
ENDBRANCH   2   6
TORSDOF 2
ENDMDL
MODEL 2
REMARK VINA RESULT:    -4.675      0.111      1.460
REMARK INTER + INTRA:          -5.358
REMARK INTER:                  -5.229
REMARK INTRA:                  -0.129
REMARK UNBOUND:                -0.136
REMARK SMILES O=C([O-])C=Cc1ccccc1
REMARK SMILES IDX 4 1 5 2 2 3 1 4 3 5 6 6 7 7 11 8 8 9 10 10 9 11
REMARK H PARENT
REMARK Flexibility Score: inf
ROOT
ATOM      1  C   UNL     1      -9.297  -7.784  -5.429  1.00  0.00     0.025 C 
ATOM      2  C   UNL     1     -10.523  -7.549  -5.922  1.00  0.00     0.010 C 
ENDROOT
BRANCH   1   3
ATOM      3  C   UNL     1      -8.881  -9.127  -4.993  1.00  0.00     0.064 C 
ATOM      4  O   UNL     1      -7.679  -9.334  -4.680  1.00  0.00    -0.545 OA
ATOM      5  O   UNL     1      -9.793 -10.174  -4.920  1.00  0.00    -0.545 OA
ENDBRANCH   1   3
BRANCH   2   6
ATOM      6  C   UNL     1     -11.013  -6.222  -6.381  1.00  0.00    -0.026 A 
ATOM      7  C   UNL     1     -10.349  -5.442  -7.353  1.00  0.00     0.008 A 
ATOM      8  C   UNL     1     -12.203  -5.724  -5.817  1.00  0.00     0.008 A 
ATOM      9  C   UNL     1     -10.867  -4.201  -7.740  1.00  0.00     0.001 A 
ATOM     10  C   UNL     1     -12.714  -4.483  -6.209  1.00  0.00     0.001 A 
ATOM     11  C   UNL     1     -12.046  -3.722  -7.169  1.00  0.00     0.000 A 
ENDBRANCH   2   6
TORSDOF 2
ENDMDL
MODEL 3
REMARK VINA RESULT:    -4.669      1.865      2.567
REMARK INTER + INTRA:          -5.351
REMARK INTER:                  -5.215
REMARK INTRA:                  -0.136
REMARK UNBOUND:                -0.136
REMARK SMILES O=C([O-])C=Cc1ccccc1
REMARK SMILES IDX 4 1 5 2 2 3 1 4 3 5 6 6 7 7 11 8 8 9 10 10 9 11
REMARK H PARENT
REMARK Flexibility Score: inf
ROOT
ATOM      1  C   UNL     1     -10.164  -6.856  -6.345  1.00  0.00     0.025 C 
ATOM      2  C   UNL     1      -9.725  -5.781  -7.016  1.00  0.00     0.010 C 
ENDROOT
BRANCH   1   3
ATOM      3  C   UNL     1      -9.424  -7.412  -5.200  1.00  0.00     0.064 C 
ATOM      4  O   UNL     1      -8.958  -6.634  -4.326  1.00  0.00    -0.545 OA
ATOM      5  O   UNL     1      -9.229  -8.782  -5.066  1.00  0.00    -0.545 OA
ENDBRANCH   1   3
BRANCH   2   6
ATOM      6  C   UNL     1     -10.417  -5.166  -8.181  1.00  0.00    -0.026 A 
ATOM      7  C   UNL     1     -10.792  -3.805  -8.232  1.00  0.00     0.008 A 
ATOM      8  C   UNL     1     -10.709  -5.986  -9.287  1.00  0.00     0.008 A 
ATOM      9  C   UNL     1     -11.441  -3.291  -9.360  1.00  0.00     0.001 A 
ATOM     10  C   UNL     1     -11.357  -5.464 -10.411  1.00  0.00     0.001 A 
ATOM     11  C   UNL     1     -11.722  -4.118 -10.447  1.00  0.00     0.000 A 
ENDBRANCH   2   6
TORSDOF 2
ENDMDL
MODEL 4
REMARK VINA RESULT:    -4.488      3.219      4.059
REMARK INTER + INTRA:          -5.149
REMARK INTER:                  -5.012
REMARK INTRA:                  -0.137
REMARK UNBOUND:                -0.136
REMARK SMILES O=C([O-])C=Cc1ccccc1
REMARK SMILES IDX 4 1 5 2 2 3 1 4 3 5 6 6 7 7 11 8 8 9 10 10 9 11
REMARK H PARENT
REMARK Flexibility Score: inf
ROOT
ATOM      1  C   UNL     1     -12.943  -5.279  -5.689  1.00  0.00     0.025 C 
ATOM      2  C   UNL     1     -11.774  -5.492  -6.311  1.00  0.00     0.010 C 
ENDROOT
BRANCH   1   3
ATOM      3  C   UNL     1     -13.198  -5.771  -4.326  1.00  0.00     0.064 C 
ATOM      4  O   UNL     1     -12.973  -5.019  -3.341  1.00  0.00    -0.545 OA
ATOM      5  O   UNL     1     -13.684  -7.055  -4.105  1.00  0.00    -0.545 OA
ENDBRANCH   1   3
BRANCH   2   6
ATOM      6  C   UNL     1     -11.445  -5.026  -7.685  1.00  0.00    -0.026 A 
ATOM      7  C   UNL     1     -10.778  -5.826  -8.638  1.00  0.00     0.008 A 
ATOM      8  C   UNL     1     -11.823  -3.720  -8.050  1.00  0.00     0.008 A 
ATOM      9  C   UNL     1     -10.500  -5.325  -9.915  1.00  0.00     0.001 A 
ATOM     10  C   UNL     1     -11.542  -3.226  -9.328  1.00  0.00     0.001 A 
ATOM     11  C   UNL     1     -10.881  -4.028 -10.259  1.00  0.00     0.000 A 
ENDBRANCH   2   6
TORSDOF 2
ENDMDL
MODEL 5
REMARK VINA RESULT:    -4.391      3.286      5.336
REMARK INTER + INTRA:          -5.041
REMARK INTER:                  -4.908
REMARK INTRA:                  -0.133
REMARK UNBOUND:                -0.136
REMARK SMILES O=C([O-])C=Cc1ccccc1
REMARK SMILES IDX 4 1 5 2 2 3 1 4 3 5 6 6 7 7 11 8 8 9 10 10 9 11
REMARK H PARENT
REMARK Flexibility Score: inf
ROOT
ATOM      1  C   UNL     1     -10.762  -5.546  -7.157  1.00  0.00     0.025 C 
ATOM      2  C   UNL     1     -10.543  -6.063  -5.939  1.00  0.00     0.010 C 
ENDROOT
BRANCH   1   3
ATOM      3  C   UNL     1     -11.040  -4.114  -7.354  1.00  0.00     0.064 C 
ATOM      4  O   UNL     1     -10.767  -3.574  -8.458  1.00  0.00    -0.545 OA
ATOM      5  O   UNL     1     -11.599  -3.345  -6.339  1.00  0.00    -0.545 OA
ENDBRANCH   1   3
BRANCH   2   6
ATOM      6  C   UNL     1     -10.258  -7.497  -5.664  1.00  0.00    -0.026 A 
ATOM      7  C   UNL     1      -9.034  -7.958  -5.129  1.00  0.00     0.008 A 
ATOM      8  C   UNL     1     -11.263  -8.440  -5.951  1.00  0.00     0.008 A 
ATOM      9  C   UNL     1      -8.832  -9.322  -4.893  1.00  0.00     0.001 A 
ATOM     10  C   UNL     1     -11.054  -9.802  -5.713  1.00  0.00     0.001 A 
ATOM     11  C   UNL     1      -9.839 -10.242  -5.185  1.00  0.00     0.000 A 
ENDBRANCH   2   6
TORSDOF 2
ENDMDL
MODEL 6
REMARK VINA RESULT:    -4.381      3.301      5.230
REMARK INTER + INTRA:          -5.029
REMARK INTER:                  -4.894
REMARK INTRA:                  -0.135
REMARK UNBOUND:                -0.136
REMARK SMILES O=C([O-])C=Cc1ccccc1
REMARK SMILES IDX 4 1 5 2 2 3 1 4 3 5 6 6 7 7 11 8 8 9 10 10 9 11
REMARK H PARENT
REMARK Flexibility Score: inf
ROOT
ATOM      1  C   UNL     1     -10.441  -5.349  -7.068  1.00  0.00     0.025 C 
ATOM      2  C   UNL     1     -11.061  -6.178  -6.215  1.00  0.00     0.010 C 
ENDROOT
BRANCH   1   3
ATOM      3  C   UNL     1     -10.991  -4.024  -7.399  1.00  0.00     0.064 C 
ATOM      4  O   UNL     1     -10.827  -3.555  -8.556  1.00  0.00    -0.545 OA
ATOM      5  O   UNL     1     -11.690  -3.279  -6.455  1.00  0.00    -0.545 OA
ENDBRANCH   1   3
BRANCH   2   6
ATOM      6  C   UNL     1     -10.567  -7.529  -5.834  1.00  0.00    -0.026 A 
ATOM      7  C   UNL     1     -11.330  -8.707  -5.986  1.00  0.00     0.008 A 
ATOM      8  C   UNL     1      -9.270  -7.633  -5.297  1.00  0.00     0.008 A 
ATOM      9  C   UNL     1     -10.803  -9.947  -5.607  1.00  0.00     0.001 A 
ATOM     10  C   UNL     1      -8.750  -8.875  -4.921  1.00  0.00     0.001 A 
ATOM     11  C   UNL     1      -9.516 -10.031  -5.076  1.00  0.00     0.000 A 
ENDBRANCH   2   6
TORSDOF 2
ENDMDL
MODEL 7
REMARK VINA RESULT:    -4.363      1.269      1.850
REMARK INTER + INTRA:          -5.010
REMARK INTER:                  -4.881
REMARK INTRA:                  -0.129
REMARK UNBOUND:                -0.136
REMARK SMILES O=C([O-])C=Cc1ccccc1
REMARK SMILES IDX 4 1 5 2 2 3 1 4 3 5 6 6 7 7 11 8 8 9 10 10 9 11
REMARK H PARENT
REMARK Flexibility Score: inf
ROOT
ATOM      1  C   UNL     1     -11.492  -8.634  -6.254  1.00  0.00     0.025 C 
ATOM      2  C   UNL     1     -10.890  -7.476  -5.943  1.00  0.00     0.010 C 
ENDROOT
BRANCH   1   3
ATOM      3  C   UNL     1     -11.232  -9.871  -5.501  1.00  0.00     0.064 C 
ATOM      4  O   UNL     1     -12.194 -10.623  -5.190  1.00  0.00    -0.545 OA
ATOM      5  O   UNL     1      -9.941 -10.226  -5.125  1.00  0.00    -0.545 OA
ENDBRANCH   1   3
BRANCH   2   6
ATOM      6  C   UNL     1     -11.102  -6.189  -6.658  1.00  0.00    -0.026 A 
ATOM      7  C   UNL     1     -11.994  -5.190  -6.211  1.00  0.00     0.008 A 
ATOM      8  C   UNL     1     -10.371  -5.959  -7.839  1.00  0.00     0.008 A 
ATOM      9  C   UNL     1     -12.145  -4.000  -6.933  1.00  0.00     0.001 A 
ATOM     10  C   UNL     1     -10.526  -4.767  -8.554  1.00  0.00     0.001 A 
ATOM     11  C   UNL     1     -11.413  -3.790  -8.101  1.00  0.00     0.000 A 
ENDBRANCH   2   6
TORSDOF 2
ENDMDL
MODEL 8
REMARK VINA RESULT:    -4.272      7.845     11.353
REMARK INTER + INTRA:          -4.907
REMARK INTER:                  -4.774
REMARK INTRA:                  -0.133
REMARK UNBOUND:                -0.136
REMARK SMILES O=C([O-])C=Cc1ccccc1
REMARK SMILES IDX 4 1 5 2 2 3 1 4 3 5 6 6 7 7 11 8 8 9 10 10 9 11
REMARK H PARENT
REMARK Flexibility Score: inf
ROOT
ATOM      1  C   UNL     1      -3.506 -11.479  -5.494  1.00  0.00     0.025 C 
ATOM      2  C   UNL     1      -2.808 -12.625  -5.482  1.00  0.00     0.010 C 
ENDROOT
BRANCH   1   3
ATOM      3  C   UNL     1      -4.544 -11.213  -6.503  1.00  0.00     0.064 C 
ATOM      4  O   UNL     1      -4.634 -11.960  -7.513  1.00  0.00    -0.545 OA
ATOM      5  O   UNL     1      -5.429 -10.150  -6.361  1.00  0.00    -0.545 OA
ENDBRANCH   1   3
BRANCH   2   6
ATOM      6  C   UNL     1      -1.746 -12.962  -4.497  1.00  0.00    -0.026 A 
ATOM      7  C   UNL     1      -0.368 -12.942  -4.803  1.00  0.00     0.008 A 
ATOM      8  C   UNL     1      -2.140 -13.317  -3.193  1.00  0.00     0.008 A 
ATOM      9  C   UNL     1       0.580 -13.271  -3.826  1.00  0.00     0.001 A 
ATOM     10  C   UNL     1      -1.188 -13.644  -2.223  1.00  0.00     0.001 A 
ATOM     11  C   UNL     1       0.171 -13.621  -2.540  1.00  0.00     0.000 A 
ENDBRANCH   2   6
TORSDOF 2
ENDMDL
MODEL 9
REMARK VINA RESULT:    -4.142      8.873     10.577
REMARK INTER + INTRA:          -4.763
REMARK INTER:                  -4.631
REMARK INTRA:                  -0.132
REMARK UNBOUND:                -0.136
REMARK SMILES O=C([O-])C=Cc1ccccc1
REMARK SMILES IDX 4 1 5 2 2 3 1 4 3 5 6 6 7 7 11 8 8 9 10 10 9 11
REMARK H PARENT
REMARK Flexibility Score: inf
ROOT
ATOM      1  C   UNL     1      -1.605 -13.295  -3.417  1.00  0.00     0.025 C 
ATOM      2  C   UNL     1      -1.505 -13.108  -4.741  1.00  0.00     0.010 C 
ENDROOT
BRANCH   1   3
ATOM      3  C   UNL     1      -0.432 -13.617  -2.588  1.00  0.00     0.064 C 
ATOM      4  O   UNL     1      -0.598 -14.028  -1.409  1.00  0.00    -0.545 OA
ATOM      5  O   UNL     1       0.859 -13.475  -3.084  1.00  0.00    -0.545 OA
ENDBRANCH   1   3
BRANCH   2   6
ATOM      6  C   UNL     1      -2.644 -12.781  -5.641  1.00  0.00    -0.026 A 
ATOM      7  C   UNL     1      -3.194 -13.699  -6.563  1.00  0.00     0.008 A 
ATOM      8  C   UNL     1      -3.200 -11.490  -5.565  1.00  0.00     0.008 A 
ATOM      9  C   UNL     1      -4.266 -13.326  -7.380  1.00  0.00     0.001 A 
ATOM     10  C   UNL     1      -4.272 -11.125  -6.385  1.00  0.00     0.001 A 
ATOM     11  C   UNL     1      -4.804 -12.042  -7.292  1.00  0.00     0.000 A 
ENDBRANCH   2   6
TORSDOF 2
ENDMDL
