MODEL 1
REMARK VINA RESULT:    -4.549      0.000      0.000
REMARK INTER + INTRA:          -7.378
REMARK INTER:                  -6.942
REMARK INTRA:                  -0.436
REMARK UNBOUND:                -0.436
REMARK SMILES CCCCCCCCCCC(=O)[O-]
REMARK SMILES IDX 7 1 8 2 9 3 10 4 11 5 12 6 13 7 6 8 5 9 4 10 3 11 2 12 1 13
REMARK H PARENT
REMARK Flexibility Score: inf
ROOT
ATOM      1  C   UNL     1     -16.820  -1.745  -1.302  1.00  0.00     0.000 C 
ENDROOT
BRANCH   1   2
ATOM      2  C   UNL     1     -16.655  -0.214  -1.299  1.00  0.00     0.000 C 
BRANCH   2   3
ATOM      3  C   UNL     1     -16.050   0.323   0.008  1.00  0.00     0.006 C 
BRANCH   3   4
ATOM      4  C   UNL     1     -16.783  -0.209   1.247  1.00  0.00     0.053 C 
BRANCH   4   5
ATOM      5  C   UNL     1     -15.834  -0.513   2.365  1.00  0.00     0.041 C 
ATOM      6  O   UNL     1     -16.272  -0.905   3.479  1.00  0.00    -0.550 OA
ATOM      7  O   UNL     1     -14.469  -0.326   2.191  1.00  0.00    -0.550 OA
ENDBRANCH   4   5
ENDBRANCH   3   4
ENDBRANCH   2   3
ENDBRANCH   1   2
BRANCH   1   8
ATOM      8  C   UNL     1     -16.702  -2.414  -2.684  1.00  0.00     0.000 C 
BRANCH   8   9
ATOM      9  C   UNL     1     -16.206  -3.869  -2.606  1.00  0.00    -0.000 C 
BRANCH   9  10
ATOM     10  C   UNL     1     -14.806  -3.992  -1.977  1.00  0.00    -0.000 C 
BRANCH  10  11
ATOM     11  C   UNL     1     -13.738  -4.649  -2.873  1.00  0.00    -0.000 C 
BRANCH  11  12
ATOM     12  C   UNL     1     -13.742  -4.103  -4.308  1.00  0.00    -0.003 C 
ATOM     13  C   UNL     1     -12.529  -4.602  -5.089  1.00  0.00     0.004 C 
ENDBRANCH  11  12
ENDBRANCH  10  11
ENDBRANCH   9  10
ENDBRANCH   8   9
ENDBRANCH   1   8
TORSDOF 9
ENDMDL
MODEL 2
REMARK VINA RESULT:    -4.009      1.689      2.690
REMARK INTER + INTRA:          -6.554
REMARK INTER:                  -6.044
REMARK INTRA:                  -0.511
REMARK UNBOUND:                -0.436
REMARK SMILES CCCCCCCCCCC(=O)[O-]
REMARK SMILES IDX 7 1 8 2 9 3 10 4 11 5 12 6 13 7 6 8 5 9 4 10 3 11 2 12 1 13
REMARK H PARENT
REMARK Flexibility Score: inf
ROOT
ATOM      1  C   UNL     1     -15.856  -2.691  -3.543  1.00  0.00     0.000 C 
ENDROOT
BRANCH   1   2
ATOM      2  C   UNL     1     -17.110  -1.834  -3.289  1.00  0.00     0.000 C 
BRANCH   2   3
ATOM      3  C   UNL     1     -16.787  -0.469  -2.658  1.00  0.00     0.006 C 
BRANCH   3   4
ATOM      4  C   UNL     1     -17.124  -0.428  -1.162  1.00  0.00     0.053 C 
BRANCH   4   5
ATOM      5  C   UNL     1     -16.402   0.681  -0.460  1.00  0.00     0.041 C 
ATOM      6  O   UNL     1     -16.664   1.882  -0.736  1.00  0.00    -0.550 OA
ATOM      7  O   UNL     1     -15.414   0.389   0.471  1.00  0.00    -0.550 OA
ENDBRANCH   4   5
ENDBRANCH   3   4
ENDBRANCH   2   3
ENDBRANCH   1   2
BRANCH   1   8
ATOM      8  C   UNL     1     -15.642  -3.849  -2.550  1.00  0.00     0.000 C 
BRANCH   8   9
ATOM      9  C   UNL     1     -14.157  -4.194  -2.341  1.00  0.00    -0.000 C 
BRANCH   9  10
ATOM     10  C   UNL     1     -13.595  -5.117  -3.438  1.00  0.00    -0.000 C 
BRANCH  10  11
ATOM     11  C   UNL     1     -12.931  -4.397  -4.627  1.00  0.00    -0.000 C 
BRANCH  11  12
ATOM     12  C   UNL     1     -13.157  -5.116  -5.965  1.00  0.00    -0.003 C 
ATOM     13  C   UNL     1     -14.442  -4.640  -6.635  1.00  0.00     0.004 C 
ENDBRANCH  11  12
ENDBRANCH  10  11
ENDBRANCH   9  10
ENDBRANCH   8   9
ENDBRANCH   1   8
TORSDOF 9
ENDMDL
MODEL 3
REMARK VINA RESULT:    -3.778      4.253      6.957
REMARK INTER + INTRA:          -6.202
REMARK INTER:                  -5.422
REMARK INTRA:                  -0.780
REMARK UNBOUND:                -0.436
REMARK SMILES CCCCCCCCCCC(=O)[O-]
REMARK SMILES IDX 7 1 8 2 9 3 10 4 11 5 12 6 13 7 6 8 5 9 4 10 3 11 2 12 1 13
REMARK H PARENT
REMARK Flexibility Score: inf
ROOT
ATOM      1  C   UNL     1     -13.433  -4.132  -3.918  1.00  0.00     0.000 C 
ENDROOT
BRANCH   1   2
ATOM      2  C   UNL     1     -12.648  -4.846  -5.034  1.00  0.00     0.000 C 
BRANCH   2   3
ATOM      3  C   UNL     1     -13.426  -4.928  -6.358  1.00  0.00     0.006 C 
BRANCH   3   4
ATOM      4  C   UNL     1     -14.945  -4.883  -6.142  1.00  0.00     0.053 C 
BRANCH   4   5
ATOM      5  C   UNL     1     -15.559  -3.670  -6.770  1.00  0.00     0.041 C 
ATOM      6  O   UNL     1     -15.213  -2.518  -6.397  1.00  0.00    -0.550 OA
ATOM      7  O   UNL     1     -16.543  -3.811  -7.741  1.00  0.00    -0.550 OA
ENDBRANCH   4   5
ENDBRANCH   3   4
ENDBRANCH   2   3
ENDBRANCH   1   2
BRANCH   1   8
ATOM      8  C   UNL     1     -13.447  -4.857  -2.559  1.00  0.00     0.000 C 
BRANCH   8   9
ATOM      9  C   UNL     1     -14.744  -4.620  -1.766  1.00  0.00    -0.000 C 
BRANCH   9  10
ATOM     10  C   UNL     1     -15.976  -4.433  -2.670  1.00  0.00    -0.000 C 
BRANCH  10  11
ATOM     11  C   UNL     1     -16.882  -3.241  -2.309  1.00  0.00    -0.000 C 
BRANCH  11  12
ATOM     12  C   UNL     1     -16.727  -2.056  -3.274  1.00  0.00    -0.003 C 
ATOM     13  C   UNL     1     -16.918  -0.728  -2.548  1.00  0.00     0.004 C 
ENDBRANCH  11  12
ENDBRANCH  10  11
ENDBRANCH   9  10
ENDBRANCH   8   9
ENDBRANCH   1   8
TORSDOF 9
ENDMDL
MODEL 4
REMARK VINA RESULT:    -3.757      1.098      1.502
REMARK INTER + INTRA:          -6.170
REMARK INTER:                  -5.767
REMARK INTRA:                  -0.403
REMARK UNBOUND:                -0.436
REMARK SMILES CCCCCCCCCCC(=O)[O-]
REMARK SMILES IDX 7 1 8 2 9 3 10 4 11 5 12 6 13 7 6 8 5 9 4 10 3 11 2 12 1 13
REMARK H PARENT
REMARK Flexibility Score: inf
ROOT
ATOM      1  C   UNL     1     -16.318  -0.453  -2.395  1.00  0.00     0.000 C 
ENDROOT
BRANCH   1   2
ATOM      2  C   UNL     1     -17.125  -0.300  -1.093  1.00  0.00     0.000 C 
BRANCH   2   3
ATOM      3  C   UNL     1     -16.402  -0.878   0.135  1.00  0.00     0.006 C 
BRANCH   3   4
ATOM      4  C   UNL     1     -16.863  -0.221   1.442  1.00  0.00     0.053 C 
BRANCH   4   5
ATOM      5  C   UNL     1     -15.904  -0.482   2.563  1.00  0.00     0.041 C 
ATOM      6  O   UNL     1     -16.335  -0.722   3.722  1.00  0.00    -0.550 OA
ATOM      7  O   UNL     1     -14.535  -0.422   2.337  1.00  0.00    -0.550 OA
ENDBRANCH   4   5
ENDBRANCH   3   4
ENDBRANCH   2   3
ENDBRANCH   1   2
BRANCH   1   8
ATOM      8  C   UNL     1     -17.002  -1.283  -3.497  1.00  0.00     0.000 C 
BRANCH   8   9
ATOM      9  C   UNL     1     -16.808  -2.798  -3.316  1.00  0.00    -0.000 C 
BRANCH   9  10
ATOM     10  C   UNL     1     -16.591  -3.539  -4.649  1.00  0.00    -0.000 C 
BRANCH  10  11
ATOM     11  C   UNL     1     -15.175  -3.421  -5.243  1.00  0.00    -0.000 C 
BRANCH  11  12
ATOM     12  C   UNL     1     -14.072  -3.807  -4.247  1.00  0.00    -0.003 C 
ATOM     13  C   UNL     1     -12.884  -4.445  -4.962  1.00  0.00     0.004 C 
ENDBRANCH  11  12
ENDBRANCH  10  11
ENDBRANCH   9  10
ENDBRANCH   8   9
ENDBRANCH   1   8
TORSDOF 9
ENDMDL
MODEL 5
REMARK VINA RESULT:    -3.301      3.930      6.797
REMARK INTER + INTRA:          -5.474
REMARK INTER:                  -4.800
REMARK INTRA:                  -0.674
REMARK UNBOUND:                -0.436
REMARK SMILES CCCCCCCCCCC(=O)[O-]
REMARK SMILES IDX 7 1 8 2 9 3 10 4 11 5 12 6 13 7 6 8 5 9 4 10 3 11 2 12 1 13
REMARK H PARENT
REMARK Flexibility Score: inf
ROOT
ATOM      1  C   UNL     1     -15.675  -3.536  -2.110  1.00  0.00     0.000 C 
ENDROOT
BRANCH   1   2
ATOM      2  C   UNL     1     -15.603  -4.971  -2.663  1.00  0.00     0.000 C 
BRANCH   2   3
ATOM      3  C   UNL     1     -15.837  -5.044  -4.181  1.00  0.00     0.006 C 
BRANCH   3   4
ATOM      4  C   UNL     1     -14.551  -4.783  -4.978  1.00  0.00     0.053 C 
BRANCH   4   5
ATOM      5  C   UNL     1     -14.817  -3.979  -6.212  1.00  0.00     0.041 C 
ATOM      6  O   UNL     1     -14.680  -4.500  -7.351  1.00  0.00    -0.550 OA
ATOM      7  O   UNL     1     -15.180  -2.642  -6.108  1.00  0.00    -0.550 OA
ENDBRANCH   4   5
ENDBRANCH   3   4
ENDBRANCH   2   3
ENDBRANCH   1   2
BRANCH   1   8
ATOM      8  C   UNL     1     -16.990  -2.787  -2.397  1.00  0.00     0.000 C 
BRANCH   8   9
ATOM      9  C   UNL     1     -16.773  -1.449  -3.125  1.00  0.00    -0.000 C 
BRANCH   9  10
ATOM     10  C   UNL     1     -17.116  -0.228  -2.251  1.00  0.00    -0.000 C 
BRANCH  10  11
ATOM     11  C   UNL     1     -17.125  -0.489  -0.733  1.00  0.00    -0.000 C 
BRANCH  11  12
ATOM     12  C   UNL     1     -15.993   0.240   0.007  1.00  0.00    -0.003 C 
ATOM     13  C   UNL     1     -15.404  -0.636   1.109  1.00  0.00     0.004 C 
ENDBRANCH  11  12
ENDBRANCH  10  11
ENDBRANCH   9  10
ENDBRANCH   8   9
ENDBRANCH   1   8
TORSDOF 9
ENDMDL
MODEL 6
REMARK VINA RESULT:    -3.195      3.541      6.634
REMARK INTER + INTRA:          -5.312
REMARK INTER:                  -4.820
REMARK INTRA:                  -0.493
REMARK UNBOUND:                -0.436
REMARK SMILES CCCCCCCCCCC(=O)[O-]
REMARK SMILES IDX 7 1 8 2 9 3 10 4 11 5 12 6 13 7 6 8 5 9 4 10 3 11 2 12 1 13
REMARK H PARENT
REMARK Flexibility Score: inf
ROOT
ATOM      1  C   UNL     1     -16.390  -1.676  -2.551  1.00  0.00     0.000 C 
ENDROOT
BRANCH   1   2
ATOM      2  C   UNL     1     -16.873  -3.077  -2.132  1.00  0.00     0.000 C 
BRANCH   2   3
ATOM      3  C   UNL     1     -15.998  -4.209  -2.696  1.00  0.00     0.006 C 
BRANCH   3   4
ATOM      4  C   UNL     1     -14.556  -3.752  -2.955  1.00  0.00     0.053 C 
BRANCH   4   5
ATOM      5  C   UNL     1     -14.087  -4.141  -4.323  1.00  0.00     0.041 C 
ATOM      6  O   UNL     1     -12.862  -4.335  -4.542  1.00  0.00    -0.550 OA
ATOM      7  O   UNL     1     -14.998  -4.253  -5.366  1.00  0.00    -0.550 OA
ENDBRANCH   4   5
ENDBRANCH   3   4
ENDBRANCH   2   3
ENDBRANCH   1   2
BRANCH   1   8
ATOM      8  C   UNL     1     -17.097  -0.502  -1.849  1.00  0.00     0.000 C 
BRANCH   8   9
ATOM      9  C   UNL     1     -17.125  -0.646  -0.318  1.00  0.00    -0.000 C 
BRANCH   9  10
ATOM     10  C   UNL     1     -15.937   0.050   0.372  1.00  0.00    -0.000 C 
BRANCH  10  11
ATOM     11  C   UNL     1     -15.560  -0.512   1.756  1.00  0.00    -0.000 C 
BRANCH  11  12
ATOM     12  C   UNL     1     -16.772  -0.694   2.680  1.00  0.00    -0.003 C 
ATOM     13  C   UNL     1     -16.892   0.466   3.664  1.00  0.00     0.004 C 
ENDBRANCH  11  12
ENDBRANCH  10  11
ENDBRANCH   9  10
ENDBRANCH   8   9
ENDBRANCH   1   8
TORSDOF 9
ENDMDL
MODEL 7
REMARK VINA RESULT:    -2.821      3.398      6.623
REMARK INTER + INTRA:          -4.742
REMARK INTER:                  -4.311
REMARK INTRA:                  -0.431
REMARK UNBOUND:                -0.436
REMARK SMILES CCCCCCCCCCC(=O)[O-]
REMARK SMILES IDX 7 1 8 2 9 3 10 4 11 5 12 6 13 7 6 8 5 9 4 10 3 11 2 12 1 13
REMARK H PARENT
REMARK Flexibility Score: inf
ROOT
ATOM      1  C   UNL     1     -16.369  -2.571  -4.376  1.00  0.00     0.000 C 
ENDROOT
BRANCH   1   2
ATOM      2  C   UNL     1     -16.796  -4.048  -4.460  1.00  0.00     0.000 C 
BRANCH   2   3
ATOM      3  C   UNL     1     -15.666  -5.023  -4.089  1.00  0.00     0.006 C 
BRANCH   3   4
ATOM      4  C   UNL     1     -14.564  -5.066  -5.157  1.00  0.00     0.053 C 
BRANCH   4   5
ATOM      5  C   UNL     1     -13.204  -4.878  -4.560  1.00  0.00     0.041 C 
ATOM      6  O   UNL     1     -12.196  -4.756  -5.305  1.00  0.00    -0.550 OA
ATOM      7  O   UNL     1     -13.043  -4.876  -3.180  1.00  0.00    -0.550 OA
ENDBRANCH   4   5
ENDBRANCH   3   4
ENDBRANCH   2   3
ENDBRANCH   1   2
BRANCH   1   8
ATOM      8  C   UNL     1     -17.055  -1.752  -3.267  1.00  0.00     0.000 C 
BRANCH   8   9
ATOM      9  C   UNL     1     -16.605  -2.159  -1.853  1.00  0.00    -0.000 C 
BRANCH   9  10
ATOM     10  C   UNL     1     -17.125  -1.207  -0.761  1.00  0.00    -0.000 C 
BRANCH  10  11
ATOM     11  C   UNL     1     -16.343   0.111  -0.610  1.00  0.00    -0.000 C 
BRANCH  11  12
ATOM     12  C   UNL     1     -15.698   0.272   0.774  1.00  0.00    -0.003 C 
ATOM     13  C   UNL     1     -16.598  -0.294   1.868  1.00  0.00     0.004 C 
ENDBRANCH  11  12
ENDBRANCH  10  11
ENDBRANCH   9  10
ENDBRANCH   8   9
ENDBRANCH   1   8
TORSDOF 9
ENDMDL
MODEL 8
REMARK VINA RESULT:    -2.717      1.798      2.780
REMARK INTER + INTRA:          -4.582
REMARK INTER:                  -3.970
REMARK INTRA:                  -0.612
REMARK UNBOUND:                -0.436
REMARK SMILES CCCCCCCCCCC(=O)[O-]
REMARK SMILES IDX 7 1 8 2 9 3 10 4 11 5 12 6 13 7 6 8 5 9 4 10 3 11 2 12 1 13
REMARK H PARENT
REMARK Flexibility Score: inf
ROOT
ATOM      1  C   UNL     1     -15.705  -3.442  -2.510  1.00  0.00     0.000 C 
ENDROOT
BRANCH   1   2
ATOM      2  C   UNL     1     -15.850  -2.722  -1.157  1.00  0.00     0.000 C 
BRANCH   2   3
ATOM      3  C   UNL     1     -16.478  -1.324  -1.284  1.00  0.00     0.006 C 
BRANCH   3   4
ATOM      4  C   UNL     1     -17.124  -0.858   0.028  1.00  0.00     0.053 C 
BRANCH   4   5
ATOM      5  C   UNL     1     -16.170  -0.064   0.866  1.00  0.00     0.041 C 
ATOM      6  O   UNL     1     -16.255  -0.093   2.122  1.00  0.00    -0.550 OA
ATOM      7  O   UNL     1     -15.211   0.738   0.260  1.00  0.00    -0.550 OA
ENDBRANCH   4   5
ENDBRANCH   3   4
ENDBRANCH   2   3
ENDBRANCH   1   2
BRANCH   1   8
ATOM      8  C   UNL     1     -14.608  -4.522  -2.564  1.00  0.00     0.000 C 
BRANCH   8   9
ATOM      9  C   UNL     1     -13.817  -4.508  -3.884  1.00  0.00    -0.000 C 
BRANCH   9  10
ATOM     10  C   UNL     1     -14.448  -3.596  -4.952  1.00  0.00    -0.000 C 
BRANCH  10  11
ATOM     11  C   UNL     1     -14.644  -4.242  -6.336  1.00  0.00    -0.000 C 
BRANCH  11  12
ATOM     12  C   UNL     1     -15.968  -5.011  -6.456  1.00  0.00    -0.003 C 
ATOM     13  C   UNL     1     -17.118  -4.228  -5.830  1.00  0.00     0.004 C 
ENDBRANCH  11  12
ENDBRANCH  10  11
ENDBRANCH   9  10
ENDBRANCH   8   9
ENDBRANCH   1   8
TORSDOF 9
ENDMDL
MODEL 9
REMARK VINA RESULT:    -2.147      2.747      3.907
REMARK INTER + INTRA:          -3.713
REMARK INTER:                  -3.530
REMARK INTRA:                  -0.183
REMARK UNBOUND:                -0.436
REMARK SMILES CCCCCCCCCCC(=O)[O-]
REMARK SMILES IDX 7 1 8 2 9 3 10 4 11 5 12 6 13 7 6 8 5 9 4 10 3 11 2 12 1 13
REMARK H PARENT
REMARK Flexibility Score: inf
ROOT
ATOM      1  C   UNL     1     -15.388  -5.009  -2.632  1.00  0.00     0.000 C 
ENDROOT
BRANCH   1   2
ATOM      2  C   UNL     1     -16.426  -3.873  -2.569  1.00  0.00     0.000 C 
BRANCH   2   3
ATOM      3  C   UNL     1     -16.029  -2.749  -1.597  1.00  0.00     0.006 C 
BRANCH   3   4
ATOM      4  C   UNL     1     -17.125  -1.683  -1.465  1.00  0.00     0.053 C 
BRANCH   4   5
ATOM      5  C   UNL     1     -16.587  -0.398  -0.915  1.00  0.00     0.041 C 
ATOM      6  O   UNL     1     -15.762  -0.413   0.037  1.00  0.00    -0.550 OA
ATOM      7  O   UNL     1     -17.025   0.816  -1.427  1.00  0.00    -0.550 OA
ENDBRANCH   4   5
ENDBRANCH   3   4
ENDBRANCH   2   3
ENDBRANCH   1   2
BRANCH   1   8
ATOM      8  C   UNL     1     -14.464  -4.986  -3.864  1.00  0.00     0.000 C 
BRANCH   8   9
ATOM      9  C   UNL     1     -14.644  -3.724  -4.726  1.00  0.00    -0.000 C 
BRANCH   9  10
ATOM     10  C   UNL     1     -15.752  -3.874  -5.785  1.00  0.00    -0.000 C 
BRANCH  10  11
ATOM     11  C   UNL     1     -15.501  -4.959  -6.850  1.00  0.00    -0.000 C 
BRANCH  11  12
ATOM     12  C   UNL     1     -15.229  -4.379  -8.245  1.00  0.00    -0.003 C 
ATOM     13  C   UNL     1     -16.053  -5.098  -9.309  1.00  0.00     0.004 C 
ENDBRANCH  11  12
ENDBRANCH  10  11
ENDBRANCH   9  10
ENDBRANCH   8   9
ENDBRANCH   1   8
TORSDOF 9
ENDMDL
