MODEL 1
REMARK VINA RESULT:    -4.069      0.000      0.000
REMARK INTER + INTRA:          -4.743
REMARK INTER:                  -4.545
REMARK INTRA:                  -0.198
REMARK UNBOUND:                -0.198
REMARK SMILES O=C([O-])c1ccccc1C(=O)[O-]
REMARK SMILES IDX 4 1 9 2 5 3 8 4 6 5 7 6 2 7 1 8 3 9 10 10 11 11 12 12
REMARK H PARENT
REMARK Flexibility Score: inf
ROOT
ATOM      1  C   UNL     1     -35.099  -3.961  -0.079  1.00  0.00     0.006 A 
ATOM      2  C   UNL     1     -33.874  -3.270  -0.301  1.00  0.00     0.006 A 
ATOM      3  C   UNL     1     -35.524  -4.920  -1.017  1.00  0.00     0.010 A 
ATOM      4  C   UNL     1     -33.156  -3.517  -1.487  1.00  0.00     0.010 A 
ATOM      5  C   UNL     1     -34.784  -5.163  -2.175  1.00  0.00     0.001 A 
ATOM      6  C   UNL     1     -33.609  -4.455  -2.413  1.00  0.00     0.001 A 
ENDROOT
BRANCH   1   7
ATOM      7  C   UNL     1     -35.991  -3.673   1.068  1.00  0.00     0.072 C 
ATOM      8  O   UNL     1     -37.059  -3.025   0.907  1.00  0.00    -0.545 OA
ATOM      9  O   UNL     1     -35.691  -4.177   2.329  1.00  0.00    -0.545 OA
ENDBRANCH   1   7
BRANCH   2  10
ATOM     10  C   UNL     1     -33.276  -2.347   0.690  1.00  0.00     0.072 C 
ATOM     11  O   UNL     1     -33.506  -1.110   0.641  1.00  0.00    -0.545 OA
ATOM     12  O   UNL     1     -32.503  -2.848   1.732  1.00  0.00    -0.545 OA
ENDBRANCH   2  10
TORSDOF 2
ENDMDL
MODEL 2
REMARK VINA RESULT:    -4.057      0.121      2.878
REMARK INTER + INTRA:          -4.729
REMARK INTER:                  -4.525
REMARK INTRA:                  -0.205
REMARK UNBOUND:                -0.198
REMARK SMILES O=C([O-])c1ccccc1C(=O)[O-]
REMARK SMILES IDX 4 1 9 2 5 3 8 4 6 5 7 6 2 7 1 8 3 9 10 10 11 11 12 12
REMARK H PARENT
REMARK Flexibility Score: inf
ROOT
ATOM      1  C   UNL     1     -33.815  -3.304  -0.297  1.00  0.00     0.006 A 
ATOM      2  C   UNL     1     -35.066  -3.940  -0.057  1.00  0.00     0.006 A 
ATOM      3  C   UNL     1     -33.138  -3.559  -1.504  1.00  0.00     0.010 A 
ATOM      4  C   UNL     1     -35.559  -4.858  -1.004  1.00  0.00     0.010 A 
ATOM      5  C   UNL     1     -33.657  -4.456  -2.438  1.00  0.00     0.001 A 
ATOM      6  C   UNL     1     -34.858  -5.112  -2.183  1.00  0.00     0.001 A 
ENDROOT
BRANCH   1   7
ATOM      7  C   UNL     1     -33.150  -2.430   0.697  1.00  0.00     0.072 C 
ATOM      8  O   UNL     1     -33.319  -1.182   0.674  1.00  0.00    -0.545 OA
ATOM      9  O   UNL     1     -32.382  -2.988   1.713  1.00  0.00    -0.545 OA
ENDBRANCH   1   7
BRANCH   2  10
ATOM     10  C   UNL     1     -35.917  -3.633   1.116  1.00  0.00     0.072 C 
ATOM     11  O   UNL     1     -36.940  -2.908   0.998  1.00  0.00    -0.545 OA
ATOM     12  O   UNL     1     -35.630  -4.200   2.352  1.00  0.00    -0.545 OA
ENDBRANCH   2  10
TORSDOF 2
ENDMDL
MODEL 3
REMARK VINA RESULT:    -4.036     10.450     11.988
REMARK INTER + INTRA:          -4.706
REMARK INTER:                  -4.486
REMARK INTRA:                  -0.220
REMARK UNBOUND:                -0.198
REMARK SMILES O=C([O-])c1ccccc1C(=O)[O-]
REMARK SMILES IDX 4 1 9 2 5 3 8 4 6 5 7 6 2 7 1 8 3 9 10 10 11 11 12 12
REMARK H PARENT
REMARK Flexibility Score: inf
ROOT
ATOM      1  C   UNL     1     -34.566   8.054  -2.906  1.00  0.00     0.006 A 
ATOM      2  C   UNL     1     -34.877   7.250  -1.773  1.00  0.00     0.006 A 
ATOM      3  C   UNL     1     -33.217   8.330  -3.199  1.00  0.00     0.010 A 
ATOM      4  C   UNL     1     -33.832   6.808  -0.940  1.00  0.00     0.010 A 
ATOM      5  C   UNL     1     -32.196   7.862  -2.371  1.00  0.00     0.001 A 
ATOM      6  C   UNL     1     -32.504   7.113  -1.239  1.00  0.00     0.001 A 
ENDROOT
BRANCH   1   7
ATOM      7  C   UNL     1     -35.601   8.678  -3.762  1.00  0.00     0.072 C 
ATOM      8  O   UNL     1     -36.085   9.804  -3.473  1.00  0.00    -0.545 OA
ATOM      9  O   UNL     1     -36.002   8.053  -4.938  1.00  0.00    -0.545 OA
ENDBRANCH   1   7
BRANCH   2  10
ATOM     10  C   UNL     1     -36.251   6.793  -1.460  1.00  0.00     0.072 C 
ATOM     11  O   UNL     1     -37.005   7.477  -0.719  1.00  0.00    -0.545 OA
ATOM     12  O   UNL     1     -36.747   5.630  -2.039  1.00  0.00    -0.545 OA
ENDBRANCH   2  10
TORSDOF 2
ENDMDL
MODEL 4
REMARK VINA RESULT:    -4.031     10.424     11.778
REMARK INTER + INTRA:          -4.700
REMARK INTER:                  -4.479
REMARK INTRA:                  -0.221
REMARK UNBOUND:                -0.198
REMARK SMILES O=C([O-])c1ccccc1C(=O)[O-]
REMARK SMILES IDX 4 1 9 2 5 3 8 4 6 5 7 6 2 7 1 8 3 9 10 10 11 11 12 12
REMARK H PARENT
REMARK Flexibility Score: inf
ROOT
ATOM      1  C   UNL     1     -34.857   7.217  -1.833  1.00  0.00     0.006 A 
ATOM      2  C   UNL     1     -34.555   8.033  -2.960  1.00  0.00     0.006 A 
ATOM      3  C   UNL     1     -33.808   6.787  -0.999  1.00  0.00     0.010 A 
ATOM      4  C   UNL     1     -33.210   8.332  -3.247  1.00  0.00     0.010 A 
ATOM      5  C   UNL     1     -32.484   7.114  -1.291  1.00  0.00     0.001 A 
ATOM      6  C   UNL     1     -32.185   7.875  -2.418  1.00  0.00     0.001 A 
ENDROOT
BRANCH   1   7
ATOM      7  C   UNL     1     -36.225   6.738  -1.527  1.00  0.00     0.072 C 
ATOM      8  O   UNL     1     -36.991   7.406  -0.784  1.00  0.00    -0.545 OA
ATOM      9  O   UNL     1     -36.702   5.571  -2.114  1.00  0.00    -0.545 OA
ENDBRANCH   1   7
BRANCH   2  10
ATOM     10  C   UNL     1     -35.597   8.647  -3.816  1.00  0.00     0.072 C 
ATOM     11  O   UNL     1     -36.060   9.788  -3.550  1.00  0.00    -0.545 OA
ATOM     12  O   UNL     1     -36.029   7.993  -4.964  1.00  0.00    -0.545 OA
ENDBRANCH   2  10
TORSDOF 2
ENDMDL
MODEL 5
REMARK VINA RESULT:    -4.030     16.924     18.844
REMARK INTER + INTRA:          -4.699
REMARK INTER:                  -4.480
REMARK INTRA:                  -0.219
REMARK UNBOUND:                -0.198
REMARK SMILES O=C([O-])c1ccccc1C(=O)[O-]
REMARK SMILES IDX 4 1 9 2 5 3 8 4 6 5 7 6 2 7 1 8 3 9 10 10 11 11 12 12
REMARK H PARENT
REMARK Flexibility Score: inf
ROOT
ATOM      1  C   UNL     1     -23.656  10.170   7.189  1.00  0.00     0.006 A 
ATOM      2  C   UNL     1     -23.585   8.969   7.949  1.00  0.00     0.006 A 
ATOM      3  C   UNL     1     -22.608  11.105   7.287  1.00  0.00     0.010 A 
ATOM      4  C   UNL     1     -22.502   8.780   8.828  1.00  0.00     0.010 A 
ATOM      5  C   UNL     1     -21.533  10.885   8.149  1.00  0.00     0.001 A 
ATOM      6  C   UNL     1     -21.487   9.731   8.925  1.00  0.00     0.001 A 
ENDROOT
BRANCH   1   7
ATOM      7  C   UNL     1     -24.818  10.522   6.341  1.00  0.00     0.072 C 
ATOM      8  O   UNL     1     -24.836  10.230   5.116  1.00  0.00    -0.545 OA
ATOM      9  O   UNL     1     -25.938  11.121   6.907  1.00  0.00    -0.545 OA
ENDBRANCH   1   7
BRANCH   2  10
ATOM     10  C   UNL     1     -24.566   7.867   7.812  1.00  0.00     0.072 C 
ATOM     11  O   UNL     1     -24.453   7.015   6.892  1.00  0.00    -0.545 OA
ATOM     12  O   UNL     1     -25.587   7.724   8.745  1.00  0.00    -0.545 OA
ENDBRANCH   2  10
TORSDOF 2
ENDMDL
MODEL 6
REMARK VINA RESULT:    -3.741      8.117      9.936
REMARK INTER + INTRA:          -4.376
REMARK INTER:                  -4.152
REMARK INTRA:                  -0.224
REMARK UNBOUND:                -0.198
REMARK SMILES O=C([O-])c1ccccc1C(=O)[O-]
REMARK SMILES IDX 4 1 9 2 5 3 8 4 6 5 7 6 2 7 1 8 3 9 10 10 11 11 12 12
REMARK H PARENT
REMARK Flexibility Score: inf
ROOT
ATOM      1  C   UNL     1     -33.653   6.297  -1.155  1.00  0.00     0.006 A 
ATOM      2  C   UNL     1     -34.349   5.062  -1.028  1.00  0.00     0.006 A 
ATOM      3  C   UNL     1     -34.364   7.445  -1.550  1.00  0.00     0.010 A 
ATOM      4  C   UNL     1     -35.715   5.009  -1.365  1.00  0.00     0.010 A 
ATOM      5  C   UNL     1     -35.722   7.374  -1.858  1.00  0.00     0.001 A 
ATOM      6  C   UNL     1     -36.393   6.156  -1.776  1.00  0.00     0.001 A 
ENDROOT
BRANCH   1   7
ATOM      7  C   UNL     1     -32.191   6.423  -0.955  1.00  0.00     0.072 C 
ATOM      8  O   UNL     1     -31.721   6.804   0.150  1.00  0.00    -0.545 OA
ATOM      9  O   UNL     1     -31.314   6.057  -1.971  1.00  0.00    -0.545 OA
ENDBRANCH   1   7
BRANCH   2  10
ATOM     10  C   UNL     1     -33.722   3.832  -0.490  1.00  0.00     0.072 C 
ATOM     11  O   UNL     1     -33.836   3.530   0.727  1.00  0.00    -0.545 OA
ATOM     12  O   UNL     1     -33.054   2.960  -1.343  1.00  0.00    -0.545 OA
ENDBRANCH   2  10
TORSDOF 2
ENDMDL
MODEL 7
REMARK VINA RESULT:    -3.730      8.160      9.624
REMARK INTER + INTRA:          -4.364
REMARK INTER:                  -4.141
REMARK INTRA:                  -0.223
REMARK UNBOUND:                -0.198
REMARK SMILES O=C([O-])c1ccccc1C(=O)[O-]
REMARK SMILES IDX 4 1 9 2 5 3 8 4 6 5 7 6 2 7 1 8 3 9 10 10 11 11 12 12
REMARK H PARENT
REMARK Flexibility Score: inf
ROOT
ATOM      1  C   UNL     1     -34.325   5.095  -1.033  1.00  0.00     0.006 A 
ATOM      2  C   UNL     1     -33.660   6.346  -1.179  1.00  0.00     0.006 A 
ATOM      3  C   UNL     1     -35.688   5.001  -1.369  1.00  0.00     0.010 A 
ATOM      4  C   UNL     1     -34.401   7.469  -1.594  1.00  0.00     0.010 A 
ATOM      5  C   UNL     1     -36.396   6.124  -1.799  1.00  0.00     0.001 A 
ATOM      6  C   UNL     1     -35.757   7.356  -1.900  1.00  0.00     0.001 A 
ENDROOT
BRANCH   1   7
ATOM      7  C   UNL     1     -33.666   3.891  -0.475  1.00  0.00     0.072 C 
ATOM      8  O   UNL     1     -33.782   3.598   0.744  1.00  0.00    -0.545 OA
ATOM      9  O   UNL     1     -32.964   3.031  -1.312  1.00  0.00    -0.545 OA
ENDBRANCH   1   7
BRANCH   2  10
ATOM     10  C   UNL     1     -32.201   6.513  -0.982  1.00  0.00     0.072 C 
ATOM     11  O   UNL     1     -31.738   6.870   0.133  1.00  0.00    -0.545 OA
ATOM     12  O   UNL     1     -31.320   6.212  -2.014  1.00  0.00    -0.545 OA
ENDBRANCH   2  10
TORSDOF 2
ENDMDL
MODEL 8
REMARK VINA RESULT:    -3.685      9.029     10.887
REMARK INTER + INTRA:          -4.314
REMARK INTER:                  -4.122
REMARK INTRA:                  -0.191
REMARK UNBOUND:                -0.198
REMARK SMILES O=C([O-])c1ccccc1C(=O)[O-]
REMARK SMILES IDX 4 1 9 2 5 3 8 4 6 5 7 6 2 7 1 8 3 9 10 10 11 11 12 12
REMARK H PARENT
REMARK Flexibility Score: inf
ROOT
ATOM      1  C   UNL     1     -26.681   4.041   0.966  1.00  0.00     0.006 A 
ATOM      2  C   UNL     1     -27.428   2.901   1.375  1.00  0.00     0.006 A 
ATOM      3  C   UNL     1     -27.045   4.707  -0.220  1.00  0.00     0.010 A 
ATOM      4  C   UNL     1     -28.467   2.432   0.550  1.00  0.00     0.010 A 
ATOM      5  C   UNL     1     -28.093   4.237  -1.010  1.00  0.00     0.001 A 
ATOM      6  C   UNL     1     -28.795   3.096  -0.632  1.00  0.00     0.001 A 
ENDROOT
BRANCH   1   7
ATOM      7  C   UNL     1     -25.487   4.529   1.694  1.00  0.00     0.072 C 
ATOM      8  O   UNL     1     -24.390   3.913   1.621  1.00  0.00    -0.545 OA
ATOM      9  O   UNL     1     -25.547   5.716   2.416  1.00  0.00    -0.545 OA
ENDBRANCH   1   7
BRANCH   2  10
ATOM     10  C   UNL     1     -27.211   2.216   2.671  1.00  0.00     0.072 C 
ATOM     11  O   UNL     1     -27.920   2.493   3.674  1.00  0.00    -0.545 OA
ATOM     12  O   UNL     1     -26.260   1.206   2.774  1.00  0.00    -0.545 OA
ENDBRANCH   2  10
TORSDOF 2
ENDMDL
MODEL 9
REMARK VINA RESULT:    -3.682      8.996     10.522
REMARK INTER + INTRA:          -4.311
REMARK INTER:                  -4.122
REMARK INTRA:                  -0.189
REMARK UNBOUND:                -0.198
REMARK SMILES O=C([O-])c1ccccc1C(=O)[O-]
REMARK SMILES IDX 4 1 9 2 5 3 8 4 6 5 7 6 2 7 1 8 3 9 10 10 11 11 12 12
REMARK H PARENT
REMARK Flexibility Score: inf
ROOT
ATOM      1  C   UNL     1     -27.468   2.908   1.300  1.00  0.00     0.006 A 
ATOM      2  C   UNL     1     -26.708   4.030   0.862  1.00  0.00     0.006 A 
ATOM      3  C   UNL     1     -28.534   2.451   0.503  1.00  0.00     0.010 A 
ATOM      4  C   UNL     1     -27.086   4.691  -0.322  1.00  0.00     0.010 A 
ATOM      5  C   UNL     1     -28.877   3.109  -0.678  1.00  0.00     0.001 A 
ATOM      6  C   UNL     1     -28.161   4.233  -1.084  1.00  0.00     0.001 A 
ENDROOT
BRANCH   1   7
ATOM      7  C   UNL     1     -27.234   2.231   2.596  1.00  0.00     0.072 C 
ATOM      8  O   UNL     1     -27.938   2.505   3.604  1.00  0.00    -0.545 OA
ATOM      9  O   UNL     1     -26.272   1.232   2.697  1.00  0.00    -0.545 OA
ENDBRANCH   1   7
BRANCH   2  10
ATOM     10  C   UNL     1     -25.488   4.501   1.557  1.00  0.00     0.072 C 
ATOM     11  O   UNL     1     -24.405   3.866   1.460  1.00  0.00    -0.545 OA
ATOM     12  O   UNL     1     -25.511   5.692   2.274  1.00  0.00    -0.545 OA
ENDBRANCH   2  10
TORSDOF 2
ENDMDL
