MODEL 1
REMARK VINA RESULT:    -4.938      0.000      0.000
REMARK INTER + INTRA:          -5.571
REMARK INTER:                  -5.516
REMARK INTRA:                  -0.056
REMARK UNBOUND:                -0.056
REMARK SMILES COc1cc2ccc(=O)oc2c(O)c1O
REMARK SMILES IDX 3 1 14 2 12 3 11 4 5 5 4 6 6 7 7 8 8 9 9 10 10 11 2 12 1 13
REMARK SMILES IDX 15 14 13 16
REMARK H PARENT 15 15 13 17
REMARK Flexibility Score: inf
ROOT
ATOM      1  C   UNL     1     -26.557 -52.491  55.284  1.00  0.00     0.165 A 
ATOM      2  C   UNL     1     -27.454 -53.426  55.837  1.00  0.00     0.204 A 
ATOM      3  C   UNL     1     -28.390 -54.080  55.015  1.00  0.00     0.205 A 
ATOM      4  C   UNL     1     -28.431 -53.805  53.643  1.00  0.00     0.184 A 
ATOM      5  C   UNL     1     -27.533 -52.871  53.086  1.00  0.00     0.025 A 
ATOM      6  C   UNL     1     -26.603 -52.219  53.903  1.00  0.00     0.062 A 
ATOM      7  C   UNL     1     -27.601 -52.619  51.712  1.00  0.00     0.020 A 
ATOM      8  C   UNL     1     -28.544 -53.291  50.937  1.00  0.00     0.094 A 
ATOM      9  C   UNL     1     -29.402 -54.205  51.556  1.00  0.00     0.336 A 
ATOM     10  O   UNL     1     -30.261 -54.823  50.875  1.00  0.00    -0.246 OA
ATOM     11  O   UNL     1     -29.317 -54.426  52.866  1.00  0.00    -0.419 OA
ENDROOT
BRANCH   1  12
ATOM     12  O   UNL     1     -25.636 -51.856  56.133  1.00  0.00    -0.493 OA
ATOM     13  C   UNL     1     -25.360 -50.459  56.128  1.00  0.00     0.278 C 
ENDBRANCH   1  12
BRANCH   2  14
ATOM     14  O   UNL     1     -27.428 -53.712  57.203  1.00  0.00    -0.502 OA
ATOM     15  H   UNL     1     -28.273 -53.863  57.742  1.00  0.00     0.293 HD
ENDBRANCH   2  14
BRANCH   3  16
ATOM     16  O   UNL     1     -29.286 -55.008  55.549  1.00  0.00    -0.502 OA
ATOM     17  H   UNL     1     -30.170 -54.732  55.958  1.00  0.00     0.293 HD
ENDBRANCH   3  16
TORSDOF 3
ENDMDL
MODEL 2
REMARK VINA RESULT:    -4.885      1.981      3.911
REMARK INTER + INTRA:          -5.512
REMARK INTER:                  -5.448
REMARK INTRA:                  -0.063
REMARK UNBOUND:                -0.056
REMARK SMILES COc1cc2ccc(=O)oc2c(O)c1O
REMARK SMILES IDX 3 1 14 2 12 3 11 4 5 5 4 6 6 7 7 8 8 9 9 10 10 11 2 12 1 13
REMARK SMILES IDX 15 14 13 16
REMARK H PARENT 15 15 13 17
REMARK Flexibility Score: inf
ROOT
ATOM      1  C   UNL     1     -27.518 -52.343  52.722  1.00  0.00     0.165 A 
ATOM      2  C   UNL     1     -26.660 -52.326  53.840  1.00  0.00     0.204 A 
ATOM      3  C   UNL     1     -26.894 -53.191  54.924  1.00  0.00     0.205 A 
ATOM      4  C   UNL     1     -27.979 -54.074  54.895  1.00  0.00     0.184 A 
ATOM      5  C   UNL     1     -28.839 -54.096  53.777  1.00  0.00     0.025 A 
ATOM      6  C   UNL     1     -28.608 -53.235  52.699  1.00  0.00     0.062 A 
ATOM      7  C   UNL     1     -29.915 -54.990  53.780  1.00  0.00     0.020 A 
ATOM      8  C   UNL     1     -30.107 -55.829  54.876  1.00  0.00     0.094 A 
ATOM      9  C   UNL     1     -29.214 -55.754  55.950  1.00  0.00     0.336 A 
ATOM     10  O   UNL     1     -29.370 -56.502  56.950  1.00  0.00    -0.246 OA
ATOM     11  O   UNL     1     -28.199 -54.894  55.922  1.00  0.00    -0.419 OA
ENDROOT
BRANCH   1  12
ATOM     12  O   UNL     1     -27.255 -51.466  51.657  1.00  0.00    -0.493 OA
ATOM     13  C   UNL     1     -28.143 -50.445  51.212  1.00  0.00     0.278 C 
ENDBRANCH   1  12
BRANCH   2  14
ATOM     14  O   UNL     1     -25.574 -51.452  53.887  1.00  0.00    -0.502 OA
ATOM     15  H   UNL     1     -25.500 -50.644  53.279  1.00  0.00     0.293 HD
ENDBRANCH   2  14
BRANCH   3  16
ATOM     16  O   UNL     1     -26.054 -53.184  56.040  1.00  0.00    -0.502 OA
ATOM     17  H   UNL     1     -25.844 -54.025  56.563  1.00  0.00     0.293 HD
ENDBRANCH   3  16
TORSDOF 3
ENDMDL
MODEL 3
REMARK VINA RESULT:    -4.856      2.214      3.536
REMARK INTER + INTRA:          -5.479
REMARK INTER:                  -5.430
REMARK INTRA:                  -0.049
REMARK UNBOUND:                -0.056
REMARK SMILES COc1cc2ccc(=O)oc2c(O)c1O
REMARK SMILES IDX 3 1 14 2 12 3 11 4 5 5 4 6 6 7 7 8 8 9 9 10 10 11 2 12 1 13
REMARK SMILES IDX 15 14 13 16
REMARK H PARENT 15 15 13 17
REMARK Flexibility Score: inf
ROOT
ATOM      1  C   UNL     1     -26.772 -55.229  55.030  1.00  0.00     0.165 A 
ATOM      2  C   UNL     1     -26.274 -54.065  55.649  1.00  0.00     0.204 A 
ATOM      3  C   UNL     1     -26.381 -52.819  55.004  1.00  0.00     0.205 A 
ATOM      4  C   UNL     1     -26.984 -52.731  53.744  1.00  0.00     0.184 A 
ATOM      5  C   UNL     1     -27.484 -53.894  53.122  1.00  0.00     0.025 A 
ATOM      6  C   UNL     1     -27.378 -55.133  53.762  1.00  0.00     0.062 A 
ATOM      7  C   UNL     1     -28.081 -53.771  51.862  1.00  0.00     0.020 A 
ATOM      8  C   UNL     1     -28.165 -52.517  51.262  1.00  0.00     0.094 A 
ATOM      9  C   UNL     1     -27.647 -51.407  51.938  1.00  0.00     0.336 A 
ATOM     10  O   UNL     1     -27.712 -50.265  51.413  1.00  0.00    -0.246 OA
ATOM     11  O   UNL     1     -27.084 -51.552  53.135  1.00  0.00    -0.419 OA
ENDROOT
BRANCH   1  12
ATOM     12  O   UNL     1     -26.650 -56.456  55.702  1.00  0.00    -0.493 OA
ATOM     13  C   UNL     1     -27.365 -57.640  55.362  1.00  0.00     0.278 C 
ENDBRANCH   1  12
BRANCH   2  14
ATOM     14  O   UNL     1     -25.669 -54.134  56.905  1.00  0.00    -0.502 OA
ATOM     15  H   UNL     1     -24.767 -53.713  57.097  1.00  0.00     0.293 HD
ENDBRANCH   2  14
BRANCH   3  16
ATOM     16  O   UNL     1     -25.890 -51.658  55.605  1.00  0.00    -0.502 OA
ATOM     17  H   UNL     1     -25.609 -51.630  56.577  1.00  0.00     0.293 HD
ENDBRANCH   3  16
TORSDOF 3
ENDMDL
MODEL 4
REMARK VINA RESULT:    -4.762     10.530     12.125
REMARK INTER + INTRA:          -5.375
REMARK INTER:                  -5.307
REMARK INTRA:                  -0.068
REMARK UNBOUND:                -0.056
REMARK SMILES COc1cc2ccc(=O)oc2c(O)c1O
REMARK SMILES IDX 3 1 14 2 12 3 11 4 5 5 4 6 6 7 7 8 8 9 9 10 10 11 2 12 1 13
REMARK SMILES IDX 15 14 13 16
REMARK H PARENT 15 15 13 17
REMARK Flexibility Score: inf
ROOT
ATOM      1  C   UNL     1     -32.266 -60.323  64.153  1.00  0.00     0.165 A 
ATOM      2  C   UNL     1     -30.910 -59.952  64.254  1.00  0.00     0.204 A 
ATOM      3  C   UNL     1     -30.036 -60.166  63.173  1.00  0.00     0.205 A 
ATOM      4  C   UNL     1     -30.510 -60.747  61.992  1.00  0.00     0.184 A 
ATOM      5  C   UNL     1     -31.867 -61.118  61.886  1.00  0.00     0.025 A 
ATOM      6  C   UNL     1     -32.737 -60.907  62.961  1.00  0.00     0.062 A 
ATOM      7  C   UNL     1     -32.309 -61.697  60.692  1.00  0.00     0.020 A 
ATOM      8  C   UNL     1     -31.407 -61.888  59.647  1.00  0.00     0.094 A 
ATOM      9  C   UNL     1     -30.076 -61.496  59.822  1.00  0.00     0.336 A 
ATOM     10  O   UNL     1     -29.245 -61.660  58.891  1.00  0.00    -0.246 OA
ATOM     11  O   UNL     1     -29.682 -60.947  60.969  1.00  0.00    -0.419 OA
ENDROOT
BRANCH   1  12
ATOM     12  O   UNL     1     -33.112 -60.096  65.251  1.00  0.00    -0.493 OA
ATOM     13  C   UNL     1     -34.124 -59.096  65.300  1.00  0.00     0.278 C 
ENDBRANCH   1  12
BRANCH   2  14
ATOM     14  O   UNL     1     -30.419 -59.372  65.425  1.00  0.00    -0.502 OA
ATOM     15  H   UNL     1     -31.024 -58.925  66.104  1.00  0.00     0.293 HD
ENDBRANCH   2  14
BRANCH   3  16
ATOM     16  O   UNL     1     -28.690 -59.804  63.259  1.00  0.00    -0.502 OA
ATOM     17  H   UNL     1     -27.941 -60.473  63.124  1.00  0.00     0.293 HD
ENDBRANCH   3  16
TORSDOF 3
ENDMDL
MODEL 5
REMARK VINA RESULT:    -4.675      1.642      2.984
REMARK INTER + INTRA:          -5.278
REMARK INTER:                  -5.549
REMARK INTRA:                   0.272
REMARK UNBOUND:                -0.056
REMARK SMILES COc1cc2ccc(=O)oc2c(O)c1O
REMARK SMILES IDX 3 1 14 2 12 3 11 4 5 5 4 6 6 7 7 8 8 9 9 10 10 11 2 12 1 13
REMARK SMILES IDX 15 14 13 16
REMARK H PARENT 15 15 13 17
REMARK Flexibility Score: inf
ROOT
ATOM      1  C   UNL     1     -26.379 -52.422  55.578  1.00  0.00     0.165 A 
ATOM      2  C   UNL     1     -26.341 -52.336  54.172  1.00  0.00     0.204 A 
ATOM      3  C   UNL     1     -27.229 -53.100  53.392  1.00  0.00     0.205 A 
ATOM      4  C   UNL     1     -28.155 -53.947  54.011  1.00  0.00     0.184 A 
ATOM      5  C   UNL     1     -28.197 -54.034  55.419  1.00  0.00     0.025 A 
ATOM      6  C   UNL     1     -27.313 -53.276  56.195  1.00  0.00     0.062 A 
ATOM      7  C   UNL     1     -29.134 -54.891  56.006  1.00  0.00     0.020 A 
ATOM      8  C   UNL     1     -29.994 -55.627  55.194  1.00  0.00     0.094 A 
ATOM      9  C   UNL     1     -29.896 -55.491  53.805  1.00  0.00     0.336 A 
ATOM     10  O   UNL     1     -30.662 -56.148  53.054  1.00  0.00    -0.246 OA
ATOM     11  O   UNL     1     -28.995 -54.669  53.272  1.00  0.00    -0.419 OA
ENDROOT
BRANCH   1  12
ATOM     12  O   UNL     1     -25.479 -51.645  56.326  1.00  0.00    -0.493 OA
ATOM     13  C   UNL     1     -25.368 -50.228  56.242  1.00  0.00     0.278 C 
ENDBRANCH   1  12
BRANCH   2  14
ATOM     14  O   UNL     1     -25.424 -51.497  53.537  1.00  0.00    -0.502 OA
ATOM     15  H   UNL     1     -25.544 -50.492  53.498  1.00  0.00     0.293 HD
ENDBRANCH   2  14
BRANCH   3  16
ATOM     16  O   UNL     1     -27.202 -53.027  51.998  1.00  0.00    -0.502 OA
ATOM     17  H   UNL     1     -27.228 -53.853  51.413  1.00  0.00     0.293 HD
ENDBRANCH   3  16
TORSDOF 3
ENDMDL
MODEL 6
REMARK VINA RESULT:    -4.657     13.710     15.469
REMARK INTER + INTRA:          -5.257
REMARK INTER:                  -5.188
REMARK INTRA:                  -0.069
REMARK UNBOUND:                -0.056
REMARK SMILES COc1cc2ccc(=O)oc2c(O)c1O
REMARK SMILES IDX 3 1 14 2 12 3 11 4 5 5 4 6 6 7 7 8 8 9 9 10 10 11 2 12 1 13
REMARK SMILES IDX 15 14 13 16
REMARK H PARENT 15 15 13 17
REMARK Flexibility Score: inf
ROOT
ATOM      1  C   UNL     1     -33.384 -59.490  65.627  1.00  0.00     0.165 A 
ATOM      2  C   UNL     1     -33.413 -59.865  66.985  1.00  0.00     0.204 A 
ATOM      3  C   UNL     1     -33.445 -58.882  67.990  1.00  0.00     0.205 A 
ATOM      4  C   UNL     1     -33.448 -57.525  67.645  1.00  0.00     0.184 A 
ATOM      5  C   UNL     1     -33.420 -57.146  66.286  1.00  0.00     0.025 A 
ATOM      6  C   UNL     1     -33.388 -58.123  65.286  1.00  0.00     0.062 A 
ATOM      7  C   UNL     1     -33.424 -55.782  65.975  1.00  0.00     0.020 A 
ATOM      8  C   UNL     1     -33.457 -54.843  67.005  1.00  0.00     0.094 A 
ATOM      9  C   UNL     1     -33.484 -55.292  68.329  1.00  0.00     0.336 A 
ATOM     10  O   UNL     1     -33.513 -54.461  69.274  1.00  0.00    -0.246 OA
ATOM     11  O   UNL     1     -33.479 -56.596  68.598  1.00  0.00    -0.419 OA
ENDROOT
BRANCH   1  12
ATOM     12  O   UNL     1     -33.353 -60.497  64.648  1.00  0.00    -0.493 OA
ATOM     13  C   UNL     1     -32.173 -60.954  63.995  1.00  0.00     0.278 C 
ENDBRANCH   1  12
BRANCH   2  14
ATOM     14  O   UNL     1     -33.410 -61.212  67.348  1.00  0.00    -0.502 OA
ATOM     15  H   UNL     1     -32.554 -61.747  67.443  1.00  0.00     0.293 HD
ENDBRANCH   2  14
BRANCH   3  16
ATOM     16  O   UNL     1     -33.473 -59.239  69.340  1.00  0.00    -0.502 OA
ATOM     17  H   UNL     1     -34.115 -58.814  69.998  1.00  0.00     0.293 HD
ENDBRANCH   3  16
TORSDOF 3
ENDMDL
MODEL 7
REMARK VINA RESULT:    -4.628     13.647     14.653
REMARK INTER + INTRA:          -5.225
REMARK INTER:                  -5.171
REMARK INTRA:                  -0.054
REMARK UNBOUND:                -0.056
REMARK SMILES COc1cc2ccc(=O)oc2c(O)c1O
REMARK SMILES IDX 3 1 14 2 12 3 11 4 5 5 4 6 6 7 7 8 8 9 9 10 10 11 2 12 1 13
REMARK SMILES IDX 15 14 13 16
REMARK H PARENT 15 15 13 17
REMARK Flexibility Score: inf
ROOT
ATOM      1  C   UNL     1     -31.596 -66.153  59.049  1.00  0.00     0.165 A 
ATOM      2  C   UNL     1     -30.822 -67.282  59.384  1.00  0.00     0.204 A 
ATOM      3  C   UNL     1     -30.151 -68.003  58.379  1.00  0.00     0.205 A 
ATOM      4  C   UNL     1     -30.248 -67.600  57.043  1.00  0.00     0.184 A 
ATOM      5  C   UNL     1     -31.021 -66.469  56.704  1.00  0.00     0.025 A 
ATOM      6  C   UNL     1     -31.690 -65.753  57.702  1.00  0.00     0.062 A 
ATOM      7  C   UNL     1     -31.097 -66.094  55.358  1.00  0.00     0.020 A 
ATOM      8  C   UNL     1     -30.414 -66.837  54.398  1.00  0.00     0.094 A 
ATOM      9  C   UNL     1     -29.667 -67.947  54.807  1.00  0.00     0.336 A 
ATOM     10  O   UNL     1     -29.044 -68.633  53.956  1.00  0.00    -0.246 OA
ATOM     11  O   UNL     1     -29.611 -68.283  56.093  1.00  0.00    -0.419 OA
ENDROOT
BRANCH   1  12
ATOM     12  O   UNL     1     -32.253 -65.456  60.076  1.00  0.00    -0.493 OA
ATOM     13  C   UNL     1     -32.332 -64.038  60.170  1.00  0.00     0.278 C 
ENDBRANCH   1  12
BRANCH   2  14
ATOM     14  O   UNL     1     -30.714 -67.699  60.711  1.00  0.00    -0.502 OA
ATOM     15  H   UNL     1     -31.508 -67.717  61.341  1.00  0.00     0.293 HD
ENDBRANCH   2  14
BRANCH   3  16
ATOM     16  O   UNL     1     -29.381 -69.125  58.696  1.00  0.00    -0.502 OA
ATOM     17  H   UNL     1     -28.414 -69.215  58.411  1.00  0.00     0.293 HD
ENDBRANCH   3  16
TORSDOF 3
ENDMDL
MODEL 8
REMARK VINA RESULT:    -4.619      2.404      4.720
REMARK INTER + INTRA:          -5.215
REMARK INTER:                  -5.158
REMARK INTRA:                  -0.057
REMARK UNBOUND:                -0.056
REMARK SMILES COc1cc2ccc(=O)oc2c(O)c1O
REMARK SMILES IDX 3 1 14 2 12 3 11 4 5 5 4 6 6 7 7 8 8 9 9 10 10 11 2 12 1 13
REMARK SMILES IDX 15 14 13 16
REMARK H PARENT 15 15 13 17
REMARK Flexibility Score: inf
ROOT
ATOM      1  C   UNL     1     -28.972 -52.085  51.803  1.00  0.00     0.165 A 
ATOM      2  C   UNL     1     -27.748 -51.522  52.214  1.00  0.00     0.204 A 
ATOM      3  C   UNL     1     -26.929 -52.202  53.134  1.00  0.00     0.205 A 
ATOM      4  C   UNL     1     -27.328 -53.442  53.644  1.00  0.00     0.184 A 
ATOM      5  C   UNL     1     -28.553 -54.010  53.235  1.00  0.00     0.025 A 
ATOM      6  C   UNL     1     -29.368 -53.334  52.321  1.00  0.00     0.062 A 
ATOM      7  C   UNL     1     -28.922 -55.251  53.765  1.00  0.00     0.020 A 
ATOM      8  C   UNL     1     -28.079 -55.888  54.673  1.00  0.00     0.094 A 
ATOM      9  C   UNL     1     -26.879 -55.266  55.034  1.00  0.00     0.336 A 
ATOM     10  O   UNL     1     -26.104 -55.824  55.853  1.00  0.00    -0.246 OA
ATOM     11  O   UNL     1     -26.552 -54.085  54.515  1.00  0.00    -0.419 OA
ENDROOT
BRANCH   1  12
ATOM     12  O   UNL     1     -29.765 -51.380  50.883  1.00  0.00    -0.493 OA
ATOM     13  C   UNL     1     -30.784 -50.450  51.238  1.00  0.00     0.278 C 
ENDBRANCH   1  12
BRANCH   2  14
ATOM     14  O   UNL     1     -27.334 -50.286  51.715  1.00  0.00    -0.502 OA
ATOM     15  H   UNL     1     -27.985 -49.536  51.514  1.00  0.00     0.293 HD
ENDBRANCH   2  14
BRANCH   3  16
ATOM     16  O   UNL     1     -25.713 -51.655  53.551  1.00  0.00    -0.502 OA
ATOM     17  H   UNL     1     -24.996 -51.372  52.895  1.00  0.00     0.293 HD
ENDBRANCH   3  16
TORSDOF 3
ENDMDL
MODEL 9
REMARK VINA RESULT:    -4.616      2.049      2.189
REMARK INTER + INTRA:          -5.211
REMARK INTER:                  -5.158
REMARK INTRA:                  -0.053
REMARK UNBOUND:                -0.056
REMARK SMILES COc1cc2ccc(=O)oc2c(O)c1O
REMARK SMILES IDX 3 1 14 2 12 3 11 4 5 5 4 6 6 7 7 8 8 9 9 10 10 11 2 12 1 13
REMARK SMILES IDX 15 14 13 16
REMARK H PARENT 15 15 13 17
REMARK Flexibility Score: inf
ROOT
ATOM      1  C   UNL     1     -26.278 -53.080  55.743  1.00  0.00     0.165 A 
ATOM      2  C   UNL     1     -25.873 -54.372  56.134  1.00  0.00     0.204 A 
ATOM      3  C   UNL     1     -26.281 -55.496  55.393  1.00  0.00     0.205 A 
ATOM      4  C   UNL     1     -27.090 -55.334  54.262  1.00  0.00     0.184 A 
ATOM      5  C   UNL     1     -27.496 -54.042  53.867  1.00  0.00     0.025 A 
ATOM      6  C   UNL     1     -27.092 -52.924  54.604  1.00  0.00     0.062 A 
ATOM      7  C   UNL     1     -28.305 -53.915  52.732  1.00  0.00     0.020 A 
ATOM      8  C   UNL     1     -28.684 -55.057  52.029  1.00  0.00     0.094 A 
ATOM      9  C   UNL     1     -28.244 -56.306  52.478  1.00  0.00     0.336 A 
ATOM     10  O   UNL     1     -28.575 -57.349  51.858  1.00  0.00    -0.246 OA
ATOM     11  O   UNL     1     -27.475 -56.398  53.561  1.00  0.00    -0.419 OA
ENDROOT
BRANCH   1  12
ATOM     12  O   UNL     1     -25.852 -51.980  56.506  1.00  0.00    -0.493 OA
ATOM     13  C   UNL     1     -25.464 -50.721  55.964  1.00  0.00     0.278 C 
ENDBRANCH   1  12
BRANCH   2  14
ATOM     14  O   UNL     1     -25.067 -54.552  57.259  1.00  0.00    -0.502 OA
ATOM     15  H   UNL     1     -24.185 -55.050  57.220  1.00  0.00     0.293 HD
ENDBRANCH   2  14
BRANCH   3  16
ATOM     16  O   UNL     1     -25.890 -56.782  55.769  1.00  0.00    -0.502 OA
ATOM     17  H   UNL     1     -24.959 -56.985  56.111  1.00  0.00     0.293 HD
ENDBRANCH   3  16
TORSDOF 3
ENDMDL
