MODEL 1
REMARK VINA RESULT:    -4.573      0.000      0.000
REMARK INTER + INTRA:          -7.863
REMARK INTER:                  -6.979
REMARK INTRA:                  -0.884
REMARK UNBOUND:                -0.884
REMARK SMILES CCCCCCCCCCC(=O)[O-]
REMARK SMILES IDX 7 1 8 2 9 3 10 4 11 5 12 6 13 7 6 8 5 9 4 10 3 11 2 12 1 13
REMARK H PARENT
REMARK Flexibility Score: inf
ROOT
ATOM      1  C   UNL     1      34.953  56.741  28.606  1.00  0.00     0.000 C 
ENDROOT
BRANCH   1   2
ATOM      2  C   UNL     1      34.612  56.983  27.127  1.00  0.00     0.000 C 
BRANCH   2   3
ATOM      3  C   UNL     1      33.470  56.081  26.627  1.00  0.00     0.006 C 
BRANCH   3   4
ATOM      4  C   UNL     1      32.700  55.429  27.784  1.00  0.00     0.053 C 
BRANCH   4   5
ATOM      5  C   UNL     1      32.568  53.949  27.599  1.00  0.00     0.041 C 
ATOM      6  O   UNL     1      33.418  53.169  28.103  1.00  0.00    -0.550 OA
ATOM      7  O   UNL     1      31.525  53.433  26.840  1.00  0.00    -0.550 OA
ENDBRANCH   4   5
ENDBRANCH   3   4
ENDBRANCH   2   3
ENDBRANCH   1   2
BRANCH   1   8
ATOM      8  C   UNL     1      35.773  57.886  29.219  1.00  0.00     0.000 C 
BRANCH   8   9
ATOM      9  C   UNL     1      35.357  58.144  30.672  1.00  0.00    -0.000 C 
BRANCH   9  10
ATOM     10  C   UNL     1      34.905  56.844  31.354  1.00  0.00    -0.000 C 
BRANCH  10  11
ATOM     11  C   UNL     1      33.638  57.024  32.208  1.00  0.00    -0.000 C 
BRANCH  11  12
ATOM     12  C   UNL     1      32.492  56.051  31.879  1.00  0.00    -0.003 C 
ATOM     13  C   UNL     1      32.984  54.693  31.382  1.00  0.00     0.004 C 
ENDBRANCH  11  12
ENDBRANCH  10  11
ENDBRANCH   9  10
ENDBRANCH   8   9
ENDBRANCH   1   8
TORSDOF 9
ENDMDL
MODEL 2
REMARK VINA RESULT:    -4.539     12.263     14.199
REMARK INTER + INTRA:          -7.812
REMARK INTER:                  -7.227
REMARK INTRA:                  -0.585
REMARK UNBOUND:                -0.884
REMARK SMILES CCCCCCCCCCC(=O)[O-]
REMARK SMILES IDX 7 1 8 2 9 3 10 4 11 5 12 6 13 7 6 8 5 9 4 10 3 11 2 12 1 13
REMARK H PARENT
REMARK Flexibility Score: inf
ROOT
ATOM      1  C   UNL     1      21.835  58.297  36.604  1.00  0.00     0.000 C 
ENDROOT
BRANCH   1   2
ATOM      2  C   UNL     1      21.732  58.557  35.092  1.00  0.00     0.000 C 
BRANCH   2   3
ATOM      3  C   UNL     1      22.792  57.786  34.286  1.00  0.00     0.006 C 
BRANCH   3   4
ATOM      4  C   UNL     1      24.093  58.586  34.128  1.00  0.00     0.053 C 
BRANCH   4   5
ATOM      5  C   UNL     1      24.490  58.723  32.690  1.00  0.00     0.041 C 
ATOM      6  O   UNL     1      25.201  59.694  32.319  1.00  0.00    -0.550 OA
ATOM      7  O   UNL     1      24.045  57.797  31.755  1.00  0.00    -0.550 OA
ENDBRANCH   4   5
ENDBRANCH   3   4
ENDBRANCH   2   3
ENDBRANCH   1   2
BRANCH   1   8
ATOM      8  C   UNL     1      22.445  59.483  37.367  1.00  0.00     0.000 C 
BRANCH   8   9
ATOM      9  C   UNL     1      21.679  59.752  38.667  1.00  0.00    -0.000 C 
BRANCH   9  10
ATOM     10  C   UNL     1      20.165  59.601  38.456  1.00  0.00    -0.000 C 
BRANCH  10  11
ATOM     11  C   UNL     1      19.484  58.781  39.566  1.00  0.00    -0.000 C 
BRANCH  11  12
ATOM     12  C   UNL     1      20.099  57.393  39.816  1.00  0.00    -0.003 C 
ATOM     13  C   UNL     1      19.162  56.246  39.441  1.00  0.00     0.004 C 
ENDBRANCH  11  12
ENDBRANCH  10  11
ENDBRANCH   9  10
ENDBRANCH   8   9
ENDBRANCH   1   8
TORSDOF 9
ENDMDL
MODEL 3
REMARK VINA RESULT:    -4.538      3.107      5.052
REMARK INTER + INTRA:          -7.811
REMARK INTER:                  -6.948
REMARK INTRA:                  -0.863
REMARK UNBOUND:                -0.884
REMARK SMILES CCCCCCCCCCC(=O)[O-]
REMARK SMILES IDX 7 1 8 2 9 3 10 4 11 5 12 6 13 7 6 8 5 9 4 10 3 11 2 12 1 13
REMARK H PARENT
REMARK Flexibility Score: inf
ROOT
ATOM      1  C   UNL     1      36.214  58.074  28.628  1.00  0.00     0.000 C 
ENDROOT
BRANCH   1   2
ATOM      2  C   UNL     1      35.662  58.116  30.062  1.00  0.00     0.000 C 
BRANCH   2   3
ATOM      3  C   UNL     1      34.808  56.882  30.403  1.00  0.00     0.006 C 
BRANCH   3   4
ATOM      4  C   UNL     1      34.117  57.016  31.768  1.00  0.00     0.053 C 
BRANCH   4   5
ATOM      5  C   UNL     1      35.109  57.167  32.880  1.00  0.00     0.041 C 
ATOM      6  O   UNL     1      35.050  58.162  33.650  1.00  0.00    -0.550 OA
ATOM      7  O   UNL     1      36.119  56.228  33.044  1.00  0.00    -0.550 OA
ENDBRANCH   4   5
ENDBRANCH   3   4
ENDBRANCH   2   3
ENDBRANCH   1   2
BRANCH   1   8
ATOM      8  C   UNL     1      35.673  56.885  27.821  1.00  0.00     0.000 C 
BRANCH   8   9
ATOM      9  C   UNL     1      34.880  57.364  26.600  1.00  0.00    -0.000 C 
BRANCH   9  10
ATOM     10  C   UNL     1      33.665  56.460  26.342  1.00  0.00    -0.000 C 
BRANCH  10  11
ATOM     11  C   UNL     1      33.563  55.293  27.340  1.00  0.00    -0.000 C 
BRANCH  11  12
ATOM     12  C   UNL     1      32.247  55.236  28.136  1.00  0.00    -0.003 C 
ATOM     13  C   UNL     1      31.031  55.660  27.313  1.00  0.00     0.004 C 
ENDBRANCH  11  12
ENDBRANCH  10  11
ENDBRANCH   9  10
ENDBRANCH   8   9
ENDBRANCH   1   8
TORSDOF 9
ENDMDL
MODEL 4
REMARK VINA RESULT:    -4.518      2.765      4.860
REMARK INTER + INTRA:          -7.779
REMARK INTER:                  -6.823
REMARK INTRA:                  -0.957
REMARK UNBOUND:                -0.884
REMARK SMILES CCCCCCCCCCC(=O)[O-]
REMARK SMILES IDX 7 1 8 2 9 3 10 4 11 5 12 6 13 7 6 8 5 9 4 10 3 11 2 12 1 13
REMARK H PARENT
REMARK Flexibility Score: inf
ROOT
ATOM      1  C   UNL     1      34.588  57.170  26.522  1.00  0.00     0.000 C 
ENDROOT
BRANCH   1   2
ATOM      2  C   UNL     1      35.855  56.697  27.253  1.00  0.00     0.000 C 
BRANCH   2   3
ATOM      3  C   UNL     1      35.721  56.780  28.783  1.00  0.00     0.006 C 
BRANCH   3   4
ATOM      4  C   UNL     1      35.971  58.201  29.309  1.00  0.00     0.053 C 
BRANCH   4   5
ATOM      5  C   UNL     1      35.554  58.344  30.741  1.00  0.00     0.041 C 
ATOM      6  O   UNL     1      34.451  57.876  31.128  1.00  0.00    -0.550 OA
ATOM      7  O   UNL     1      36.367  59.024  31.638  1.00  0.00    -0.550 OA
ENDBRANCH   4   5
ENDBRANCH   3   4
ENDBRANCH   2   3
ENDBRANCH   1   2
BRANCH   1   8
ATOM      8  C   UNL     1      33.677  56.005  26.105  1.00  0.00     0.000 C 
BRANCH   8   9
ATOM      9  C   UNL     1      32.223  56.275  26.506  1.00  0.00    -0.000 C 
BRANCH   9  10
ATOM     10  C   UNL     1      31.793  55.363  27.666  1.00  0.00    -0.000 C 
BRANCH  10  11
ATOM     11  C   UNL     1      32.506  54.000  27.652  1.00  0.00    -0.000 C 
BRANCH  11  12
ATOM     12  C   UNL     1      33.218  53.629  28.965  1.00  0.00    -0.003 C 
ATOM     13  C   UNL     1      33.053  54.686  30.055  1.00  0.00     0.004 C 
ENDBRANCH  11  12
ENDBRANCH  10  11
ENDBRANCH   9  10
ENDBRANCH   8   9
ENDBRANCH   1   8
TORSDOF 9
ENDMDL
MODEL 5
REMARK VINA RESULT:    -4.458      2.306      4.394
REMARK INTER + INTRA:          -7.687
REMARK INTER:                  -7.002
REMARK INTRA:                  -0.685
REMARK UNBOUND:                -0.884
REMARK SMILES CCCCCCCCCCC(=O)[O-]
REMARK SMILES IDX 7 1 8 2 9 3 10 4 11 5 12 6 13 7 6 8 5 9 4 10 3 11 2 12 1 13
REMARK H PARENT
REMARK Flexibility Score: inf
ROOT
ATOM      1  C   UNL     1      35.746  57.232  29.552  1.00  0.00     0.000 C 
ENDROOT
BRANCH   1   2
ATOM      2  C   UNL     1      35.351  58.155  30.717  1.00  0.00     0.000 C 
BRANCH   2   3
ATOM      3  C   UNL     1      34.634  57.402  31.851  1.00  0.00     0.006 C 
BRANCH   3   4
ATOM      4  C   UNL     1      33.845  56.191  31.332  1.00  0.00     0.053 C 
BRANCH   4   5
ATOM      5  C   UNL     1      32.619  55.935  32.153  1.00  0.00     0.041 C 
ATOM      6  O   UNL     1      32.251  54.753  32.389  1.00  0.00    -0.550 OA
ATOM      7  O   UNL     1      31.863  57.000  32.626  1.00  0.00    -0.550 OA
ENDBRANCH   4   5
ENDBRANCH   3   4
ENDBRANCH   2   3
ENDBRANCH   1   2
BRANCH   1   8
ATOM      8  C   UNL     1      35.755  57.959  28.199  1.00  0.00     0.000 C 
BRANCH   8   9
ATOM      9  C   UNL     1      35.438  56.992  27.053  1.00  0.00    -0.000 C 
BRANCH   9  10
ATOM     10  C   UNL     1      33.946  56.624  27.040  1.00  0.00    -0.000 C 
BRANCH  10  11
ATOM     11  C   UNL     1      33.674  55.203  27.562  1.00  0.00    -0.000 C 
BRANCH  11  12
ATOM     12  C   UNL     1      32.263  54.983  28.137  1.00  0.00    -0.003 C 
ATOM     13  C   UNL     1      31.159  55.540  27.240  1.00  0.00     0.004 C 
ENDBRANCH  11  12
ENDBRANCH  10  11
ENDBRANCH   9  10
ENDBRANCH   8   9
ENDBRANCH   1   8
TORSDOF 9
ENDMDL
MODEL 6
REMARK VINA RESULT:    -4.457     11.944     13.875
REMARK INTER + INTRA:          -7.686
REMARK INTER:                  -7.203
REMARK INTRA:                  -0.483
REMARK UNBOUND:                -0.884
REMARK SMILES CCCCCCCCCCC(=O)[O-]
REMARK SMILES IDX 7 1 8 2 9 3 10 4 11 5 12 6 13 7 6 8 5 9 4 10 3 11 2 12 1 13
REMARK H PARENT
REMARK Flexibility Score: inf
ROOT
ATOM      1  C   UNL     1      22.372  58.869  36.132  1.00  0.00     0.000 C 
ENDROOT
BRANCH   1   2
ATOM      2  C   UNL     1      21.470  58.511  34.939  1.00  0.00     0.000 C 
BRANCH   2   3
ATOM      3  C   UNL     1      22.271  58.225  33.657  1.00  0.00     0.006 C 
BRANCH   3   4
ATOM      4  C   UNL     1      23.777  58.109  33.930  1.00  0.00     0.053 C 
BRANCH   4   5
ATOM      5  C   UNL     1      24.583  58.893  32.940  1.00  0.00     0.041 C 
ATOM      6  O   UNL     1      25.099  59.993  33.274  1.00  0.00    -0.550 OA
ATOM      7  O   UNL     1      24.733  58.427  31.640  1.00  0.00    -0.550 OA
ENDBRANCH   4   5
ENDBRANCH   3   4
ENDBRANCH   2   3
ENDBRANCH   1   2
BRANCH   1   8
ATOM      8  C   UNL     1      21.778  58.424  37.477  1.00  0.00     0.000 C 
BRANCH   8   9
ATOM      9  C   UNL     1      21.398  59.635  38.337  1.00  0.00    -0.000 C 
BRANCH   9  10
ATOM     10  C   UNL     1      22.604  60.563  38.546  1.00  0.00    -0.000 C 
BRANCH  10  11
ATOM     11  C   UNL     1      22.960  60.759  40.030  1.00  0.00    -0.000 C 
BRANCH  11  12
ATOM     12  C   UNL     1      22.505  59.620  40.960  1.00  0.00    -0.003 C 
ATOM     13  C   UNL     1      22.070  60.111  42.340  1.00  0.00     0.004 C 
ENDBRANCH  11  12
ENDBRANCH  10  11
ENDBRANCH   9  10
ENDBRANCH   8   9
ENDBRANCH   1   8
TORSDOF 9
ENDMDL
MODEL 7
REMARK VINA RESULT:    -4.451     12.568     14.638
REMARK INTER + INTRA:          -7.677
REMARK INTER:                  -7.068
REMARK INTRA:                  -0.609
REMARK UNBOUND:                -0.884
REMARK SMILES CCCCCCCCCCC(=O)[O-]
REMARK SMILES IDX 7 1 8 2 9 3 10 4 11 5 12 6 13 7 6 8 5 9 4 10 3 11 2 12 1 13
REMARK H PARENT
REMARK Flexibility Score: inf
ROOT
ATOM      1  C   UNL     1      23.074  59.233  35.615  1.00  0.00     0.000 C 
ENDROOT
BRANCH   1   2
ATOM      2  C   UNL     1      22.076  58.506  36.531  1.00  0.00     0.000 C 
BRANCH   2   3
ATOM      3  C   UNL     1      21.770  59.295  37.816  1.00  0.00     0.006 C 
BRANCH   3   4
ATOM      4  C   UNL     1      21.586  58.373  39.031  1.00  0.00     0.053 C 
BRANCH   4   5
ATOM      5  C   UNL     1      20.184  58.420  39.556  1.00  0.00     0.041 C 
ATOM      6  O   UNL     1      19.830  57.645  40.483  1.00  0.00    -0.550 OA
ATOM      7  O   UNL     1      19.261  59.295  38.997  1.00  0.00    -0.550 OA
ENDBRANCH   4   5
ENDBRANCH   3   4
ENDBRANCH   2   3
ENDBRANCH   1   2
BRANCH   1   8
ATOM      8  C   UNL     1      23.896  58.265  34.751  1.00  0.00     0.000 C 
BRANCH   8   9
ATOM      9  C   UNL     1      24.072  58.812  33.330  1.00  0.00    -0.000 C 
BRANCH   9  10
ATOM     10  C   UNL     1      24.221  57.669  32.314  1.00  0.00    -0.000 C 
BRANCH  10  11
ATOM     11  C   UNL     1      23.205  56.534  32.535  1.00  0.00    -0.000 C 
BRANCH  11  12
ATOM     12  C   UNL     1      21.845  56.741  31.845  1.00  0.00    -0.003 C 
ATOM     13  C   UNL     1      20.785  57.329  32.774  1.00  0.00     0.004 C 
ENDBRANCH  11  12
ENDBRANCH  10  11
ENDBRANCH   9  10
ENDBRANCH   8   9
ENDBRANCH   1   8
TORSDOF 9
ENDMDL
MODEL 8
REMARK VINA RESULT:    -4.441      3.046      5.015
REMARK INTER + INTRA:          -7.661
REMARK INTER:                  -6.711
REMARK INTRA:                  -0.951
REMARK UNBOUND:                -0.884
REMARK SMILES CCCCCCCCCCC(=O)[O-]
REMARK SMILES IDX 7 1 8 2 9 3 10 4 11 5 12 6 13 7 6 8 5 9 4 10 3 11 2 12 1 13
REMARK H PARENT
REMARK Flexibility Score: inf
ROOT
ATOM      1  C   UNL     1      34.509  57.508  31.406  1.00  0.00     0.000 C 
ENDROOT
BRANCH   1   2
ATOM      2  C   UNL     1      34.145  56.052  31.075  1.00  0.00     0.000 C 
BRANCH   2   3
ATOM      3  C   UNL     1      32.736  55.669  31.561  1.00  0.00     0.006 C 
BRANCH   3   4
ATOM      4  C   UNL     1      32.220  56.623  32.647  1.00  0.00     0.053 C 
BRANCH   4   5
ATOM      5  C   UNL     1      32.326  56.018  34.013  1.00  0.00     0.041 C 
ATOM      6  O   UNL     1      31.373  55.338  34.480  1.00  0.00    -0.550 OA
ATOM      7  O   UNL     1      33.460  56.234  34.785  1.00  0.00    -0.550 OA
ENDBRANCH   4   5
ENDBRANCH   3   4
ENDBRANCH   2   3
ENDBRANCH   1   2
BRANCH   1   8
ATOM      8  C   UNL     1      35.460  58.130  30.372  1.00  0.00     0.000 C 
BRANCH   8   9
ATOM      9  C   UNL     1      35.840  57.110  29.293  1.00  0.00    -0.000 C 
BRANCH   9  10
ATOM     10  C   UNL     1      35.582  57.674  27.887  1.00  0.00    -0.000 C 
BRANCH  10  11
ATOM     11  C   UNL     1      34.880  56.668  26.957  1.00  0.00    -0.000 C 
BRANCH  11  12
ATOM     12  C   UNL     1      33.506  56.181  27.450  1.00  0.00    -0.003 C 
ATOM     13  C   UNL     1      33.457  54.675  27.698  1.00  0.00     0.004 C 
ENDBRANCH  11  12
ENDBRANCH  10  11
ENDBRANCH   9  10
ENDBRANCH   8   9
ENDBRANCH   1   8
TORSDOF 9
ENDMDL
