MODEL 1
REMARK VINA RESULT:    -3.960      0.000      0.000
REMARK INTER + INTRA:          -4.463
REMARK INTER:                  -4.423
REMARK INTRA:                  -0.039
REMARK UNBOUND:                -0.039
REMARK SMILES CCCC(=O)[O-]
REMARK SMILES IDX 3 1 4 2 5 3 6 4 2 5 1 6
REMARK H PARENT
REMARK Flexibility Score: inf
ROOT
ATOM      1  C   UNL     1      44.832  27.512   5.930  1.00  0.00     0.052 C 
ENDROOT
BRANCH   1   2
ATOM      2  C   UNL     1      45.361  26.334   6.688  1.00  0.00     0.041 C 
ATOM      3  O   UNL     1      46.486  25.848   6.399  1.00  0.00    -0.550 OA
ATOM      4  O   UNL     1      44.632  25.803   7.744  1.00  0.00    -0.550 OA
ENDBRANCH   1   2
BRANCH   1   5
ATOM      5  C   UNL     1      43.941  27.048   4.775  1.00  0.00     0.003 C 
ATOM      6  C   UNL     1      44.738  26.930   3.479  1.00  0.00     0.004 C 
ENDBRANCH   1   5
TORSDOF 2
ENDMDL
MODEL 2
REMARK VINA RESULT:    -3.791      2.040      3.127
REMARK INTER + INTRA:          -4.274
REMARK INTER:                  -4.243
REMARK INTRA:                  -0.031
REMARK UNBOUND:                -0.039
REMARK SMILES CCCC(=O)[O-]
REMARK SMILES IDX 3 1 4 2 5 3 6 4 2 5 1 6
REMARK H PARENT
REMARK Flexibility Score: inf
ROOT
ATOM      1  C   UNL     1      43.988  27.086   4.774  1.00  0.00     0.052 C 
ENDROOT
BRANCH   1   2
ATOM      2  C   UNL     1      45.123  26.694   3.882  1.00  0.00     0.041 C 
ATOM      3  O   UNL     1      45.208  27.167   2.718  1.00  0.00    -0.550 OA
ATOM      4  O   UNL     1      46.115  25.842   4.352  1.00  0.00    -0.550 OA
ENDBRANCH   1   2
BRANCH   1   5
ATOM      5  C   UNL     1      44.500  27.407   6.181  1.00  0.00     0.003 C 
ATOM      6  C   UNL     1      43.700  26.657   7.243  1.00  0.00     0.004 C 
ENDBRANCH   1   5
TORSDOF 2
ENDMDL
MODEL 3
REMARK VINA RESULT:    -3.627      0.985      1.761
REMARK INTER + INTRA:          -4.091
REMARK INTER:                  -4.064
REMARK INTRA:                  -0.026
REMARK UNBOUND:                -0.039
REMARK SMILES CCCC(=O)[O-]
REMARK SMILES IDX 3 1 4 2 5 3 6 4 2 5 1 6
REMARK H PARENT
REMARK Flexibility Score: inf
ROOT
ATOM      1  C   UNL     1      44.039  27.038   4.969  1.00  0.00     0.052 C 
ENDROOT
BRANCH   1   2
ATOM      2  C   UNL     1      44.439  26.676   6.365  1.00  0.00     0.041 C 
ATOM      3  O   UNL     1      43.652  26.889   7.325  1.00  0.00    -0.550 OA
ATOM      4  O   UNL     1      45.661  26.059   6.600  1.00  0.00    -0.550 OA
ENDBRANCH   1   2
BRANCH   1   5
ATOM      5  C   UNL     1      45.241  26.945   4.027  1.00  0.00     0.003 C 
ATOM      6  C   UNL     1      44.883  26.190   2.750  1.00  0.00     0.004 C 
ENDBRANCH   1   5
TORSDOF 2
ENDMDL
MODEL 4
REMARK VINA RESULT:    -3.528      1.579      2.539
REMARK INTER + INTRA:          -3.980
REMARK INTER:                  -3.978
REMARK INTRA:                  -0.002
REMARK UNBOUND:                -0.039
REMARK SMILES CCCC(=O)[O-]
REMARK SMILES IDX 3 1 4 2 5 3 6 4 2 5 1 6
REMARK H PARENT
REMARK Flexibility Score: inf
ROOT
ATOM      1  C   UNL     1      44.460  26.981   5.818  1.00  0.00     0.052 C 
ENDROOT
BRANCH   1   2
ATOM      2  C   UNL     1      45.864  26.749   6.282  1.00  0.00     0.041 C 
ATOM      3  O   UNL     1      46.410  27.559   7.078  1.00  0.00    -0.550 OA
ATOM      4  O   UNL     1      46.554  25.614   5.874  1.00  0.00    -0.550 OA
ENDBRANCH   1   2
BRANCH   1   5
ATOM      5  C   UNL     1      43.496  26.971   7.006  1.00  0.00     0.003 C 
ATOM      6  C   UNL     1      43.709  25.737   7.878  1.00  0.00     0.004 C 
ENDBRANCH   1   5
TORSDOF 2
ENDMDL
MODEL 5
REMARK VINA RESULT:    -3.414     13.138     13.575
REMARK INTER + INTRA:          -3.853
REMARK INTER:                  -3.820
REMARK INTRA:                  -0.033
REMARK UNBOUND:                -0.039
REMARK SMILES CCCC(=O)[O-]
REMARK SMILES IDX 3 1 4 2 5 3 6 4 2 5 1 6
REMARK H PARENT
REMARK Flexibility Score: inf
ROOT
ATOM      1  C   UNL     1      39.465  21.834  17.035  1.00  0.00     0.052 C 
ENDROOT
BRANCH   1   2
ATOM      2  C   UNL     1      40.646  22.511  17.657  1.00  0.00     0.041 C 
ATOM      3  O   UNL     1      41.812  22.097  17.420  1.00  0.00    -0.550 OA
ATOM      4  O   UNL     1      40.463  23.630  18.460  1.00  0.00    -0.550 OA
ENDBRANCH   1   2
BRANCH   1   5
ATOM      5  C   UNL     1      38.356  22.849  16.751  1.00  0.00     0.003 C 
ATOM      6  C   UNL     1      37.168  22.643  17.687  1.00  0.00     0.004 C 
ENDBRANCH   1   5
TORSDOF 2
ENDMDL
MODEL 6
REMARK VINA RESULT:    -3.401     13.090     13.598
REMARK INTER + INTRA:          -3.838
REMARK INTER:                  -3.800
REMARK INTRA:                  -0.038
REMARK UNBOUND:                -0.039
REMARK SMILES CCCC(=O)[O-]
REMARK SMILES IDX 3 1 4 2 5 3 6 4 2 5 1 6
REMARK H PARENT
REMARK Flexibility Score: inf
ROOT
ATOM      1  C   UNL     1      39.439  21.832  17.095  1.00  0.00     0.052 C 
ENDROOT
BRANCH   1   2
ATOM      2  C   UNL     1      40.613  22.559  17.673  1.00  0.00     0.041 C 
ATOM      3  O   UNL     1      40.435  23.520  18.467  1.00  0.00    -0.550 OA
ATOM      4  O   UNL     1      41.904  22.144  17.373  1.00  0.00    -0.550 OA
ENDBRANCH   1   2
BRANCH   1   5
ATOM      5  C   UNL     1      38.351  22.823  16.675  1.00  0.00     0.003 C 
ATOM      6  C   UNL     1      37.095  22.655  17.527  1.00  0.00     0.004 C 
ENDBRANCH   1   5
TORSDOF 2
ENDMDL
MODEL 7
REMARK VINA RESULT:    -3.306     13.576     14.049
REMARK INTER + INTRA:          -3.732
REMARK INTER:                  -3.721
REMARK INTRA:                  -0.011
REMARK UNBOUND:                -0.039
REMARK SMILES CCCC(=O)[O-]
REMARK SMILES IDX 3 1 4 2 5 3 6 4 2 5 1 6
REMARK H PARENT
REMARK Flexibility Score: inf
ROOT
ATOM      1  C   UNL     1      39.171  21.937  17.162  1.00  0.00     0.052 C 
ENDROOT
BRANCH   1   2
ATOM      2  C   UNL     1      37.850  22.567  17.477  1.00  0.00     0.041 C 
ATOM      3  O   UNL     1      37.778  23.801  17.717  1.00  0.00    -0.550 OA
ATOM      4  O   UNL     1      36.692  21.800  17.460  1.00  0.00    -0.550 OA
ENDBRANCH   1   2
BRANCH   1   5
ATOM      5  C   UNL     1      40.317  22.844  17.616  1.00  0.00     0.003 C 
ATOM      6  C   UNL     1      41.656  22.114  17.550  1.00  0.00     0.004 C 
ENDBRANCH   1   5
TORSDOF 2
ENDMDL
MODEL 8
REMARK VINA RESULT:    -3.282     13.372     13.867
REMARK INTER + INTRA:          -3.705
REMARK INTER:                  -3.680
REMARK INTRA:                  -0.025
REMARK UNBOUND:                -0.039
REMARK SMILES CCCC(=O)[O-]
REMARK SMILES IDX 3 1 4 2 5 3 6 4 2 5 1 6
REMARK H PARENT
REMARK Flexibility Score: inf
ROOT
ATOM      1  C   UNL     1      38.997  24.005  17.968  1.00  0.00     0.052 C 
ENDROOT
BRANCH   1   2
ATOM      2  C   UNL     1      40.338  23.641  18.525  1.00  0.00     0.041 C 
ATOM      3  O   UNL     1      41.011  22.714  18.003  1.00  0.00    -0.550 OA
ATOM      4  O   UNL     1      40.865  24.359  19.592  1.00  0.00    -0.550 OA
ENDBRANCH   1   2
BRANCH   1   5
ATOM      5  C   UNL     1      38.557  22.979  16.921  1.00  0.00     0.003 C 
ATOM      6  C   UNL     1      37.141  22.483  17.197  1.00  0.00     0.004 C 
ENDBRANCH   1   5
TORSDOF 2
ENDMDL
MODEL 9
REMARK VINA RESULT:    -3.092     13.624     14.040
REMARK INTER + INTRA:          -3.493
REMARK INTER:                  -3.483
REMARK INTRA:                  -0.010
REMARK UNBOUND:                -0.039
REMARK SMILES CCCC(=O)[O-]
REMARK SMILES IDX 3 1 4 2 5 3 6 4 2 5 1 6
REMARK H PARENT
REMARK Flexibility Score: inf
ROOT
ATOM      1  C   UNL     1      39.030  23.861  17.952  1.00  0.00     0.052 C 
ENDROOT
BRANCH   1   2
ATOM      2  C   UNL     1      38.409  22.765  17.144  1.00  0.00     0.041 C 
ATOM      3  O   UNL     1      37.216  22.863  16.754  1.00  0.00    -0.550 OA
ATOM      4  O   UNL     1      39.164  21.656  16.781  1.00  0.00    -0.550 OA
ENDBRANCH   1   2
BRANCH   1   5
ATOM      5  C   UNL     1      40.414  23.438  18.452  1.00  0.00     0.003 C 
ATOM      6  C   UNL     1      40.943  24.414  19.499  1.00  0.00     0.004 C 
ENDBRANCH   1   5
TORSDOF 2
ENDMDL
