MODEL 1
REMARK VINA RESULT:    -3.907      0.000      0.000
REMARK INTER + INTRA:          -5.077
REMARK INTER:                  -4.821
REMARK INTRA:                  -0.256
REMARK UNBOUND:                -0.256
REMARK SMILES C=CC[C@@H](C)C(=O)CC
REMARK SMILES IDX 4 1 5 2 6 3 7 4 8 5 9 6 3 7 2 8 1 9
REMARK H PARENT
REMARK Flexibility Score: inf
ROOT
ATOM      1  C   UNL     1      40.434 -40.823  -4.560  1.00  0.00     0.057 C 
ATOM      2  C   UNL     1      41.245 -40.277  -3.375  1.00  0.00     0.016 C 
ENDROOT
BRANCH   1   3
ATOM      3  C   UNL     1      39.539 -39.734  -5.112  1.00  0.00     0.135 C 
ATOM      4  O   UNL     1      39.921 -38.572  -5.102  1.00  0.00    -0.299 OA
BRANCH   3   5
ATOM      5  C   UNL     1      38.182 -40.055  -5.683  1.00  0.00     0.072 C 
ATOM      6  C   UNL     1      37.412 -40.988  -4.756  1.00  0.00     0.012 C 
ENDBRANCH   3   5
ENDBRANCH   1   3
BRANCH   1   7
ATOM      7  C   UNL     1      41.347 -41.369  -5.675  1.00  0.00     0.038 C 
BRANCH   7   8
ATOM      8  C   UNL     1      42.804 -41.200  -5.329  1.00  0.00    -0.034 C 
ATOM      9  C   UNL     1      43.740 -42.039  -5.783  1.00  0.00     0.004 C 
ENDBRANCH   7   8
ENDBRANCH   1   7
TORSDOF 4
ENDMDL
MODEL 2
REMARK VINA RESULT:    -3.850      1.939      3.472
REMARK INTER + INTRA:          -5.007
REMARK INTER:                  -4.784
REMARK INTRA:                  -0.222
REMARK UNBOUND:                -0.256
REMARK SMILES C=CC[C@@H](C)C(=O)CC
REMARK SMILES IDX 4 1 5 2 6 3 7 4 8 5 9 6 3 7 2 8 1 9
REMARK H PARENT
REMARK Flexibility Score: inf
ROOT
ATOM      1  C   UNL     1      41.659 -40.156  -4.495  1.00  0.00     0.057 C 
ATOM      2  C   UNL     1      40.563 -40.972  -5.196  1.00  0.00     0.016 C 
ENDROOT
BRANCH   1   3
ATOM      3  C   UNL     1      41.456 -40.207  -2.996  1.00  0.00     0.135 C 
ATOM      4  O   UNL     1      40.463 -40.756  -2.537  1.00  0.00    -0.299 OA
BRANCH   3   5
ATOM      5  C   UNL     1      42.459 -39.598  -2.051  1.00  0.00     0.072 C 
ATOM      6  C   UNL     1      43.101 -40.672  -1.180  1.00  0.00     0.012 C 
ENDBRANCH   3   5
ENDBRANCH   1   3
BRANCH   1   7
ATOM      7  C   UNL     1      43.069 -40.667  -4.853  1.00  0.00     0.038 C 
BRANCH   7   8
ATOM      8  C   UNL     1      43.012 -41.799  -5.845  1.00  0.00    -0.034 C 
ATOM      9  C   UNL     1      44.113 -42.441  -6.248  1.00  0.00     0.004 C 
ENDBRANCH   7   8
ENDBRANCH   1   7
TORSDOF 4
ENDMDL
MODEL 3
REMARK VINA RESULT:    -3.849      1.423      1.942
REMARK INTER + INTRA:          -5.005
REMARK INTER:                  -4.772
REMARK INTRA:                  -0.233
REMARK UNBOUND:                -0.256
REMARK SMILES C=CC[C@@H](C)C(=O)CC
REMARK SMILES IDX 4 1 5 2 6 3 7 4 8 5 9 6 3 7 2 8 1 9
REMARK H PARENT
REMARK Flexibility Score: inf
ROOT
ATOM      1  C   UNL     1      42.184 -40.452  -4.071  1.00  0.00     0.057 C 
ATOM      2  C   UNL     1      42.589 -38.980  -4.229  1.00  0.00     0.016 C 
ENDROOT
BRANCH   1   3
ATOM      3  C   UNL     1      40.742 -40.542  -3.619  1.00  0.00     0.135 C 
ATOM      4  O   UNL     1      40.448 -40.241  -2.469  1.00  0.00    -0.299 OA
BRANCH   3   5
ATOM      5  C   UNL     1      39.655 -40.987  -4.561  1.00  0.00     0.072 C 
ATOM      6  C   UNL     1      39.013 -39.789  -5.251  1.00  0.00     0.012 C 
ENDBRANCH   3   5
ENDBRANCH   1   3
BRANCH   1   7
ATOM      7  C   UNL     1      42.375 -41.241  -5.381  1.00  0.00     0.038 C 
BRANCH   7   8
ATOM      8  C   UNL     1      43.795 -41.720  -5.537  1.00  0.00    -0.034 C 
ATOM      9  C   UNL     1      44.125 -42.683  -6.403  1.00  0.00     0.004 C 
ENDBRANCH   7   8
ENDBRANCH   1   7
TORSDOF 4
ENDMDL
MODEL 4
REMARK VINA RESULT:    -3.722      1.884      3.185
REMARK INTER + INTRA:          -4.849
REMARK INTER:                  -4.413
REMARK INTRA:                  -0.436
REMARK UNBOUND:                -0.256
REMARK SMILES C=CC[C@@H](C)C(=O)CC
REMARK SMILES IDX 4 1 5 2 6 3 7 4 8 5 9 6 3 7 2 8 1 9
REMARK H PARENT
REMARK Flexibility Score: inf
ROOT
ATOM      1  C   UNL     1      42.738 -40.761  -5.040  1.00  0.00     0.057 C 
ATOM      2  C   UNL     1      43.864 -41.784  -5.249  1.00  0.00     0.016 C 
ENDROOT
BRANCH   1   3
ATOM      3  C   UNL     1      41.425 -41.339  -5.522  1.00  0.00     0.135 C 
ATOM      4  O   UNL     1      41.421 -42.168  -6.422  1.00  0.00    -0.299 OA
BRANCH   3   5
ATOM      5  C   UNL     1      40.115 -40.920  -4.907  1.00  0.00     0.072 C 
ATOM      6  C   UNL     1      39.441 -39.845  -5.752  1.00  0.00     0.012 C 
ENDBRANCH   3   5
ENDBRANCH   1   3
BRANCH   1   7
ATOM      7  C   UNL     1      42.617 -40.338  -3.563  1.00  0.00     0.038 C 
BRANCH   7   8
ATOM      8  C   UNL     1      42.911 -38.871  -3.383  1.00  0.00    -0.034 C 
ATOM      9  C   UNL     1      42.254 -37.929  -4.068  1.00  0.00     0.004 C 
ENDBRANCH   7   8
ENDBRANCH   1   7
TORSDOF 4
ENDMDL
MODEL 5
REMARK VINA RESULT:    -3.700      1.600      4.165
REMARK INTER + INTRA:          -4.821
REMARK INTER:                  -4.606
REMARK INTRA:                  -0.216
REMARK UNBOUND:                -0.256
REMARK SMILES C=CC[C@@H](C)C(=O)CC
REMARK SMILES IDX 4 1 5 2 6 3 7 4 8 5 9 6 3 7 2 8 1 9
REMARK H PARENT
REMARK Flexibility Score: inf
ROOT
ATOM      1  C   UNL     1      40.843 -40.192  -4.205  1.00  0.00     0.057 C 
ATOM      2  C   UNL     1      40.507 -40.428  -2.725  1.00  0.00     0.016 C 
ENDROOT
BRANCH   1   3
ATOM      3  C   UNL     1      42.234 -40.711  -4.503  1.00  0.00     0.135 C 
ATOM      4  O   UNL     1      43.149 -40.475  -3.725  1.00  0.00    -0.299 OA
BRANCH   3   5
ATOM      5  C   UNL     1      42.515 -41.522  -5.741  1.00  0.00     0.072 C 
ATOM      6  C   UNL     1      43.948 -42.040  -5.734  1.00  0.00     0.012 C 
ENDBRANCH   3   5
ENDBRANCH   1   3
BRANCH   1   7
ATOM      7  C   UNL     1      39.818 -40.866  -5.138  1.00  0.00     0.038 C 
BRANCH   7   8
ATOM      8  C   UNL     1      38.597 -41.321  -4.381  1.00  0.00    -0.034 C 
ATOM      9  C   UNL     1      37.360 -41.016  -4.787  1.00  0.00     0.004 C 
ENDBRANCH   7   8
ENDBRANCH   1   7
TORSDOF 4
ENDMDL
MODEL 6
REMARK VINA RESULT:    -3.652      1.613      2.655
REMARK INTER + INTRA:          -4.763
REMARK INTER:                  -4.473
REMARK INTRA:                  -0.290
REMARK UNBOUND:                -0.256
REMARK SMILES C=CC[C@@H](C)C(=O)CC
REMARK SMILES IDX 4 1 5 2 6 3 7 4 8 5 9 6 3 7 2 8 1 9
REMARK H PARENT
REMARK Flexibility Score: inf
ROOT
ATOM      1  C   UNL     1      40.301 -40.239  -5.108  1.00  0.00     0.057 C 
ATOM      2  C   UNL     1      39.216 -39.829  -6.114  1.00  0.00     0.016 C 
ENDROOT
BRANCH   1   3
ATOM      3  C   UNL     1      39.656 -40.707  -3.821  1.00  0.00     0.135 C 
ATOM      4  O   UNL     1      38.947 -41.704  -3.825  1.00  0.00    -0.299 OA
BRANCH   3   5
ATOM      5  C   UNL     1      39.877 -39.970  -2.525  1.00  0.00     0.072 C 
ATOM      6  C   UNL     1      41.219 -40.349  -1.910  1.00  0.00     0.012 C 
ENDBRANCH   3   5
ENDBRANCH   1   3
BRANCH   1   7
ATOM      7  C   UNL     1      41.215 -41.346  -5.671  1.00  0.00     0.038 C 
BRANCH   7   8
ATOM      8  C   UNL     1      42.646 -41.153  -5.243  1.00  0.00    -0.034 C 
ATOM      9  C   UNL     1      43.635 -41.920  -5.714  1.00  0.00     0.004 C 
ENDBRANCH   7   8
ENDBRANCH   1   7
TORSDOF 4
ENDMDL
MODEL 7
REMARK VINA RESULT:    -3.595      1.528      4.134
REMARK INTER + INTRA:          -4.692
REMARK INTER:                  -4.458
REMARK INTRA:                  -0.234
REMARK UNBOUND:                -0.256
REMARK SMILES C=CC[C@@H](C)C(=O)CC
REMARK SMILES IDX 4 1 5 2 6 3 7 4 8 5 9 6 3 7 2 8 1 9
REMARK H PARENT
REMARK Flexibility Score: inf
ROOT
ATOM      1  C   UNL     1      40.198 -40.264  -4.426  1.00  0.00     0.057 C 
ATOM      2  C   UNL     1      39.097 -41.301  -4.163  1.00  0.00     0.016 C 
ENDROOT
BRANCH   1   3
ATOM      3  C   UNL     1      41.368 -40.925  -5.125  1.00  0.00     0.135 C 
ATOM      4  O   UNL     1      41.163 -41.688  -6.060  1.00  0.00    -0.299 OA
BRANCH   3   5
ATOM      5  C   UNL     1      42.786 -40.656  -4.695  1.00  0.00     0.072 C 
ATOM      6  C   UNL     1      43.741 -41.670  -5.315  1.00  0.00     0.012 C 
ENDBRANCH   3   5
ENDBRANCH   1   3
BRANCH   1   7
ATOM      7  C   UNL     1      39.681 -39.082  -5.270  1.00  0.00     0.038 C 
BRANCH   7   8
ATOM      8  C   UNL     1      38.502 -39.482  -6.118  1.00  0.00    -0.034 C 
ATOM      9  C   UNL     1      38.543 -39.433  -7.453  1.00  0.00     0.004 C 
ENDBRANCH   7   8
ENDBRANCH   1   7
TORSDOF 4
ENDMDL
MODEL 8
REMARK VINA RESULT:    -3.576      1.434      3.796
REMARK INTER + INTRA:          -4.669
REMARK INTER:                  -4.269
REMARK INTRA:                  -0.399
REMARK UNBOUND:                -0.256
REMARK SMILES C=CC[C@@H](C)C(=O)CC
REMARK SMILES IDX 4 1 5 2 6 3 7 4 8 5 9 6 3 7 2 8 1 9
REMARK H PARENT
REMARK Flexibility Score: inf
ROOT
ATOM      1  C   UNL     1      42.474 -41.224  -4.796  1.00  0.00     0.057 C 
ATOM      2  C   UNL     1      43.747 -41.553  -5.589  1.00  0.00     0.016 C 
ENDROOT
BRANCH   1   3
ATOM      3  C   UNL     1      42.687 -39.963  -3.985  1.00  0.00     0.135 C 
ATOM      4  O   UNL     1      42.708 -38.877  -4.547  1.00  0.00    -0.299 OA
BRANCH   3   5
ATOM      5  C   UNL     1      42.867 -40.018  -2.490  1.00  0.00     0.072 C 
ATOM      6  C   UNL     1      41.525 -40.202  -1.790  1.00  0.00     0.012 C 
ENDBRANCH   3   5
ENDBRANCH   1   3
BRANCH   1   7
ATOM      7  C   UNL     1      41.252 -41.055  -5.720  1.00  0.00     0.038 C 
BRANCH   7   8
ATOM      8  C   UNL     1      39.961 -41.112  -4.945  1.00  0.00    -0.034 C 
ATOM      9  C   UNL     1      39.014 -40.178  -5.079  1.00  0.00     0.004 C 
ENDBRANCH   7   8
ENDBRANCH   1   7
TORSDOF 4
ENDMDL
MODEL 9
REMARK VINA RESULT:    -3.314      1.110      4.242
REMARK INTER + INTRA:          -4.346
REMARK INTER:                  -4.162
REMARK INTRA:                  -0.183
REMARK UNBOUND:                -0.256
REMARK SMILES C=CC[C@@H](C)C(=O)CC
REMARK SMILES IDX 4 1 5 2 6 3 7 4 8 5 9 6 3 7 2 8 1 9
REMARK H PARENT
REMARK Flexibility Score: inf
ROOT
ATOM      1  C   UNL     1      39.936 -40.704  -5.334  1.00  0.00     0.057 C 
ATOM      2  C   UNL     1      39.267 -39.809  -6.388  1.00  0.00     0.016 C 
ENDROOT
BRANCH   1   3
ATOM      3  C   UNL     1      41.071 -39.953  -4.670  1.00  0.00     0.135 C 
ATOM      4  O   UNL     1      40.944 -38.762  -4.418  1.00  0.00    -0.299 OA
BRANCH   3   5
ATOM      5  C   UNL     1      42.356 -40.648  -4.303  1.00  0.00     0.072 C 
ATOM      6  C   UNL     1      42.918 -41.411  -5.497  1.00  0.00     0.012 C 
ENDBRANCH   3   5
ENDBRANCH   1   3
BRANCH   1   7
ATOM      7  C   UNL     1      38.929 -41.185  -4.271  1.00  0.00     0.038 C 
BRANCH   7   8
ATOM      8  C   UNL     1      37.507 -40.990  -4.728  1.00  0.00    -0.034 C 
ATOM      9  C   UNL     1      36.637 -40.248  -4.035  1.00  0.00     0.004 C 
ENDBRANCH   7   8
ENDBRANCH   1   7
TORSDOF 4
ENDMDL
