MODEL 1
REMARK VINA RESULT:    -4.675      0.000      0.000
REMARK INTER + INTRA:         -11.675
REMARK INTER:                  -8.775
REMARK INTRA:                  -2.900
REMARK UNBOUND:                -2.900
REMARK SMILES CCCCCCCCC=CCCCCCCCC(=O)[O-]
REMARK SMILES IDX 10 1 9 2 11 3 12 4 13 5 14 6 15 7 16 8 17 9 18 10 19 11
REMARK SMILES IDX 20 12 8 13 7 14 6 15 5 16 4 17 3 18 2 19 1 20
REMARK H PARENT
REMARK Flexibility Score: inf
ROOT
ATOM      1  C   UNL     1       6.940  -2.989   4.229  1.00  0.00    -0.031 C 
ATOM      2  C   UNL     1       5.948  -2.579   3.417  1.00  0.00    -0.031 C 
ENDROOT
BRANCH   1   3
ATOM      3  C   UNL     1       8.336  -3.335   3.774  1.00  0.00     0.027 C 
BRANCH   3   4
ATOM      4  C   UNL     1       9.328  -2.184   4.013  1.00  0.00     0.004 C 
BRANCH   4   5
ATOM      5  C   UNL     1       9.153  -1.453   5.361  1.00  0.00     0.000 C 
BRANCH   5   6
ATOM      6  C   UNL     1       9.330   0.075   5.300  1.00  0.00     0.000 C 
BRANCH   6   7
ATOM      7  C   UNL     1       8.191   0.836   5.999  1.00  0.00     0.000 C 
BRANCH   7   8
ATOM      8  C   UNL     1       6.807   0.529   5.394  1.00  0.00     0.006 C 
BRANCH   8   9
ATOM      9  C   UNL     1       5.867  -0.229   6.346  1.00  0.00     0.053 C 
BRANCH   9  10
ATOM     10  C   UNL     1       4.433  -0.156   5.921  1.00  0.00     0.041 C 
ATOM     11  O   UNL     1       3.514  -0.424   6.738  1.00  0.00    -0.550 OA
ATOM     12  O   UNL     1       4.113   0.204   4.618  1.00  0.00    -0.550 OA
ENDBRANCH   9  10
ENDBRANCH   8   9
ENDBRANCH   7   8
ENDBRANCH   6   7
ENDBRANCH   5   6
ENDBRANCH   4   5
ENDBRANCH   3   4
ENDBRANCH   1   3
BRANCH   2  13
ATOM     13  C   UNL     1       6.042  -2.504   1.912  1.00  0.00     0.027 C 
BRANCH  13  14
ATOM     14  C   UNL     1       5.475  -1.186   1.359  1.00  0.00     0.004 C 
BRANCH  14  15
ATOM     15  C   UNL     1       6.247   0.077   1.794  1.00  0.00     0.000 C 
BRANCH  15  16
ATOM     16  C   UNL     1       7.765   0.033   1.540  1.00  0.00     0.000 C 
BRANCH  16  17
ATOM     17  C   UNL     1       8.488   1.302   2.016  1.00  0.00    -0.000 C 
BRANCH  17  18
ATOM     18  C   UNL     1       7.545   2.512   1.991  1.00  0.00    -0.000 C 
BRANCH  18  19
ATOM     19  C   UNL     1       7.866   3.434   0.808  1.00  0.00    -0.003 C 
ATOM     20  C   UNL     1       6.797   3.331  -0.276  1.00  0.00     0.004 C 
ENDBRANCH  18  19
ENDBRANCH  17  18
ENDBRANCH  16  17
ENDBRANCH  15  16
ENDBRANCH  14  15
ENDBRANCH  13  14
ENDBRANCH   2  13
TORSDOF 15
ENDMDL
MODEL 2
REMARK VINA RESULT:    -4.626      2.492      3.715
REMARK INTER + INTRA:         -11.583
REMARK INTER:                  -8.949
REMARK INTRA:                  -2.634
REMARK UNBOUND:                -2.900
REMARK SMILES CCCCCCCCC=CCCCCCCCC(=O)[O-]
REMARK SMILES IDX 10 1 9 2 11 3 12 4 13 5 14 6 15 7 16 8 17 9 18 10 19 11
REMARK SMILES IDX 20 12 8 13 7 14 6 15 5 16 4 17 3 18 2 19 1 20
REMARK H PARENT
REMARK Flexibility Score: inf
ROOT
ATOM      1  C   UNL     1       7.489   1.090   5.767  1.00  0.00    -0.031 C 
ATOM      2  C   UNL     1       6.337   1.125   5.073  1.00  0.00    -0.031 C 
ENDROOT
BRANCH   1   3
ATOM      3  C   UNL     1       8.441  -0.080   5.796  1.00  0.00     0.027 C 
BRANCH   3   4
ATOM      4  C   UNL     1       9.444  -0.043   4.630  1.00  0.00     0.004 C 
BRANCH   4   5
ATOM      5  C   UNL     1       9.592  -1.377   3.867  1.00  0.00     0.000 C 
BRANCH   5   6
ATOM      6  C   UNL     1       9.306  -2.638   4.702  1.00  0.00     0.000 C 
BRANCH   6   7
ATOM      7  C   UNL     1       8.124  -3.458   4.159  1.00  0.00     0.000 C 
BRANCH   7   8
ATOM      8  C   UNL     1       6.882  -3.394   5.071  1.00  0.00     0.006 C 
BRANCH   8   9
ATOM      9  C   UNL     1       7.196  -3.600   6.562  1.00  0.00     0.053 C 
BRANCH   9  10
ATOM     10  C   UNL     1       7.648  -4.994   6.870  1.00  0.00     0.041 C 
ATOM     11  O   UNL     1       8.548  -5.196   7.725  1.00  0.00    -0.550 OA
ATOM     12  O   UNL     1       7.076  -6.072   6.204  1.00  0.00    -0.550 OA
ENDBRANCH   9  10
ENDBRANCH   8   9
ENDBRANCH   7   8
ENDBRANCH   6   7
ENDBRANCH   5   6
ENDBRANCH   4   5
ENDBRANCH   3   4
ENDBRANCH   1   3
BRANCH   2  13
ATOM     13  C   UNL     1       5.762  -0.036   4.300  1.00  0.00     0.027 C 
BRANCH  13  14
ATOM     14  C   UNL     1       5.611   0.279   2.802  1.00  0.00     0.004 C 
BRANCH  14  15
ATOM     15  C   UNL     1       6.678  -0.375   1.900  1.00  0.00     0.000 C 
BRANCH  15  16
ATOM     16  C   UNL     1       7.762   0.583   1.371  1.00  0.00     0.000 C 
BRANCH  16  17
ATOM     17  C   UNL     1       7.584   2.023   1.873  1.00  0.00    -0.000 C 
BRANCH  17  18
ATOM     18  C   UNL     1       7.726   3.027   0.723  1.00  0.00    -0.000 C 
BRANCH  18  19
ATOM     19  C   UNL     1       6.450   3.076  -0.125  1.00  0.00    -0.003 C 
ATOM     20  C   UNL     1       6.704   2.549  -1.534  1.00  0.00     0.004 C 
ENDBRANCH  18  19
ENDBRANCH  17  18
ENDBRANCH  16  17
ENDBRANCH  15  16
ENDBRANCH  14  15
ENDBRANCH  13  14
ENDBRANCH   2  13
TORSDOF 15
ENDMDL
MODEL 3
REMARK VINA RESULT:    -4.555      2.541      3.296
REMARK INTER + INTRA:         -11.448
REMARK INTER:                  -8.859
REMARK INTRA:                  -2.590
REMARK UNBOUND:                -2.900
REMARK SMILES CCCCCCCCC=CCCCCCCCC(=O)[O-]
REMARK SMILES IDX 10 1 9 2 11 3 12 4 13 5 14 6 15 7 16 8 17 9 18 10 19 11
REMARK SMILES IDX 20 12 8 13 7 14 6 15 5 16 4 17 3 18 2 19 1 20
REMARK H PARENT
REMARK Flexibility Score: inf
ROOT
ATOM      1  C   UNL     1       8.983  -2.752   3.880  1.00  0.00    -0.031 C 
ATOM      2  C   UNL     1       7.770  -3.332   3.862  1.00  0.00    -0.031 C 
ENDROOT
BRANCH   1   3
ATOM      3  C   UNL     1       9.225  -1.263   3.896  1.00  0.00     0.027 C 
BRANCH   3   4
ATOM      4  C   UNL     1       9.217  -0.687   5.323  1.00  0.00     0.004 C 
BRANCH   4   5
ATOM      5  C   UNL     1       8.028   0.246   5.633  1.00  0.00     0.000 C 
BRANCH   5   6
ATOM      6  C   UNL     1       7.028  -0.296   6.670  1.00  0.00     0.000 C 
BRANCH   6   7
ATOM      7  C   UNL     1       7.603  -1.449   7.509  1.00  0.00     0.000 C 
BRANCH   7   8
ATOM      8  C   UNL     1       6.777  -2.745   7.392  1.00  0.00     0.006 C 
BRANCH   8   9
ATOM      9  C   UNL     1       7.632  -4.020   7.301  1.00  0.00     0.053 C 
BRANCH   9  10
ATOM     10  C   UNL     1       6.808  -5.253   7.091  1.00  0.00     0.041 C 
ATOM     11  O   UNL     1       7.233  -6.183   6.359  1.00  0.00    -0.550 OA
ATOM     12  O   UNL     1       5.566  -5.370   7.703  1.00  0.00    -0.550 OA
ENDBRANCH   9  10
ENDBRANCH   8   9
ENDBRANCH   7   8
ENDBRANCH   6   7
ENDBRANCH   5   6
ENDBRANCH   4   5
ENDBRANCH   3   4
ENDBRANCH   1   3
BRANCH   2  13
ATOM     13  C   UNL     1       6.461  -2.589   3.748  1.00  0.00     0.027 C 
BRANCH  13  14
ATOM     14  C   UNL     1       5.973  -2.490   2.293  1.00  0.00     0.004 C 
BRANCH  14  15
ATOM     15  C   UNL     1       6.262  -1.138   1.611  1.00  0.00     0.000 C 
BRANCH  15  16
ATOM     16  C   UNL     1       5.901   0.105   2.445  1.00  0.00     0.000 C 
BRANCH  16  17
ATOM     17  C   UNL     1       6.807   1.309   2.148  1.00  0.00    -0.000 C 
BRANCH  17  18
ATOM     18  C   UNL     1       7.174   1.366   0.660  1.00  0.00    -0.000 C 
BRANCH  18  19
ATOM     19  C   UNL     1       6.337   2.421  -0.072  1.00  0.00    -0.003 C 
ATOM     20  C   UNL     1       6.796   2.582  -1.518  1.00  0.00     0.004 C 
ENDBRANCH  18  19
ENDBRANCH  17  18
ENDBRANCH  16  17
ENDBRANCH  15  16
ENDBRANCH  14  15
ENDBRANCH  13  14
ENDBRANCH   2  13
TORSDOF 15
ENDMDL
MODEL 4
REMARK VINA RESULT:    -4.539      1.693      3.593
REMARK INTER + INTRA:         -11.420
REMARK INTER:                  -8.527
REMARK INTRA:                  -2.893
REMARK UNBOUND:                -2.900
REMARK SMILES CCCCCCCCC=CCCCCCCCC(=O)[O-]
REMARK SMILES IDX 10 1 9 2 11 3 12 4 13 5 14 6 15 7 16 8 17 9 18 10 19 11
REMARK SMILES IDX 20 12 8 13 7 14 6 15 5 16 4 17 3 18 2 19 1 20
REMARK H PARENT
REMARK Flexibility Score: inf
ROOT
ATOM      1  C   UNL     1       9.063  -1.987   5.190  1.00  0.00    -0.031 C 
ATOM      2  C   UNL     1       9.112  -1.765   3.864  1.00  0.00    -0.031 C 
ENDROOT
BRANCH   1   3
ATOM      3  C   UNL     1       9.859  -1.223   6.219  1.00  0.00     0.027 C 
BRANCH   3   4
ATOM      4  C   UNL     1       8.996  -0.207   6.987  1.00  0.00     0.004 C 
BRANCH   4   5
ATOM      5  C   UNL     1       8.439   0.945   6.124  1.00  0.00     0.000 C 
BRANCH   5   6
ATOM      6  C   UNL     1       6.914   1.142   6.208  1.00  0.00     0.000 C 
BRANCH   6   7
ATOM      7  C   UNL     1       6.135   0.178   5.298  1.00  0.00     0.000 C 
BRANCH   7   8
ATOM      8  C   UNL     1       5.179  -0.743   6.081  1.00  0.00     0.006 C 
BRANCH   8   9
ATOM      9  C   UNL     1       5.877  -1.938   6.751  1.00  0.00     0.053 C 
BRANCH   9  10
ATOM     10  C   UNL     1       5.248  -3.249   6.391  1.00  0.00     0.041 C 
ATOM     11  O   UNL     1       4.514  -3.343   5.373  1.00  0.00    -0.550 OA
ATOM     12  O   UNL     1       5.470  -4.367   7.186  1.00  0.00    -0.550 OA
ENDBRANCH   9  10
ENDBRANCH   8   9
ENDBRANCH   7   8
ENDBRANCH   6   7
ENDBRANCH   5   6
ENDBRANCH   4   5
ENDBRANCH   3   4
ENDBRANCH   1   3
BRANCH   2  13
ATOM     13  C   UNL     1      10.048  -0.795   3.186  1.00  0.00     0.027 C 
BRANCH  13  14
ATOM     14  C   UNL     1       9.349   0.009   2.076  1.00  0.00     0.004 C 
BRANCH  14  15
ATOM     15  C   UNL     1       8.789   1.373   2.529  1.00  0.00     0.000 C 
BRANCH  15  16
ATOM     16  C   UNL     1       7.320   1.634   2.150  1.00  0.00     0.000 C 
BRANCH  16  17
ATOM     17  C   UNL     1       6.774   0.619   1.136  1.00  0.00    -0.000 C 
BRANCH  17  18
ATOM     18  C   UNL     1       5.527  -0.088   1.683  1.00  0.00    -0.000 C 
BRANCH  18  19
ATOM     19  C   UNL     1       5.466  -1.543   1.205  1.00  0.00    -0.003 C 
ATOM     20  C   UNL     1       5.948  -2.500   2.291  1.00  0.00     0.004 C 
ENDBRANCH  18  19
ENDBRANCH  17  18
ENDBRANCH  16  17
ENDBRANCH  15  16
ENDBRANCH  14  15
ENDBRANCH  13  14
ENDBRANCH   2  13
TORSDOF 15
ENDMDL
MODEL 5
REMARK VINA RESULT:    -4.537      2.744      5.688
REMARK INTER + INTRA:         -11.416
REMARK INTER:                  -8.729
REMARK INTRA:                  -2.687
REMARK UNBOUND:                -2.900
REMARK SMILES CCCCCCCCC=CCCCCCCCC(=O)[O-]
REMARK SMILES IDX 10 1 9 2 11 3 12 4 13 5 14 6 15 7 16 8 17 9 18 10 19 11
REMARK SMILES IDX 20 12 8 13 7 14 6 15 5 16 4 17 3 18 2 19 1 20
REMARK H PARENT
REMARK Flexibility Score: inf
ROOT
ATOM      1  C   UNL     1       9.519  -2.773   4.542  1.00  0.00    -0.031 C 
ATOM      2  C   UNL     1      10.124  -1.624   4.189  1.00  0.00    -0.031 C 
ENDROOT
BRANCH   1   3
ATOM      3  C   UNL     1       8.425  -3.447   3.752  1.00  0.00     0.027 C 
BRANCH   3   4
ATOM      4  C   UNL     1       7.037  -2.857   4.057  1.00  0.00     0.004 C 
BRANCH   4   5
ATOM      5  C   UNL     1       6.223  -2.450   2.811  1.00  0.00     0.000 C 
BRANCH   5   6
ATOM      6  C   UNL     1       5.895  -0.949   2.710  1.00  0.00     0.000 C 
BRANCH   6   7
ATOM      7  C   UNL     1       6.145  -0.376   1.306  1.00  0.00     0.000 C 
BRANCH   7   8
ATOM      8  C   UNL     1       5.962   1.153   1.242  1.00  0.00     0.006 C 
BRANCH   8   9
ATOM      9  C   UNL     1       7.119   1.888   0.543  1.00  0.00     0.053 C 
BRANCH   9  10
ATOM     10  C   UNL     1       6.655   2.740  -0.597  1.00  0.00     0.041 C 
ATOM     11  O   UNL     1       6.719   2.311  -1.778  1.00  0.00    -0.550 OA
ATOM     12  O   UNL     1       6.157   4.014  -0.353  1.00  0.00    -0.550 OA
ENDBRANCH   9  10
ENDBRANCH   8   9
ENDBRANCH   7   8
ENDBRANCH   6   7
ENDBRANCH   5   6
ENDBRANCH   4   5
ENDBRANCH   3   4
ENDBRANCH   1   3
BRANCH   2  13
ATOM     13  C   UNL     1       9.734  -0.774   3.005  1.00  0.00     0.027 C 
BRANCH  13  14
ATOM     14  C   UNL     1       8.992   0.505   3.427  1.00  0.00     0.004 C 
BRANCH  14  15
ATOM     15  C   UNL     1       8.829   0.678   4.951  1.00  0.00     0.000 C 
BRANCH  15  16
ATOM     16  C   UNL     1       7.381   0.871   5.436  1.00  0.00     0.000 C 
BRANCH  16  17
ATOM     17  C   UNL     1       7.121   0.238   6.811  1.00  0.00    -0.000 C 
BRANCH  17  18
ATOM     18  C   UNL     1       8.398   0.226   7.660  1.00  0.00    -0.000 C 
BRANCH  18  19
ATOM     19  C   UNL     1       8.876  -1.208   7.914  1.00  0.00    -0.003 C 
ATOM     20  C   UNL     1       7.717  -2.197   7.839  1.00  0.00     0.004 C 
ENDBRANCH  18  19
ENDBRANCH  17  18
ENDBRANCH  16  17
ENDBRANCH  15  16
ENDBRANCH  14  15
ENDBRANCH  13  14
ENDBRANCH   2  13
TORSDOF 15
ENDMDL
MODEL 6
REMARK VINA RESULT:    -4.527      1.515      2.972
REMARK INTER + INTRA:         -11.396
REMARK INTER:                  -8.471
REMARK INTRA:                  -2.925
REMARK UNBOUND:                -2.900
REMARK SMILES CCCCCCCCC=CCCCCCCCC(=O)[O-]
REMARK SMILES IDX 10 1 9 2 11 3 12 4 13 5 14 6 15 7 16 8 17 9 18 10 19 11
REMARK SMILES IDX 20 12 8 13 7 14 6 15 5 16 4 17 3 18 2 19 1 20
REMARK H PARENT
REMARK Flexibility Score: inf
ROOT
ATOM      1  C   UNL     1       8.472   0.414   5.256  1.00  0.00    -0.031 C 
ATOM      2  C   UNL     1       7.227   0.854   5.513  1.00  0.00    -0.031 C 
ENDROOT
BRANCH   1   3
ATOM      3  C   UNL     1       9.156   0.504   3.915  1.00  0.00     0.027 C 
BRANCH   3   4
ATOM      4  C   UNL     1       9.485  -0.882   3.335  1.00  0.00     0.004 C 
BRANCH   4   5
ATOM      5  C   UNL     1       9.154  -2.065   4.269  1.00  0.00     0.000 C 
BRANCH   5   6
ATOM      6  C   UNL     1       8.162  -3.091   3.693  1.00  0.00     0.000 C 
BRANCH   6   7
ATOM      7  C   UNL     1       6.750  -2.957   4.287  1.00  0.00     0.000 C 
BRANCH   7   8
ATOM      8  C   UNL     1       6.684  -3.364   5.773  1.00  0.00     0.006 C 
BRANCH   8   9
ATOM      9  C   UNL     1       5.891  -2.381   6.651  1.00  0.00     0.053 C 
BRANCH   9  10
ATOM     10  C   UNL     1       4.413  -2.474   6.429  1.00  0.00     0.041 C 
ATOM     11  O   UNL     1       3.689  -1.451   6.540  1.00  0.00    -0.550 OA
ATOM     12  O   UNL     1       3.835  -3.695   6.106  1.00  0.00    -0.550 OA
ENDBRANCH   9  10
ENDBRANCH   8   9
ENDBRANCH   7   8
ENDBRANCH   6   7
ENDBRANCH   5   6
ENDBRANCH   4   5
ENDBRANCH   3   4
ENDBRANCH   1   3
BRANCH   2  13
ATOM     13  C   UNL     1       6.278   1.408   4.479  1.00  0.00     0.027 C 
BRANCH  13  14
ATOM     14  C   UNL     1       5.382   0.318   3.868  1.00  0.00     0.004 C 
BRANCH  14  15
ATOM     15  C   UNL     1       5.208   0.414   2.338  1.00  0.00     0.000 C 
BRANCH  15  16
ATOM     16  C   UNL     1       6.354  -0.197   1.511  1.00  0.00     0.000 C 
BRANCH  16  17
ATOM     17  C   UNL     1       7.178   0.858   0.759  1.00  0.00    -0.000 C 
BRANCH  17  18
ATOM     18  C   UNL     1       6.591   2.260   0.963  1.00  0.00    -0.000 C 
BRANCH  18  19
ATOM     19  C   UNL     1       6.113   2.855  -0.367  1.00  0.00    -0.003 C 
ATOM     20  C   UNL     1       6.918   2.300  -1.539  1.00  0.00     0.004 C 
ENDBRANCH  18  19
ENDBRANCH  17  18
ENDBRANCH  16  17
ENDBRANCH  15  16
ENDBRANCH  14  15
ENDBRANCH  13  14
ENDBRANCH   2  13
TORSDOF 15
ENDMDL
MODEL 7
REMARK VINA RESULT:    -4.486      2.489      5.066
REMARK INTER + INTRA:         -11.319
REMARK INTER:                  -8.754
REMARK INTRA:                  -2.565
REMARK UNBOUND:                -2.900
REMARK SMILES CCCCCCCCC=CCCCCCCCC(=O)[O-]
REMARK SMILES IDX 10 1 9 2 11 3 12 4 13 5 14 6 15 7 16 8 17 9 18 10 19 11
REMARK SMILES IDX 20 12 8 13 7 14 6 15 5 16 4 17 3 18 2 19 1 20
REMARK H PARENT
REMARK Flexibility Score: inf
ROOT
ATOM      1  C   UNL     1       5.970   1.110   1.486  1.00  0.00    -0.031 C 
ATOM      2  C   UNL     1       7.245   1.307   1.106  1.00  0.00    -0.031 C 
ENDROOT
BRANCH   1   3
ATOM      3  C   UNL     1       5.473  -0.100   2.237  1.00  0.00     0.027 C 
BRANCH   3   4
ATOM      4  C   UNL     1       5.301  -1.324   1.322  1.00  0.00     0.004 C 
BRANCH   4   5
ATOM      5  C   UNL     1       5.944  -2.621   1.856  1.00  0.00     0.000 C 
BRANCH   5   6
ATOM      6  C   UNL     1       6.367  -2.576   3.336  1.00  0.00     0.000 C 
BRANCH   6   7
ATOM      7  C   UNL     1       7.669  -3.345   3.609  1.00  0.00     0.000 C 
BRANCH   7   8
ATOM      8  C   UNL     1       8.033  -3.395   5.106  1.00  0.00     0.006 C 
BRANCH   8   9
ATOM      9  C   UNL     1       6.925  -3.986   5.994  1.00  0.00     0.053 C 
BRANCH   9  10
ATOM     10  C   UNL     1       7.395  -5.159   6.798  1.00  0.00     0.041 C 
ATOM     11  O   UNL     1       7.028  -6.324   6.496  1.00  0.00    -0.550 OA
ATOM     12  O   UNL     1       8.234  -4.962   7.888  1.00  0.00    -0.550 OA
ENDBRANCH   9  10
ENDBRANCH   8   9
ENDBRANCH   7   8
ENDBRANCH   6   7
ENDBRANCH   5   6
ENDBRANCH   4   5
ENDBRANCH   3   4
ENDBRANCH   1   3
BRANCH   2  13
ATOM     13  C   UNL     1       8.359   0.302   1.276  1.00  0.00     0.027 C 
BRANCH  13  14
ATOM     14  C   UNL     1       9.245   0.617   2.493  1.00  0.00     0.004 C 
BRANCH  14  15
ATOM     15  C   UNL     1       9.745  -0.625   3.259  1.00  0.00     0.000 C 
BRANCH  15  16
ATOM     16  C   UNL     1       9.735  -0.494   4.793  1.00  0.00     0.000 C 
BRANCH  16  17
ATOM     17  C   UNL     1       8.884   0.686   5.287  1.00  0.00    -0.000 C 
BRANCH  17  18
ATOM     18  C   UNL     1       7.729   0.198   6.169  1.00  0.00    -0.000 C 
BRANCH  18  19
ATOM     19  C   UNL     1       6.374   0.583   5.563  1.00  0.00    -0.003 C 
ATOM     20  C   UNL     1       5.265  -0.340   6.060  1.00  0.00     0.004 C 
ENDBRANCH  18  19
ENDBRANCH  17  18
ENDBRANCH  16  17
ENDBRANCH  15  16
ENDBRANCH  14  15
ENDBRANCH  13  14
ENDBRANCH   2  13
TORSDOF 15
ENDMDL
MODEL 8
REMARK VINA RESULT:    -4.439      2.828      5.453
REMARK INTER + INTRA:         -11.232
REMARK INTER:                  -8.795
REMARK INTRA:                  -2.438
REMARK UNBOUND:                -2.900
REMARK SMILES CCCCCCCCC=CCCCCCCCC(=O)[O-]
REMARK SMILES IDX 10 1 9 2 11 3 12 4 13 5 14 6 15 7 16 8 17 9 18 10 19 11
REMARK SMILES IDX 20 12 8 13 7 14 6 15 5 16 4 17 3 18 2 19 1 20
REMARK H PARENT
REMARK Flexibility Score: inf
ROOT
ATOM      1  C   UNL     1       6.396  -3.283   4.911  1.00  0.00    -0.031 C 
ATOM      2  C   UNL     1       7.609  -3.851   5.035  1.00  0.00    -0.031 C 
ENDROOT
BRANCH   1   3
ATOM      3  C   UNL     1       6.072  -2.140   3.981  1.00  0.00     0.027 C 
BRANCH   3   4
ATOM      4  C   UNL     1       5.993  -2.590   2.512  1.00  0.00     0.004 C 
BRANCH   4   5
ATOM      5  C   UNL     1       5.964  -1.437   1.487  1.00  0.00     0.000 C 
BRANCH   5   6
ATOM      6  C   UNL     1       5.508  -0.078   2.050  1.00  0.00     0.000 C 
BRANCH   6   7
ATOM      7  C   UNL     1       5.817   1.094   1.104  1.00  0.00     0.000 C 
BRANCH   7   8
ATOM      8  C   UNL     1       7.292   1.539   1.164  1.00  0.00     0.006 C 
BRANCH   8   9
ATOM      9  C   UNL     1       7.520   2.992   0.714  1.00  0.00     0.053 C 
BRANCH   9  10
ATOM     10  C   UNL     1       6.804   3.320  -0.560  1.00  0.00     0.041 C 
ATOM     11  O   UNL     1       6.122   4.374  -0.651  1.00  0.00    -0.550 OA
ATOM     12  O   UNL     1       6.887   2.457  -1.645  1.00  0.00    -0.550 OA
ENDBRANCH   9  10
ENDBRANCH   8   9
ENDBRANCH   7   8
ENDBRANCH   6   7
ENDBRANCH   5   6
ENDBRANCH   4   5
ENDBRANCH   3   4
ENDBRANCH   1   3
BRANCH   2  13
ATOM     13  C   UNL     1       8.861  -3.368   4.346  1.00  0.00     0.027 C 
BRANCH  13  14
ATOM     14  C   UNL     1       9.844  -2.703   5.324  1.00  0.00     0.004 C 
BRANCH  14  15
ATOM     15  C   UNL     1      10.125  -1.214   5.036  1.00  0.00     0.000 C 
BRANCH  15  16
ATOM     16  C   UNL     1       9.324  -0.613   3.866  1.00  0.00     0.000 C 
BRANCH  16  17
ATOM     17  C   UNL     1       8.468   0.592   4.284  1.00  0.00    -0.000 C 
BRANCH  17  18
ATOM     18  C   UNL     1       8.524   0.805   5.802  1.00  0.00    -0.000 C 
BRANCH  18  19
ATOM     19  C   UNL     1       7.162   0.523   6.447  1.00  0.00    -0.003 C 
ATOM     20  C   UNL     1       7.225  -0.701   7.356  1.00  0.00     0.004 C 
ENDBRANCH  18  19
ENDBRANCH  17  18
ENDBRANCH  16  17
ENDBRANCH  15  16
ENDBRANCH  14  15
ENDBRANCH  13  14
ENDBRANCH   2  13
TORSDOF 15
ENDMDL
MODEL 9
REMARK VINA RESULT:    -4.434      2.276      3.064
REMARK INTER + INTRA:         -11.223
REMARK INTER:                  -8.395
REMARK INTRA:                  -2.828
REMARK UNBOUND:                -2.900
REMARK SMILES CCCCCCCCC=CCCCCCCCC(=O)[O-]
REMARK SMILES IDX 10 1 9 2 11 3 12 4 13 5 14 6 15 7 16 8 17 9 18 10 19 11
REMARK SMILES IDX 20 12 8 13 7 14 6 15 5 16 4 17 3 18 2 19 1 20
REMARK H PARENT
REMARK Flexibility Score: inf
ROOT
ATOM      1  C   UNL     1       7.256  -2.552   4.242  1.00  0.00    -0.031 C 
ATOM      2  C   UNL     1       6.208  -2.169   3.490  1.00  0.00    -0.031 C 
ENDROOT
BRANCH   1   3
ATOM      3  C   UNL     1       8.379  -3.438   3.765  1.00  0.00     0.027 C 
BRANCH   3   4
ATOM      4  C   UNL     1       9.711  -3.118   4.465  1.00  0.00     0.004 C 
BRANCH   4   5
ATOM      5  C   UNL     1       9.684  -3.274   6.000  1.00  0.00     0.000 C 
BRANCH   5   6
ATOM      6  C   UNL     1       9.836  -1.961   6.790  1.00  0.00     0.000 C 
BRANCH   6   7
ATOM      7  C   UNL     1       8.548  -1.554   7.525  1.00  0.00     0.000 C 
BRANCH   7   8
ATOM      8  C   UNL     1       7.791  -2.760   8.118  1.00  0.00     0.006 C 
BRANCH   8   9
ATOM      9  C   UNL     1       6.298  -2.797   7.748  1.00  0.00     0.053 C 
BRANCH   9  10
ATOM     10  C   UNL     1       5.856  -4.145   7.271  1.00  0.00     0.041 C 
ATOM     11  O   UNL     1       6.681  -4.934   6.741  1.00  0.00    -0.550 OA
ATOM     12  O   UNL     1       4.527  -4.528   7.407  1.00  0.00    -0.550 OA
ENDBRANCH   9  10
ENDBRANCH   8   9
ENDBRANCH   7   8
ENDBRANCH   6   7
ENDBRANCH   5   6
ENDBRANCH   4   5
ENDBRANCH   3   4
ENDBRANCH   1   3
BRANCH   2  13
ATOM     13  C   UNL     1       5.934  -2.650   2.086  1.00  0.00     0.027 C 
BRANCH  13  14
ATOM     14  C   UNL     1       5.487  -1.509   1.157  1.00  0.00     0.004 C 
BRANCH  14  15
ATOM     15  C   UNL     1       5.460  -0.116   1.820  1.00  0.00     0.000 C 
BRANCH  15  16
ATOM     16  C   UNL     1       6.243   0.978   1.072  1.00  0.00     0.000 C 
BRANCH  16  17
ATOM     17  C   UNL     1       7.547   1.372   1.781  1.00  0.00    -0.000 C 
BRANCH  17  18
ATOM     18  C   UNL     1       8.616   0.286   1.608  1.00  0.00    -0.000 C 
BRANCH  18  19
ATOM     19  C   UNL     1       9.449   0.126   2.885  1.00  0.00    -0.003 C 
ATOM     20  C   UNL     1       8.730   0.725   4.090  1.00  0.00     0.004 C 
ENDBRANCH  18  19
ENDBRANCH  17  18
ENDBRANCH  16  17
ENDBRANCH  15  16
ENDBRANCH  14  15
ENDBRANCH  13  14
ENDBRANCH   2  13
TORSDOF 15
ENDMDL
