MODEL 1
REMARK VINA RESULT:    -4.935      0.000      0.000
REMARK INTER + INTRA:          -5.607
REMARK INTER:                  -5.368
REMARK INTRA:                  -0.239
REMARK UNBOUND:                -0.239
REMARK SMILES O=C([O-])c1ccccc1O
REMARK SMILES IDX 4 1 9 2 5 3 8 4 6 5 7 6 2 7 1 8 3 9 10 10
REMARK H PARENT 10 11
REMARK Flexibility Score: inf
ROOT
ATOM      1  C   UNL     1       3.001  -2.519 -22.751  1.00  0.00     0.039 A 
ATOM      2  C   UNL     1       4.280  -2.630 -23.355  1.00  0.00     0.124 A 
ATOM      3  C   UNL     1       2.645  -1.308 -22.130  1.00  0.00     0.014 A 
ATOM      4  C   UNL     1       5.184  -1.564 -23.265  1.00  0.00     0.047 A 
ATOM      5  C   UNL     1       3.550  -0.245 -22.068  1.00  0.00     0.001 A 
ATOM      6  C   UNL     1       4.821  -0.378 -22.625  1.00  0.00     0.004 A 
ENDROOT
BRANCH   1   7
ATOM      7  C   UNL     1       2.038  -3.642 -22.719  1.00  0.00     0.075 C 
ATOM      8  O   UNL     1       2.453  -4.831 -22.726  1.00  0.00    -0.545 OA
ATOM      9  O   UNL     1       0.669  -3.405 -22.749  1.00  0.00    -0.545 OA
ENDBRANCH   1   7
BRANCH   2  10
ATOM     10  O   UNL     1       4.675  -3.759 -24.076  1.00  0.00    -0.507 OA
ATOM     11  H   UNL     1       4.847  -4.659 -23.650  1.00  0.00     0.293 HD
ENDBRANCH   2  10
TORSDOF 2
ENDMDL
MODEL 2
REMARK VINA RESULT:    -4.734      2.621      3.662
REMARK INTER + INTRA:          -5.389
REMARK INTER:                  -5.186
REMARK INTRA:                  -0.203
REMARK UNBOUND:                -0.239
REMARK SMILES O=C([O-])c1ccccc1O
REMARK SMILES IDX 4 1 9 2 5 3 8 4 6 5 7 6 2 7 1 8 3 9 10 10
REMARK H PARENT 10 11
REMARK Flexibility Score: inf
ROOT
ATOM      1  C   UNL     1       4.085  -0.926 -22.452  1.00  0.00     0.039 A 
ATOM      2  C   UNL     1       4.811  -1.877 -23.214  1.00  0.00     0.124 A 
ATOM      3  C   UNL     1       2.781  -1.246 -22.029  1.00  0.00     0.014 A 
ATOM      4  C   UNL     1       4.199  -3.082 -23.584  1.00  0.00     0.047 A 
ATOM      5  C   UNL     1       2.193  -2.461 -22.387  1.00  0.00     0.001 A 
ATOM      6  C   UNL     1       2.898  -3.373 -23.173  1.00  0.00     0.004 A 
ENDROOT
BRANCH   1   7
ATOM      7  C   UNL     1       4.632   0.407 -22.116  1.00  0.00     0.075 C 
ATOM      8  O   UNL     1       5.866   0.631 -22.233  1.00  0.00    -0.545 OA
ATOM      9  O   UNL     1       3.811   1.404 -21.604  1.00  0.00    -0.545 OA
ENDBRANCH   1   7
BRANCH   2  10
ATOM     10  O   UNL     1       6.141  -1.681 -23.591  1.00  0.00    -0.507 OA
ATOM     11  H   UNL     1       6.905  -1.633 -22.931  1.00  0.00     0.293 HD
ENDBRANCH   2  10
TORSDOF 2
ENDMDL
MODEL 3
REMARK VINA RESULT:    -4.712      1.339      3.184
REMARK INTER + INTRA:          -5.364
REMARK INTER:                  -5.286
REMARK INTRA:                  -0.079
REMARK UNBOUND:                -0.239
REMARK SMILES O=C([O-])c1ccccc1O
REMARK SMILES IDX 4 1 9 2 5 3 8 4 6 5 7 6 2 7 1 8 3 9 10 10
REMARK H PARENT 10 11
REMARK Flexibility Score: inf
ROOT
ATOM      1  C   UNL     1       4.647  -2.311 -23.631  1.00  0.00     0.039 A 
ATOM      2  C   UNL     1       3.531  -3.108 -23.270  1.00  0.00     0.124 A 
ATOM      3  C   UNL     1       4.797  -1.043 -23.039  1.00  0.00     0.014 A 
ATOM      4  C   UNL     1       2.570  -2.597 -22.387  1.00  0.00     0.047 A 
ATOM      5  C   UNL     1       3.842  -0.556 -22.143  1.00  0.00     0.001 A 
ATOM      6  C   UNL     1       2.725  -1.328 -21.827  1.00  0.00     0.004 A 
ENDROOT
BRANCH   1   7
ATOM      7  C   UNL     1       5.642  -2.747 -24.634  1.00  0.00     0.075 C 
ATOM      8  O   UNL     1       6.714  -3.297 -24.264  1.00  0.00    -0.545 OA
ATOM      9  O   UNL     1       5.444  -2.499 -25.987  1.00  0.00    -0.545 OA
ENDBRANCH   1   7
BRANCH   2  10
ATOM     10  O   UNL     1       3.357  -4.414 -23.733  1.00  0.00    -0.507 OA
ATOM     11  H   UNL     1       2.894  -5.137 -23.200  1.00  0.00     0.293 HD
ENDBRANCH   2  10
TORSDOF 2
ENDMDL
MODEL 4
REMARK VINA RESULT:    -4.651      1.667      3.526
REMARK INTER + INTRA:          -5.298
REMARK INTER:                  -5.046
REMARK INTRA:                  -0.253
REMARK UNBOUND:                -0.239
REMARK SMILES O=C([O-])c1ccccc1O
REMARK SMILES IDX 4 1 9 2 5 3 8 4 6 5 7 6 2 7 1 8 3 9 10 10
REMARK H PARENT 10 11
REMARK Flexibility Score: inf
ROOT
ATOM      1  C   UNL     1       3.188  -2.256 -23.396  1.00  0.00     0.039 A 
ATOM      2  C   UNL     1       2.614  -3.546 -23.263  1.00  0.00     0.124 A 
ATOM      3  C   UNL     1       2.345  -1.161 -23.662  1.00  0.00     0.014 A 
ATOM      4  C   UNL     1       1.238  -3.717 -23.463  1.00  0.00     0.047 A 
ATOM      5  C   UNL     1       0.971  -1.345 -23.836  1.00  0.00     0.001 A 
ATOM      6  C   UNL     1       0.421  -2.623 -23.747  1.00  0.00     0.004 A 
ENDROOT
BRANCH   1   7
ATOM      7  C   UNL     1       4.645  -2.021 -23.300  1.00  0.00     0.075 C 
ATOM      8  O   UNL     1       5.081  -0.947 -22.809  1.00  0.00    -0.545 OA
ATOM      9  O   UNL     1       5.549  -2.946 -23.809  1.00  0.00    -0.545 OA
ENDBRANCH   1   7
BRANCH   2  10
ATOM     10  O   UNL     1       3.363  -4.669 -22.904  1.00  0.00    -0.507 OA
ATOM     11  H   UNL     1       3.306  -5.554 -23.388  1.00  0.00     0.293 HD
ENDBRANCH   2  10
TORSDOF 2
ENDMDL
MODEL 5
REMARK VINA RESULT:    -4.580      1.497      3.095
REMARK INTER + INTRA:          -5.221
REMARK INTER:                  -4.982
REMARK INTRA:                  -0.239
REMARK UNBOUND:                -0.239
REMARK SMILES O=C([O-])c1ccccc1O
REMARK SMILES IDX 4 1 9 2 5 3 8 4 6 5 7 6 2 7 1 8 3 9 10 10
REMARK H PARENT 10 11
REMARK Flexibility Score: inf
ROOT
ATOM      1  C   UNL     1       4.732  -1.566 -23.184  1.00  0.00     0.039 A 
ATOM      2  C   UNL     1       3.490  -1.458 -22.509  1.00  0.00     0.124 A 
ATOM      3  C   UNL     1       5.668  -0.523 -23.056  1.00  0.00     0.014 A 
ATOM      4  C   UNL     1       3.191  -0.296 -21.786  1.00  0.00     0.047 A 
ATOM      5  C   UNL     1       5.364   0.621 -22.313  1.00  0.00     0.001 A 
ATOM      6  C   UNL     1       4.123   0.738 -21.688  1.00  0.00     0.004 A 
ENDROOT
BRANCH   1   7
ATOM      7  C   UNL     1       5.070  -2.718 -24.048  1.00  0.00     0.075 C 
ATOM      8  O   UNL     1       4.158  -3.346 -24.648  1.00  0.00    -0.545 OA
ATOM      9  O   UNL     1       6.381  -3.165 -24.158  1.00  0.00    -0.545 OA
ENDBRANCH   1   7
BRANCH   2  10
ATOM     10  O   UNL     1       2.546  -2.488 -22.503  1.00  0.00    -0.507 OA
ATOM     11  H   UNL     1       2.792  -3.468 -22.521  1.00  0.00     0.293 HD
ENDBRANCH   2  10
TORSDOF 2
ENDMDL
MODEL 6
REMARK VINA RESULT:    -4.527      1.472      1.820
REMARK INTER + INTRA:          -5.163
REMARK INTER:                  -4.952
REMARK INTRA:                  -0.211
REMARK UNBOUND:                -0.239
REMARK SMILES O=C([O-])c1ccccc1O
REMARK SMILES IDX 4 1 9 2 5 3 8 4 6 5 7 6 2 7 1 8 3 9 10 10
REMARK H PARENT 10 11
REMARK Flexibility Score: inf
ROOT
ATOM      1  C   UNL     1       1.624  -2.974 -23.448  1.00  0.00     0.039 A 
ATOM      2  C   UNL     1       2.936  -3.418 -23.143  1.00  0.00     0.124 A 
ATOM      3  C   UNL     1       1.432  -1.635 -23.836  1.00  0.00     0.014 A 
ATOM      4  C   UNL     1       4.000  -2.508 -23.171  1.00  0.00     0.047 A 
ATOM      5  C   UNL     1       2.508  -0.744 -23.880  1.00  0.00     0.001 A 
ATOM      6  C   UNL     1       3.788  -1.178 -23.537  1.00  0.00     0.004 A 
ENDROOT
BRANCH   1   7
ATOM      7  C   UNL     1       0.441  -3.856 -23.338  1.00  0.00     0.075 C 
ATOM      8  O   UNL     1       0.586  -5.107 -23.318  1.00  0.00    -0.545 OA
ATOM      9  O   UNL     1      -0.843  -3.325 -23.324  1.00  0.00    -0.545 OA
ENDBRANCH   1   7
BRANCH   2  10
ATOM     10  O   UNL     1       3.228  -4.751 -22.845  1.00  0.00    -0.507 OA
ATOM     11  H   UNL     1       3.014  -5.182 -21.956  1.00  0.00     0.293 HD
ENDBRANCH   2  10
TORSDOF 2
ENDMDL
MODEL 7
REMARK VINA RESULT:    -4.438      2.541      3.533
REMARK INTER + INTRA:          -5.067
REMARK INTER:                  -4.893
REMARK INTRA:                  -0.173
REMARK UNBOUND:                -0.239
REMARK SMILES O=C([O-])c1ccccc1O
REMARK SMILES IDX 4 1 9 2 5 3 8 4 6 5 7 6 2 7 1 8 3 9 10 10
REMARK H PARENT 10 11
REMARK Flexibility Score: inf
ROOT
ATOM      1  C   UNL     1       4.495  -2.293 -24.034  1.00  0.00     0.039 A 
ATOM      2  C   UNL     1       4.499  -1.028 -23.393  1.00  0.00     0.124 A 
ATOM      3  C   UNL     1       3.583  -3.273 -23.599  1.00  0.00     0.014 A 
ATOM      4  C   UNL     1       3.647  -0.799 -22.305  1.00  0.00     0.047 A 
ATOM      5  C   UNL     1       2.724  -3.021 -22.526  1.00  0.00     0.001 A 
ATOM      6  C   UNL     1       2.764  -1.789 -21.874  1.00  0.00     0.004 A 
ENDROOT
BRANCH   1   7
ATOM      7  C   UNL     1       5.440  -2.636 -25.119  1.00  0.00     0.075 C 
ATOM      8  O   UNL     1       6.372  -3.456 -24.910  1.00  0.00    -0.545 OA
ATOM      9  O   UNL     1       5.355  -2.013 -26.359  1.00  0.00    -0.545 OA
ENDBRANCH   1   7
BRANCH   2  10
ATOM     10  O   UNL     1       5.302   0.031 -23.824  1.00  0.00    -0.507 OA
ATOM     11  H   UNL     1       5.469   0.862 -23.274  1.00  0.00     0.293 HD
ENDBRANCH   2  10
TORSDOF 2
ENDMDL
MODEL 8
REMARK VINA RESULT:    -4.372      1.175      2.204
REMARK INTER + INTRA:          -4.995
REMARK INTER:                  -4.742
REMARK INTRA:                  -0.253
REMARK UNBOUND:                -0.239
REMARK SMILES O=C([O-])c1ccccc1O
REMARK SMILES IDX 4 1 9 2 5 3 8 4 6 5 7 6 2 7 1 8 3 9 10 10
REMARK H PARENT 10 11
REMARK Flexibility Score: inf
ROOT
ATOM      1  C   UNL     1       3.280  -2.963 -23.249  1.00  0.00     0.039 A 
ATOM      2  C   UNL     1       3.202  -1.706 -22.596  1.00  0.00     0.124 A 
ATOM      3  C   UNL     1       4.498  -3.350 -23.838  1.00  0.00     0.014 A 
ATOM      4  C   UNL     1       4.311  -0.850 -22.605  1.00  0.00     0.047 A 
ATOM      5  C   UNL     1       5.602  -2.493 -23.819  1.00  0.00     0.001 A 
ATOM      6  C   UNL     1       5.504  -1.242 -23.213  1.00  0.00     0.004 A 
ENDROOT
BRANCH   1   7
ATOM      7  C   UNL     1       2.117  -3.870 -23.366  1.00  0.00     0.075 C 
ATOM      8  O   UNL     1       2.280  -5.118 -23.309  1.00  0.00    -0.545 OA
ATOM      9  O   UNL     1       0.844  -3.367 -23.606  1.00  0.00    -0.545 OA
ENDBRANCH   1   7
BRANCH   2  10
ATOM     10  O   UNL     1       2.064  -1.288 -21.903  1.00  0.00    -0.507 OA
ATOM     11  H   UNL     1       2.029  -0.444 -21.349  1.00  0.00     0.293 HD
ENDBRANCH   2  10
TORSDOF 2
ENDMDL
MODEL 9
REMARK VINA RESULT:    -4.217      2.592      3.803
REMARK INTER + INTRA:          -4.826
REMARK INTER:                  -4.577
REMARK INTRA:                  -0.249
REMARK UNBOUND:                -0.239
REMARK SMILES O=C([O-])c1ccccc1O
REMARK SMILES IDX 4 1 9 2 5 3 8 4 6 5 7 6 2 7 1 8 3 9 10 10
REMARK H PARENT 10 11
REMARK Flexibility Score: inf
ROOT
ATOM      1  C   UNL     1       2.807  -2.393 -24.760  1.00  0.00     0.039 A 
ATOM      2  C   UNL     1       3.232  -3.406 -23.863  1.00  0.00     0.124 A 
ATOM      3  C   UNL     1       1.436  -2.085 -24.838  1.00  0.00     0.014 A 
ATOM      4  C   UNL     1       2.281  -4.121 -23.124  1.00  0.00     0.047 A 
ATOM      5  C   UNL     1       0.502  -2.792 -24.077  1.00  0.00     0.001 A 
ATOM      6  C   UNL     1       0.924  -3.816 -23.229  1.00  0.00     0.004 A 
ENDROOT
BRANCH   1   7
ATOM      7  C   UNL     1       3.747  -1.671 -25.646  1.00  0.00     0.075 C 
ATOM      8  O   UNL     1       4.719  -2.280 -26.165  1.00  0.00    -0.545 OA
ATOM      9  O   UNL     1       3.612  -0.305 -25.863  1.00  0.00    -0.545 OA
ENDBRANCH   1   7
BRANCH   2  10
ATOM     10  O   UNL     1       4.580  -3.707 -23.653  1.00  0.00    -0.507 OA
ATOM     11  H   UNL     1       5.338  -3.183 -24.067  1.00  0.00     0.293 HD
ENDBRANCH   2  10
TORSDOF 2
ENDMDL
