MODEL 1
REMARK VINA RESULT:    -5.023      0.000      0.000
REMARK INTER + INTRA:         -10.235
REMARK INTER:                  -8.546
REMARK INTRA:                  -1.689
REMARK UNBOUND:                -1.689
REMARK SMILES CCCCCCCCCCCCCC(=O)[O-]
REMARK SMILES IDX 8 1 9 2 10 3 11 4 12 5 13 6 14 7 15 8 16 9 7 10 6 11 5 12
REMARK SMILES IDX 4 13 3 14 2 15 1 16
REMARK H PARENT
REMARK Flexibility Score: inf
ROOT
ATOM      1  C   UNL     1     138.807 132.215 131.007  1.00  0.00     0.000 C 
ENDROOT
BRANCH   1   2
ATOM      2  C   UNL     1     138.485 133.698 130.769  1.00  0.00     0.000 C 
BRANCH   2   3
ATOM      3  C   UNL     1     139.323 134.310 129.635  1.00  0.00     0.000 C 
BRANCH   3   4
ATOM      4  C   UNL     1     140.335 135.321 130.185  1.00  0.00     0.000 C 
BRANCH   4   5
ATOM      5  C   UNL     1     139.640 136.383 131.047  1.00  0.00     0.006 C 
BRANCH   5   6
ATOM      6  C   UNL     1     139.145 137.550 130.188  1.00  0.00     0.053 C 
BRANCH   6   7
ATOM      7  C   UNL     1     137.673 137.747 130.369  1.00  0.00     0.041 C 
ATOM      8  O   UNL     1     136.930 136.766 130.638  1.00  0.00    -0.550 OA
ATOM      9  O   UNL     1     137.113 139.006 130.192  1.00  0.00    -0.550 OA
ENDBRANCH   6   7
ENDBRANCH   5   6
ENDBRANCH   4   5
ENDBRANCH   3   4
ENDBRANCH   2   3
ENDBRANCH   1   2
BRANCH   1  10
ATOM     10  C   UNL     1     139.507 131.560 129.804  1.00  0.00     0.000 C 
BRANCH  10  11
ATOM     11  C   UNL     1     138.674 130.426 129.186  1.00  0.00    -0.000 C 
BRANCH  11  12
ATOM     12  C   UNL     1     138.028 130.830 127.850  1.00  0.00    -0.000 C 
BRANCH  12  13
ATOM     13  C   UNL     1     136.655 131.502 128.028  1.00  0.00    -0.000 C 
BRANCH  13  14
ATOM     14  C   UNL     1     136.596 132.979 127.599  1.00  0.00    -0.000 C 
BRANCH  14  15
ATOM     15  C   UNL     1     135.611 133.806 128.438  1.00  0.00    -0.003 C 
ATOM     16  C   UNL     1     135.047 132.983 129.594  1.00  0.00     0.004 C 
ENDBRANCH  14  15
ENDBRANCH  13  14
ENDBRANCH  12  13
ENDBRANCH  11  12
ENDBRANCH  10  11
ENDBRANCH   1  10
TORSDOF 12
ENDMDL
MODEL 2
REMARK VINA RESULT:    -4.978      1.188      2.396
REMARK INTER + INTRA:         -10.159
REMARK INTER:                  -8.019
REMARK INTRA:                  -2.139
REMARK UNBOUND:                -1.689
REMARK SMILES CCCCCCCCCCCCCC(=O)[O-]
REMARK SMILES IDX 8 1 9 2 10 3 11 4 12 5 13 6 14 7 15 8 16 9 7 10 6 11 5 12
REMARK SMILES IDX 4 13 3 14 2 15 1 16
REMARK H PARENT
REMARK Flexibility Score: inf
ROOT
ATOM      1  C   UNL     1     137.860 130.300 129.585  1.00  0.00     0.000 C 
ENDROOT
BRANCH   1   2
ATOM      2  C   UNL     1     138.537 131.110 130.701  1.00  0.00     0.000 C 
BRANCH   2   3
ATOM      3  C   UNL     1     139.600 132.081 130.165  1.00  0.00     0.000 C 
BRANCH   3   4
ATOM      4  C   UNL     1     139.425 133.477 130.773  1.00  0.00     0.000 C 
BRANCH   4   5
ATOM      5  C   UNL     1     140.003 134.557 129.850  1.00  0.00     0.006 C 
BRANCH   5   6
ATOM      6  C   UNL     1     138.934 135.586 129.471  1.00  0.00     0.053 C 
BRANCH   6   7
ATOM      7  C   UNL     1     138.672 136.514 130.614  1.00  0.00     0.041 C 
ATOM      8  O   UNL     1     139.620 136.900 131.348  1.00  0.00    -0.550 OA
ATOM      9  O   UNL     1     137.374 136.915 130.901  1.00  0.00    -0.550 OA
ENDBRANCH   6   7
ENDBRANCH   5   6
ENDBRANCH   4   5
ENDBRANCH   3   4
ENDBRANCH   2   3
ENDBRANCH   1   2
BRANCH   1  10
ATOM     10  C   UNL     1     138.113 130.890 128.187  1.00  0.00     0.000 C 
BRANCH  10  11
ATOM     11  C   UNL     1     136.873 131.590 127.611  1.00  0.00    -0.000 C 
BRANCH  11  12
ATOM     12  C   UNL     1     136.830 133.089 127.950  1.00  0.00    -0.000 C 
BRANCH  12  13
ATOM     13  C   UNL     1     135.581 133.484 128.758  1.00  0.00    -0.000 C 
BRANCH  13  14
ATOM     14  C   UNL     1     135.818 133.671 130.267  1.00  0.00    -0.000 C 
BRANCH  14  15
ATOM     15  C   UNL     1     135.032 132.668 131.125  1.00  0.00    -0.003 C 
ATOM     16  C   UNL     1     134.260 131.684 130.250  1.00  0.00     0.004 C 
ENDBRANCH  14  15
ENDBRANCH  13  14
ENDBRANCH  12  13
ENDBRANCH  11  12
ENDBRANCH  10  11
ENDBRANCH   1  10
TORSDOF 12
ENDMDL
MODEL 3
REMARK VINA RESULT:    -4.945      1.314      3.156
REMARK INTER + INTRA:         -10.103
REMARK INTER:                  -8.021
REMARK INTRA:                  -2.082
REMARK UNBOUND:                -1.689
REMARK SMILES CCCCCCCCCCCCCC(=O)[O-]
REMARK SMILES IDX 8 1 9 2 10 3 11 4 12 5 13 6 14 7 15 8 16 9 7 10 6 11 5 12
REMARK SMILES IDX 4 13 3 14 2 15 1 16
REMARK H PARENT
REMARK Flexibility Score: inf
ROOT
ATOM      1  C   UNL     1     138.127 131.051 128.114  1.00  0.00     0.000 C 
ENDROOT
BRANCH   1   2
ATOM      2  C   UNL     1     137.955 130.350 129.470  1.00  0.00     0.000 C 
BRANCH   2   3
ATOM      3  C   UNL     1     138.618 131.121 130.622  1.00  0.00     0.000 C 
BRANCH   3   4
ATOM      4  C   UNL     1     139.565 132.201 130.086  1.00  0.00     0.000 C 
BRANCH   4   5
ATOM      5  C   UNL     1     139.357 133.531 130.821  1.00  0.00     0.006 C 
BRANCH   5   6
ATOM      6  C   UNL     1     139.914 134.702 130.007  1.00  0.00     0.053 C 
BRANCH   6   7
ATOM      7  C   UNL     1     139.179 135.963 130.332  1.00  0.00     0.041 C 
ATOM      8  O   UNL     1     139.754 137.078 130.222  1.00  0.00    -0.550 OA
ATOM      9  O   UNL     1     137.874 135.905 130.805  1.00  0.00    -0.550 OA
ENDBRANCH   6   7
ENDBRANCH   5   6
ENDBRANCH   4   5
ENDBRANCH   3   4
ENDBRANCH   2   3
ENDBRANCH   1   2
BRANCH   1  10
ATOM     10  C   UNL     1     136.782 131.416 127.461  1.00  0.00     0.000 C 
BRANCH  10  11
ATOM     11  C   UNL     1     136.665 132.916 127.153  1.00  0.00    -0.000 C 
BRANCH  11  12
ATOM     12  C   UNL     1     136.585 133.775 128.427  1.00  0.00    -0.000 C 
BRANCH  12  13
ATOM     13  C   UNL     1     135.263 133.590 129.191  1.00  0.00    -0.000 C 
BRANCH  13  14
ATOM     14  C   UNL     1     135.413 133.045 130.623  1.00  0.00    -0.000 C 
BRANCH  14  15
ATOM     15  C   UNL     1     134.289 132.074 131.014  1.00  0.00    -0.003 C 
ATOM     16  C   UNL     1     134.008 131.078 129.891  1.00  0.00     0.004 C 
ENDBRANCH  14  15
ENDBRANCH  13  14
ENDBRANCH  12  13
ENDBRANCH  11  12
ENDBRANCH  10  11
ENDBRANCH   1  10
TORSDOF 12
ENDMDL
MODEL 4
REMARK VINA RESULT:    -4.920      2.348      4.805
REMARK INTER + INTRA:         -10.061
REMARK INTER:                  -8.318
REMARK INTRA:                  -1.743
REMARK UNBOUND:                -1.689
REMARK SMILES CCCCCCCCCCCCCC(=O)[O-]
REMARK SMILES IDX 8 1 9 2 10 3 11 4 12 5 13 6 14 7 15 8 16 9 7 10 6 11 5 12
REMARK SMILES IDX 4 13 3 14 2 15 1 16
REMARK H PARENT
REMARK Flexibility Score: inf
ROOT
ATOM      1  C   UNL     1     138.105 130.013 129.308  1.00  0.00     0.000 C 
ENDROOT
BRANCH   1   2
ATOM      2  C   UNL     1     138.099 130.819 128.001  1.00  0.00     0.000 C 
BRANCH   2   3
ATOM      3  C   UNL     1     136.734 131.460 127.708  1.00  0.00     0.000 C 
BRANCH   3   4
ATOM      4  C   UNL     1     136.801 132.984 127.857  1.00  0.00     0.000 C 
BRANCH   4   5
ATOM      5  C   UNL     1     135.740 133.488 128.845  1.00  0.00     0.006 C 
BRANCH   5   6
ATOM      6  C   UNL     1     136.057 133.031 130.271  1.00  0.00     0.053 C 
BRANCH   6   7
ATOM      7  C   UNL     1     134.879 132.329 130.870  1.00  0.00     0.041 C 
ATOM      8  O   UNL     1     134.176 131.557 130.166  1.00  0.00    -0.550 OA
ATOM      9  O   UNL     1     134.528 132.566 132.193  1.00  0.00    -0.550 OA
ENDBRANCH   6   7
ENDBRANCH   5   6
ENDBRANCH   4   5
ENDBRANCH   3   4
ENDBRANCH   2   3
ENDBRANCH   1   2
BRANCH   1  10
ATOM     10  C   UNL     1     138.920 130.694 130.421  1.00  0.00     0.000 C 
BRANCH  10  11
ATOM     11  C   UNL     1     139.775 131.858 129.896  1.00  0.00    -0.000 C 
BRANCH  11  12
ATOM     12  C   UNL     1     139.752 133.077 130.834  1.00  0.00    -0.000 C 
BRANCH  12  13
ATOM     13  C   UNL     1     139.468 134.396 130.094  1.00  0.00    -0.000 C 
BRANCH  13  14
ATOM     14  C   UNL     1     140.167 135.633 130.686  1.00  0.00    -0.000 C 
BRANCH  14  15
ATOM     15  C   UNL     1     139.203 136.805 130.928  1.00  0.00    -0.003 C 
ATOM     16  C   UNL     1     137.751 136.366 130.758  1.00  0.00     0.004 C 
ENDBRANCH  14  15
ENDBRANCH  13  14
ENDBRANCH  12  13
ENDBRANCH  11  12
ENDBRANCH  10  11
ENDBRANCH   1  10
TORSDOF 12
ENDMDL
MODEL 5
REMARK VINA RESULT:    -4.881      1.213      2.037
REMARK INTER + INTRA:          -9.994
REMARK INTER:                  -8.058
REMARK INTRA:                  -1.936
REMARK UNBOUND:                -1.689
REMARK SMILES CCCCCCCCCCCCCC(=O)[O-]
REMARK SMILES IDX 8 1 9 2 10 3 11 4 12 5 13 6 14 7 15 8 16 9 7 10 6 11 5 12
REMARK SMILES IDX 4 13 3 14 2 15 1 16
REMARK H PARENT
REMARK Flexibility Score: inf
ROOT
ATOM      1  C   UNL     1     139.457 131.180 129.649  1.00  0.00     0.000 C 
ENDROOT
BRANCH   1   2
ATOM      2  C   UNL     1     138.862 131.661 130.981  1.00  0.00     0.000 C 
BRANCH   2   3
ATOM      3  C   UNL     1     138.883 133.191 131.119  1.00  0.00     0.000 C 
BRANCH   3   4
ATOM      4  C   UNL     1     139.413 133.850 129.839  1.00  0.00     0.000 C 
BRANCH   4   5
ATOM      5  C   UNL     1     138.401 134.857 129.279  1.00  0.00     0.006 C 
BRANCH   5   6
ATOM      6  C   UNL     1     137.731 135.648 130.406  1.00  0.00     0.053 C 
BRANCH   6   7
ATOM      7  C   UNL     1     138.344 137.007 130.529  1.00  0.00     0.041 C 
ATOM      8  O   UNL     1     139.543 137.130 130.893  1.00  0.00    -0.550 OA
ATOM      9  O   UNL     1     137.577 138.140 130.292  1.00  0.00    -0.550 OA
ENDBRANCH   6   7
ENDBRANCH   5   6
ENDBRANCH   4   5
ENDBRANCH   3   4
ENDBRANCH   2   3
ENDBRANCH   1   2
BRANCH   1  10
ATOM     10  C   UNL     1     138.457 130.359 128.816  1.00  0.00     0.000 C 
BRANCH  10  11
ATOM     11  C   UNL     1     137.831 131.177 127.676  1.00  0.00    -0.000 C 
BRANCH  11  12
ATOM     12  C   UNL     1     136.370 131.565 127.962  1.00  0.00    -0.000 C 
BRANCH  12  13
ATOM     13  C   UNL     1     135.792 130.850 129.196  1.00  0.00    -0.000 C 
BRANCH  13  14
ATOM     14  C   UNL     1     134.707 131.637 129.952  1.00  0.00    -0.000 C 
BRANCH  14  15
ATOM     15  C   UNL     1     135.174 133.035 130.385  1.00  0.00    -0.003 C 
ATOM     16  C   UNL     1     134.323 134.124 129.738  1.00  0.00     0.004 C 
ENDBRANCH  14  15
ENDBRANCH  13  14
ENDBRANCH  12  13
ENDBRANCH  11  12
ENDBRANCH  10  11
ENDBRANCH   1  10
TORSDOF 12
ENDMDL
MODEL 6
REMARK VINA RESULT:    -4.835      0.989      2.668
REMARK INTER + INTRA:          -9.915
REMARK INTER:                  -8.253
REMARK INTRA:                  -1.662
REMARK UNBOUND:                -1.689
REMARK SMILES CCCCCCCCCCCCCC(=O)[O-]
REMARK SMILES IDX 8 1 9 2 10 3 11 4 12 5 13 6 14 7 15 8 16 9 7 10 6 11 5 12
REMARK SMILES IDX 4 13 3 14 2 15 1 16
REMARK H PARENT
REMARK Flexibility Score: inf
ROOT
ATOM      1  C   UNL     1     137.467 134.203 129.129  1.00  0.00     0.000 C 
ENDROOT
BRANCH   1   2
ATOM      2  C   UNL     1     138.163 133.991 130.482  1.00  0.00     0.000 C 
BRANCH   2   3
ATOM      3  C   UNL     1     139.695 133.972 130.362  1.00  0.00     0.000 C 
BRANCH   3   4
ATOM      4  C   UNL     1     140.246 135.386 130.142  1.00  0.00     0.000 C 
BRANCH   4   5
ATOM      5  C   UNL     1     139.472 136.414 130.977  1.00  0.00     0.006 C 
BRANCH   5   6
ATOM      6  C   UNL     1     139.101 137.638 130.136  1.00  0.00     0.053 C 
BRANCH   6   7
ATOM      7  C   UNL     1     137.665 138.001 130.345  1.00  0.00     0.041 C 
ATOM      8  O   UNL     1     136.835 137.124 130.703  1.00  0.00    -0.550 OA
ATOM      9  O   UNL     1     137.231 139.297 130.095  1.00  0.00    -0.550 OA
ENDBRANCH   6   7
ENDBRANCH   5   6
ENDBRANCH   4   5
ENDBRANCH   3   4
ENDBRANCH   2   3
ENDBRANCH   1   2
BRANCH   1  10
ATOM     10  C   UNL     1     135.984 133.794 129.155  1.00  0.00     0.000 C 
BRANCH  10  11
ATOM     11  C   UNL     1     135.639 132.907 130.361  1.00  0.00    -0.000 C 
BRANCH  11  12
ATOM     12  C   UNL     1     134.901 131.621 129.956  1.00  0.00    -0.000 C 
BRANCH  12  13
ATOM     13  C   UNL     1     135.848 130.527 129.431  1.00  0.00    -0.000 C 
BRANCH  13  14
ATOM     14  C   UNL     1     137.180 130.405 130.193  1.00  0.00    -0.000 C 
BRANCH  14  15
ATOM     15  C   UNL     1     138.403 130.413 129.263  1.00  0.00    -0.003 C 
ATOM     16  C   UNL     1     138.013 130.821 127.845  1.00  0.00     0.004 C 
ENDBRANCH  14  15
ENDBRANCH  13  14
ENDBRANCH  12  13
ENDBRANCH  11  12
ENDBRANCH  10  11
ENDBRANCH   1  10
TORSDOF 12
ENDMDL
MODEL 7
REMARK VINA RESULT:    -4.819      2.007      5.288
REMARK INTER + INTRA:          -9.888
REMARK INTER:                  -8.496
REMARK INTRA:                  -1.392
REMARK UNBOUND:                -1.689
REMARK SMILES CCCCCCCCCCCCCC(=O)[O-]
REMARK SMILES IDX 8 1 9 2 10 3 11 4 12 5 13 6 14 7 15 8 16 9 7 10 6 11 5 12
REMARK SMILES IDX 4 13 3 14 2 15 1 16
REMARK H PARENT
REMARK Flexibility Score: inf
ROOT
ATOM      1  C   UNL     1     138.923 131.819 130.953  1.00  0.00     0.000 C 
ENDROOT
BRANCH   1   2
ATOM      2  C   UNL     1     139.453 131.251 129.628  1.00  0.00     0.000 C 
BRANCH   2   3
ATOM      3  C   UNL     1     138.458 130.290 128.957  1.00  0.00     0.000 C 
BRANCH   3   4
ATOM      4  C   UNL     1     137.865 130.914 127.689  1.00  0.00     0.000 C 
BRANCH   4   5
ATOM      5  C   UNL     1     136.587 131.701 128.008  1.00  0.00     0.006 C 
BRANCH   5   6
ATOM      6  C   UNL     1     135.755 130.988 129.076  1.00  0.00     0.053 C 
BRANCH   6   7
ATOM      7  C   UNL     1     134.933 131.973 129.845  1.00  0.00     0.041 C 
ATOM      8  O   UNL     1     135.212 133.201 129.803  1.00  0.00    -0.550 OA
ATOM      9  O   UNL     1     133.890 131.532 130.650  1.00  0.00    -0.550 OA
ENDBRANCH   6   7
ENDBRANCH   5   6
ENDBRANCH   4   5
ENDBRANCH   3   4
ENDBRANCH   2   3
ENDBRANCH   1   2
BRANCH   1  10
ATOM     10  C   UNL     1     138.610 133.323 130.870  1.00  0.00     0.000 C 
BRANCH  10  11
ATOM     11  C   UNL     1     139.057 133.945 129.538  1.00  0.00    -0.000 C 
BRANCH  11  12
ATOM     12  C   UNL     1     140.124 135.037 129.725  1.00  0.00    -0.000 C 
BRANCH  12  13
ATOM     13  C   UNL     1     139.836 135.953 130.927  1.00  0.00    -0.000 C 
BRANCH  13  14
ATOM     14  C   UNL     1     139.117 137.269 130.580  1.00  0.00    -0.000 C 
BRANCH  14  15
ATOM     15  C   UNL     1     137.587 137.145 130.631  1.00  0.00    -0.003 C 
ATOM     16  C   UNL     1     136.917 138.498 130.403  1.00  0.00     0.004 C 
ENDBRANCH  14  15
ENDBRANCH  13  14
ENDBRANCH  12  13
ENDBRANCH  11  12
ENDBRANCH  10  11
ENDBRANCH   1  10
TORSDOF 12
ENDMDL
MODEL 8
REMARK VINA RESULT:    -4.751      3.105      5.424
REMARK INTER + INTRA:          -9.772
REMARK INTER:                  -8.184
REMARK INTRA:                  -1.589
REMARK UNBOUND:                -1.689
REMARK SMILES CCCCCCCCCCCCCC(=O)[O-]
REMARK SMILES IDX 8 1 9 2 10 3 11 4 12 5 13 6 14 7 15 8 16 9 7 10 6 11 5 12
REMARK SMILES IDX 4 13 3 14 2 15 1 16
REMARK H PARENT
REMARK Flexibility Score: inf
ROOT
ATOM      1  C   UNL     1     138.277 136.141 130.122  1.00  0.00     0.000 C 
ENDROOT
BRANCH   1   2
ATOM      2  C   UNL     1     136.861 135.616 130.399  1.00  0.00     0.000 C 
BRANCH   2   3
ATOM      3  C   UNL     1     136.637 134.200 129.844  1.00  0.00     0.000 C 
BRANCH   3   4
ATOM      4  C   UNL     1     135.336 134.127 129.036  1.00  0.00     0.000 C 
BRANCH   4   5
ATOM      5  C   UNL     1     134.252 133.362 129.805  1.00  0.00     0.006 C 
BRANCH   5   6
ATOM      6  C   UNL     1     134.826 132.099 130.454  1.00  0.00     0.053 C 
BRANCH   6   7
ATOM      7  C   UNL     1     134.239 130.874 129.827  1.00  0.00     0.041 C 
ATOM      8  O   UNL     1     134.665 130.466 128.714  1.00  0.00    -0.550 OA
ATOM      9  O   UNL     1     133.188 130.212 130.447  1.00  0.00    -0.550 OA
ENDBRANCH   6   7
ENDBRANCH   5   6
ENDBRANCH   4   5
ENDBRANCH   3   4
ENDBRANCH   2   3
ENDBRANCH   1   2
BRANCH   1  10
ATOM     10  C   UNL     1     139.173 135.097 129.433  1.00  0.00     0.000 C 
BRANCH  10  11
ATOM     11  C   UNL     1     140.340 134.643 130.323  1.00  0.00    -0.000 C 
BRANCH  11  12
ATOM     12  C   UNL     1     140.012 133.371 131.124  1.00  0.00    -0.000 C 
BRANCH  12  13
ATOM     13  C   UNL     1     139.696 132.164 130.224  1.00  0.00    -0.000 C 
BRANCH  13  14
ATOM     14  C   UNL     1     138.672 131.172 130.806  1.00  0.00    -0.000 C 
BRANCH  14  15
ATOM     15  C   UNL     1     137.973 130.332 129.727  1.00  0.00    -0.003 C 
ATOM     16  C   UNL     1     138.295 130.855 128.329  1.00  0.00     0.004 C 
ENDBRANCH  14  15
ENDBRANCH  13  14
ENDBRANCH  12  13
ENDBRANCH  11  12
ENDBRANCH  10  11
ENDBRANCH   1  10
TORSDOF 12
ENDMDL
MODEL 9
REMARK VINA RESULT:    -4.709      3.061      5.739
REMARK INTER + INTRA:          -9.702
REMARK INTER:                  -8.230
REMARK INTRA:                  -1.472
REMARK UNBOUND:                -1.689
REMARK SMILES CCCCCCCCCCCCCC(=O)[O-]
REMARK SMILES IDX 8 1 9 2 10 3 11 4 12 5 13 6 14 7 15 8 16 9 7 10 6 11 5 12
REMARK SMILES IDX 4 13 3 14 2 15 1 16
REMARK H PARENT
REMARK Flexibility Score: inf
ROOT
ATOM      1  C   UNL     1     138.064 133.839 129.079  1.00  0.00     0.000 C 
ENDROOT
BRANCH   1   2
ATOM      2  C   UNL     1     136.577 134.087 128.786  1.00  0.00     0.000 C 
BRANCH   2   3
ATOM      3  C   UNL     1     135.778 134.445 130.050  1.00  0.00     0.000 C 
BRANCH   3   4
ATOM      4  C   UNL     1     134.396 133.781 130.031  1.00  0.00     0.000 C 
BRANCH   4   5
ATOM      5  C   UNL     1     134.426 132.425 130.747  1.00  0.00     0.006 C 
BRANCH   5   6
ATOM      6  C   UNL     1     134.310 131.272 129.746  1.00  0.00     0.053 C 
BRANCH   6   7
ATOM      7  C   UNL     1     135.667 130.805 129.325  1.00  0.00     0.041 C 
ATOM      8  O   UNL     1     136.517 130.462 130.189  1.00  0.00    -0.550 OA
ATOM      9  O   UNL     1     136.013 130.796 127.979  1.00  0.00    -0.550 OA
ENDBRANCH   6   7
ENDBRANCH   5   6
ENDBRANCH   4   5
ENDBRANCH   3   4
ENDBRANCH   2   3
ENDBRANCH   1   2
BRANCH   1  10
ATOM     10  C   UNL     1     138.348 133.635 130.577  1.00  0.00     0.000 C 
BRANCH  10  11
ATOM     11  C   UNL     1     139.798 133.977 130.953  1.00  0.00    -0.000 C 
BRANCH  11  12
ATOM     12  C   UNL     1     140.264 135.313 130.351  1.00  0.00    -0.000 C 
BRANCH  12  13
ATOM     13  C   UNL     1     139.582 136.531 131.000  1.00  0.00    -0.000 C 
BRANCH  13  14
ATOM     14  C   UNL     1     138.703 137.363 130.049  1.00  0.00    -0.000 C 
BRANCH  14  15
ATOM     15  C   UNL     1     137.297 137.623 130.608  1.00  0.00    -0.003 C 
ATOM     16  C   UNL     1     136.812 139.024 130.249  1.00  0.00     0.004 C 
ENDBRANCH  14  15
ENDBRANCH  13  14
ENDBRANCH  12  13
ENDBRANCH  11  12
ENDBRANCH  10  11
ENDBRANCH   1  10
TORSDOF 12
ENDMDL
