MODEL 1
REMARK VINA RESULT:    -5.989      0.000      0.000
REMARK INTER + INTRA:         -12.805
REMARK INTER:                 -10.541
REMARK INTRA:                  -2.264
REMARK UNBOUND:                -2.264
REMARK SMILES CCCCCCC=CCCCCCCCC(=O)[O-]
REMARK SMILES IDX 10 1 11 2 12 3 13 4 14 5 15 6 16 7 17 8 18 9 9 10 8 11 7 12
REMARK SMILES IDX 6 13 5 14 4 15 3 16 2 17 1 18
REMARK H PARENT
REMARK Flexibility Score: inf
ROOT
ATOM      1  C   UNL     1     -64.500  -1.167   1.211  1.00  0.00     0.004 C 
ENDROOT
BRANCH   1   2
ATOM      2  C   UNL     1     -64.833  -2.598   0.761  1.00  0.00     0.000 C 
BRANCH   2   3
ATOM      3  C   UNL     1     -64.230  -2.943  -0.612  1.00  0.00     0.000 C 
BRANCH   3   4
ATOM      4  C   UNL     1     -62.717  -2.642  -0.676  1.00  0.00     0.000 C 
BRANCH   4   5
ATOM      5  C   UNL     1     -62.248  -2.149  -2.057  1.00  0.00     0.006 C 
BRANCH   5   6
ATOM      6  C   UNL     1     -62.838  -2.939  -3.235  1.00  0.00     0.053 C 
BRANCH   6   7
ATOM      7  C   UNL     1     -61.810  -3.212  -4.291  1.00  0.00     0.041 C 
ATOM      8  O   UNL     1     -61.283  -2.262  -4.926  1.00  0.00    -0.550 OA
ATOM      9  O   UNL     1     -61.423  -4.518  -4.561  1.00  0.00    -0.550 OA
ENDBRANCH   6   7
ENDBRANCH   5   6
ENDBRANCH   4   5
ENDBRANCH   3   4
ENDBRANCH   2   3
ENDBRANCH   1   2
BRANCH   1  10
ATOM     10  C   UNL     1     -65.350  -0.108   0.491  1.00  0.00     0.027 C 
BRANCH  10  11
ATOM     11  C   UNL     1     -64.485   0.990  -0.063  1.00  0.00    -0.031 C 
ATOM     12  C   UNL     1     -63.150   0.970   0.073  1.00  0.00    -0.031 C 
BRANCH  12  13
ATOM     13  C   UNL     1     -62.283   2.058  -0.497  1.00  0.00     0.027 C 
BRANCH  13  14
ATOM     14  C   UNL     1     -62.102   1.885  -2.012  1.00  0.00     0.004 C 
BRANCH  14  15
ATOM     15  C   UNL     1     -62.952   2.872  -2.831  1.00  0.00     0.000 C 
BRANCH  15  16
ATOM     16  C   UNL     1     -64.150   2.246  -3.574  1.00  0.00    -0.000 C 
BRANCH  16  17
ATOM     17  C   UNL     1     -64.052   0.727  -3.802  1.00  0.00    -0.003 C 
ATOM     18  C   UNL     1     -65.245  -0.039  -3.234  1.00  0.00     0.004 C 
ENDBRANCH  16  17
ENDBRANCH  15  16
ENDBRANCH  14  15
ENDBRANCH  13  14
ENDBRANCH  12  13
ENDBRANCH  10  11
ENDBRANCH   1  10
TORSDOF 13
ENDMDL
MODEL 2
REMARK VINA RESULT:    -5.892      3.063      6.014
REMARK INTER + INTRA:         -12.635
REMARK INTER:                 -10.343
REMARK INTRA:                  -2.292
REMARK UNBOUND:                -2.264
REMARK SMILES CCCCCCC=CCCCCCCCC(=O)[O-]
REMARK SMILES IDX 10 1 11 2 12 3 13 4 14 5 15 6 16 7 17 8 18 9 9 10 8 11 7 12
REMARK SMILES IDX 6 13 5 14 4 15 3 16 2 17 1 18
REMARK H PARENT
REMARK Flexibility Score: inf
ROOT
ATOM      1  C   UNL     1     -64.395   1.309  -3.830  1.00  0.00     0.004 C 
ENDROOT
BRANCH   1   2
ATOM      2  C   UNL     1     -64.344   2.786  -3.407  1.00  0.00     0.000 C 
BRANCH   2   3
ATOM      3  C   UNL     1     -63.646   2.991  -2.052  1.00  0.00     0.000 C 
BRANCH   3   4
ATOM      4  C   UNL     1     -62.196   2.458  -2.057  1.00  0.00     0.000 C 
BRANCH   4   5
ATOM      5  C   UNL     1     -61.867   1.567  -0.846  1.00  0.00     0.006 C 
BRANCH   5   6
ATOM      6  C   UNL     1     -62.497   2.045   0.471  1.00  0.00     0.053 C 
BRANCH   6   7
ATOM      7  C   UNL     1     -61.542   2.875   1.275  1.00  0.00     0.041 C 
ATOM      8  O   UNL     1     -60.309   2.626   1.253  1.00  0.00    -0.550 OA
ATOM      9  O   UNL     1     -62.015   3.935   2.036  1.00  0.00    -0.550 OA
ENDBRANCH   6   7
ENDBRANCH   5   6
ENDBRANCH   4   5
ENDBRANCH   3   4
ENDBRANCH   2   3
ENDBRANCH   1   2
BRANCH   1  10
ATOM     10  C   UNL     1     -65.307   0.467  -2.924  1.00  0.00     0.027 C 
BRANCH  10  11
ATOM     11  C   UNL     1     -64.710  -0.891  -2.674  1.00  0.00    -0.031 C 
ATOM     12  C   UNL     1     -63.396  -1.119  -2.820  1.00  0.00    -0.031 C 
BRANCH  12  13
ATOM     13  C   UNL     1     -62.796  -2.471  -2.552  1.00  0.00     0.027 C 
BRANCH  13  14
ATOM     14  C   UNL     1     -61.735  -2.395  -1.445  1.00  0.00     0.004 C 
BRANCH  14  15
ATOM     15  C   UNL     1     -62.329  -2.037  -0.071  1.00  0.00     0.000 C 
BRANCH  15  16
ATOM     16  C   UNL     1     -63.348  -3.050   0.486  1.00  0.00    -0.000 C 
BRANCH  16  17
ATOM     17  C   UNL     1     -64.724  -2.459   0.843  1.00  0.00    -0.003 C 
ATOM     18  C   UNL     1     -64.724  -0.932   0.882  1.00  0.00     0.004 C 
ENDBRANCH  16  17
ENDBRANCH  15  16
ENDBRANCH  14  15
ENDBRANCH  13  14
ENDBRANCH  12  13
ENDBRANCH  10  11
ENDBRANCH   1  10
TORSDOF 13
ENDMDL
MODEL 3
REMARK VINA RESULT:    -5.873      2.086      5.268
REMARK INTER + INTRA:         -12.600
REMARK INTER:                 -10.200
REMARK INTRA:                  -2.401
REMARK UNBOUND:                -2.264
REMARK SMILES CCCCCCC=CCCCCCCCC(=O)[O-]
REMARK SMILES IDX 10 1 11 2 12 3 13 4 14 5 15 6 16 7 17 8 18 9 9 10 8 11 7 12
REMARK SMILES IDX 6 13 5 14 4 15 3 16 2 17 1 18
REMARK H PARENT
REMARK Flexibility Score: inf
ROOT
ATOM      1  C   UNL     1     -64.323   1.147  -3.647  1.00  0.00     0.004 C 
ENDROOT
BRANCH   1   2
ATOM      2  C   UNL     1     -64.920   2.550  -3.457  1.00  0.00     0.000 C 
BRANCH   2   3
ATOM      3  C   UNL     1     -64.216   3.348  -2.346  1.00  0.00     0.000 C 
BRANCH   3   4
ATOM      4  C   UNL     1     -64.058   2.526  -1.048  1.00  0.00     0.000 C 
BRANCH   4   5
ATOM      5  C   UNL     1     -62.701   2.735  -0.352  1.00  0.00     0.006 C 
BRANCH   5   6
ATOM      6  C   UNL     1     -61.868   1.453  -0.209  1.00  0.00     0.053 C 
BRANCH   6   7
ATOM      7  C   UNL     1     -60.879   1.305  -1.325  1.00  0.00     0.041 C 
ATOM      8  O   UNL     1     -60.859   2.134  -2.271  1.00  0.00    -0.550 OA
ATOM      9  O   UNL     1     -59.966   0.259  -1.310  1.00  0.00    -0.550 OA
ENDBRANCH   6   7
ENDBRANCH   5   6
ENDBRANCH   4   5
ENDBRANCH   3   4
ENDBRANCH   2   3
ENDBRANCH   1   2
BRANCH   1  10
ATOM     10  C   UNL     1     -65.301   0.030  -3.254  1.00  0.00     0.027 C 
BRANCH  10  11
ATOM     11  C   UNL     1     -64.566  -1.159  -2.699  1.00  0.00    -0.031 C 
ATOM     12  C   UNL     1     -63.237  -1.142  -2.519  1.00  0.00    -0.031 C 
BRANCH  12  13
ATOM     13  C   UNL     1     -62.503  -2.323  -1.948  1.00  0.00     0.027 C 
BRANCH  13  14
ATOM     14  C   UNL     1     -62.445  -2.250  -0.415  1.00  0.00     0.004 C 
BRANCH  14  15
ATOM     15  C   UNL     1     -63.491  -3.149   0.266  1.00  0.00     0.000 C 
BRANCH  15  16
ATOM     16  C   UNL     1     -64.710  -2.408   0.852  1.00  0.00    -0.000 C 
BRANCH  16  17
ATOM     17  C   UNL     1     -64.508  -0.898   1.073  1.00  0.00    -0.003 C 
ATOM     18  C   UNL     1     -65.656  -0.056   0.519  1.00  0.00     0.004 C 
ENDBRANCH  16  17
ENDBRANCH  15  16
ENDBRANCH  14  15
ENDBRANCH  13  14
ENDBRANCH  12  13
ENDBRANCH  10  11
ENDBRANCH   1  10
TORSDOF 13
ENDMDL
MODEL 4
REMARK VINA RESULT:    -5.825      1.680      4.003
REMARK INTER + INTRA:         -12.516
REMARK INTER:                 -10.225
REMARK INTRA:                  -2.291
REMARK UNBOUND:                -2.264
REMARK SMILES CCCCCCC=CCCCCCCCC(=O)[O-]
REMARK SMILES IDX 10 1 11 2 12 3 13 4 14 5 15 6 16 7 17 8 18 9 9 10 8 11 7 12
REMARK SMILES IDX 6 13 5 14 4 15 3 16 2 17 1 18
REMARK H PARENT
REMARK Flexibility Score: inf
ROOT
ATOM      1  C   UNL     1     -64.148   1.244  -3.856  1.00  0.00     0.004 C 
ENDROOT
BRANCH   1   2
ATOM      2  C   UNL     1     -65.139   0.231  -3.261  1.00  0.00     0.000 C 
BRANCH   2   3
ATOM      3  C   UNL     1     -64.453  -1.062  -2.789  1.00  0.00     0.000 C 
BRANCH   3   4
ATOM      4  C   UNL     1     -62.939  -1.066  -3.098  1.00  0.00     0.000 C 
BRANCH   4   5
ATOM      5  C   UNL     1     -62.188  -2.253  -2.469  1.00  0.00     0.006 C 
BRANCH   5   6
ATOM      6  C   UNL     1     -61.285  -1.866  -1.289  1.00  0.00     0.053 C 
BRANCH   6   7
ATOM      7  C   UNL     1     -59.988  -1.274  -1.752  1.00  0.00     0.041 C 
ATOM      8  O   UNL     1     -59.278  -1.880  -2.596  1.00  0.00    -0.550 OA
ATOM      9  O   UNL     1     -59.573  -0.043  -1.262  1.00  0.00    -0.550 OA
ENDBRANCH   6   7
ENDBRANCH   5   6
ENDBRANCH   4   5
ENDBRANCH   3   4
ENDBRANCH   2   3
ENDBRANCH   1   2
BRANCH   1  10
ATOM     10  C   UNL     1     -64.415   2.681  -3.380  1.00  0.00     0.027 C 
BRANCH  10  11
ATOM     11  C   UNL     1     -63.947   2.875  -1.965  1.00  0.00    -0.031 C 
ATOM     12  C   UNL     1     -62.826   2.296  -1.509  1.00  0.00    -0.031 C 
BRANCH  12  13
ATOM     13  C   UNL     1     -62.346   2.505  -0.100  1.00  0.00     0.027 C 
BRANCH  13  14
ATOM     14  C   UNL     1     -62.391   1.194   0.699  1.00  0.00     0.004 C 
BRANCH  14  15
ATOM     15  C   UNL     1     -63.666   0.375   0.432  1.00  0.00     0.000 C 
BRANCH  15  16
ATOM     16  C   UNL     1     -63.823  -0.893   1.296  1.00  0.00    -0.000 C 
BRANCH  16  17
ATOM     17  C   UNL     1     -64.730  -1.981   0.694  1.00  0.00    -0.003 C 
ATOM     18  C   UNL     1     -64.092  -3.369   0.718  1.00  0.00     0.004 C 
ENDBRANCH  16  17
ENDBRANCH  15  16
ENDBRANCH  14  15
ENDBRANCH  13  14
ENDBRANCH  12  13
ENDBRANCH  10  11
ENDBRANCH   1  10
TORSDOF 13
ENDMDL
MODEL 5
REMARK VINA RESULT:    -5.797      3.109      5.892
REMARK INTER + INTRA:         -12.467
REMARK INTER:                 -10.262
REMARK INTRA:                  -2.205
REMARK UNBOUND:                -2.264
REMARK SMILES CCCCCCC=CCCCCCCCC(=O)[O-]
REMARK SMILES IDX 10 1 11 2 12 3 13 4 14 5 15 6 16 7 17 8 18 9 9 10 8 11 7 12
REMARK SMILES IDX 6 13 5 14 4 15 3 16 2 17 1 18
REMARK H PARENT
REMARK Flexibility Score: inf
ROOT
ATOM      1  C   UNL     1     -64.640   0.895  -3.503  1.00  0.00     0.004 C 
ENDROOT
BRANCH   1   2
ATOM      2  C   UNL     1     -64.624   2.429  -3.584  1.00  0.00     0.000 C 
BRANCH   2   3
ATOM      3  C   UNL     1     -63.257   3.029  -3.212  1.00  0.00     0.000 C 
BRANCH   3   4
ATOM      4  C   UNL     1     -62.544   2.215  -2.109  1.00  0.00     0.000 C 
BRANCH   4   5
ATOM      5  C   UNL     1     -62.929   2.649  -0.683  1.00  0.00     0.006 C 
BRANCH   5   6
ATOM      6  C   UNL     1     -62.198   1.874   0.424  1.00  0.00     0.053 C 
BRANCH   6   7
ATOM      7  C   UNL     1     -61.453   2.790   1.346  1.00  0.00     0.041 C 
ATOM      8  O   UNL     1     -62.078   3.607   2.072  1.00  0.00    -0.550 OA
ATOM      9  O   UNL     1     -60.068   2.730   1.415  1.00  0.00    -0.550 OA
ENDBRANCH   6   7
ENDBRANCH   5   6
ENDBRANCH   4   5
ENDBRANCH   3   4
ENDBRANCH   2   3
ENDBRANCH   1   2
BRANCH   1  10
ATOM     10  C   UNL     1     -65.757   0.363  -2.591  1.00  0.00     0.027 C 
BRANCH  10  11
ATOM     11  C   UNL     1     -65.191  -0.481  -1.483  1.00  0.00    -0.031 C 
ATOM     12  C   UNL     1     -65.269  -0.098  -0.199  1.00  0.00    -0.031 C 
BRANCH  12  13
ATOM     13  C   UNL     1     -64.721  -0.950   0.912  1.00  0.00     0.027 C 
BRANCH  13  14
ATOM     14  C   UNL     1     -64.631  -2.423   0.487  1.00  0.00     0.004 C 
BRANCH  14  15
ATOM     15  C   UNL     1     -63.197  -2.977   0.555  1.00  0.00     0.000 C 
BRANCH  15  16
ATOM     16  C   UNL     1     -62.181  -2.282  -0.374  1.00  0.00    -0.000 C 
BRANCH  16  17
ATOM     17  C   UNL     1     -62.308  -2.646  -1.864  1.00  0.00    -0.003 C 
ATOM     18  C   UNL     1     -61.880  -1.512  -2.793  1.00  0.00     0.004 C 
ENDBRANCH  16  17
ENDBRANCH  15  16
ENDBRANCH  14  15
ENDBRANCH  13  14
ENDBRANCH  12  13
ENDBRANCH  10  11
ENDBRANCH   1  10
TORSDOF 13
ENDMDL
MODEL 6
REMARK VINA RESULT:    -5.786      3.006      4.756
REMARK INTER + INTRA:         -12.448
REMARK INTER:                  -9.911
REMARK INTRA:                  -2.537
REMARK UNBOUND:                -2.264
REMARK SMILES CCCCCCC=CCCCCCCCC(=O)[O-]
REMARK SMILES IDX 10 1 11 2 12 3 13 4 14 5 15 6 16 7 17 8 18 9 9 10 8 11 7 12
REMARK SMILES IDX 6 13 5 14 4 15 3 16 2 17 1 18
REMARK H PARENT
REMARK Flexibility Score: inf
ROOT
ATOM      1  C   UNL     1     -64.380  -2.667   0.468  1.00  0.00     0.004 C 
ENDROOT
BRANCH   1   2
ATOM      2  C   UNL     1     -64.604  -1.336   1.202  1.00  0.00     0.000 C 
BRANCH   2   3
ATOM      3  C   UNL     1     -65.260  -0.269   0.309  1.00  0.00     0.000 C 
BRANCH   3   4
ATOM      4  C   UNL     1     -64.399   1.009   0.200  1.00  0.00     0.000 C 
BRANCH   4   5
ATOM      5  C   UNL     1     -62.916   0.781   0.546  1.00  0.00     0.006 C 
BRANCH   5   6
ATOM      6  C   UNL     1     -61.957   1.764  -0.140  1.00  0.00     0.053 C 
BRANCH   6   7
ATOM      7  C   UNL     1     -61.280   2.663   0.850  1.00  0.00     0.041 C 
ATOM      8  O   UNL     1     -60.052   2.533   1.092  1.00  0.00    -0.550 OA
ATOM      9  O   UNL     1     -62.005   3.658   1.493  1.00  0.00    -0.550 OA
ENDBRANCH   6   7
ENDBRANCH   5   6
ENDBRANCH   4   5
ENDBRANCH   3   4
ENDBRANCH   2   3
ENDBRANCH   1   2
BRANCH   1  10
ATOM     10  C   UNL     1     -62.911  -3.117   0.496  1.00  0.00     0.027 C 
BRANCH  10  11
ATOM     11  C   UNL     1     -62.145  -2.527  -0.656  1.00  0.00    -0.031 C 
ATOM     12  C   UNL     1     -62.761  -2.133  -1.781  1.00  0.00    -0.031 C 
BRANCH  12  13
ATOM     13  C   UNL     1     -61.999  -1.527  -2.926  1.00  0.00     0.027 C 
BRANCH  13  14
ATOM     14  C   UNL     1     -62.756  -0.331  -3.523  1.00  0.00     0.004 C 
BRANCH  14  15
ATOM     15  C   UNL     1     -64.260  -0.355  -3.198  1.00  0.00     0.000 C 
BRANCH  15  16
ATOM     16  C   UNL     1     -64.982   1.001  -3.339  1.00  0.00    -0.000 C 
BRANCH  16  17
ATOM     17  C   UNL     1     -64.061   2.202  -3.612  1.00  0.00    -0.003 C 
ATOM     18  C   UNL     1     -64.289   3.361  -2.643  1.00  0.00     0.004 C 
ENDBRANCH  16  17
ENDBRANCH  15  16
ENDBRANCH  14  15
ENDBRANCH  13  14
ENDBRANCH  12  13
ENDBRANCH  10  11
ENDBRANCH   1  10
TORSDOF 13
ENDMDL
MODEL 7
REMARK VINA RESULT:    -5.773      0.799      2.246
REMARK INTER + INTRA:         -12.425
REMARK INTER:                 -10.006
REMARK INTRA:                  -2.419
REMARK UNBOUND:                -2.264
REMARK SMILES CCCCCCC=CCCCCCCCC(=O)[O-]
REMARK SMILES IDX 10 1 11 2 12 3 13 4 14 5 15 6 16 7 17 8 18 9 9 10 8 11 7 12
REMARK SMILES IDX 6 13 5 14 4 15 3 16 2 17 1 18
REMARK H PARENT
REMARK Flexibility Score: inf
ROOT
ATOM      1  C   UNL     1     -65.091  -2.315   0.435  1.00  0.00     0.004 C 
ENDROOT
BRANCH   1   2
ATOM      2  C   UNL     1     -63.756  -3.067   0.546  1.00  0.00     0.000 C 
BRANCH   2   3
ATOM      3  C   UNL     1     -62.538  -2.139   0.400  1.00  0.00     0.000 C 
BRANCH   3   4
ATOM      4  C   UNL     1     -61.596  -2.588  -0.739  1.00  0.00     0.000 C 
BRANCH   4   5
ATOM      5  C   UNL     1     -61.837  -1.841  -2.064  1.00  0.00     0.006 C 
BRANCH   5   6
ATOM      6  C   UNL     1     -62.608  -2.659  -3.110  1.00  0.00     0.053 C 
BRANCH   6   7
ATOM      7  C   UNL     1     -61.719  -3.113  -4.227  1.00  0.00     0.041 C 
ATOM      8  O   UNL     1     -61.289  -2.287  -5.073  1.00  0.00    -0.550 OA
ATOM      9  O   UNL     1     -61.350  -4.449  -4.322  1.00  0.00    -0.550 OA
ENDBRANCH   6   7
ENDBRANCH   5   6
ENDBRANCH   4   5
ENDBRANCH   3   4
ENDBRANCH   2   3
ENDBRANCH   1   2
BRANCH   1  10
ATOM     10  C   UNL     1     -64.961  -0.826   0.790  1.00  0.00     0.027 C 
BRANCH  10  11
ATOM     11  C   UNL     1     -65.342   0.041  -0.378  1.00  0.00    -0.031 C 
ATOM     12  C   UNL     1     -65.072  -0.322  -1.641  1.00  0.00    -0.031 C 
BRANCH  12  13
ATOM     13  C   UNL     1     -65.469   0.535  -2.811  1.00  0.00     0.027 C 
BRANCH  13  14
ATOM     14  C   UNL     1     -64.275   0.782  -3.745  1.00  0.00     0.004 C 
BRANCH  14  15
ATOM     15  C   UNL     1     -63.505   2.069  -3.403  1.00  0.00     0.000 C 
BRANCH  15  16
ATOM     16  C   UNL     1     -62.295   1.879  -2.466  1.00  0.00    -0.000 C 
BRANCH  16  17
ATOM     17  C   UNL     1     -62.467   2.467  -1.055  1.00  0.00    -0.003 C 
ATOM     18  C   UNL     1     -61.952   1.540   0.044  1.00  0.00     0.004 C 
ENDBRANCH  16  17
ENDBRANCH  15  16
ENDBRANCH  14  15
ENDBRANCH  13  14
ENDBRANCH  12  13
ENDBRANCH  10  11
ENDBRANCH   1  10
TORSDOF 13
ENDMDL
MODEL 8
REMARK VINA RESULT:    -5.581      2.043      2.692
REMARK INTER + INTRA:         -12.086
REMARK INTER:                  -9.669
REMARK INTRA:                  -2.417
REMARK UNBOUND:                -2.264
REMARK SMILES CCCCCCC=CCCCCCCCC(=O)[O-]
REMARK SMILES IDX 10 1 11 2 12 3 13 4 14 5 15 6 16 7 17 8 18 9 9 10 8 11 7 12
REMARK SMILES IDX 6 13 5 14 4 15 3 16 2 17 1 18
REMARK H PARENT
REMARK Flexibility Score: inf
ROOT
ATOM      1  C   UNL     1     -64.092  -3.003  -0.148  1.00  0.00     0.004 C 
ENDROOT
BRANCH   1   2
ATOM      2  C   UNL     1     -64.158  -2.623  -1.635  1.00  0.00     0.000 C 
BRANCH   2   3
ATOM      3  C   UNL     1     -62.787  -2.702  -2.329  1.00  0.00     0.000 C 
BRANCH   3   4
ATOM      4  C   UNL     1     -62.356  -1.344  -2.927  1.00  0.00     0.000 C 
BRANCH   4   5
ATOM      5  C   UNL     1     -61.251  -0.641  -2.118  1.00  0.00     0.006 C 
BRANCH   5   6
ATOM      6  C   UNL     1     -60.398  -1.593  -1.267  1.00  0.00     0.053 C 
BRANCH   6   7
ATOM      7  C   UNL     1     -58.943  -1.491  -1.608  1.00  0.00     0.041 C 
ATOM      8  O   UNL     1     -58.445  -2.225  -2.501  1.00  0.00    -0.550 OA
ATOM      9  O   UNL     1     -58.138  -0.570  -0.949  1.00  0.00    -0.550 OA
ENDBRANCH   6   7
ENDBRANCH   5   6
ENDBRANCH   4   5
ENDBRANCH   3   4
ENDBRANCH   2   3
ENDBRANCH   1   2
BRANCH   1  10
ATOM     10  C   UNL     1     -64.723  -1.937   0.762  1.00  0.00     0.027 C 
BRANCH  10  11
ATOM     11  C   UNL     1     -64.248  -0.560   0.389  1.00  0.00    -0.031 C 
ATOM     12  C   UNL     1     -63.118  -0.045   0.896  1.00  0.00    -0.031 C 
BRANCH  12  13
ATOM     13  C   UNL     1     -62.632   1.324   0.509  1.00  0.00     0.027 C 
BRANCH  13  14
ATOM     14  C   UNL     1     -63.739   2.126  -0.192  1.00  0.00     0.004 C 
BRANCH  14  15
ATOM     15  C   UNL     1     -63.318   2.636  -1.582  1.00  0.00     0.000 C 
BRANCH  15  16
ATOM     16  C   UNL     1     -64.446   2.683  -2.632  1.00  0.00    -0.000 C 
BRANCH  16  17
ATOM     17  C   UNL     1     -64.624   1.393  -3.454  1.00  0.00    -0.003 C 
ATOM     18  C   UNL     1     -65.652   0.438  -2.849  1.00  0.00     0.004 C 
ENDBRANCH  16  17
ENDBRANCH  15  16
ENDBRANCH  14  15
ENDBRANCH  13  14
ENDBRANCH  12  13
ENDBRANCH  10  11
ENDBRANCH   1  10
TORSDOF 13
ENDMDL
MODEL 9
REMARK VINA RESULT:    -5.359      3.095      4.844
REMARK INTER + INTRA:         -11.695
REMARK INTER:                  -9.352
REMARK INTRA:                  -2.343
REMARK UNBOUND:                -2.264
REMARK SMILES CCCCCCC=CCCCCCCCC(=O)[O-]
REMARK SMILES IDX 10 1 11 2 12 3 13 4 14 5 15 6 16 7 17 8 18 9 9 10 8 11 7 12
REMARK SMILES IDX 6 13 5 14 4 15 3 16 2 17 1 18
REMARK H PARENT
REMARK Flexibility Score: inf
ROOT
ATOM      1  C   UNL     1     -61.924  -2.776  -0.227  1.00  0.00     0.004 C 
ENDROOT
BRANCH   1   2
ATOM      2  C   UNL     1     -62.251  -2.364  -1.671  1.00  0.00     0.000 C 
BRANCH   2   3
ATOM      3  C   UNL     1     -61.507  -1.091  -2.108  1.00  0.00     0.000 C 
BRANCH   3   4
ATOM      4  C   UNL     1     -60.997  -0.271  -0.902  1.00  0.00     0.000 C 
BRANCH   4   5
ATOM      5  C   UNL     1     -61.642   1.123  -0.792  1.00  0.00     0.006 C 
BRANCH   5   6
ATOM      6  C   UNL     1     -62.158   1.464   0.613  1.00  0.00     0.053 C 
BRANCH   6   7
ATOM      7  C   UNL     1     -61.423   2.626   1.209  1.00  0.00     0.041 C 
ATOM      8  O   UNL     1     -60.165   2.663   1.184  1.00  0.00    -0.550 OA
ATOM      9  O   UNL     1     -62.130   3.678   1.776  1.00  0.00    -0.550 OA
ENDBRANCH   6   7
ENDBRANCH   5   6
ENDBRANCH   4   5
ENDBRANCH   3   4
ENDBRANCH   2   3
ENDBRANCH   1   2
BRANCH   1  10
ATOM     10  C   UNL     1     -63.183  -3.073   0.602  1.00  0.00     0.027 C 
BRANCH  10  11
ATOM     11  C   UNL     1     -64.363  -2.297   0.086  1.00  0.00    -0.031 C 
ATOM     12  C   UNL     1     -64.657  -1.073   0.550  1.00  0.00    -0.031 C 
BRANCH  12  13
ATOM     13  C   UNL     1     -65.825  -0.288   0.022  1.00  0.00     0.027 C 
BRANCH  13  14
ATOM     14  C   UNL     1     -65.392   0.654  -1.111  1.00  0.00     0.004 C 
BRANCH  14  15
ATOM     15  C   UNL     1     -65.336  -0.045  -2.480  1.00  0.00     0.000 C 
BRANCH  15  16
ATOM     16  C   UNL     1     -64.410   0.621  -3.519  1.00  0.00    -0.000 C 
BRANCH  16  17
ATOM     17  C   UNL     1     -64.641   2.129  -3.722  1.00  0.00    -0.003 C 
ATOM     18  C   UNL     1     -63.413   2.971  -3.378  1.00  0.00     0.004 C 
ENDBRANCH  16  17
ENDBRANCH  15  16
ENDBRANCH  14  15
ENDBRANCH  13  14
ENDBRANCH  12  13
ENDBRANCH  10  11
ENDBRANCH   1  10
TORSDOF 13
ENDMDL
