MODEL 1
REMARK VINA RESULT:    -4.593      0.000      0.000
REMARK INTER + INTRA:          -6.517
REMARK INTER:                  -6.203
REMARK INTRA:                  -0.313
REMARK UNBOUND:                -0.313
REMARK SMILES O=C[C@@H](O)[C@@H](O)[C@@H](O)CO
REMARK SMILES IDX 7 1 9 2 10 3 5 5 3 6 2 7 1 8 4 9 6 11 8 13
REMARK H PARENT 10 4 4 10 6 12 8 14
REMARK Flexibility Score: inf
ROOT
ATOM      1  C   UNL     1      64.880   2.957 -20.585  1.00  0.00     0.171 C 
ENDROOT
BRANCH   1   2
ATOM      2  C   UNL     1      65.205   2.189 -19.288  1.00  0.00     0.190 C 
BRANCH   2   3
ATOM      3  O   UNL     1      66.537   2.424 -18.923  1.00  0.00    -0.394 OA
ATOM      4  H   UNL     1      67.074   1.718 -19.368  1.00  0.00     0.210 HD
ENDBRANCH   2   3
ENDBRANCH   1   2
BRANCH   1   5
ATOM      5  C   UNL     1      64.626   2.039 -21.818  1.00  0.00     0.181 C 
BRANCH   5   6
ATOM      6  C   UNL     1      64.271   0.572 -21.481  1.00  0.00     0.209 C 
BRANCH   6   7
ATOM      7  C   UNL     1      62.789   0.371 -21.296  1.00  0.00     0.258 C 
ATOM      8  O   UNL     1      62.045   0.344 -22.263  1.00  0.00    -0.300 OA
ENDBRANCH   6   7
BRANCH   6   9
ATOM      9  O   UNL     1      64.758  -0.292 -22.475  1.00  0.00    -0.383 OA
ATOM     10  H   UNL     1      63.967  -0.676 -22.937  1.00  0.00     0.211 HD
ENDBRANCH   6   9
ENDBRANCH   5   6
BRANCH   5  11
ATOM     11  O   UNL     1      63.609   2.577 -22.628  1.00  0.00    -0.387 OA
ATOM     12  H   UNL     1      62.740   2.318 -22.223  1.00  0.00     0.211 HD
ENDBRANCH   5  11
ENDBRANCH   1   5
BRANCH   1  13
ATOM     13  O   UNL     1      63.777   3.809 -20.389  1.00  0.00    -0.388 OA
ATOM     14  H   UNL     1      63.129   3.338 -19.803  1.00  0.00     0.211 HD
ENDBRANCH   1  13
TORSDOF 8
ENDMDL
MODEL 2
REMARK VINA RESULT:    -4.368      1.821      2.389
REMARK INTER + INTRA:          -6.214
REMARK INTER:                  -5.587
REMARK INTRA:                  -0.627
REMARK UNBOUND:                -0.313
REMARK SMILES O=C[C@@H](O)[C@@H](O)[C@@H](O)CO
REMARK SMILES IDX 7 1 9 2 10 3 5 5 3 6 2 7 1 8 4 9 6 11 8 13
REMARK H PARENT 10 4 4 10 6 12 8 14
REMARK Flexibility Score: inf
ROOT
ATOM      1  C   UNL     1      64.816   1.842 -21.354  1.00  0.00     0.171 C 
ENDROOT
BRANCH   1   2
ATOM      2  C   UNL     1      64.990   2.954 -20.301  1.00  0.00     0.190 C 
BRANCH   2   3
ATOM      3  O   UNL     1      66.012   2.603 -19.409  1.00  0.00    -0.394 OA
ATOM      4  H   UNL     1      66.018   3.305 -18.707  1.00  0.00     0.210 HD
ENDBRANCH   2   3
ENDBRANCH   1   2
BRANCH   1   5
ATOM      5  C   UNL     1      64.134   0.552 -20.808  1.00  0.00     0.181 C 
BRANCH   5   6
ATOM      6  C   UNL     1      64.761  -0.777 -21.294  1.00  0.00     0.209 C 
BRANCH   6   7
ATOM      7  C   UNL     1      63.968  -1.979 -20.851  1.00  0.00     0.258 C 
ATOM      8  O   UNL     1      64.153  -2.468 -19.748  1.00  0.00    -0.300 OA
ENDBRANCH   6   7
BRANCH   6   9
ATOM      9  O   UNL     1      64.897  -0.773 -22.692  1.00  0.00    -0.383 OA
ATOM     10  H   UNL     1      65.424  -1.579 -22.933  1.00  0.00     0.211 HD
ENDBRANCH   6   9
ENDBRANCH   5   6
BRANCH   5  11
ATOM     11  O   UNL     1      64.126   0.561 -19.401  1.00  0.00    -0.387 OA
ATOM     12  H   UNL     1      63.762   1.438 -19.112  1.00  0.00     0.211 HD
ENDBRANCH   5  11
ENDBRANCH   1   5
BRANCH   1  13
ATOM     13  O   UNL     1      64.103   2.325 -22.466  1.00  0.00    -0.388 OA
ATOM     14  H   UNL     1      63.993   3.305 -22.355  1.00  0.00     0.211 HD
ENDBRANCH   1  13
TORSDOF 8
ENDMDL
MODEL 3
REMARK VINA RESULT:    -4.347      2.579      4.578
REMARK INTER + INTRA:          -6.186
REMARK INTER:                  -5.696
REMARK INTRA:                  -0.489
REMARK UNBOUND:                -0.313
REMARK SMILES O=C[C@@H](O)[C@@H](O)[C@@H](O)CO
REMARK SMILES IDX 7 1 9 2 10 3 5 5 3 6 2 7 1 8 4 9 6 11 8 13
REMARK H PARENT 10 4 4 10 6 12 8 14
REMARK Flexibility Score: inf
ROOT
ATOM      1  C   UNL     1      64.824  -2.155 -21.494  1.00  0.00     0.171 C 
ENDROOT
BRANCH   1   2
ATOM      2  C   UNL     1      63.763  -3.247 -21.257  1.00  0.00     0.190 C 
BRANCH   2   3
ATOM      3  O   UNL     1      63.923  -3.792 -19.976  1.00  0.00    -0.394 OA
ATOM      4  H   UNL     1      63.454  -4.666 -19.988  1.00  0.00     0.210 HD
ENDBRANCH   2   3
ENDBRANCH   1   2
BRANCH   1   5
ATOM      5  C   UNL     1      64.547  -0.826 -20.729  1.00  0.00     0.181 C 
BRANCH   5   6
ATOM      6  C   UNL     1      64.243   0.396 -21.628  1.00  0.00     0.209 C 
BRANCH   6   7
ATOM      7  C   UNL     1      64.711   1.689 -21.013  1.00  0.00     0.258 C 
ATOM      8  O   UNL     1      65.073   1.723 -19.848  1.00  0.00    -0.300 OA
ENDBRANCH   6   7
BRANCH   6   9
ATOM      9  O   UNL     1      64.818   0.226 -22.898  1.00  0.00    -0.383 OA
ATOM     10  H   UNL     1      65.678  -0.252 -22.763  1.00  0.00     0.211 HD
ENDBRANCH   6   9
ENDBRANCH   5   6
BRANCH   5  11
ATOM     11  O   UNL     1      63.485  -0.995 -19.821  1.00  0.00    -0.387 OA
ATOM     12  H   UNL     1      62.664  -0.650 -20.258  1.00  0.00     0.211 HD
ENDBRANCH   5  11
ENDBRANCH   1   5
BRANCH   1  13
ATOM     13  O   UNL     1      66.106  -2.635 -21.167  1.00  0.00    -0.388 OA
ATOM     14  H   UNL     1      66.565  -2.876 -22.014  1.00  0.00     0.211 HD
ENDBRANCH   1  13
TORSDOF 8
ENDMDL
MODEL 4
REMARK VINA RESULT:    -4.309      1.504      3.817
REMARK INTER + INTRA:          -6.134
REMARK INTER:                  -5.343
REMARK INTRA:                  -0.791
REMARK UNBOUND:                -0.313
REMARK SMILES O=C[C@@H](O)[C@@H](O)[C@@H](O)CO
REMARK SMILES IDX 7 1 9 2 10 3 5 5 3 6 2 7 1 8 4 9 6 11 8 13
REMARK H PARENT 10 4 4 10 6 12 8 14
REMARK Flexibility Score: inf
ROOT
ATOM      1  C   UNL     1      64.380  -0.269 -20.351  1.00  0.00     0.171 C 
ENDROOT
BRANCH   1   2
ATOM      2  C   UNL     1      64.489   0.024 -21.861  1.00  0.00     0.190 C 
BRANCH   2   3
ATOM      3  O   UNL     1      63.337   0.693 -22.295  1.00  0.00    -0.394 OA
ATOM      4  H   UNL     1      63.648   1.408 -22.908  1.00  0.00     0.210 HD
ENDBRANCH   2   3
ENDBRANCH   1   2
BRANCH   1   5
ATOM      5  C   UNL     1      64.410   1.005 -19.454  1.00  0.00     0.181 C 
BRANCH   5   6
ATOM      6  C   UNL     1      65.389   2.110 -19.918  1.00  0.00     0.209 C 
BRANCH   6   7
ATOM      7  C   UNL     1      64.679   3.391 -20.272  1.00  0.00     0.258 C 
ATOM      8  O   UNL     1      63.934   3.437 -21.238  1.00  0.00    -0.300 OA
ENDBRANCH   6   7
BRANCH   6   9
ATOM      9  O   UNL     1      66.361   2.349 -18.933  1.00  0.00    -0.383 OA
ATOM     10  H   UNL     1      65.978   3.020 -18.307  1.00  0.00     0.211 HD
ENDBRANCH   6   9
ENDBRANCH   5   6
BRANCH   5  11
ATOM     11  O   UNL     1      63.121   1.558 -19.347  1.00  0.00    -0.387 OA
ATOM     12  H   UNL     1      63.152   2.246 -18.633  1.00  0.00     0.211 HD
ENDBRANCH   5  11
ENDBRANCH   1   5
BRANCH   1  13
ATOM     13  O   UNL     1      63.222  -1.019 -20.077  1.00  0.00    -0.388 OA
ATOM     14  H   UNL     1      63.488  -1.972 -19.996  1.00  0.00     0.211 HD
ENDBRANCH   1  13
TORSDOF 8
ENDMDL
MODEL 5
REMARK VINA RESULT:    -4.308      1.148      2.448
REMARK INTER + INTRA:          -6.132
REMARK INTER:                  -5.552
REMARK INTRA:                  -0.580
REMARK UNBOUND:                -0.313
REMARK SMILES O=C[C@@H](O)[C@@H](O)[C@@H](O)CO
REMARK SMILES IDX 7 1 9 2 10 3 5 5 3 6 2 7 1 8 4 9 6 11 8 13
REMARK H PARENT 10 4 4 10 6 12 8 14
REMARK Flexibility Score: inf
ROOT
ATOM      1  C   UNL     1      65.298   1.908 -19.666  1.00  0.00     0.171 C 
ENDROOT
BRANCH   1   2
ATOM      2  C   UNL     1      64.163   1.599 -18.670  1.00  0.00     0.190 C 
BRANCH   2   3
ATOM      3  O   UNL     1      63.030   1.159 -19.367  1.00  0.00    -0.394 OA
ATOM      4  H   UNL     1      63.131   1.494 -20.296  1.00  0.00     0.210 HD
ENDBRANCH   2   3
ENDBRANCH   1   2
BRANCH   1   5
ATOM      5  C   UNL     1      64.900   2.913 -20.789  1.00  0.00     0.181 C 
BRANCH   5   6
ATOM      6  C   UNL     1      64.421   2.263 -22.109  1.00  0.00     0.209 C 
BRANCH   6   7
ATOM      7  C   UNL     1      64.736   0.791 -22.169  1.00  0.00     0.258 C 
ATOM      8  O   UNL     1      63.845  -0.036 -22.064  1.00  0.00    -0.300 OA
ENDBRANCH   6   7
BRANCH   6   9
ATOM      9  O   UNL     1      63.043   2.472 -22.287  1.00  0.00    -0.383 OA
ATOM     10  H   UNL     1      62.678   2.753 -21.407  1.00  0.00     0.211 HD
ENDBRANCH   6   9
ENDBRANCH   5   6
BRANCH   5  11
ATOM     11  O   UNL     1      63.902   3.791 -20.329  1.00  0.00    -0.387 OA
ATOM     12  H   UNL     1      64.333   4.425 -19.698  1.00  0.00     0.211 HD
ENDBRANCH   5  11
ENDBRANCH   1   5
BRANCH   1  13
ATOM     13  O   UNL     1      66.435   2.380 -18.985  1.00  0.00    -0.388 OA
ATOM     14  H   UNL     1      66.394   3.372 -18.974  1.00  0.00     0.211 HD
ENDBRANCH   1  13
TORSDOF 8
ENDMDL
MODEL 6
REMARK VINA RESULT:    -4.250      2.531      3.866
REMARK INTER + INTRA:          -6.054
REMARK INTER:                  -5.593
REMARK INTRA:                  -0.461
REMARK UNBOUND:                -0.313
REMARK SMILES O=C[C@@H](O)[C@@H](O)[C@@H](O)CO
REMARK SMILES IDX 7 1 9 2 10 3 5 5 3 6 2 7 1 8 4 9 6 11 8 13
REMARK H PARENT 10 4 4 10 6 12 8 14
REMARK Flexibility Score: inf
ROOT
ATOM      1  C   UNL     1      64.271   0.436 -21.609  1.00  0.00     0.171 C 
ENDROOT
BRANCH   1   2
ATOM      2  C   UNL     1      63.180   1.524 -21.564  1.00  0.00     0.190 C 
BRANCH   2   3
ATOM      3  O   UNL     1      63.469   2.521 -22.504  1.00  0.00    -0.394 OA
ATOM      4  H   UNL     1      64.132   3.122 -22.074  1.00  0.00     0.210 HD
ENDBRANCH   2   3
ENDBRANCH   1   2
BRANCH   1   5
ATOM      5  C   UNL     1      63.852  -0.911 -20.948  1.00  0.00     0.181 C 
BRANCH   5   6
ATOM      6  C   UNL     1      65.012  -1.900 -20.684  1.00  0.00     0.209 C 
BRANCH   6   7
ATOM      7  C   UNL     1      64.539  -3.176 -20.037  1.00  0.00     0.258 C 
ATOM      8  O   UNL     1      64.499  -3.275 -18.822  1.00  0.00    -0.300 OA
ENDBRANCH   6   7
BRANCH   6   9
ATOM      9  O   UNL     1      65.695  -2.185 -21.878  1.00  0.00    -0.383 OA
ATOM     10  H   UNL     1      65.009  -2.255 -22.593  1.00  0.00     0.211 HD
ENDBRANCH   6   9
ENDBRANCH   5   6
BRANCH   5  11
ATOM     11  O   UNL     1      63.176  -0.672 -19.737  1.00  0.00    -0.387 OA
ATOM     12  H   UNL     1      62.878   0.274 -19.745  1.00  0.00     0.211 HD
ENDBRANCH   5  11
ENDBRANCH   1   5
BRANCH   1  13
ATOM     13  O   UNL     1      64.685   0.208 -22.934  1.00  0.00    -0.388 OA
ATOM     14  H   UNL     1      64.934   1.084 -23.330  1.00  0.00     0.211 HD
ENDBRANCH   1  13
TORSDOF 8
ENDMDL
MODEL 7
REMARK VINA RESULT:    -4.214      1.990      3.213
REMARK INTER + INTRA:          -6.005
REMARK INTER:                  -5.336
REMARK INTRA:                  -0.669
REMARK UNBOUND:                -0.313
REMARK SMILES O=C[C@@H](O)[C@@H](O)[C@@H](O)CO
REMARK SMILES IDX 7 1 9 2 10 3 5 5 3 6 2 7 1 8 4 9 6 11 8 13
REMARK H PARENT 10 4 4 10 6 12 8 14
REMARK Flexibility Score: inf
ROOT
ATOM      1  C   UNL     1      64.242   1.315 -20.616  1.00  0.00     0.171 C 
ENDROOT
BRANCH   1   2
ATOM      2  C   UNL     1      64.421   2.539 -21.536  1.00  0.00     0.190 C 
BRANCH   2   3
ATOM      3  O   UNL     1      63.391   2.571 -22.485  1.00  0.00    -0.394 OA
ATOM      4  H   UNL     1      63.777   2.990 -23.297  1.00  0.00     0.210 HD
ENDBRANCH   2   3
ENDBRANCH   1   2
BRANCH   1   5
ATOM      5  C   UNL     1      64.665  -0.036 -21.268  1.00  0.00     0.181 C 
BRANCH   5   6
ATOM      6  C   UNL     1      63.971  -1.290 -20.686  1.00  0.00     0.209 C 
BRANCH   6   7
ATOM      7  C   UNL     1      64.818  -2.528 -20.823  1.00  0.00     0.258 C 
ATOM      8  O   UNL     1      65.884  -2.484 -21.417  1.00  0.00    -0.300 OA
ENDBRANCH   6   7
BRANCH   6   9
ATOM      9  O   UNL     1      63.631  -1.081 -19.339  1.00  0.00    -0.383 OA
ATOM     10  H   UNL     1      64.473  -1.149 -18.815  1.00  0.00     0.211 HD
ENDBRANCH   6   9
ENDBRANCH   5   6
BRANCH   5  11
ATOM     11  O   UNL     1      64.443   0.000 -22.657  1.00  0.00    -0.387 OA
ATOM     12  H   UNL     1      63.908  -0.801 -22.892  1.00  0.00     0.211 HD
ENDBRANCH   5  11
ENDBRANCH   1   5
BRANCH   1  13
ATOM     13  O   UNL     1      64.939   1.501 -19.408  1.00  0.00    -0.388 OA
ATOM     14  H   UNL     1      65.788   0.991 -19.466  1.00  0.00     0.211 HD
ENDBRANCH   1  13
TORSDOF 8
ENDMDL
MODEL 8
REMARK VINA RESULT:    -4.200      1.551      3.510
REMARK INTER + INTRA:          -5.987
REMARK INTER:                  -5.368
REMARK INTRA:                  -0.618
REMARK UNBOUND:                -0.313
REMARK SMILES O=C[C@@H](O)[C@@H](O)[C@@H](O)CO
REMARK SMILES IDX 7 1 9 2 10 3 5 5 3 6 2 7 1 8 4 9 6 11 8 13
REMARK H PARENT 10 4 4 10 6 12 8 14
REMARK Flexibility Score: inf
ROOT
ATOM      1  C   UNL     1      63.985  -0.130 -20.404  1.00  0.00     0.171 C 
ENDROOT
BRANCH   1   2
ATOM      2  C   UNL     1      64.161  -1.466 -21.152  1.00  0.00     0.190 C 
BRANCH   2   3
ATOM      3  O   UNL     1      64.980  -1.275 -22.272  1.00  0.00    -0.394 OA
ATOM      4  H   UNL     1      65.764  -1.871 -22.145  1.00  0.00     0.210 HD
ENDBRANCH   2   3
ENDBRANCH   1   2
BRANCH   1   5
ATOM      5  C   UNL     1      63.300   0.985 -21.251  1.00  0.00     0.181 C 
BRANCH   5   6
ATOM      6  C   UNL     1      64.252   2.084 -21.778  1.00  0.00     0.209 C 
BRANCH   6   7
ATOM      7  C   UNL     1      65.190   2.589 -20.712  1.00  0.00     0.258 C 
ATOM      8  O   UNL     1      64.809   3.412 -19.895  1.00  0.00    -0.300 OA
ENDBRANCH   6   7
BRANCH   6   9
ATOM      9  O   UNL     1      64.982   1.613 -22.883  1.00  0.00    -0.383 OA
ATOM     10  H   UNL     1      65.758   2.222 -22.996  1.00  0.00     0.211 HD
ENDBRANCH   6   9
ENDBRANCH   5   6
BRANCH   5  11
ATOM     11  O   UNL     1      62.613   0.420 -22.341  1.00  0.00    -0.387 OA
ATOM     12  H   UNL     1      62.566   1.110 -23.052  1.00  0.00     0.211 HD
ENDBRANCH   5  11
ENDBRANCH   1   5
BRANCH   1  13
ATOM     13  O   UNL     1      63.272  -0.326 -19.207  1.00  0.00    -0.388 OA
ATOM     14  H   UNL     1      63.064  -1.293 -19.132  1.00  0.00     0.211 HD
ENDBRANCH   1  13
TORSDOF 8
ENDMDL
MODEL 9
REMARK VINA RESULT:    -4.162      1.157      1.761
REMARK INTER + INTRA:          -5.936
REMARK INTER:                  -5.375
REMARK INTRA:                  -0.561
REMARK UNBOUND:                -0.313
REMARK SMILES O=C[C@@H](O)[C@@H](O)[C@@H](O)CO
REMARK SMILES IDX 7 1 9 2 10 3 5 5 3 6 2 7 1 8 4 9 6 11 8 13
REMARK H PARENT 10 4 4 10 6 12 8 14
REMARK Flexibility Score: inf
ROOT
ATOM      1  C   UNL     1      64.839   2.124 -21.469  1.00  0.00     0.171 C 
ENDROOT
BRANCH   1   2
ATOM      2  C   UNL     1      64.822   2.895 -20.134  1.00  0.00     0.190 C 
BRANCH   2   3
ATOM      3  O   UNL     1      65.990   2.616 -19.413  1.00  0.00    -0.394 OA
ATOM      4  H   UNL     1      65.741   1.934 -18.737  1.00  0.00     0.210 HD
ENDBRANCH   2   3
ENDBRANCH   1   2
BRANCH   1   5
ATOM      5  C   UNL     1      64.678   0.582 -21.314  1.00  0.00     0.181 C 
BRANCH   5   6
ATOM      6  C   UNL     1      63.530   0.135 -20.378  1.00  0.00     0.209 C 
BRANCH   6   7
ATOM      7  C   UNL     1      62.310  -0.310 -21.142  1.00  0.00     0.258 C 
ATOM      8  O   UNL     1      61.875   0.368 -22.059  1.00  0.00    -0.300 OA
ENDBRANCH   6   7
BRANCH   6   9
ATOM      9  O   UNL     1      63.967  -0.889 -19.521  1.00  0.00    -0.383 OA
ATOM     10  H   UNL     1      63.950  -1.732 -20.046  1.00  0.00     0.211 HD
ENDBRANCH   6   9
ENDBRANCH   5   6
BRANCH   5  11
ATOM     11  O   UNL     1      64.497  -0.021 -22.572  1.00  0.00    -0.387 OA
ATOM     12  H   UNL     1      65.398  -0.178 -22.958  1.00  0.00     0.211 HD
ENDBRANCH   5  11
ENDBRANCH   1   5
BRANCH   1  13
ATOM     13  O   UNL     1      63.851   2.622 -22.338  1.00  0.00    -0.388 OA
ATOM     14  H   UNL     1      64.306   2.982 -23.143  1.00  0.00     0.211 HD
ENDBRANCH   1  13
TORSDOF 8
ENDMDL
