MODEL 1
REMARK VINA RESULT:    -3.136      0.000      0.000
REMARK INTER + INTRA:          -3.136
REMARK INTER:                  -3.136
REMARK INTRA:                   0.000
REMARK UNBOUND:                 0.000
REMARK SMILES CC(=O)[O-]
REMARK SMILES IDX 1 1 2 2 3 3 4 4
REMARK H PARENT
REMARK Flexibility Score: inf
ROOT
ATOM      1  C   UNL     1     136.062 130.999 109.863  1.00  0.00     0.063 C 
ATOM      2  C   UNL     1     134.598 130.745 109.979  1.00  0.00     0.038 C 
ATOM      3  O   UNL     1     133.797 131.292 109.176  1.00  0.00    -0.550 OA
ATOM      4  O   UNL     1     134.108 129.948 111.005  1.00  0.00    -0.550 OA
ENDROOT
TORSDOF 0
ENDMDL
MODEL 2
REMARK VINA RESULT:    -2.918      6.803      7.143
REMARK INTER + INTRA:          -2.918
REMARK INTER:                  -2.918
REMARK INTRA:                   0.000
REMARK UNBOUND:                 0.000
REMARK SMILES CC(=O)[O-]
REMARK SMILES IDX 1 1 2 2 3 3 4 4
REMARK H PARENT
REMARK Flexibility Score: inf
ROOT
ATOM      1  C   UNL     1     127.886 130.805 109.894  1.00  0.00     0.063 C 
ATOM      2  C   UNL     1     127.787 132.290 109.968  1.00  0.00     0.038 C 
ATOM      3  O   UNL     1     127.033 132.913 109.175  1.00  0.00    -0.550 OA
ATOM      4  O   UNL     1     128.567 132.996 110.874  1.00  0.00    -0.550 OA
ENDROOT
TORSDOF 0
ENDMDL
MODEL 3
REMARK VINA RESULT:    -2.899      7.144      7.546
REMARK INTER + INTRA:          -2.899
REMARK INTER:                  -2.899
REMARK INTRA:                   0.000
REMARK UNBOUND:                 0.000
REMARK SMILES CC(=O)[O-]
REMARK SMILES IDX 1 1 2 2 3 3 4 4
REMARK H PARENT
REMARK Flexibility Score: inf
ROOT
ATOM      1  C   UNL     1     128.414 131.089 110.290  1.00  0.00     0.063 C 
ATOM      2  C   UNL     1     127.430 132.208 110.260  1.00  0.00     0.038 C 
ATOM      3  O   UNL     1     126.961 132.666 111.336  1.00  0.00    -0.550 OA
ATOM      4  O   UNL     1     126.984 132.712 109.045  1.00  0.00    -0.550 OA
ENDROOT
TORSDOF 0
ENDMDL
MODEL 4
REMARK VINA RESULT:    -2.870      2.086      2.236
REMARK INTER + INTRA:          -2.870
REMARK INTER:                  -2.870
REMARK INTRA:                   0.000
REMARK UNBOUND:                 0.000
REMARK SMILES CC(=O)[O-]
REMARK SMILES IDX 1 1 2 2 3 3 4 4
REMARK H PARENT
REMARK Flexibility Score: inf
ROOT
ATOM      1  C   UNL     1     136.724 131.084 110.136  1.00  0.00     0.063 C 
ATOM      2  C   UNL     1     135.683 131.962 110.741  1.00  0.00     0.038 C 
ATOM      3  O   UNL     1     136.020 132.924 111.481  1.00  0.00    -0.550 OA
ATOM      4  O   UNL     1     134.337 131.691 110.534  1.00  0.00    -0.550 OA
ENDROOT
TORSDOF 0
ENDMDL
MODEL 5
REMARK VINA RESULT:    -2.836      2.125      2.417
REMARK INTER + INTRA:          -2.836
REMARK INTER:                  -2.836
REMARK INTRA:                   0.000
REMARK UNBOUND:                 0.000
REMARK SMILES CC(=O)[O-]
REMARK SMILES IDX 1 1 2 2 3 3 4 4
REMARK H PARENT
REMARK Flexibility Score: inf
ROOT
ATOM      1  C   UNL     1     134.296 130.923 109.810  1.00  0.00     0.063 C 
ATOM      2  C   UNL     1     135.699 131.316 110.127  1.00  0.00     0.038 C 
ATOM      3  O   UNL     1     135.925 132.216 110.978  1.00  0.00    -0.550 OA
ATOM      4  O   UNL     1     136.757 130.729 109.447  1.00  0.00    -0.550 OA
ENDROOT
TORSDOF 0
ENDMDL
MODEL 6
REMARK VINA RESULT:    -2.816      8.077      8.638
REMARK INTER + INTRA:          -2.816
REMARK INTER:                  -2.816
REMARK INTRA:                   0.000
REMARK UNBOUND:                 0.000
REMARK SMILES CC(=O)[O-]
REMARK SMILES IDX 1 1 2 2 3 3 4 4
REMARK H PARENT
REMARK Flexibility Score: inf
ROOT
ATOM      1  C   UNL     1     128.033 123.603 110.957  1.00  0.00     0.063 C 
ATOM      2  C   UNL     1     129.141 124.576 110.744  1.00  0.00     0.038 C 
ATOM      3  O   UNL     1     129.603 125.230 111.716  1.00  0.00    -0.550 OA
ATOM      4  O   UNL     1     129.631 124.804 109.465  1.00  0.00    -0.550 OA
ENDROOT
TORSDOF 0
ENDMDL
MODEL 7
REMARK VINA RESULT:    -2.777      6.016      6.528
REMARK INTER + INTRA:          -2.777
REMARK INTER:                  -2.777
REMARK INTRA:                   0.000
REMARK UNBOUND:                 0.000
REMARK SMILES CC(=O)[O-]
REMARK SMILES IDX 1 1 2 2 3 3 4 4
REMARK H PARENT
REMARK Flexibility Score: inf
ROOT
ATOM      1  C   UNL     1     128.599 128.113 108.588  1.00  0.00     0.063 C 
ATOM      2  C   UNL     1     129.585 127.222 109.262  1.00  0.00     0.038 C 
ATOM      3  O   UNL     1     130.143 127.590 110.329  1.00  0.00    -0.550 OA
ATOM      4  O   UNL     1     129.931 126.006 108.689  1.00  0.00    -0.550 OA
ENDROOT
TORSDOF 0
ENDMDL
MODEL 8
REMARK VINA RESULT:    -2.594     15.172     15.339
REMARK INTER + INTRA:          -2.594
REMARK INTER:                  -2.594
REMARK INTRA:                   0.000
REMARK UNBOUND:                 0.000
REMARK SMILES CC(=O)[O-]
REMARK SMILES IDX 1 1 2 2 3 3 4 4
REMARK H PARENT
REMARK Flexibility Score: inf
ROOT
ATOM      1  C   UNL     1     139.869 116.893 103.082  1.00  0.00     0.063 C 
ATOM      2  C   UNL     1     139.816 118.374 102.916  1.00  0.00     0.038 C 
ATOM      3  O   UNL     1     140.125 119.128 103.876  1.00  0.00    -0.550 OA
ATOM      4  O   UNL     1     139.375 118.925 101.720  1.00  0.00    -0.550 OA
ENDROOT
TORSDOF 0
ENDMDL
MODEL 9
REMARK VINA RESULT:    -2.531      5.682      5.970
REMARK INTER + INTRA:          -2.531
REMARK INTER:                  -2.531
REMARK INTRA:                   0.000
REMARK UNBOUND:                 0.000
REMARK SMILES CC(=O)[O-]
REMARK SMILES IDX 1 1 2 2 3 3 4 4
REMARK H PARENT
REMARK Flexibility Score: inf
ROOT
ATOM      1  C   UNL     1     128.412 129.122 109.155  1.00  0.00     0.063 C 
ATOM      2  C   UNL     1     128.872 130.304 109.937  1.00  0.00     0.038 C 
ATOM      3  O   UNL     1     128.685 131.468 109.492  1.00  0.00    -0.550 OA
ATOM      4  O   UNL     1     129.556 130.126 111.132  1.00  0.00    -0.550 OA
ENDROOT
TORSDOF 0
ENDMDL
