MODEL 1
REMARK VINA RESULT:    -3.569      0.000      0.000
REMARK INTER + INTRA:          -4.439
REMARK INTER:                  -4.299
REMARK INTRA:                  -0.140
REMARK UNBOUND:                -0.140
REMARK SMILES Oc1cc(O)c2c(c1)O[C@@H](c1ccc(O)c(O)c1)[C@@H](O)C2
REMARK SMILES IDX 21 1 19 2 10 3 9 4 7 5 8 6 2 7 3 8 4 9 6 10 20 11 11 13
REMARK SMILES IDX 18 14 12 15 16 16 13 17 14 18 17 19 15 21 5 23 1 25
REMARK H PARENT 20 12 17 20 15 22 5 24 1 26
REMARK Flexibility Score: inf
ROOT
ATOM      1  C   UNL     1       6.193   6.704  -3.079  1.00  0.00     0.079 C 
ATOM      2  C   UNL     1       4.784   7.323  -3.000  1.00  0.00     0.164 C 
ATOM      3  C   UNL     1       4.774   8.794  -3.481  1.00  0.00     0.232 C 
ATOM      4  O   UNL     1       5.790   9.548  -2.811  1.00  0.00    -0.482 OA
ATOM      5  C   UNL     1       6.987   8.988  -2.343  1.00  0.00     0.131 A 
ATOM      6  C   UNL     1       7.951   9.826  -1.773  1.00  0.00     0.093 A 
ATOM      7  C   UNL     1       9.161   9.297  -1.308  1.00  0.00     0.122 A 
ATOM      8  C   UNL     1       9.409   7.926  -1.421  1.00  0.00     0.092 A 
ATOM      9  C   UNL     1       8.451   7.075  -1.991  1.00  0.00     0.126 A 
ATOM     10  C   UNL     1       7.223   7.601  -2.435  1.00  0.00     0.039 A 
ENDROOT
BRANCH   2  11
ATOM     11  O   UNL     1       3.834   6.543  -3.685  1.00  0.00    -0.389 OA
ATOM     12  H   UNL     1       4.302   6.055  -4.412  1.00  0.00     0.211 HD
ENDBRANCH   2  11
BRANCH   3  13
ATOM     13  C   UNL     1       4.903   8.934  -4.989  1.00  0.00    -0.001 A 
ATOM     14  C   UNL     1       6.158   8.964  -5.624  1.00  0.00     0.057 A 
ATOM     15  C   UNL     1       3.742   8.997  -5.779  1.00  0.00     0.012 A 
ATOM     16  C   UNL     1       6.251   9.061  -7.020  1.00  0.00     0.157 A 
ATOM     17  C   UNL     1       3.833   9.101  -7.169  1.00  0.00     0.050 A 
ATOM     18  C   UNL     1       5.082   9.132  -7.794  1.00  0.00     0.157 A 
BRANCH  16  19
ATOM     19  O   UNL     1       7.500   9.090  -7.638  1.00  0.00    -0.504 OA
ATOM     20  H   UNL     1       8.265   9.639  -7.264  1.00  0.00     0.293 HD
ENDBRANCH  16  19
BRANCH  18  21
ATOM     21  O   UNL     1       5.142   9.233  -9.184  1.00  0.00    -0.504 OA
ATOM     22  H   UNL     1       4.355   8.995  -9.775  1.00  0.00     0.293 HD
ENDBRANCH  18  21
ENDBRANCH   3  13
BRANCH   9  23
ATOM     23  O   UNL     1       8.717   5.712  -2.117  1.00  0.00    -0.507 OA
ATOM     24  H   UNL     1       8.160   5.015  -1.638  1.00  0.00     0.293 HD
ENDBRANCH   9  23
BRANCH   7  25
ATOM     25  O   UNL     1      10.125  10.125  -0.738  1.00  0.00    -0.508 OA
ATOM     26  H   UNL     1      10.085  10.389   0.240  1.00  0.00     0.293 HD
ENDBRANCH   7  25
TORSDOF 6
ENDMDL
MODEL 2
REMARK VINA RESULT:    -3.510     14.209     15.774
REMARK INTER + INTRA:          -4.368
REMARK INTER:                  -4.288
REMARK INTRA:                  -0.081
REMARK UNBOUND:                -0.140
REMARK SMILES Oc1cc(O)c2c(c1)O[C@@H](c1ccc(O)c(O)c1)[C@@H](O)C2
REMARK SMILES IDX 21 1 19 2 10 3 9 4 7 5 8 6 2 7 3 8 4 9 6 10 20 11 11 13
REMARK SMILES IDX 18 14 12 15 16 16 13 17 14 18 17 19 15 21 5 23 1 25
REMARK H PARENT 20 12 17 20 15 22 5 24 1 26
REMARK Flexibility Score: inf
ROOT
ATOM      1  C   UNL     1      -8.496   4.437  -7.101  1.00  0.00     0.079 C 
ATOM      2  C   UNL     1      -9.319   3.535  -8.041  1.00  0.00     0.164 C 
ATOM      3  C   UNL     1      -8.790   3.588  -9.495  1.00  0.00     0.232 C 
ATOM      4  O   UNL     1      -8.666   4.945  -9.935  1.00  0.00    -0.482 OA
ATOM      5  C   UNL     1      -8.403   6.017  -9.072  1.00  0.00     0.131 A 
ATOM      6  C   UNL     1      -8.220   7.294  -9.611  1.00  0.00     0.093 A 
ATOM      7  C   UNL     1      -7.943   8.382  -8.774  1.00  0.00     0.122 A 
ATOM      8  C   UNL     1      -7.843   8.188  -7.394  1.00  0.00     0.092 A 
ATOM      9  C   UNL     1      -8.024   6.913  -6.840  1.00  0.00     0.126 A 
ATOM     10  C   UNL     1      -8.328   5.823  -7.677  1.00  0.00     0.039 A 
ENDROOT
BRANCH   2  11
ATOM     11  O   UNL     1      -9.395   2.215  -7.560  1.00  0.00    -0.389 OA
ATOM     12  H   UNL     1      -9.573   1.615  -8.331  1.00  0.00     0.211 HD
ENDBRANCH   2  11
BRANCH   3  13
ATOM     13  C   UNL     1      -7.484   2.836  -9.688  1.00  0.00    -0.001 A 
ATOM     14  C   UNL     1      -6.258   3.509  -9.836  1.00  0.00     0.057 A 
ATOM     15  C   UNL     1      -7.489   1.430  -9.682  1.00  0.00     0.012 A 
ATOM     16  C   UNL     1      -5.061   2.792  -9.979  1.00  0.00     0.157 A 
ATOM     17  C   UNL     1      -6.299   0.715  -9.832  1.00  0.00     0.050 A 
ATOM     18  C   UNL     1      -5.084   1.388  -9.979  1.00  0.00     0.157 A 
BRANCH  16  19
ATOM     19  O   UNL     1      -3.852   3.471 -10.125  1.00  0.00    -0.504 OA
ATOM     20  H   UNL     1      -3.819   4.442 -10.409  1.00  0.00     0.293 HD
ENDBRANCH  16  19
BRANCH  18  21
ATOM     21  O   UNL     1      -3.911   0.648 -10.125  1.00  0.00    -0.504 OA
ATOM     22  H   UNL     1      -3.326   0.725 -10.948  1.00  0.00     0.293 HD
ENDBRANCH  18  21
ENDBRANCH   3  13
BRANCH   9  23
ATOM     23  O   UNL     1      -7.902   6.728  -5.463  1.00  0.00    -0.507 OA
ATOM     24  H   UNL     1      -8.127   5.844  -5.024  1.00  0.00     0.293 HD
ENDBRANCH   9  23
BRANCH   7  25
ATOM     25  O   UNL     1      -7.762   9.657  -9.305  1.00  0.00    -0.508 OA
ATOM     26  H   UNL     1      -6.986  10.244  -9.020  1.00  0.00     0.293 HD
ENDBRANCH   7  25
TORSDOF 6
ENDMDL
MODEL 3
REMARK VINA RESULT:    -3.116      8.367     11.204
REMARK INTER + INTRA:          -3.893
REMARK INTER:                  -3.905
REMARK INTRA:                   0.012
REMARK UNBOUND:                -0.140
REMARK SMILES Oc1cc(O)c2c(c1)O[C@@H](c1ccc(O)c(O)c1)[C@@H](O)C2
REMARK SMILES IDX 21 1 19 2 10 3 9 4 7 5 8 6 2 7 3 8 4 9 6 10 20 11 11 13
REMARK SMILES IDX 18 14 12 15 16 16 13 17 14 18 17 19 15 21 5 23 1 25
REMARK H PARENT 20 12 17 20 15 22 5 24 1 26
REMARK Flexibility Score: inf
ROOT
ATOM      1  C   UNL     1       7.833   7.837   8.125  1.00  0.00     0.079 C 
ATOM      2  C   UNL     1       9.018   8.778   7.834  1.00  0.00     0.164 C 
ATOM      3  C   UNL     1       9.780   8.364   6.552  1.00  0.00     0.232 C 
ATOM      4  O   UNL     1      10.125   6.975   6.600  1.00  0.00    -0.482 OA
ATOM      5  C   UNL     1       9.373   6.015   7.291  1.00  0.00     0.131 A 
ATOM      6  C   UNL     1       9.750   4.671   7.210  1.00  0.00     0.093 A 
ATOM      7  C   UNL     1       9.012   3.688   7.879  1.00  0.00     0.122 A 
ATOM      8  C   UNL     1       7.888   4.052   8.625  1.00  0.00     0.092 A 
ATOM      9  C   UNL     1       7.499   5.395   8.715  1.00  0.00     0.126 A 
ATOM     10  C   UNL     1       8.255   6.388   8.065  1.00  0.00     0.039 A 
ENDROOT
BRANCH   2  11
ATOM     11  O   UNL     1       8.613  10.125   7.789  1.00  0.00    -0.389 OA
ATOM     12  H   UNL     1       8.040  10.249   6.987  1.00  0.00     0.211 HD
ENDBRANCH   2  11
BRANCH   3  13
ATOM     13  C   UNL     1       9.026   8.689   5.273  1.00  0.00    -0.001 A 
ATOM     14  C   UNL     1       7.689   8.296   5.082  1.00  0.00     0.057 A 
ATOM     15  C   UNL     1       9.663   9.435   4.266  1.00  0.00     0.012 A 
ATOM     16  C   UNL     1       7.004   8.637   3.907  1.00  0.00     0.157 A 
ATOM     17  C   UNL     1       8.985   9.769   3.092  1.00  0.00     0.050 A 
ATOM     18  C   UNL     1       7.657   9.375   2.907  1.00  0.00     0.157 A 
BRANCH  16  19
ATOM     19  O   UNL     1       5.679   8.241   3.729  1.00  0.00    -0.504 OA
ATOM     20  H   UNL     1       5.000   8.307   4.478  1.00  0.00     0.293 HD
ENDBRANCH  16  19
BRANCH  18  21
ATOM     21  O   UNL     1       7.004   9.724   1.725  1.00  0.00    -0.504 OA
ATOM     22  H   UNL     1       7.134   9.205   0.865  1.00  0.00     0.293 HD
ENDBRANCH  18  21
ENDBRANCH   3  13
BRANCH   9  23
ATOM     23  O   UNL     1       6.364   5.745   9.447  1.00  0.00    -0.507 OA
ATOM     24  H   UNL     1       6.432   6.210  10.344  1.00  0.00     0.293 HD
ENDBRANCH   9  23
BRANCH   7  25
ATOM     25  O   UNL     1       9.383   2.347   7.804  1.00  0.00    -0.508 OA
ATOM     26  H   UNL     1      10.330   2.047   8.005  1.00  0.00     0.293 HD
ENDBRANCH   7  25
TORSDOF 6
ENDMDL
MODEL 4
REMARK VINA RESULT:    -2.970     14.638     16.429
REMARK INTER + INTRA:          -3.718
REMARK INTER:                  -3.895
REMARK INTRA:                   0.177
REMARK UNBOUND:                -0.140
REMARK SMILES Oc1cc(O)c2c(c1)O[C@@H](c1ccc(O)c(O)c1)[C@@H](O)C2
REMARK SMILES IDX 21 1 19 2 10 3 9 4 7 5 8 6 2 7 3 8 4 9 6 10 20 11 11 13
REMARK SMILES IDX 18 14 12 15 16 16 13 17 14 18 17 19 15 21 5 23 1 25
REMARK H PARENT 20 12 17 20 15 22 5 24 1 26
REMARK Flexibility Score: inf
ROOT
ATOM      1  C   UNL     1      -6.771   5.990  -9.766  1.00  0.00     0.079 C 
ATOM      2  C   UNL     1      -8.014   6.830 -10.116  1.00  0.00     0.164 C 
ATOM      3  C   UNL     1      -9.259   6.376  -9.317  1.00  0.00     0.232 C 
ATOM      4  O   UNL     1      -9.446   4.962  -9.440  1.00  0.00    -0.482 OA
ATOM      5  C   UNL     1      -8.394   4.057  -9.643  1.00  0.00     0.131 A 
ATOM      6  C   UNL     1      -8.673   2.687  -9.669  1.00  0.00     0.093 A 
ATOM      7  C   UNL     1      -7.641   1.760  -9.857  1.00  0.00     0.122 A 
ATOM      8  C   UNL     1      -6.326   2.206 -10.013  1.00  0.00     0.092 A 
ATOM      9  C   UNL     1      -6.033   3.576  -9.989  1.00  0.00     0.126 A 
ATOM     10  C   UNL     1      -7.072   4.512  -9.825  1.00  0.00     0.039 A 
ENDROOT
BRANCH   2  11
ATOM     11  O   UNL     1      -7.770   8.208  -9.966  1.00  0.00    -0.389 OA
ATOM     12  H   UNL     1      -8.321   8.694 -10.634  1.00  0.00     0.211 HD
ENDBRANCH   2  11
BRANCH   3  13
ATOM     13  C   UNL     1      -9.219   6.790  -7.855  1.00  0.00    -0.001 A 
ATOM     14  C   UNL     1      -8.722   8.044  -7.455  1.00  0.00     0.057 A 
ATOM     15  C   UNL     1      -9.726   5.919  -6.876  1.00  0.00     0.012 A 
ATOM     16  C   UNL     1      -8.726   8.417  -6.104  1.00  0.00     0.157 A 
ATOM     17  C   UNL     1      -9.724   6.286  -5.528  1.00  0.00     0.050 A 
ATOM     18  C   UNL     1      -9.227   7.531  -5.136  1.00  0.00     0.157 A 
BRANCH  16  19
ATOM     19  O   UNL     1      -8.229   9.662  -5.720  1.00  0.00    -0.504 OA
ATOM     20  H   UNL     1      -8.846  10.418  -5.447  1.00  0.00     0.293 HD
ENDBRANCH  16  19
BRANCH  18  21
ATOM     21  O   UNL     1      -9.240   7.872  -3.784  1.00  0.00    -0.504 OA
ATOM     22  H   UNL     1      -9.847   7.408  -3.118  1.00  0.00     0.293 HD
ENDBRANCH  18  21
ENDBRANCH   3  13
BRANCH   9  23
ATOM     23  O   UNL     1      -4.714   4.009 -10.125  1.00  0.00    -0.507 OA
ATOM     24  H   UNL     1      -3.995   3.408 -10.509  1.00  0.00     0.293 HD
ENDBRANCH   9  23
BRANCH   7  25
ATOM     25  O   UNL     1      -7.912   0.393  -9.887  1.00  0.00    -0.508 OA
ATOM     26  H   UNL     1      -7.168  -0.294  -9.925  1.00  0.00     0.293 HD
ENDBRANCH   7  25
TORSDOF 6
ENDMDL
MODEL 5
REMARK VINA RESULT:    -2.530     14.427     16.383
REMARK INTER + INTRA:          -3.188
REMARK INTER:                  -3.098
REMARK INTRA:                  -0.090
REMARK UNBOUND:                -0.140
REMARK SMILES Oc1cc(O)c2c(c1)O[C@@H](c1ccc(O)c(O)c1)[C@@H](O)C2
REMARK SMILES IDX 21 1 19 2 10 3 9 4 7 5 8 6 2 7 3 8 4 9 6 10 20 11 11 13
REMARK SMILES IDX 18 14 12 15 16 16 13 17 14 18 17 19 15 21 5 23 1 25
REMARK H PARENT 20 12 17 20 15 22 5 24 1 26
REMARK Flexibility Score: inf
ROOT
ATOM      1  C   UNL     1      -7.782   5.926  -6.400  1.00  0.00     0.079 C 
ATOM      2  C   UNL     1      -8.942   5.004  -5.978  1.00  0.00     0.164 C 
ATOM      3  C   UNL     1      -9.738   4.486  -7.200  1.00  0.00     0.232 C 
ATOM      4  O   UNL     1     -10.125   5.576  -8.045  1.00  0.00    -0.482 OA
ATOM      5  C   UNL     1      -9.391   6.764  -8.159  1.00  0.00     0.131 A 
ATOM      6  C   UNL     1      -9.811   7.736  -9.073  1.00  0.00     0.093 A 
ATOM      7  C   UNL     1      -9.091   8.928  -9.218  1.00  0.00     0.122 A 
ATOM      8  C   UNL     1      -7.943   9.144  -8.450  1.00  0.00     0.092 A 
ATOM      9  C   UNL     1      -7.512   8.178  -7.529  1.00  0.00     0.126 A 
ATOM     10  C   UNL     1      -8.249   6.990  -7.364  1.00  0.00     0.039 A 
ENDROOT
BRANCH   2  11
ATOM     11  O   UNL     1      -8.496   3.949  -5.160  1.00  0.00    -0.389 OA
ATOM     12  H   UNL     1      -8.924   4.048  -4.269  1.00  0.00     0.211 HD
ENDBRANCH   2  11
BRANCH   3  13
ATOM     13  C   UNL     1      -8.998   3.424  -7.994  1.00  0.00    -0.001 A 
ATOM     14  C   UNL     1      -7.825   3.720  -8.713  1.00  0.00     0.057 A 
ATOM     15  C   UNL     1      -9.469   2.099  -7.983  1.00  0.00     0.012 A 
ATOM     16  C   UNL     1      -7.141   2.715  -9.411  1.00  0.00     0.157 A 
ATOM     17  C   UNL     1      -8.792   1.098  -8.685  1.00  0.00     0.050 A 
ATOM     18  C   UNL     1      -7.629   1.399  -9.398  1.00  0.00     0.157 A 
BRANCH  16  19
ATOM     19  O   UNL     1      -5.980   3.022 -10.120  1.00  0.00    -0.504 OA
ATOM     20  H   UNL     1      -5.210   3.518  -9.689  1.00  0.00     0.293 HD
ENDBRANCH  16  19
BRANCH  18  21
ATOM     21  O   UNL     1      -6.973   0.379 -10.087  1.00  0.00    -0.504 OA
ATOM     22  H   UNL     1      -6.716  -0.493  -9.639  1.00  0.00     0.293 HD
ENDBRANCH  18  21
ENDBRANCH   3  13
BRANCH   9  23
ATOM     23  O   UNL     1      -6.354   8.396  -6.783  1.00  0.00    -0.507 OA
ATOM     24  H   UNL     1      -5.433   8.293  -7.190  1.00  0.00     0.293 HD
ENDBRANCH   9  23
BRANCH   7  25
ATOM     25  O   UNL     1      -9.504   9.901 -10.125  1.00  0.00    -0.508 OA
ATOM     26  H   UNL     1     -10.347   9.788 -10.676  1.00  0.00     0.293 HD
ENDBRANCH   7  25
TORSDOF 6
ENDMDL
MODEL 6
REMARK VINA RESULT:    -2.223     14.449     17.196
REMARK INTER + INTRA:          -2.818
REMARK INTER:                  -2.754
REMARK INTRA:                  -0.064
REMARK UNBOUND:                -0.140
REMARK SMILES Oc1cc(O)c2c(c1)O[C@@H](c1ccc(O)c(O)c1)[C@@H](O)C2
REMARK SMILES IDX 21 1 19 2 10 3 9 4 7 5 8 6 2 7 3 8 4 9 6 10 20 11 11 13
REMARK SMILES IDX 18 14 12 15 16 16 13 17 14 18 17 19 15 21 5 23 1 25
REMARK H PARENT 20 12 17 20 15 22 5 24 1 26
REMARK Flexibility Score: inf
ROOT
ATOM      1  C   UNL     1      -9.011   3.994  -6.549  1.00  0.00     0.079 C 
ATOM      2  C   UNL     1     -10.024   3.741  -5.416  1.00  0.00     0.164 C 
ATOM      3  C   UNL     1      -9.816   2.356  -4.757  1.00  0.00     0.232 C 
ATOM      4  O   UNL     1      -9.773   1.328  -5.753  1.00  0.00    -0.482 OA
ATOM      5  C   UNL     1      -9.321   1.538  -7.063  1.00  0.00     0.131 A 
ATOM      6  C   UNL     1      -9.242   0.450  -7.937  1.00  0.00     0.093 A 
ATOM      7  C   UNL     1      -8.783   0.627  -9.247  1.00  0.00     0.122 A 
ATOM      8  C   UNL     1      -8.394   1.898  -9.681  1.00  0.00     0.092 A 
ATOM      9  C   UNL     1      -8.468   2.998  -8.815  1.00  0.00     0.126 A 
ATOM     10  C   UNL     1      -8.954   2.826  -7.505  1.00  0.00     0.039 A 
ENDROOT
BRANCH   2  11
ATOM     11  O   UNL     1     -10.011   4.779  -4.466  1.00  0.00    -0.389 OA
ATOM     12  H   UNL     1     -10.867   4.750  -3.964  1.00  0.00     0.211 HD
ENDBRANCH   2  11
BRANCH   3  13
ATOM     13  C   UNL     1      -8.589   2.294  -3.863  1.00  0.00    -0.001 A 
ATOM     14  C   UNL     1      -7.437   1.576  -4.237  1.00  0.00     0.057 A 
ATOM     15  C   UNL     1      -8.582   3.001  -2.648  1.00  0.00     0.012 A 
ATOM     16  C   UNL     1      -6.305   1.561  -3.410  1.00  0.00     0.157 A 
ATOM     17  C   UNL     1      -7.458   2.981  -1.820  1.00  0.00     0.050 A 
ATOM     18  C   UNL     1      -6.318   2.266  -2.195  1.00  0.00     0.157 A 
BRANCH  16  19
ATOM     19  O   UNL     1      -5.170   0.846  -3.790  1.00  0.00    -0.504 OA
ATOM     20  H   UNL     1      -4.384   0.725  -3.162  1.00  0.00     0.293 HD
ENDBRANCH  16  19
BRANCH  18  21
ATOM     21  O   UNL     1      -5.209   2.265  -1.349  1.00  0.00    -0.504 OA
ATOM     22  H   UNL     1      -4.657   1.432  -1.187  1.00  0.00     0.293 HD
ENDBRANCH  18  21
ENDBRANCH   3  13
BRANCH   9  23
ATOM     23  O   UNL     1      -8.058   4.257  -9.252  1.00  0.00    -0.507 OA
ATOM     24  H   UNL     1      -7.096   4.443  -9.510  1.00  0.00     0.293 HD
ENDBRANCH   9  23
BRANCH   7  25
ATOM     25  O   UNL     1      -8.704  -0.453 -10.124  1.00  0.00    -0.508 OA
ATOM     26  H   UNL     1      -9.469  -1.110 -10.226  1.00  0.00     0.293 HD
ENDBRANCH   7  25
TORSDOF 6
ENDMDL
MODEL 7
REMARK VINA RESULT:    -2.193      9.436     12.308
REMARK INTER + INTRA:          -2.782
REMARK INTER:                  -3.166
REMARK INTRA:                   0.385
REMARK UNBOUND:                -0.140
REMARK SMILES Oc1cc(O)c2c(c1)O[C@@H](c1ccc(O)c(O)c1)[C@@H](O)C2
REMARK SMILES IDX 21 1 19 2 10 3 9 4 7 5 8 6 2 7 3 8 4 9 6 10 20 11 11 13
REMARK SMILES IDX 18 14 12 15 16 16 13 17 14 18 17 19 15 21 5 23 1 25
REMARK H PARENT 20 12 17 20 15 22 5 24 1 26
REMARK Flexibility Score: inf
ROOT
ATOM      1  C   UNL     1       7.797   6.376   9.409  1.00  0.00     0.079 C 
ATOM      2  C   UNL     1       8.810   7.534   9.485  1.00  0.00     0.164 C 
ATOM      3  C   UNL     1       9.552   7.738   8.142  1.00  0.00     0.232 C 
ATOM      4  O   UNL     1      10.102   6.500   7.679  1.00  0.00    -0.482 OA
ATOM      5  C   UNL     1       9.542   5.248   7.968  1.00  0.00     0.131 A 
ATOM      6  C   UNL     1      10.109   4.103   7.402  1.00  0.00     0.093 A 
ATOM      7  C   UNL     1       9.563   2.841   7.663  1.00  0.00     0.122 A 
ATOM      8  C   UNL     1       8.442   2.726   8.488  1.00  0.00     0.092 A 
ATOM      9  C   UNL     1       7.863   3.866   9.063  1.00  0.00     0.126 A 
ATOM     10  C   UNL     1       8.426   5.134   8.823  1.00  0.00     0.039 A 
ENDROOT
BRANCH   2  11
ATOM     11  O   UNL     1       8.207   8.723   9.935  1.00  0.00    -0.389 OA
ATOM     12  H   UNL     1       7.231   8.562  10.018  1.00  0.00     0.211 HD
ENDBRANCH   2  11
BRANCH   3  13
ATOM     13  C   UNL     1       8.688   8.380   7.069  1.00  0.00    -0.001 A 
ATOM     14  C   UNL     1       8.981   8.237   5.700  1.00  0.00     0.057 A 
ATOM     15  C   UNL     1       7.543   9.103   7.445  1.00  0.00     0.012 A 
ATOM     16  C   UNL     1       8.149   8.811   4.728  1.00  0.00     0.157 A 
ATOM     17  C   UNL     1       6.718   9.682   6.478  1.00  0.00     0.050 A 
ATOM     18  C   UNL     1       7.014   9.538   5.120  1.00  0.00     0.157 A 
BRANCH  16  19
ATOM     19  O   UNL     1       8.450   8.664   3.375  1.00  0.00    -0.504 OA
ATOM     20  H   UNL     1       8.340   9.429   2.719  1.00  0.00     0.293 HD
ENDBRANCH  16  19
BRANCH  18  21
ATOM     21  O   UNL     1       6.171  10.125   4.177  1.00  0.00    -0.504 OA
ATOM     22  H   UNL     1       5.716   9.583   3.452  1.00  0.00     0.293 HD
ENDBRANCH  18  21
ENDBRANCH   3  13
BRANCH   9  23
ATOM     23  O   UNL     1       6.732   3.742   9.869  1.00  0.00    -0.507 OA
ATOM     24  H   UNL     1       6.095   4.516  10.014  1.00  0.00     0.293 HD
ENDBRANCH   9  23
BRANCH   7  25
ATOM     25  O   UNL     1      10.125   1.695   7.103  1.00  0.00    -0.508 OA
ATOM     26  H   UNL     1      10.330   0.877   7.665  1.00  0.00     0.293 HD
ENDBRANCH   7  25
TORSDOF 6
ENDMDL
MODEL 8
REMARK VINA RESULT:    -1.950     13.862     15.345
REMARK INTER + INTRA:          -2.489
REMARK INTER:                  -2.854
REMARK INTRA:                   0.364
REMARK UNBOUND:                -0.140
REMARK SMILES Oc1cc(O)c2c(c1)O[C@@H](c1ccc(O)c(O)c1)[C@@H](O)C2
REMARK SMILES IDX 21 1 19 2 10 3 9 4 7 5 8 6 2 7 3 8 4 9 6 10 20 11 11 13
REMARK SMILES IDX 18 14 12 15 16 16 13 17 14 18 17 19 15 21 5 23 1 25
REMARK H PARENT 20 12 17 20 15 22 5 24 1 26
REMARK Flexibility Score: inf
ROOT
ATOM      1  C   UNL     1      -7.491   1.461  -4.748  1.00  0.00     0.079 C 
ATOM      2  C   UNL     1      -9.031   1.522  -4.736  1.00  0.00     0.164 C 
ATOM      3  C   UNL     1      -9.548   2.855  -4.143  1.00  0.00     0.232 C 
ATOM      4  O   UNL     1      -8.935   3.112  -2.875  1.00  0.00    -0.482 OA
ATOM      5  C   UNL     1      -7.654   2.660  -2.529  1.00  0.00     0.131 A 
ATOM      6  C   UNL     1      -7.113   3.033  -1.295  1.00  0.00     0.093 A 
ATOM      7  C   UNL     1      -5.831   2.607  -0.928  1.00  0.00     0.122 A 
ATOM      8  C   UNL     1      -5.086   1.811  -1.803  1.00  0.00     0.092 A 
ATOM      9  C   UNL     1      -5.617   1.430  -3.043  1.00  0.00     0.126 A 
ATOM     10  C   UNL     1      -6.916   1.836  -3.404  1.00  0.00     0.039 A 
ENDROOT
BRANCH   2  11
ATOM     11  O   UNL     1      -9.571   1.272  -6.011  1.00  0.00    -0.389 OA
ATOM     12  H   UNL     1     -10.557   1.373  -5.954  1.00  0.00     0.211 HD
ENDBRANCH   2  11
BRANCH   3  13
ATOM     13  C   UNL     1      -9.369   4.039  -5.079  1.00  0.00    -0.001 A 
ATOM     14  C   UNL     1      -8.624   3.936  -6.268  1.00  0.00     0.057 A 
ATOM     15  C   UNL     1      -9.994   5.261  -4.775  1.00  0.00     0.012 A 
ATOM     16  C   UNL     1      -8.500   5.033  -7.132  1.00  0.00     0.157 A 
ATOM     17  C   UNL     1      -9.866   6.357  -5.632  1.00  0.00     0.050 A 
ATOM     18  C   UNL     1      -9.123   6.249  -6.810  1.00  0.00     0.157 A 
BRANCH  16  19
ATOM     19  O   UNL     1      -7.758   4.919  -8.307  1.00  0.00    -0.504 OA
ATOM     20  H   UNL     1      -8.112   5.259  -9.194  1.00  0.00     0.293 HD
ENDBRANCH  16  19
BRANCH  18  21
ATOM     21  O   UNL     1      -9.015   7.360  -7.647  1.00  0.00    -0.504 OA
ATOM     22  H   UNL     1      -8.358   7.390  -8.417  1.00  0.00     0.293 HD
ENDBRANCH  18  21
ENDBRANCH   3  13
BRANCH   9  23
ATOM     23  O   UNL     1      -4.857   0.653  -3.917  1.00  0.00    -0.507 OA
ATOM     24  H   UNL     1      -5.227  -0.191  -4.335  1.00  0.00     0.293 HD
ENDBRANCH   9  23
BRANCH   7  25
ATOM     25  O   UNL     1      -5.287   2.973   0.301  1.00  0.00    -0.508 OA
ATOM     26  H   UNL     1      -5.846   2.982   1.147  1.00  0.00     0.293 HD
ENDBRANCH   7  25
TORSDOF 6
ENDMDL
