MODEL 1
REMARK VINA RESULT:    -7.120      0.000      0.000
REMARK INTER + INTRA:          -9.611
REMARK INTER:                  -8.994
REMARK INTRA:                  -0.618
REMARK UNBOUND:                -0.618
REMARK SMILES Oc1ccc(CCc2cc(O)cc(O)c2)cc1
REMARK SMILES IDX 6 1 5 2 4 3 3 4 2 5 16 6 17 7 1 8 7 10 8 11 15 12 9 13 13 14
REMARK SMILES IDX 10 15 12 16 14 17 11 19
REMARK H PARENT 1 9 14 18 11 20
REMARK Flexibility Score: inf
ROOT
ATOM      1  C   UNL     1      -2.122   0.463  11.593  1.00  0.00     0.040 C 
ENDROOT
BRANCH   1   2
ATOM      2  C   UNL     1      -3.558   0.587  12.026  1.00  0.00    -0.047 A 
ATOM      3  C   UNL     1      -4.032   1.792  12.571  1.00  0.00     0.007 A 
ATOM      4  C   UNL     1      -5.375   1.916  12.942  1.00  0.00     0.046 A 
ATOM      5  C   UNL     1      -6.258   0.844  12.762  1.00  0.00     0.115 A 
ATOM      6  C   UNL     1      -4.450  -0.481  11.835  1.00  0.00     0.007 A 
ATOM      7  C   UNL     1      -5.792  -0.352  12.207  1.00  0.00     0.046 A 
BRANCH   5   8
ATOM      8  O   UNL     1      -7.597   0.956  13.128  1.00  0.00    -0.508 OA
ATOM      9  H   UNL     1      -8.181   0.138  13.257  1.00  0.00     0.293 HD
ENDBRANCH   5   8
ENDBRANCH   1   2
BRANCH   1  10
ATOM     10  C   UNL     1      -2.035  -0.005  10.138  1.00  0.00     0.040 C 
BRANCH  10  11
ATOM     11  C   UNL     1      -1.974   1.175   9.205  1.00  0.00    -0.040 A 
ATOM     12  C   UNL     1      -1.677   2.454   9.702  1.00  0.00     0.050 A 
ATOM     13  C   UNL     1      -2.156   0.995   7.824  1.00  0.00     0.050 A 
ATOM     14  C   UNL     1      -1.587   3.548   8.829  1.00  0.00     0.119 A 
ATOM     15  C   UNL     1      -2.067   2.088   6.951  1.00  0.00     0.119 A 
ATOM     16  C   UNL     1      -1.785   3.361   7.457  1.00  0.00     0.092 A 
BRANCH  14  17
ATOM     17  O   UNL     1      -1.300   4.821   9.314  1.00  0.00    -0.508 OA
ATOM     18  H   UNL     1      -2.003   5.380   9.785  1.00  0.00     0.293 HD
ENDBRANCH  14  17
BRANCH  15  19
ATOM     19  O   UNL     1      -2.253   1.920   5.581  1.00  0.00    -0.508 OA
ATOM     20  H   UNL     1      -3.165   2.029   5.154  1.00  0.00     0.293 HD
ENDBRANCH  15  19
ENDBRANCH  10  11
ENDBRANCH   1  10
TORSDOF 6
ENDMDL
MODEL 2
REMARK VINA RESULT:    -7.111      0.079      2.032
REMARK INTER + INTRA:          -9.600
REMARK INTER:                  -8.979
REMARK INTRA:                  -0.620
REMARK UNBOUND:                -0.618
REMARK SMILES Oc1ccc(CCc2cc(O)cc(O)c2)cc1
REMARK SMILES IDX 6 1 5 2 4 3 3 4 2 5 16 6 17 7 1 8 7 10 8 11 15 12 9 13 13 14
REMARK SMILES IDX 10 15 12 16 14 17 11 19
REMARK H PARENT 1 9 14 18 11 20
REMARK Flexibility Score: inf
ROOT
ATOM      1  C   UNL     1      -2.054   0.539  11.646  1.00  0.00     0.040 C 
ENDROOT
BRANCH   1   2
ATOM      2  C   UNL     1      -3.498   0.637  12.058  1.00  0.00    -0.047 A 
ATOM      3  C   UNL     1      -4.004   1.834  12.589  1.00  0.00     0.007 A 
ATOM      4  C   UNL     1      -5.354   1.934  12.941  1.00  0.00     0.046 A 
ATOM      5  C   UNL     1      -6.213   0.843  12.754  1.00  0.00     0.115 A 
ATOM      6  C   UNL     1      -4.366  -0.450  11.861  1.00  0.00     0.007 A 
ATOM      7  C   UNL     1      -5.715  -0.347  12.213  1.00  0.00     0.046 A 
BRANCH   5   8
ATOM      8  O   UNL     1      -7.559   0.931  13.101  1.00  0.00    -0.508 OA
ATOM      9  H   UNL     1      -7.911   1.694  13.667  1.00  0.00     0.293 HD
ENDBRANCH   5   8
ENDBRANCH   1   2
BRANCH   1  10
ATOM     10  C   UNL     1      -1.937   0.044  10.201  1.00  0.00     0.040 C 
BRANCH  10  11
ATOM     11  C   UNL     1      -1.854   1.206   9.249  1.00  0.00    -0.040 A 
ATOM     12  C   UNL     1      -2.074   1.012   7.876  1.00  0.00     0.050 A 
ATOM     13  C   UNL     1      -1.611   2.502   9.733  1.00  0.00     0.050 A 
ATOM     14  C   UNL     1      -2.029   2.100   6.992  1.00  0.00     0.119 A 
ATOM     15  C   UNL     1      -1.566   3.590   8.850  1.00  0.00     0.119 A 
ATOM     16  C   UNL     1      -1.772   3.384   7.482  1.00  0.00     0.092 A 
BRANCH  14  17
ATOM     17  O   UNL     1      -2.239   1.914   5.628  1.00  0.00    -0.508 OA
ATOM     18  H   UNL     1      -1.541   1.475   5.039  1.00  0.00     0.293 HD
ENDBRANCH  14  17
BRANCH  15  19
ATOM     19  O   UNL     1      -1.319   4.877   9.321  1.00  0.00    -0.508 OA
ATOM     20  H   UNL     1      -2.008   5.614   9.232  1.00  0.00     0.293 HD
ENDBRANCH  15  19
ENDBRANCH  10  11
ENDBRANCH   1  10
TORSDOF 6
ENDMDL
MODEL 3
REMARK VINA RESULT:    -7.088      2.999      3.605
REMARK INTER + INTRA:          -9.570
REMARK INTER:                  -8.941
REMARK INTRA:                  -0.629
REMARK UNBOUND:                -0.618
REMARK SMILES Oc1ccc(CCc2cc(O)cc(O)c2)cc1
REMARK SMILES IDX 6 1 5 2 4 3 3 4 2 5 16 6 17 7 1 8 7 10 8 11 15 12 9 13 13 14
REMARK SMILES IDX 10 15 12 16 14 17 11 19
REMARK H PARENT 1 9 14 18 11 20
REMARK Flexibility Score: inf
ROOT
ATOM      1  C   UNL     1      -2.658  -1.631   9.214  1.00  0.00     0.040 C 
ENDROOT
BRANCH   1   2
ATOM      2  C   UNL     1      -2.192  -1.743  10.641  1.00  0.00    -0.047 A 
ATOM      3  C   UNL     1      -0.832  -1.942  10.928  1.00  0.00     0.007 A 
ATOM      4  C   UNL     1      -0.396  -2.013  12.255  1.00  0.00     0.046 A 
ATOM      5  C   UNL     1      -1.312  -1.874  13.306  1.00  0.00     0.115 A 
ATOM      6  C   UNL     1      -3.105  -1.592  11.698  1.00  0.00     0.007 A 
ATOM      7  C   UNL     1      -2.665  -1.663  13.023  1.00  0.00     0.046 A 
BRANCH   5   8
ATOM      8  O   UNL     1      -0.889  -1.943  14.631  1.00  0.00    -0.508 OA
ATOM      9  H   UNL     1      -1.529  -2.183  15.379  1.00  0.00     0.293 HD
ENDBRANCH   5   8
ENDBRANCH   1   2
BRANCH   1  10
ATOM     10  C   UNL     1      -3.384  -0.302   8.986  1.00  0.00     0.040 C 
BRANCH  10  11
ATOM     11  C   UNL     1      -2.442   0.725   8.417  1.00  0.00    -0.040 A 
ATOM     12  C   UNL     1      -2.771   2.089   8.462  1.00  0.00     0.050 A 
ATOM     13  C   UNL     1      -1.202   0.331   7.889  1.00  0.00     0.050 A 
ATOM     14  C   UNL     1      -1.880   3.048   7.962  1.00  0.00     0.119 A 
ATOM     15  C   UNL     1      -0.310   1.289   7.388  1.00  0.00     0.119 A 
ATOM     16  C   UNL     1      -0.653   2.645   7.424  1.00  0.00     0.092 A 
BRANCH  14  17
ATOM     17  O   UNL     1      -2.203   4.403   7.996  1.00  0.00    -0.508 OA
ATOM     18  H   UNL     1      -2.462   4.864   8.861  1.00  0.00     0.293 HD
ENDBRANCH  14  17
BRANCH  15  19
ATOM     19  O   UNL     1       0.919   0.907   6.856  1.00  0.00    -0.508 OA
ATOM     20  H   UNL     1       1.769   0.945   7.406  1.00  0.00     0.293 HD
ENDBRANCH  15  19
ENDBRANCH  10  11
ENDBRANCH   1  10
TORSDOF 6
ENDMDL
MODEL 4
REMARK VINA RESULT:    -7.082      3.005      3.886
REMARK INTER + INTRA:          -9.563
REMARK INTER:                  -8.936
REMARK INTRA:                  -0.627
REMARK UNBOUND:                -0.618
REMARK SMILES Oc1ccc(CCc2cc(O)cc(O)c2)cc1
REMARK SMILES IDX 6 1 5 2 4 3 3 4 2 5 16 6 17 7 1 8 7 10 8 11 15 12 9 13 13 14
REMARK SMILES IDX 10 15 12 16 14 17 11 19
REMARK H PARENT 1 9 14 18 11 20
REMARK Flexibility Score: inf
ROOT
ATOM      1  C   UNL     1      -2.717  -1.682   9.150  1.00  0.00     0.040 C 
ENDROOT
BRANCH   1   2
ATOM      2  C   UNL     1      -2.243  -1.795  10.574  1.00  0.00    -0.047 A 
ATOM      3  C   UNL     1      -0.884  -2.014  10.852  1.00  0.00     0.007 A 
ATOM      4  C   UNL     1      -0.440  -2.085  12.176  1.00  0.00     0.046 A 
ATOM      5  C   UNL     1      -1.346  -1.929  13.233  1.00  0.00     0.115 A 
ATOM      6  C   UNL     1      -3.146  -1.625  11.636  1.00  0.00     0.007 A 
ATOM      7  C   UNL     1      -2.698  -1.697  12.959  1.00  0.00     0.046 A 
BRANCH   5   8
ATOM      8  O   UNL     1      -0.914  -1.998  14.556  1.00  0.00    -0.508 OA
ATOM      9  H   UNL     1      -0.800  -2.887  15.029  1.00  0.00     0.293 HD
ENDBRANCH   5   8
ENDBRANCH   1   2
BRANCH   1  10
ATOM     10  C   UNL     1      -3.418  -0.340   8.919  1.00  0.00     0.040 C 
BRANCH  10  11
ATOM     11  C   UNL     1      -2.440   0.688   8.417  1.00  0.00    -0.040 A 
ATOM     12  C   UNL     1      -1.202   0.288   7.889  1.00  0.00     0.050 A 
ATOM     13  C   UNL     1      -2.782   2.050   8.420  1.00  0.00     0.050 A 
ATOM     14  C   UNL     1      -0.305   1.242   7.391  1.00  0.00     0.119 A 
ATOM     15  C   UNL     1      -1.885   3.005   7.922  1.00  0.00     0.119 A 
ATOM     16  C   UNL     1      -0.648   2.598   7.412  1.00  0.00     0.092 A 
BRANCH  14  17
ATOM     17  O   UNL     1       0.928   0.854   6.872  1.00  0.00    -0.508 OA
ATOM     18  H   UNL     1       1.357  -0.028   7.129  1.00  0.00     0.293 HD
ENDBRANCH  14  17
BRANCH  15  19
ATOM     19  O   UNL     1      -2.213   4.359   7.928  1.00  0.00    -0.508 OA
ATOM     20  H   UNL     1      -2.462   4.839   8.784  1.00  0.00     0.293 HD
ENDBRANCH  15  19
ENDBRANCH  10  11
ENDBRANCH   1  10
TORSDOF 6
ENDMDL
MODEL 5
REMARK VINA RESULT:    -6.991      2.927      3.598
REMARK INTER + INTRA:          -9.447
REMARK INTER:                  -8.858
REMARK INTRA:                  -0.590
REMARK UNBOUND:                -0.618
REMARK SMILES Oc1ccc(CCc2cc(O)cc(O)c2)cc1
REMARK SMILES IDX 6 1 5 2 4 3 3 4 2 5 16 6 17 7 1 8 7 10 8 11 15 12 9 13 13 14
REMARK SMILES IDX 10 15 12 16 14 17 11 19
REMARK H PARENT 1 9 14 18 11 20
REMARK Flexibility Score: inf
ROOT
ATOM      1  C   UNL     1      -4.745   0.657  10.092  1.00  0.00     0.040 C 
ENDROOT
BRANCH   1   2
ATOM      2  C   UNL     1      -4.822  -0.832   9.888  1.00  0.00    -0.047 A 
ATOM      3  C   UNL     1      -5.190  -1.357   8.638  1.00  0.00     0.007 A 
ATOM      4  C   UNL     1      -5.229  -2.741   8.440  1.00  0.00     0.046 A 
ATOM      5  C   UNL     1      -4.890  -3.612   9.483  1.00  0.00     0.115 A 
ATOM      6  C   UNL     1      -4.469  -1.709  10.927  1.00  0.00     0.007 A 
ATOM      7  C   UNL     1      -4.509  -3.093  10.725  1.00  0.00     0.046 A 
BRANCH   5   8
ATOM      8  O   UNL     1      -4.925  -4.993   9.297  1.00  0.00    -0.508 OA
ATOM      9  H   UNL     1      -5.551  -5.420   8.625  1.00  0.00     0.293 HD
ENDBRANCH   5   8
ENDBRANCH   1   2
BRANCH   1  10
ATOM     10  C   UNL     1      -3.294   1.098  10.304  1.00  0.00     0.040 C 
BRANCH  10  11
ATOM     11  C   UNL     1      -2.683   1.552   9.005  1.00  0.00    -0.040 A 
ATOM     12  C   UNL     1      -1.291   1.683   8.886  1.00  0.00     0.050 A 
ATOM     13  C   UNL     1      -3.498   1.791   7.886  1.00  0.00     0.050 A 
ATOM     14  C   UNL     1      -0.720   2.074   7.667  1.00  0.00     0.119 A 
ATOM     15  C   UNL     1      -2.928   2.182   6.667  1.00  0.00     0.119 A 
ATOM     16  C   UNL     1      -1.540   2.325   6.562  1.00  0.00     0.092 A 
BRANCH  14  17
ATOM     17  O   UNL     1       0.661   2.213   7.542  1.00  0.00    -0.508 OA
ATOM     18  H   UNL     1       1.302   1.612   8.047  1.00  0.00     0.293 HD
ENDBRANCH  14  17
BRANCH  15  19
ATOM     19  O   UNL     1      -3.729   2.429   5.555  1.00  0.00    -0.508 OA
ATOM     20  H   UNL     1      -3.767   1.782   4.776  1.00  0.00     0.293 HD
ENDBRANCH  15  19
ENDBRANCH  10  11
ENDBRANCH   1  10
TORSDOF 6
ENDMDL
MODEL 6
REMARK VINA RESULT:    -6.972      2.895      3.828
REMARK INTER + INTRA:          -9.423
REMARK INTER:                  -8.811
REMARK INTRA:                  -0.612
REMARK UNBOUND:                -0.618
REMARK SMILES Oc1ccc(CCc2cc(O)cc(O)c2)cc1
REMARK SMILES IDX 6 1 5 2 4 3 3 4 2 5 16 6 17 7 1 8 7 10 8 11 15 12 9 13 13 14
REMARK SMILES IDX 10 15 12 16 14 17 11 19
REMARK H PARENT 1 9 14 18 11 20
REMARK Flexibility Score: inf
ROOT
ATOM      1  C   UNL     1      -4.682   0.673  10.152  1.00  0.00     0.040 C 
ENDROOT
BRANCH   1   2
ATOM      2  C   UNL     1      -4.767  -0.816   9.950  1.00  0.00    -0.047 A 
ATOM      3  C   UNL     1      -5.293  -1.339   8.757  1.00  0.00     0.007 A 
ATOM      4  C   UNL     1      -5.341  -2.723   8.557  1.00  0.00     0.046 A 
ATOM      5  C   UNL     1      -4.855  -3.594   9.540  1.00  0.00     0.115 A 
ATOM      6  C   UNL     1      -4.269  -1.693  10.927  1.00  0.00     0.007 A 
ATOM      7  C   UNL     1      -4.318  -3.076  10.723  1.00  0.00     0.046 A 
BRANCH   5   8
ATOM      8  O   UNL     1      -4.897  -4.974   9.351  1.00  0.00    -0.508 OA
ATOM      9  H   UNL     1      -5.622  -5.410   8.792  1.00  0.00     0.293 HD
ENDBRANCH   5   8
ENDBRANCH   1   2
BRANCH   1  10
ATOM     10  C   UNL     1      -3.224   1.114  10.306  1.00  0.00     0.040 C 
BRANCH  10  11
ATOM     11  C   UNL     1      -2.649   1.517   8.975  1.00  0.00    -0.040 A 
ATOM     12  C   UNL     1      -3.499   1.784   7.890  1.00  0.00     0.050 A 
ATOM     13  C   UNL     1      -1.263   1.686   8.825  1.00  0.00     0.050 A 
ATOM     14  C   UNL     1      -2.967   2.191   6.659  1.00  0.00     0.119 A 
ATOM     15  C   UNL     1      -0.730   2.093   7.594  1.00  0.00     0.119 A 
ATOM     16  C   UNL     1      -1.583   2.341   6.514  1.00  0.00     0.092 A 
BRANCH  14  17
ATOM     17  O   UNL     1      -3.802   2.450   5.575  1.00  0.00    -0.508 OA
ATOM     18  H   UNL     1      -3.490   3.005   4.786  1.00  0.00     0.293 HD
ENDBRANCH  14  17
BRANCH  15  19
ATOM     19  O   UNL     1       0.644   2.255   7.434  1.00  0.00    -0.508 OA
ATOM     20  H   UNL     1       1.136   3.039   7.846  1.00  0.00     0.293 HD
ENDBRANCH  15  19
ENDBRANCH  10  11
ENDBRANCH   1  10
TORSDOF 6
ENDMDL
MODEL 7
REMARK VINA RESULT:    -6.965      1.606      5.896
REMARK INTER + INTRA:          -9.416
REMARK INTER:                  -8.725
REMARK INTRA:                  -0.691
REMARK UNBOUND:                -0.618
REMARK SMILES Oc1ccc(CCc2cc(O)cc(O)c2)cc1
REMARK SMILES IDX 6 1 5 2 4 3 3 4 2 5 16 6 17 7 1 8 7 10 8 11 15 12 9 13 13 14
REMARK SMILES IDX 10 15 12 16 14 17 11 19
REMARK H PARENT 1 9 14 18 11 20
REMARK Flexibility Score: inf
ROOT
ATOM      1  C   UNL     1      -3.682  -0.708   9.410  1.00  0.00     0.040 C 
ENDROOT
BRANCH   1   2
ATOM      2  C   UNL     1      -2.959   0.292   8.548  1.00  0.00    -0.047 A 
ATOM      3  C   UNL     1      -1.598   0.117   8.251  1.00  0.00     0.007 A 
ATOM      4  C   UNL     1      -0.936   1.029   7.423  1.00  0.00     0.046 A 
ATOM      5  C   UNL     1      -1.629   2.117   6.876  1.00  0.00     0.115 A 
ATOM      6  C   UNL     1      -3.654   1.377   7.988  1.00  0.00     0.007 A 
ATOM      7  C   UNL     1      -2.988   2.286   7.160  1.00  0.00     0.046 A 
BRANCH   5   8
ATOM      8  O   UNL     1      -0.979   3.032   6.050  1.00  0.00    -0.508 OA
ATOM      9  H   UNL     1      -0.245   2.743   5.415  1.00  0.00     0.293 HD
ENDBRANCH   5   8
ENDBRANCH   1   2
BRANCH   1  10
ATOM     10  C   UNL     1      -3.197  -0.622  10.860  1.00  0.00     0.040 C 
BRANCH  10  11
ATOM     11  C   UNL     1      -4.031   0.358  11.640  1.00  0.00    -0.040 A 
ATOM     12  C   UNL     1      -3.500   1.605  12.006  1.00  0.00     0.050 A 
ATOM     13  C   UNL     1      -5.365   0.055  11.958  1.00  0.00     0.050 A 
ATOM     14  C   UNL     1      -4.287   2.531  12.705  1.00  0.00     0.119 A 
ATOM     15  C   UNL     1      -6.153   0.980  12.657  1.00  0.00     0.119 A 
ATOM     16  C   UNL     1      -5.610   2.214  13.030  1.00  0.00     0.092 A 
BRANCH  14  17
ATOM     17  O   UNL     1      -3.765   3.767  13.078  1.00  0.00    -0.508 OA
ATOM     18  H   UNL     1      -3.118   4.271  12.482  1.00  0.00     0.293 HD
ENDBRANCH  14  17
BRANCH  15  19
ATOM     19  O   UNL     1      -7.474   0.685  12.983  1.00  0.00    -0.508 OA
ATOM     20  H   UNL     1      -7.783   0.635  13.946  1.00  0.00     0.293 HD
ENDBRANCH  15  19
ENDBRANCH  10  11
ENDBRANCH   1  10
TORSDOF 6
ENDMDL
MODEL 8
REMARK VINA RESULT:    -6.919      1.641      6.080
REMARK INTER + INTRA:          -9.357
REMARK INTER:                  -8.689
REMARK INTRA:                  -0.668
REMARK UNBOUND:                -0.618
REMARK SMILES Oc1ccc(CCc2cc(O)cc(O)c2)cc1
REMARK SMILES IDX 6 1 5 2 4 3 3 4 2 5 16 6 17 7 1 8 7 10 8 11 15 12 9 13 13 14
REMARK SMILES IDX 10 15 12 16 14 17 11 19
REMARK H PARENT 1 9 14 18 11 20
REMARK Flexibility Score: inf
ROOT
ATOM      1  C   UNL     1      -3.572  -0.421   9.113  1.00  0.00     0.040 C 
ENDROOT
BRANCH   1   2
ATOM      2  C   UNL     1      -2.715   0.606   8.424  1.00  0.00    -0.047 A 
ATOM      3  C   UNL     1      -3.226   1.884   8.145  1.00  0.00     0.007 A 
ATOM      4  C   UNL     1      -2.418   2.848   7.535  1.00  0.00     0.046 A 
ATOM      5  C   UNL     1      -1.089   2.549   7.209  1.00  0.00     0.115 A 
ATOM      6  C   UNL     1      -1.378   0.315   8.108  1.00  0.00     0.007 A 
ATOM      7  C   UNL     1      -0.572   1.282   7.498  1.00  0.00     0.046 A 
BRANCH   5   8
ATOM      8  O   UNL     1      -0.274   3.501   6.600  1.00  0.00    -0.508 OA
ATOM      9  H   UNL     1      -0.402   4.492   6.769  1.00  0.00     0.293 HD
ENDBRANCH   5   8
ENDBRANCH   1   2
BRANCH   1  10
ATOM     10  C   UNL     1      -3.202  -0.526  10.596  1.00  0.00     0.040 C 
BRANCH  10  11
ATOM     11  C   UNL     1      -4.024   0.432  11.416  1.00  0.00    -0.040 A 
ATOM     12  C   UNL     1      -5.343   0.108  11.771  1.00  0.00     0.050 A 
ATOM     13  C   UNL     1      -3.459   1.631  11.880  1.00  0.00     0.050 A 
ATOM     14  C   UNL     1      -6.098   0.985  12.561  1.00  0.00     0.119 A 
ATOM     15  C   UNL     1      -4.213   2.509  12.671  1.00  0.00     0.119 A 
ATOM     16  C   UNL     1      -5.531   2.184  13.007  1.00  0.00     0.092 A 
BRANCH  14  17
ATOM     17  O   UNL     1      -7.410   0.675  12.912  1.00  0.00    -0.508 OA
ATOM     18  H   UNL     1      -7.933  -0.044  12.424  1.00  0.00     0.293 HD
ENDBRANCH  14  17
BRANCH  15  19
ATOM     19  O   UNL     1      -3.662   3.703  13.129  1.00  0.00    -0.508 OA
ATOM     20  H   UNL     1      -2.948   4.193  12.603  1.00  0.00     0.293 HD
ENDBRANCH  15  19
ENDBRANCH  10  11
ENDBRANCH   1  10
TORSDOF 6
ENDMDL
MODEL 9
REMARK VINA RESULT:    -6.838      3.134      6.068
REMARK INTER + INTRA:          -9.255
REMARK INTER:                  -8.570
REMARK INTRA:                  -0.684
REMARK UNBOUND:                -0.618
REMARK SMILES Oc1ccc(CCc2cc(O)cc(O)c2)cc1
REMARK SMILES IDX 6 1 5 2 4 3 3 4 2 5 16 6 17 7 1 8 7 10 8 11 15 12 9 13 13 14
REMARK SMILES IDX 10 15 12 16 14 17 11 19
REMARK H PARENT 1 9 14 18 11 20
REMARK Flexibility Score: inf
ROOT
ATOM      1  C   UNL     1      -2.237   0.008  10.495  1.00  0.00     0.040 C 
ENDROOT
BRANCH   1   2
ATOM      2  C   UNL     1      -1.867   0.977   9.405  1.00  0.00    -0.047 A 
ATOM      3  C   UNL     1      -1.835   2.357   9.664  1.00  0.00     0.007 A 
ATOM      4  C   UNL     1      -1.459   3.253   8.659  1.00  0.00     0.046 A 
ATOM      5  C   UNL     1      -1.101   2.780   7.390  1.00  0.00     0.115 A 
ATOM      6  C   UNL     1      -1.494   0.505   8.135  1.00  0.00     0.007 A 
ATOM      7  C   UNL     1      -1.119   1.405   7.132  1.00  0.00     0.046 A 
BRANCH   5   8
ATOM      8  O   UNL     1      -0.725   3.664   6.381  1.00  0.00    -0.508 OA
ATOM      9  H   UNL     1       0.081   4.270   6.482  1.00  0.00     0.293 HD
ENDBRANCH   5   8
ENDBRANCH   1   2
BRANCH   1  10
ATOM     10  C   UNL     1      -3.748   0.023  10.741  1.00  0.00     0.040 C 
BRANCH  10  11
ATOM     11  C   UNL     1      -4.438  -0.983   9.859  1.00  0.00    -0.040 A 
ATOM     12  C   UNL     1      -5.177  -0.557   8.744  1.00  0.00     0.050 A 
ATOM     13  C   UNL     1      -4.299  -2.357  10.112  1.00  0.00     0.050 A 
ATOM     14  C   UNL     1      -5.793  -1.495   7.904  1.00  0.00     0.119 A 
ATOM     15  C   UNL     1      -4.914  -3.296   9.272  1.00  0.00     0.119 A 
ATOM     16  C   UNL     1      -5.661  -2.862   8.172  1.00  0.00     0.092 A 
BRANCH  14  17
ATOM     17  O   UNL     1      -6.534  -1.080   6.800  1.00  0.00    -0.508 OA
ATOM     18  H   UNL     1      -7.513  -1.324   6.698  1.00  0.00     0.293 HD
ENDBRANCH  14  17
BRANCH  15  19
ATOM     19  O   UNL     1      -4.788  -4.661   9.519  1.00  0.00    -0.508 OA
ATOM     20  H   UNL     1      -4.811  -5.340   8.767  1.00  0.00     0.293 HD
ENDBRANCH  15  19
ENDBRANCH  10  11
ENDBRANCH   1  10
TORSDOF 6
ENDMDL
