MODEL 1
REMARK VINA RESULT:    -1.198      0.000      0.000
REMARK INTER + INTRA:          -6.513
REMARK INTER:                  -2.600
REMARK INTRA:                  -3.913
REMARK UNBOUND:                -3.913
REMARK SMILES CCCCCCCCCCCCCCCCCCCCCC(=O)[O-]
REMARK SMILES IDX 12 1 11 2 10 3 9 4 8 5 7 6 6 7 5 8 4 9 3 10 2 11 1 12 13 13
REMARK SMILES IDX 14 14 15 15 16 16 17 17 18 18 19 19 20 20 21 21 22 22 23 23
REMARK SMILES IDX 24 24
REMARK H PARENT
REMARK Flexibility Score: inf
ROOT
ATOM      1  C   UNL     1      25.987  -7.046  19.311  1.00  0.00     0.000 C 
ENDROOT
BRANCH   1   2
ATOM      2  C   UNL     1      27.399  -7.193  18.722  1.00  0.00     0.000 C 
BRANCH   2   3
ATOM      3  C   UNL     1      27.391  -7.594  17.235  1.00  0.00     0.000 C 
BRANCH   3   4
ATOM      4  C   UNL     1      26.306  -8.611  16.834  1.00  0.00    -0.000 C 
BRANCH   4   5
ATOM      5  C   UNL     1      26.790 -10.069  16.924  1.00  0.00    -0.000 C 
BRANCH   5   6
ATOM      6  C   UNL     1      26.362 -10.749  18.234  1.00  0.00    -0.000 C 
BRANCH   6   7
ATOM      7  C   UNL     1      27.531 -10.917  19.220  1.00  0.00    -0.000 C 
BRANCH   7   8
ATOM      8  C   UNL     1      28.900 -10.988  18.518  1.00  0.00    -0.000 C 
BRANCH   8   9
ATOM      9  C   UNL     1      29.922  -9.930  18.972  1.00  0.00    -0.000 C 
BRANCH   9  10
ATOM     10  C   UNL     1      30.670  -9.277  17.801  1.00  0.00    -0.000 C 
BRANCH  10  11
ATOM     11  C   UNL     1      30.478 -10.081  16.510  1.00  0.00    -0.003 C 
ATOM     12  C   UNL     1      30.272  -9.161  15.311  1.00  0.00     0.004 C 
ENDBRANCH  10  11
ENDBRANCH   9  10
ENDBRANCH   8   9
ENDBRANCH   7   8
ENDBRANCH   6   7
ENDBRANCH   5   6
ENDBRANCH   4   5
ENDBRANCH   3   4
ENDBRANCH   2   3
ENDBRANCH   1   2
BRANCH   1  13
ATOM     13  C   UNL     1      25.744  -7.956  20.530  1.00  0.00     0.000 C 
BRANCH  13  14
ATOM     14  C   UNL     1      26.346  -7.460  21.859  1.00  0.00     0.000 C 
BRANCH  14  15
ATOM     15  C   UNL     1      26.963  -8.592  22.699  1.00  0.00     0.000 C 
BRANCH  15  16
ATOM     16  C   UNL     1      28.370  -8.998  22.220  1.00  0.00     0.000 C 
BRANCH  16  17
ATOM     17  C   UNL     1      28.802 -10.428  22.598  1.00  0.00     0.000 C 
BRANCH  17  18
ATOM     18  C   UNL     1      30.321 -10.687  22.560  1.00  0.00     0.000 C 
BRANCH  18  19
ATOM     19  C   UNL     1      31.121  -9.865  23.593  1.00  0.00     0.000 C 
BRANCH  19  20
ATOM     20  C   UNL     1      31.037 -10.460  25.011  1.00  0.00     0.006 C 
BRANCH  20  21
ATOM     21  C   UNL     1      30.691  -9.400  26.064  1.00  0.00     0.053 C 
BRANCH  21  22
ATOM     22  C   UNL     1      29.304  -8.864  25.879  1.00  0.00     0.041 C 
ATOM     23  O   UNL     1      28.305  -9.594  26.111  1.00  0.00    -0.550 OA
ATOM     24  O   UNL     1      29.116  -7.548  25.474  1.00  0.00    -0.550 OA
ENDBRANCH  21  22
ENDBRANCH  20  21
ENDBRANCH  19  20
ENDBRANCH  18  19
ENDBRANCH  17  18
ENDBRANCH  16  17
ENDBRANCH  15  16
ENDBRANCH  14  15
ENDBRANCH  13  14
ENDBRANCH   1  13
TORSDOF 20
ENDMDL
MODEL 2
REMARK VINA RESULT:    -1.105      2.121      3.445
REMARK INTER + INTRA:          -6.309
REMARK INTER:                  -1.785
REMARK INTRA:                  -4.524
REMARK UNBOUND:                -3.913
REMARK SMILES CCCCCCCCCCCCCCCCCCCCCC(=O)[O-]
REMARK SMILES IDX 12 1 11 2 10 3 9 4 8 5 7 6 6 7 5 8 4 9 3 10 2 11 1 12 13 13
REMARK SMILES IDX 14 14 15 15 16 16 17 17 18 18 19 19 20 20 21 21 22 22 23 23
REMARK SMILES IDX 24 24
REMARK H PARENT
REMARK Flexibility Score: inf
ROOT
ATOM      1  C   UNL     1      26.944  -7.568  18.151  1.00  0.00     0.000 C 
ENDROOT
BRANCH   1   2
ATOM      2  C   UNL     1      26.790  -8.855  17.324  1.00  0.00     0.000 C 
BRANCH   2   3
ATOM      3  C   UNL     1      27.711  -8.889  16.090  1.00  0.00     0.000 C 
BRANCH   3   4
ATOM      4  C   UNL     1      28.875  -9.895  16.168  1.00  0.00    -0.000 C 
BRANCH   4   5
ATOM      5  C   UNL     1      28.909 -10.671  17.496  1.00  0.00    -0.000 C 
BRANCH   5   6
ATOM      6  C   UNL     1      30.103 -10.272  18.379  1.00  0.00    -0.000 C 
BRANCH   6   7
ATOM      7  C   UNL     1      31.045  -9.277  17.679  1.00  0.00    -0.000 C 
BRANCH   7   8
ATOM      8  C   UNL     1      31.102  -7.910  18.384  1.00  0.00    -0.000 C 
BRANCH   8   9
ATOM      9  C   UNL     1      30.556  -6.728  17.562  1.00  0.00    -0.000 C 
BRANCH   9  10
ATOM     10  C   UNL     1      30.520  -5.412  18.354  1.00  0.00    -0.000 C 
BRANCH  10  11
ATOM     11  C   UNL     1      29.213  -4.653  18.098  1.00  0.00    -0.003 C 
ATOM     12  C   UNL     1      28.552  -4.234  19.407  1.00  0.00     0.004 C 
ENDBRANCH  10  11
ENDBRANCH   9  10
ENDBRANCH   8   9
ENDBRANCH   7   8
ENDBRANCH   6   7
ENDBRANCH   5   6
ENDBRANCH   4   5
ENDBRANCH   3   4
ENDBRANCH   2   3
ENDBRANCH   1   2
BRANCH   1  13
ATOM     13  C   UNL     1      27.495  -7.824  19.567  1.00  0.00     0.000 C 
BRANCH  13  14
ATOM     14  C   UNL     1      26.700  -8.834  20.417  1.00  0.00     0.000 C 
BRANCH  14  15
ATOM     15  C   UNL     1      27.571  -9.980  20.960  1.00  0.00     0.000 C 
BRANCH  15  16
ATOM     16  C   UNL     1      27.621 -10.018  22.500  1.00  0.00     0.000 C 
BRANCH  16  17
ATOM     17  C   UNL     1      29.036 -10.065  23.107  1.00  0.00     0.000 C 
BRANCH  17  18
ATOM     18  C   UNL     1      30.168 -10.388  22.112  1.00  0.00     0.000 C 
BRANCH  18  19
ATOM     19  C   UNL     1      31.125  -9.206  21.848  1.00  0.00     0.000 C 
BRANCH  19  20
ATOM     20  C   UNL     1      30.771  -7.965  22.686  1.00  0.00     0.006 C 
BRANCH  20  21
ATOM     21  C   UNL     1      30.180  -6.837  21.831  1.00  0.00     0.053 C 
BRANCH  21  22
ATOM     22  C   UNL     1      29.176  -6.028  22.593  1.00  0.00     0.041 C 
ATOM     23  O   UNL     1      28.035  -6.500  22.840  1.00  0.00    -0.550 OA
ATOM     24  O   UNL     1      29.510  -4.761  23.055  1.00  0.00    -0.550 OA
ENDBRANCH  21  22
ENDBRANCH  20  21
ENDBRANCH  19  20
ENDBRANCH  18  19
ENDBRANCH  17  18
ENDBRANCH  16  17
ENDBRANCH  15  16
ENDBRANCH  14  15
ENDBRANCH  13  14
ENDBRANCH   1  13
TORSDOF 20
ENDMDL
MODEL 3
REMARK VINA RESULT:    -1.088      3.775      6.625
REMARK INTER + INTRA:          -6.273
REMARK INTER:                  -2.046
REMARK INTRA:                  -4.227
REMARK UNBOUND:                -3.913
REMARK SMILES CCCCCCCCCCCCCCCCCCCCCC(=O)[O-]
REMARK SMILES IDX 12 1 11 2 10 3 9 4 8 5 7 6 6 7 5 8 4 9 3 10 2 11 1 12 13 13
REMARK SMILES IDX 14 14 15 15 16 16 17 17 18 18 19 19 20 20 21 21 22 22 23 23
REMARK SMILES IDX 24 24
REMARK H PARENT
REMARK Flexibility Score: inf
ROOT
ATOM      1  C   UNL     1      27.905  -7.251  16.737  1.00  0.00     0.000 C 
ENDROOT
BRANCH   1   2
ATOM      2  C   UNL     1      28.836  -7.607  15.567  1.00  0.00     0.000 C 
BRANCH   2   3
ATOM      3  C   UNL     1      30.224  -8.089  16.028  1.00  0.00     0.000 C 
BRANCH   3   4
ATOM      4  C   UNL     1      30.589  -9.529  15.621  1.00  0.00    -0.000 C 
BRANCH   4   5
ATOM      5  C   UNL     1      30.718 -10.477  16.826  1.00  0.00    -0.000 C 
BRANCH   5   6
ATOM      6  C   UNL     1      29.355 -10.823  17.448  1.00  0.00    -0.000 C 
BRANCH   6   7
ATOM      7  C   UNL     1      29.308 -10.537  18.959  1.00  0.00    -0.000 C 
BRANCH   7   8
ATOM      8  C   UNL     1      30.476  -9.656  19.437  1.00  0.00    -0.000 C 
BRANCH   8   9
ATOM      9  C   UNL     1      30.624  -9.541  20.966  1.00  0.00    -0.000 C 
BRANCH   9  10
ATOM     10  C   UNL     1      29.588 -10.376  21.733  1.00  0.00    -0.000 C 
BRANCH  10  11
ATOM     11  C   UNL     1      29.073  -9.618  22.961  1.00  0.00    -0.003 C 
ATOM     12  C   UNL     1      29.885  -8.351  23.209  1.00  0.00     0.004 C 
ENDBRANCH  10  11
ENDBRANCH   9  10
ENDBRANCH   8   9
ENDBRANCH   7   8
ENDBRANCH   6   7
ENDBRANCH   5   6
ENDBRANCH   4   5
ENDBRANCH   3   4
ENDBRANCH   2   3
ENDBRANCH   1   2
BRANCH   1  13
ATOM     13  C   UNL     1      28.667  -6.939  18.040  1.00  0.00     0.000 C 
BRANCH  13  14
ATOM     14  C   UNL     1      27.842  -6.247  19.142  1.00  0.00     0.000 C 
BRANCH  14  15
ATOM     15  C   UNL     1      27.711  -7.096  20.418  1.00  0.00     0.000 C 
BRANCH  15  16
ATOM     16  C   UNL     1      26.796  -8.322  20.233  1.00  0.00     0.000 C 
BRANCH  16  17
ATOM     17  C   UNL     1      25.378  -8.008  19.718  1.00  0.00     0.000 C 
BRANCH  17  18
ATOM     18  C   UNL     1      24.974  -8.736  18.421  1.00  0.00     0.000 C 
BRANCH  18  19
ATOM     19  C   UNL     1      25.754 -10.044  18.170  1.00  0.00     0.000 C 
BRANCH  19  20
ATOM     20  C   UNL     1      25.340 -10.732  16.856  1.00  0.00     0.006 C 
BRANCH  20  21
ATOM     21  C   UNL     1      26.154 -10.228  15.657  1.00  0.00     0.053 C 
BRANCH  21  22
ATOM     22  C   UNL     1      25.329  -9.377  14.742  1.00  0.00     0.041 C 
ATOM     23  O   UNL     1      24.102  -9.204  14.970  1.00  0.00    -0.550 OA
ATOM     24  O   UNL     1      25.920  -8.753  13.651  1.00  0.00    -0.550 OA
ENDBRANCH  21  22
ENDBRANCH  20  21
ENDBRANCH  19  20
ENDBRANCH  18  19
ENDBRANCH  17  18
ENDBRANCH  16  17
ENDBRANCH  15  16
ENDBRANCH  14  15
ENDBRANCH  13  14
ENDBRANCH   1  13
TORSDOF 20
ENDMDL
MODEL 4
REMARK VINA RESULT:    -1.081      5.800      9.505
REMARK INTER + INTRA:          -6.259
REMARK INTER:                  -1.948
REMARK INTRA:                  -4.310
REMARK UNBOUND:                -3.913
REMARK SMILES CCCCCCCCCCCCCCCCCCCCCC(=O)[O-]
REMARK SMILES IDX 12 1 11 2 10 3 9 4 8 5 7 6 6 7 5 8 4 9 3 10 2 11 1 12 13 13
REMARK SMILES IDX 14 14 15 15 16 16 17 17 18 18 19 19 20 20 21 21 22 22 23 23
REMARK SMILES IDX 24 24
REMARK H PARENT
REMARK Flexibility Score: inf
ROOT
ATOM      1  C   UNL     1      26.246  -8.500  14.734  1.00  0.00     0.000 C 
ENDROOT
BRANCH   1   2
ATOM      2  C   UNL     1      26.769  -7.314  13.906  1.00  0.00     0.000 C 
BRANCH   2   3
ATOM      3  C   UNL     1      27.970  -6.608  14.562  1.00  0.00     0.000 C 
BRANCH   3   4
ATOM      4  C   UNL     1      28.836  -7.495  15.476  1.00  0.00    -0.000 C 
BRANCH   4   5
ATOM      5  C   UNL     1      30.288  -7.000  15.589  1.00  0.00    -0.000 C 
BRANCH   5   6
ATOM      6  C   UNL     1      31.125  -7.853  16.557  1.00  0.00    -0.000 C 
BRANCH   6   7
ATOM      7  C   UNL     1      30.754  -9.345  16.496  1.00  0.00    -0.000 C 
BRANCH   7   8
ATOM      8  C   UNL     1      30.743 -10.016  17.882  1.00  0.00    -0.000 C 
BRANCH   8   9
ATOM      9  C   UNL     1      29.428 -10.726  18.252  1.00  0.00    -0.000 C 
BRANCH   9  10
ATOM     10  C   UNL     1      28.280 -10.408  17.282  1.00  0.00    -0.000 C 
BRANCH  10  11
ATOM     11  C   UNL     1      27.016  -9.995  18.045  1.00  0.00    -0.003 C 
ATOM     12  C   UNL     1      27.111  -8.553  18.533  1.00  0.00     0.004 C 
ENDBRANCH  10  11
ENDBRANCH   9  10
ENDBRANCH   8   9
ENDBRANCH   7   8
ENDBRANCH   6   7
ENDBRANCH   5   6
ENDBRANCH   4   5
ENDBRANCH   3   4
ENDBRANCH   2   3
ENDBRANCH   1   2
BRANCH   1  13
ATOM     13  C   UNL     1      26.321  -9.841  13.979  1.00  0.00     0.000 C 
BRANCH  13  14
ATOM     14  C   UNL     1      27.501  -9.986  13.000  1.00  0.00     0.000 C 
BRANCH  14  15
ATOM     15  C   UNL     1      28.728 -10.666  13.632  1.00  0.00     0.000 C 
BRANCH  15  16
ATOM     16  C   UNL     1      29.952 -10.687  12.696  1.00  0.00     0.000 C 
BRANCH  16  17
ATOM     17  C   UNL     1      30.929  -9.508  12.872  1.00  0.00     0.000 C 
BRANCH  17  18
ATOM     18  C   UNL     1      31.074  -8.587  11.645  1.00  0.00     0.000 C 
BRANCH  18  19
ATOM     19  C   UNL     1      30.403  -7.207  11.817  1.00  0.00     0.000 C 
BRANCH  19  20
ATOM     20  C   UNL     1      29.128  -7.063  10.966  1.00  0.00     0.006 C 
BRANCH  20  21
ATOM     21  C   UNL     1      28.961  -8.220   9.973  1.00  0.00     0.053 C 
BRANCH  21  22
ATOM     22  C   UNL     1      27.527  -8.419   9.587  1.00  0.00     0.041 C 
ATOM     23  O   UNL     1      27.230  -9.140   8.597  1.00  0.00    -0.550 OA
ATOM     24  O   UNL     1      26.517  -7.829  10.335  1.00  0.00    -0.550 OA
ENDBRANCH  21  22
ENDBRANCH  20  21
ENDBRANCH  19  20
ENDBRANCH  18  19
ENDBRANCH  17  18
ENDBRANCH  16  17
ENDBRANCH  15  16
ENDBRANCH  14  15
ENDBRANCH  13  14
ENDBRANCH   1  13
TORSDOF 20
ENDMDL
MODEL 5
REMARK VINA RESULT:    -0.977      4.979      7.382
REMARK INTER + INTRA:          -6.033
REMARK INTER:                  -2.052
REMARK INTRA:                  -3.981
REMARK UNBOUND:                -3.913
REMARK SMILES CCCCCCCCCCCCCCCCCCCCCC(=O)[O-]
REMARK SMILES IDX 12 1 11 2 10 3 9 4 8 5 7 6 6 7 5 8 4 9 3 10 2 11 1 12 13 13
REMARK SMILES IDX 14 14 15 15 16 16 17 17 18 18 19 19 20 20 21 21 22 22 23 23
REMARK SMILES IDX 24 24
REMARK H PARENT
REMARK Flexibility Score: inf
ROOT
ATOM      1  C   UNL     1      25.182  -7.181  17.115  1.00  0.00     0.000 C 
ENDROOT
BRANCH   1   2
ATOM      2  C   UNL     1      25.265  -7.567  18.601  1.00  0.00     0.000 C 
BRANCH   2   3
ATOM      3  C   UNL     1      25.288  -9.090  18.825  1.00  0.00     0.000 C 
BRANCH   3   4
ATOM      4  C   UNL     1      26.648  -9.770  18.579  1.00  0.00    -0.000 C 
BRANCH   4   5
ATOM      5  C   UNL     1      27.259 -10.368  19.859  1.00  0.00    -0.000 C 
BRANCH   5   6
ATOM      6  C   UNL     1      28.574 -11.116  19.586  1.00  0.00    -0.000 C 
BRANCH   6   7
ATOM      7  C   UNL     1      28.983 -11.065  18.104  1.00  0.00    -0.000 C 
BRANCH   7   8
ATOM      8  C   UNL     1      30.357 -10.406  17.885  1.00  0.00    -0.000 C 
BRANCH   8   9
ATOM      9  C   UNL     1      30.760  -9.370  18.950  1.00  0.00    -0.000 C 
BRANCH   9  10
ATOM     10  C   UNL     1      30.629  -7.921  18.457  1.00  0.00    -0.000 C 
BRANCH  10  11
ATOM     11  C   UNL     1      29.249  -7.348  18.798  1.00  0.00    -0.003 C 
ATOM     12  C   UNL     1      29.339  -5.870  19.165  1.00  0.00     0.004 C 
ENDBRANCH  10  11
ENDBRANCH   9  10
ENDBRANCH   8   9
ENDBRANCH   7   8
ENDBRANCH   6   7
ENDBRANCH   5   6
ENDBRANCH   4   5
ENDBRANCH   3   4
ENDBRANCH   2   3
ENDBRANCH   1   2
BRANCH   1  13
ATOM     13  C   UNL     1      23.829  -7.541  16.473  1.00  0.00     0.000 C 
BRANCH  13  14
ATOM     14  C   UNL     1      23.903  -8.464  15.242  1.00  0.00     0.000 C 
BRANCH  14  15
ATOM     15  C   UNL     1      23.867  -9.958  15.608  1.00  0.00     0.000 C 
BRANCH  15  16
ATOM     16  C   UNL     1      25.109 -10.727  15.117  1.00  0.00     0.000 C 
BRANCH  16  17
ATOM     17  C   UNL     1      26.172  -9.866  14.407  1.00  0.00     0.000 C 
BRANCH  17  18
ATOM     18  C   UNL     1      27.580  -9.913  15.031  1.00  0.00     0.000 C 
BRANCH  18  19
ATOM     19  C   UNL     1      28.147  -8.525  15.398  1.00  0.00     0.000 C 
BRANCH  19  20
ATOM     20  C   UNL     1      29.606  -8.347  14.941  1.00  0.00     0.006 C 
BRANCH  20  21
ATOM     21  C   UNL     1      30.167  -9.615  14.285  1.00  0.00     0.053 C 
BRANCH  21  22
ATOM     22  C   UNL     1      30.638  -9.356  12.887  1.00  0.00     0.041 C 
ATOM     23  O   UNL     1      31.114  -8.232  12.575  1.00  0.00    -0.550 OA
ATOM     24  O   UNL     1      30.577 -10.366  11.934  1.00  0.00    -0.550 OA
ENDBRANCH  21  22
ENDBRANCH  20  21
ENDBRANCH  19  20
ENDBRANCH  18  19
ENDBRANCH  17  18
ENDBRANCH  16  17
ENDBRANCH  15  16
ENDBRANCH  14  15
ENDBRANCH  13  14
ENDBRANCH   1  13
TORSDOF 20
ENDMDL
MODEL 6
REMARK VINA RESULT:    -0.974      1.993      3.651
REMARK INTER + INTRA:          -6.026
REMARK INTER:                  -2.411
REMARK INTRA:                  -3.615
REMARK UNBOUND:                -3.913
REMARK SMILES CCCCCCCCCCCCCCCCCCCCCC(=O)[O-]
REMARK SMILES IDX 12 1 11 2 10 3 9 4 8 5 7 6 6 7 5 8 4 9 3 10 2 11 1 12 13 13
REMARK SMILES IDX 14 14 15 15 16 16 17 17 18 18 19 19 20 20 21 21 22 22 23 23
REMARK SMILES IDX 24 24
REMARK H PARENT
REMARK Flexibility Score: inf
ROOT
ATOM      1  C   UNL     1      27.215  -6.218  17.028  1.00  0.00     0.000 C 
ENDROOT
BRANCH   1   2
ATOM      2  C   UNL     1      28.344  -7.244  17.217  1.00  0.00     0.000 C 
BRANCH   2   3
ATOM      3  C   UNL     1      29.726  -6.697  16.814  1.00  0.00     0.000 C 
BRANCH   3   4
ATOM      4  C   UNL     1      30.931  -7.459  17.397  1.00  0.00    -0.000 C 
BRANCH   4   5
ATOM      5  C   UNL     1      30.515  -8.646  18.284  1.00  0.00    -0.000 C 
BRANCH   5   6
ATOM      6  C   UNL     1      31.123  -9.975  17.808  1.00  0.00    -0.000 C 
BRANCH   6   7
ATOM      7  C   UNL     1      30.056 -10.960  17.298  1.00  0.00    -0.000 C 
BRANCH   7   8
ATOM      8  C   UNL     1      29.680 -10.725  15.824  1.00  0.00    -0.000 C 
BRANCH   8   9
ATOM      9  C   UNL     1      30.854 -10.346  14.904  1.00  0.00    -0.000 C 
BRANCH   9  10
ATOM     10  C   UNL     1      30.501  -9.230  13.909  1.00  0.00    -0.000 C 
BRANCH  10  11
ATOM     11  C   UNL     1      29.005  -8.902  13.962  1.00  0.00    -0.003 C 
ATOM     12  C   UNL     1      28.708  -7.563  13.292  1.00  0.00     0.004 C 
ENDBRANCH  10  11
ENDBRANCH   9  10
ENDBRANCH   8   9
ENDBRANCH   7   8
ENDBRANCH   6   7
ENDBRANCH   5   6
ENDBRANCH   4   5
ENDBRANCH   3   4
ENDBRANCH   2   3
ENDBRANCH   1   2
BRANCH   1  13
ATOM     13  C   UNL     1      26.434  -5.935  18.325  1.00  0.00     0.000 C 
BRANCH  13  14
ATOM     14  C   UNL     1      27.274  -5.926  19.617  1.00  0.00     0.000 C 
BRANCH  14  15
ATOM     15  C   UNL     1      26.699  -6.837  20.715  1.00  0.00     0.000 C 
BRANCH  15  16
ATOM     16  C   UNL     1      25.567  -7.750  20.205  1.00  0.00     0.000 C 
BRANCH  16  17
ATOM     17  C   UNL     1      25.904  -9.253  20.172  1.00  0.00     0.000 C 
BRANCH  17  18
ATOM     18  C   UNL     1      27.384  -9.589  19.904  1.00  0.00     0.000 C 
BRANCH  18  19
ATOM     19  C   UNL     1      27.824 -10.962  20.457  1.00  0.00     0.000 C 
BRANCH  19  20
ATOM     20  C   UNL     1      29.159 -10.888  21.220  1.00  0.00     0.006 C 
BRANCH  20  21
ATOM     21  C   UNL     1      28.957 -10.873  22.740  1.00  0.00     0.053 C 
BRANCH  21  22
ATOM     22  C   UNL     1      30.227 -10.552  23.467  1.00  0.00     0.041 C 
ATOM     23  O   UNL     1      31.125  -9.870  22.906  1.00  0.00    -0.550 OA
ATOM     24  O   UNL     1      30.408 -10.984  24.775  1.00  0.00    -0.550 OA
ENDBRANCH  21  22
ENDBRANCH  20  21
ENDBRANCH  19  20
ENDBRANCH  18  19
ENDBRANCH  17  18
ENDBRANCH  16  17
ENDBRANCH  15  16
ENDBRANCH  14  15
ENDBRANCH  13  14
ENDBRANCH   1  13
TORSDOF 20
ENDMDL
MODEL 7
REMARK VINA RESULT:    -0.918      5.368      7.507
REMARK INTER + INTRA:          -5.904
REMARK INTER:                  -1.509
REMARK INTRA:                  -4.395
REMARK UNBOUND:                -3.913
REMARK SMILES CCCCCCCCCCCCCCCCCCCCCC(=O)[O-]
REMARK SMILES IDX 12 1 11 2 10 3 9 4 8 5 7 6 6 7 5 8 4 9 3 10 2 11 1 12 13 13
REMARK SMILES IDX 14 14 15 15 16 16 17 17 18 18 19 19 20 20 21 21 22 22 23 23
REMARK SMILES IDX 24 24
REMARK H PARENT
REMARK Flexibility Score: inf
ROOT
ATOM      1  C   UNL     1      24.960  -6.246  16.002  1.00  0.00     0.000 C 
ENDROOT
BRANCH   1   2
ATOM      2  C   UNL     1      25.991  -7.366  16.216  1.00  0.00     0.000 C 
BRANCH   2   3
ATOM      3  C   UNL     1      27.225  -6.902  17.013  1.00  0.00     0.000 C 
BRANCH   3   4
ATOM      4  C   UNL     1      27.879  -7.979  17.898  1.00  0.00    -0.000 C 
BRANCH   4   5
ATOM      5  C   UNL     1      27.066  -9.285  17.951  1.00  0.00    -0.000 C 
BRANCH   5   6
ATOM      6  C   UNL     1      27.958 -10.524  18.131  1.00  0.00    -0.000 C 
BRANCH   6   7
ATOM      7  C   UNL     1      29.455 -10.169  18.178  1.00  0.00    -0.000 C 
BRANCH   7   8
ATOM      8  C   UNL     1      30.299 -11.004  17.197  1.00  0.00    -0.000 C 
BRANCH   8   9
ATOM      9  C   UNL     1      29.920 -10.847  15.713  1.00  0.00    -0.000 C 
BRANCH   9  10
ATOM     10  C   UNL     1      30.063  -9.404  15.207  1.00  0.00    -0.000 C 
BRANCH  10  11
ATOM     11  C   UNL     1      28.839  -8.988  14.384  1.00  0.00    -0.003 C 
ATOM     12  C   UNL     1      27.796 -10.100  14.342  1.00  0.00     0.004 C 
ENDBRANCH  10  11
ENDBRANCH   9  10
ENDBRANCH   8   9
ENDBRANCH   7   8
ENDBRANCH   6   7
ENDBRANCH   5   6
ENDBRANCH   4   5
ENDBRANCH   3   4
ENDBRANCH   2   3
ENDBRANCH   1   2
BRANCH   1  13
ATOM     13  C   UNL     1      23.663  -6.460  16.805  1.00  0.00     0.000 C 
BRANCH  13  14
ATOM     14  C   UNL     1      23.749  -7.495  17.942  1.00  0.00     0.000 C 
BRANCH  14  15
ATOM     15  C   UNL     1      22.369  -7.961  18.438  1.00  0.00     0.000 C 
BRANCH  15  16
ATOM     16  C   UNL     1      22.246  -9.495  18.516  1.00  0.00     0.000 C 
BRANCH  16  17
ATOM     17  C   UNL     1      23.525 -10.274  18.152  1.00  0.00     0.000 C 
BRANCH  17  18
ATOM     18  C   UNL     1      23.434 -11.124  16.870  1.00  0.00     0.000 C 
BRANCH  18  19
ATOM     19  C   UNL     1      24.366 -10.646  15.736  1.00  0.00     0.000 C 
BRANCH  19  20
ATOM     20  C   UNL     1      23.658  -9.696  14.754  1.00  0.00     0.006 C 
BRANCH  20  21
ATOM     21  C   UNL     1      22.137  -9.900  14.746  1.00  0.00     0.053 C 
BRANCH  21  22
ATOM     22  C   UNL     1      21.401  -8.595  14.763  1.00  0.00     0.041 C 
ATOM     23  O   UNL     1      20.406  -8.438  15.519  1.00  0.00    -0.550 OA
ATOM     24  O   UNL     1      21.830  -7.544  13.962  1.00  0.00    -0.550 OA
ENDBRANCH  21  22
ENDBRANCH  20  21
ENDBRANCH  19  20
ENDBRANCH  18  19
ENDBRANCH  17  18
ENDBRANCH  16  17
ENDBRANCH  15  16
ENDBRANCH  14  15
ENDBRANCH  13  14
ENDBRANCH   1  13
TORSDOF 20
ENDMDL
MODEL 8
REMARK VINA RESULT:    -0.879      2.633      5.518
REMARK INTER + INTRA:          -5.819
REMARK INTER:                  -1.967
REMARK INTRA:                  -3.853
REMARK UNBOUND:                -3.913
REMARK SMILES CCCCCCCCCCCCCCCCCCCCCC(=O)[O-]
REMARK SMILES IDX 12 1 11 2 10 3 9 4 8 5 7 6 6 7 5 8 4 9 3 10 2 11 1 12 13 13
REMARK SMILES IDX 14 14 15 15 16 16 17 17 18 18 19 19 20 20 21 21 22 22 23 23
REMARK SMILES IDX 24 24
REMARK H PARENT
REMARK Flexibility Score: inf
ROOT
ATOM      1  C   UNL     1      27.392  -7.707  16.483  1.00  0.00     0.000 C 
ENDROOT
BRANCH   1   2
ATOM      2  C   UNL     1      27.018  -7.403  17.942  1.00  0.00     0.000 C 
BRANCH   2   3
ATOM      3  C   UNL     1      28.246  -7.182  18.844  1.00  0.00     0.000 C 
BRANCH   3   4
ATOM      4  C   UNL     1      29.549  -6.825  18.104  1.00  0.00    -0.000 C 
BRANCH   4   5
ATOM      5  C   UNL     1      30.786  -6.861  19.018  1.00  0.00    -0.000 C 
BRANCH   5   6
ATOM      6  C   UNL     1      31.121  -5.481  19.606  1.00  0.00    -0.000 C 
BRANCH   6   7
ATOM      7  C   UNL     1      30.631  -4.327  18.714  1.00  0.00    -0.000 C 
BRANCH   7   8
ATOM      8  C   UNL     1      29.609  -3.417  19.420  1.00  0.00    -0.000 C 
BRANCH   8   9
ATOM      9  C   UNL     1      28.614  -2.706  18.486  1.00  0.00    -0.000 C 
BRANCH   9  10
ATOM     10  C   UNL     1      27.909  -3.667  17.516  1.00  0.00    -0.000 C 
BRANCH  10  11
ATOM     11  C   UNL     1      26.393  -3.659  17.741  1.00  0.00    -0.003 C 
ATOM     12  C   UNL     1      26.045  -4.040  19.176  1.00  0.00     0.004 C 
ENDBRANCH  10  11
ENDBRANCH   9  10
ENDBRANCH   8   9
ENDBRANCH   7   8
ENDBRANCH   6   7
ENDBRANCH   5   6
ENDBRANCH   4   5
ENDBRANCH   3   4
ENDBRANCH   2   3
ENDBRANCH   1   2
BRANCH   1  13
ATOM     13  C   UNL     1      27.166  -9.181  16.097  1.00  0.00     0.000 C 
BRANCH  13  14
ATOM     14  C   UNL     1      28.243  -9.801  15.186  1.00  0.00     0.000 C 
BRANCH  14  15
ATOM     15  C   UNL     1      29.670  -9.618  15.732  1.00  0.00     0.000 C 
BRANCH  15  16
ATOM     16  C   UNL     1      30.108 -10.765  16.663  1.00  0.00     0.000 C 
BRANCH  16  17
ATOM     17  C   UNL     1      30.018 -10.454  18.170  1.00  0.00     0.000 C 
BRANCH  17  18
ATOM     18  C   UNL     1      28.723 -10.923  18.861  1.00  0.00     0.000 C 
BRANCH  18  19
ATOM     19  C   UNL     1      28.651 -10.568  20.362  1.00  0.00     0.000 C 
BRANCH  19  20
ATOM     20  C   UNL     1      29.974  -9.986  20.892  1.00  0.00     0.006 C 
BRANCH  20  21
ATOM     21  C   UNL     1      29.745  -8.875  21.925  1.00  0.00     0.053 C 
BRANCH  21  22
ATOM     22  C   UNL     1      30.349  -9.216  23.253  1.00  0.00     0.041 C 
ATOM     23  O   UNL     1      30.138  -8.481  24.254  1.00  0.00    -0.550 OA
ATOM     24  O   UNL     1      31.125 -10.360  23.390  1.00  0.00    -0.550 OA
ENDBRANCH  21  22
ENDBRANCH  20  21
ENDBRANCH  19  20
ENDBRANCH  18  19
ENDBRANCH  17  18
ENDBRANCH  16  17
ENDBRANCH  15  16
ENDBRANCH  14  15
ENDBRANCH  13  14
ENDBRANCH   1  13
TORSDOF 20
ENDMDL
