MODEL 1
REMARK VINA RESULT:    -4.741      0.000      0.000
REMARK INTER + INTRA:          -9.552
REMARK INTER:                  -8.068
REMARK INTRA:                  -1.484
REMARK UNBOUND:                -1.484
REMARK SMILES CCCCCCCCCCCCCC(=O)[O-]
REMARK SMILES IDX 8 1 9 2 10 3 11 4 12 5 13 6 14 7 15 8 16 9 7 10 6 11 5 12
REMARK SMILES IDX 4 13 3 14 2 15 1 16
REMARK H PARENT
REMARK Flexibility Score: inf
ROOT
ATOM      1  C   UNL     1      64.260  29.840   9.411  1.00  0.00     0.000 C 
ENDROOT
BRANCH   1   2
ATOM      2  C   UNL     1      64.443  31.126  10.238  1.00  0.00     0.000 C 
BRANCH   2   3
ATOM      3  C   UNL     1      63.732  31.066  11.600  1.00  0.00     0.000 C 
BRANCH   3   4
ATOM      4  C   UNL     1      63.828  32.388  12.383  1.00  0.00     0.000 C 
BRANCH   4   5
ATOM      5  C   UNL     1      62.793  32.560  13.513  1.00  0.00     0.006 C 
BRANCH   5   6
ATOM      6  C   UNL     1      61.332  32.374  13.075  1.00  0.00     0.053 C 
BRANCH   6   7
ATOM      7  C   UNL     1      60.372  32.674  14.185  1.00  0.00     0.041 C 
ATOM      8  O   UNL     1      60.588  33.634  14.969  1.00  0.00    -0.550 OA
ATOM      9  O   UNL     1      59.220  31.911  14.334  1.00  0.00    -0.550 OA
ENDBRANCH   6   7
ENDBRANCH   5   6
ENDBRANCH   4   5
ENDBRANCH   3   4
ENDBRANCH   2   3
ENDBRANCH   1   2
BRANCH   1  10
ATOM     10  C   UNL     1      63.039  28.976   9.793  1.00  0.00     0.000 C 
BRANCH  10  11
ATOM     11  C   UNL     1      61.792  29.179   8.913  1.00  0.00    -0.000 C 
BRANCH  11  12
ATOM     12  C   UNL     1      60.484  28.861   9.649  1.00  0.00    -0.000 C 
BRANCH  12  13
ATOM     13  C   UNL     1      60.383  29.652  10.962  1.00  0.00    -0.000 C 
BRANCH  13  14
ATOM     14  C   UNL     1      59.495  28.942  12.005  1.00  0.00    -0.000 C 
BRANCH  14  15
ATOM     15  C   UNL     1      60.290  28.099  13.017  1.00  0.00    -0.003 C 
ATOM     16  C   UNL     1      61.667  28.681  13.333  1.00  0.00     0.004 C 
ENDBRANCH  14  15
ENDBRANCH  13  14
ENDBRANCH  12  13
ENDBRANCH  11  12
ENDBRANCH  10  11
ENDBRANCH   1  10
TORSDOF 12
ENDMDL
MODEL 2
REMARK VINA RESULT:    -4.738     13.113     15.124
REMARK INTER + INTRA:          -9.546
REMARK INTER:                  -7.653
REMARK INTRA:                  -1.893
REMARK UNBOUND:                -1.484
REMARK SMILES CCCCCCCCCCCCCC(=O)[O-]
REMARK SMILES IDX 8 1 9 2 10 3 11 4 12 5 13 6 14 7 15 8 16 9 7 10 6 11 5 12
REMARK SMILES IDX 4 13 3 14 2 15 1 16
REMARK H PARENT
REMARK Flexibility Score: inf
ROOT
ATOM      1  C   UNL     1      62.187  28.922  24.630  1.00  0.00     0.000 C 
ENDROOT
BRANCH   1   2
ATOM      2  C   UNL     1      62.859  30.179  25.210  1.00  0.00     0.000 C 
BRANCH   2   3
ATOM      3  C   UNL     1      64.394  30.127  25.128  1.00  0.00     0.000 C 
BRANCH   3   4
ATOM      4  C   UNL     1      64.989  28.889  25.824  1.00  0.00     0.000 C 
BRANCH   4   5
ATOM      5  C   UNL     1      65.606  27.837  24.880  1.00  0.00     0.006 C 
BRANCH   5   6
ATOM      6  C   UNL     1      65.010  26.427  25.017  1.00  0.00     0.053 C 
BRANCH   6   7
ATOM      7  C   UNL     1      64.312  25.991  23.766  1.00  0.00     0.041 C 
ATOM      8  O   UNL     1      64.771  26.311  22.638  1.00  0.00    -0.550 OA
ATOM      9  O   UNL     1      63.171  25.202  23.845  1.00  0.00    -0.550 OA
ENDBRANCH   6   7
ENDBRANCH   5   6
ENDBRANCH   4   5
ENDBRANCH   3   4
ENDBRANCH   2   3
ENDBRANCH   1   2
BRANCH   1  10
ATOM     10  C   UNL     1      61.149  28.242  25.549  1.00  0.00     0.000 C 
BRANCH  10  11
ATOM     11  C   UNL     1      61.697  27.099  26.422  1.00  0.00    -0.000 C 
BRANCH  11  12
ATOM     12  C   UNL     1      61.159  27.134  27.858  1.00  0.00    -0.000 C 
BRANCH  12  13
ATOM     13  C   UNL     1      62.073  27.966  28.770  1.00  0.00    -0.000 C 
BRANCH  13  14
ATOM     14  C   UNL     1      61.534  29.395  28.990  1.00  0.00    -0.000 C 
BRANCH  14  15
ATOM     15  C   UNL     1      62.612  30.485  28.863  1.00  0.00    -0.003 C 
ATOM     16  C   UNL     1      64.024  29.966  29.125  1.00  0.00     0.004 C 
ENDBRANCH  14  15
ENDBRANCH  13  14
ENDBRANCH  12  13
ENDBRANCH  11  12
ENDBRANCH  10  11
ENDBRANCH   1  10
TORSDOF 12
ENDMDL
MODEL 3
REMARK VINA RESULT:    -4.717      0.923      2.935
REMARK INTER + INTRA:          -9.510
REMARK INTER:                  -7.752
REMARK INTRA:                  -1.758
REMARK UNBOUND:                -1.484
REMARK SMILES CCCCCCCCCCCCCC(=O)[O-]
REMARK SMILES IDX 8 1 9 2 10 3 11 4 12 5 13 6 14 7 15 8 16 9 7 10 6 11 5 12
REMARK SMILES IDX 4 13 3 14 2 15 1 16
REMARK H PARENT
REMARK Flexibility Score: inf
ROOT
ATOM      1  C   UNL     1      62.037  29.090  13.703  1.00  0.00     0.000 C 
ENDROOT
BRANCH   1   2
ATOM      2  C   UNL     1      63.320  29.368  12.900  1.00  0.00     0.000 C 
BRANCH   2   3
ATOM      3  C   UNL     1      63.429  30.830  12.435  1.00  0.00     0.000 C 
BRANCH   3   4
ATOM      4  C   UNL     1      63.732  31.804  13.588  1.00  0.00     0.000 C 
BRANCH   4   5
ATOM      5  C   UNL     1      62.702  32.935  13.784  1.00  0.00     0.006 C 
BRANCH   5   6
ATOM      6  C   UNL     1      61.274  32.583  13.340  1.00  0.00     0.053 C 
BRANCH   6   7
ATOM      7  C   UNL     1      60.310  32.607  14.486  1.00  0.00     0.041 C 
ATOM      8  O   UNL     1      59.205  32.012  14.399  1.00  0.00    -0.550 OA
ATOM      9  O   UNL     1      60.648  33.262  15.664  1.00  0.00    -0.550 OA
ENDBRANCH   6   7
ENDBRANCH   5   6
ENDBRANCH   4   5
ENDBRANCH   3   4
ENDBRANCH   2   3
ENDBRANCH   1   2
BRANCH   1  10
ATOM     10  C   UNL     1      60.917  28.362  12.931  1.00  0.00     0.000 C 
BRANCH  10  11
ATOM     11  C   UNL     1      59.828  29.276  12.340  1.00  0.00    -0.000 C 
BRANCH  11  12
ATOM     12  C   UNL     1      60.153  29.749  10.916  1.00  0.00    -0.000 C 
BRANCH  12  13
ATOM     13  C   UNL     1      59.986  28.606   9.904  1.00  0.00    -0.000 C 
BRANCH  13  14
ATOM     14  C   UNL     1      61.243  28.412   9.031  1.00  0.00    -0.000 C 
BRANCH  14  15
ATOM     15  C   UNL     1      62.297  29.517   9.217  1.00  0.00    -0.003 C 
ATOM     16  C   UNL     1      63.727  28.983   9.253  1.00  0.00     0.004 C 
ENDBRANCH  14  15
ENDBRANCH  13  14
ENDBRANCH  12  13
ENDBRANCH  11  12
ENDBRANCH  10  11
ENDBRANCH   1  10
TORSDOF 12
ENDMDL
MODEL 4
REMARK VINA RESULT:    -4.696     13.265     15.207
REMARK INTER + INTRA:          -9.474
REMARK INTER:                  -7.756
REMARK INTRA:                  -1.718
REMARK UNBOUND:                -1.484
REMARK SMILES CCCCCCCCCCCCCC(=O)[O-]
REMARK SMILES IDX 8 1 9 2 10 3 11 4 12 5 13 6 14 7 15 8 16 9 7 10 6 11 5 12
REMARK SMILES IDX 4 13 3 14 2 15 1 16
REMARK H PARENT
REMARK Flexibility Score: inf
ROOT
ATOM      1  C   UNL     1      63.219  30.510  27.414  1.00  0.00     0.000 C 
ENDROOT
BRANCH   1   2
ATOM      2  C   UNL     1      64.757  30.534  27.491  1.00  0.00     0.000 C 
BRANCH   2   3
ATOM      3  C   UNL     1      65.410  29.365  26.736  1.00  0.00     0.000 C 
BRANCH   3   4
ATOM      4  C   UNL     1      65.373  29.543  25.207  1.00  0.00     0.000 C 
BRANCH   4   5
ATOM      5  C   UNL     1      65.619  28.260  24.388  1.00  0.00     0.006 C 
BRANCH   5   6
ATOM      6  C   UNL     1      65.047  26.980  25.017  1.00  0.00     0.053 C 
BRANCH   6   7
ATOM      7  C   UNL     1      64.647  25.977  23.980  1.00  0.00     0.041 C 
ATOM      8  O   UNL     1      65.477  25.594  23.114  1.00  0.00    -0.550 OA
ATOM      9  O   UNL     1      63.366  25.438  23.990  1.00  0.00    -0.550 OA
ENDBRANCH   6   7
ENDBRANCH   5   6
ENDBRANCH   4   5
ENDBRANCH   3   4
ENDBRANCH   2   3
ENDBRANCH   1   2
BRANCH   1  10
ATOM     10  C   UNL     1      62.496  30.186  28.738  1.00  0.00     0.000 C 
BRANCH  10  11
ATOM     11  C   UNL     1      61.504  29.011  28.672  1.00  0.00    -0.000 C 
BRANCH  11  12
ATOM     12  C   UNL     1      62.198  27.651  28.515  1.00  0.00    -0.000 C 
BRANCH  12  13
ATOM     13  C   UNL     1      62.099  27.145  27.068  1.00  0.00    -0.000 C 
BRANCH  13  14
ATOM     14  C   UNL     1      60.660  27.226  26.519  1.00  0.00    -0.000 C 
BRANCH  14  15
ATOM     15  C   UNL     1      60.582  27.744  25.072  1.00  0.00    -0.003 C 
ATOM     16  C   UNL     1      61.743  28.665  24.701  1.00  0.00     0.004 C 
ENDBRANCH  14  15
ENDBRANCH  13  14
ENDBRANCH  12  13
ENDBRANCH  11  12
ENDBRANCH  10  11
ENDBRANCH   1  10
TORSDOF 12
ENDMDL
MODEL 5
REMARK VINA RESULT:    -4.685     13.059     14.827
REMARK INTER + INTRA:          -9.455
REMARK INTER:                  -7.861
REMARK INTRA:                  -1.594
REMARK UNBOUND:                -1.484
REMARK SMILES CCCCCCCCCCCCCC(=O)[O-]
REMARK SMILES IDX 8 1 9 2 10 3 11 4 12 5 13 6 14 7 15 8 16 9 7 10 6 11 5 12
REMARK SMILES IDX 4 13 3 14 2 15 1 16
REMARK H PARENT
REMARK Flexibility Score: inf
ROOT
ATOM      1  C   UNL     1      61.890  29.591  25.042  1.00  0.00     0.000 C 
ENDROOT
BRANCH   1   2
ATOM      2  C   UNL     1      61.436  28.211  24.534  1.00  0.00     0.000 C 
BRANCH   2   3
ATOM      3  C   UNL     1      60.766  27.363  25.628  1.00  0.00     0.000 C 
BRANCH   3   4
ATOM      4  C   UNL     1      61.659  27.170  26.866  1.00  0.00     0.000 C 
BRANCH   4   5
ATOM      5  C   UNL     1      60.950  27.353  28.224  1.00  0.00     0.006 C 
BRANCH   5   6
ATOM      6  C   UNL     1      60.886  28.805  28.721  1.00  0.00     0.053 C 
BRANCH   6   7
ATOM      7  C   UNL     1      62.244  29.432  28.791  1.00  0.00     0.041 C 
ATOM      8  O   UNL     1      63.251  28.736  29.085  1.00  0.00    -0.550 OA
ATOM      9  O   UNL     1      62.403  30.782  28.498  1.00  0.00    -0.550 OA
ENDBRANCH   6   7
ENDBRANCH   5   6
ENDBRANCH   4   5
ENDBRANCH   3   4
ENDBRANCH   2   3
ENDBRANCH   1   2
BRANCH   1  10
ATOM     10  C   UNL     1      63.340  29.983  24.687  1.00  0.00     0.000 C 
BRANCH  10  11
ATOM     11  C   UNL     1      64.397  29.604  25.739  1.00  0.00    -0.000 C 
BRANCH  11  12
ATOM     12  C   UNL     1      65.560  28.791  25.153  1.00  0.00    -0.000 C 
BRANCH  12  13
ATOM     13  C   UNL     1      65.325  28.488  23.665  1.00  0.00    -0.000 C 
BRANCH  13  14
ATOM     14  C   UNL     1      65.714  27.042  23.296  1.00  0.00    -0.000 C 
BRANCH  14  15
ATOM     15  C   UNL     1      65.056  25.980  24.196  1.00  0.00    -0.003 C 
ATOM     16  C   UNL     1      63.654  25.587  23.733  1.00  0.00     0.004 C 
ENDBRANCH  14  15
ENDBRANCH  13  14
ENDBRANCH  12  13
ENDBRANCH  11  12
ENDBRANCH  10  11
ENDBRANCH   1  10
TORSDOF 12
ENDMDL
MODEL 6
REMARK VINA RESULT:    -4.590     12.382     14.770
REMARK INTER + INTRA:          -9.293
REMARK INTER:                  -7.427
REMARK INTRA:                  -1.867
REMARK UNBOUND:                -1.484
REMARK SMILES CCCCCCCCCCCCCC(=O)[O-]
REMARK SMILES IDX 8 1 9 2 10 3 11 4 12 5 13 6 14 7 15 8 16 9 7 10 6 11 5 12
REMARK SMILES IDX 4 13 3 14 2 15 1 16
REMARK H PARENT
REMARK Flexibility Score: inf
ROOT
ATOM      1  C   UNL     1      60.978  27.641  25.942  1.00  0.00     0.000 C 
ENDROOT
BRANCH   1   2
ATOM      2  C   UNL     1      62.087  27.096  25.023  1.00  0.00     0.000 C 
BRANCH   2   3
ATOM      3  C   UNL     1      63.269  26.498  25.804  1.00  0.00     0.000 C 
BRANCH   3   4
ATOM      4  C   UNL     1      64.582  26.504  25.001  1.00  0.00     0.000 C 
BRANCH   4   5
ATOM      5  C   UNL     1      64.449  26.099  23.519  1.00  0.00     0.006 C 
BRANCH   5   6
ATOM      6  C   UNL     1      65.763  25.659  22.856  1.00  0.00     0.053 C 
BRANCH   6   7
ATOM      7  C   UNL     1      66.217  26.633  21.813  1.00  0.00     0.041 C 
ATOM      8  O   UNL     1      66.313  27.858  22.087  1.00  0.00    -0.550 OA
ATOM      9  O   UNL     1      66.567  26.182  20.546  1.00  0.00    -0.550 OA
ENDBRANCH   6   7
ENDBRANCH   5   6
ENDBRANCH   4   5
ENDBRANCH   3   4
ENDBRANCH   2   3
ENDBRANCH   1   2
BRANCH   1  10
ATOM     10  C   UNL     1      61.118  27.279  27.435  1.00  0.00     0.000 C 
BRANCH  10  11
ATOM     11  C   UNL     1      61.241  28.479  28.391  1.00  0.00    -0.000 C 
BRANCH  11  12
ATOM     12  C   UNL     1      61.998  29.662  27.771  1.00  0.00    -0.000 C 
BRANCH  12  13
ATOM     13  C   UNL     1      63.515  29.504  27.958  1.00  0.00    -0.000 C 
BRANCH  13  14
ATOM     14  C   UNL     1      64.306  29.954  26.712  1.00  0.00    -0.000 C 
BRANCH  14  15
ATOM     15  C   UNL     1      63.419  30.540  25.600  1.00  0.00    -0.003 C 
ATOM     16  C   UNL     1      63.934  30.232  24.195  1.00  0.00     0.004 C 
ENDBRANCH  14  15
ENDBRANCH  13  14
ENDBRANCH  12  13
ENDBRANCH  11  12
ENDBRANCH  10  11
ENDBRANCH   1  10
TORSDOF 12
ENDMDL
MODEL 7
REMARK VINA RESULT:    -4.574      1.977      3.769
REMARK INTER + INTRA:          -9.266
REMARK INTER:                  -7.773
REMARK INTRA:                  -1.494
REMARK UNBOUND:                -1.484
REMARK SMILES CCCCCCCCCCCCCC(=O)[O-]
REMARK SMILES IDX 8 1 9 2 10 3 11 4 12 5 13 6 14 7 15 8 16 9 7 10 6 11 5 12
REMARK SMILES IDX 4 13 3 14 2 15 1 16
REMARK H PARENT
REMARK Flexibility Score: inf
ROOT
ATOM      1  C   UNL     1      62.448  30.130  13.879  1.00  0.00     0.000 C 
ENDROOT
BRANCH   1   2
ATOM      2  C   UNL     1      62.303  31.549  13.298  1.00  0.00     0.000 C 
BRANCH   2   3
ATOM      3  C   UNL     1      60.836  31.965  13.101  1.00  0.00     0.000 C 
BRANCH   3   4
ATOM      4  C   UNL     1      60.230  32.634  14.348  1.00  0.00     0.000 C 
BRANCH   4   5
ATOM      5  C   UNL     1      61.239  33.362  15.260  1.00  0.00     0.006 C 
BRANCH   5   6
ATOM      6  C   UNL     1      61.488  32.677  16.612  1.00  0.00     0.053 C 
BRANCH   6   7
ATOM      7  C   UNL     1      61.905  33.655  17.666  1.00  0.00     0.041 C 
ATOM      8  O   UNL     1      61.136  34.593  18.002  1.00  0.00    -0.550 OA
ATOM      9  O   UNL     1      63.132  33.511  18.303  1.00  0.00    -0.550 OA
ENDBRANCH   6   7
ENDBRANCH   5   6
ENDBRANCH   4   5
ENDBRANCH   3   4
ENDBRANCH   2   3
ENDBRANCH   1   2
BRANCH   1  10
ATOM     10  C   UNL     1      61.125  29.369  14.106  1.00  0.00     0.000 C 
BRANCH  10  11
ATOM     11  C   UNL     1      60.777  28.326  13.029  1.00  0.00    -0.000 C 
BRANCH  11  12
ATOM     12  C   UNL     1      59.483  28.657  12.273  1.00  0.00    -0.000 C 
BRANCH  12  13
ATOM     13  C   UNL     1      59.785  29.115  10.838  1.00  0.00    -0.000 C 
BRANCH  13  14
ATOM     14  C   UNL     1      61.040  28.428  10.259  1.00  0.00    -0.000 C 
BRANCH  14  15
ATOM     15  C   UNL     1      62.082  29.417   9.708  1.00  0.00    -0.003 C 
ATOM     16  C   UNL     1      63.430  29.327  10.422  1.00  0.00     0.004 C 
ENDBRANCH  14  15
ENDBRANCH  13  14
ENDBRANCH  12  13
ENDBRANCH  11  12
ENDBRANCH  10  11
ENDBRANCH   1  10
TORSDOF 12
ENDMDL
MODEL 8
REMARK VINA RESULT:    -4.567     12.796     14.609
REMARK INTER + INTRA:          -9.254
REMARK INTER:                  -7.482
REMARK INTRA:                  -1.772
REMARK UNBOUND:                -1.484
REMARK SMILES CCCCCCCCCCCCCC(=O)[O-]
REMARK SMILES IDX 8 1 9 2 10 3 11 4 12 5 13 6 14 7 15 8 16 9 7 10 6 11 5 12
REMARK SMILES IDX 4 13 3 14 2 15 1 16
REMARK H PARENT
REMARK Flexibility Score: inf
ROOT
ATOM      1  C   UNL     1      62.241  29.561  24.915  1.00  0.00     0.000 C 
ENDROOT
BRANCH   1   2
ATOM      2  C   UNL     1      63.153  30.582  25.621  1.00  0.00     0.000 C 
BRANCH   2   3
ATOM      3  C   UNL     1      64.494  29.977  26.066  1.00  0.00     0.000 C 
BRANCH   3   4
ATOM      4  C   UNL     1      64.583  29.774  27.589  1.00  0.00     0.000 C 
BRANCH   4   5
ATOM      5  C   UNL     1      63.231  29.607  28.312  1.00  0.00     0.006 C 
BRANCH   5   6
ATOM      6  C   UNL     1      62.775  28.150  28.484  1.00  0.00     0.053 C 
BRANCH   6   7
ATOM      7  C   UNL     1      61.293  28.005  28.325  1.00  0.00     0.041 C 
ATOM      8  O   UNL     1      60.819  27.122  27.563  1.00  0.00    -0.550 OA
ATOM      9  O   UNL     1      60.432  28.826  29.044  1.00  0.00    -0.550 OA
ENDBRANCH   6   7
ENDBRANCH   5   6
ENDBRANCH   4   5
ENDBRANCH   3   4
ENDBRANCH   2   3
ENDBRANCH   1   2
BRANCH   1  10
ATOM     10  C   UNL     1      62.972  28.481  24.089  1.00  0.00     0.000 C 
BRANCH  10  11
ATOM     11  C   UNL     1      62.667  27.028  24.496  1.00  0.00    -0.000 C 
BRANCH  11  12
ATOM     12  C   UNL     1      63.756  26.416  25.387  1.00  0.00    -0.000 C 
BRANCH  12  13
ATOM     13  C   UNL     1      65.144  26.571  24.746  1.00  0.00    -0.000 C 
BRANCH  13  14
ATOM     14  C   UNL     1      65.302  25.700  23.482  1.00  0.00    -0.000 C 
BRANCH  14  15
ATOM     15  C   UNL     1      66.041  26.411  22.335  1.00  0.00    -0.003 C 
ATOM     16  C   UNL     1      66.256  27.902  22.592  1.00  0.00     0.004 C 
ENDBRANCH  14  15
ENDBRANCH  13  14
ENDBRANCH  12  13
ENDBRANCH  11  12
ENDBRANCH  10  11
ENDBRANCH   1  10
TORSDOF 12
ENDMDL
MODEL 9
REMARK VINA RESULT:    -4.566      1.192      3.229
REMARK INTER + INTRA:          -9.253
REMARK INTER:                  -7.450
REMARK INTRA:                  -1.803
REMARK UNBOUND:                -1.484
REMARK SMILES CCCCCCCCCCCCCC(=O)[O-]
REMARK SMILES IDX 8 1 9 2 10 3 11 4 12 5 13 6 14 7 15 8 16 9 7 10 6 11 5 12
REMARK SMILES IDX 4 13 3 14 2 15 1 16
REMARK H PARENT
REMARK Flexibility Score: inf
ROOT
ATOM      1  C   UNL     1      60.952  28.327  13.224  1.00  0.00     0.000 C 
ENDROOT
BRANCH   1   2
ATOM      2  C   UNL     1      62.252  29.089  12.909  1.00  0.00     0.000 C 
BRANCH   2   3
ATOM      3  C   UNL     1      62.670  30.049  14.036  1.00  0.00     0.000 C 
BRANCH   3   4
ATOM      4  C   UNL     1      63.032  31.454  13.522  1.00  0.00     0.000 C 
BRANCH   4   5
ATOM      5  C   UNL     1      61.834  32.395  13.278  1.00  0.00     0.006 C 
BRANCH   5   6
ATOM      6  C   UNL     1      60.655  32.192  14.243  1.00  0.00     0.053 C 
BRANCH   6   7
ATOM      7  C   UNL     1      60.854  32.929  15.531  1.00  0.00     0.041 C 
ATOM      8  O   UNL     1      61.357  32.345  16.526  1.00  0.00    -0.550 OA
ATOM      9  O   UNL     1      60.514  34.274  15.623  1.00  0.00    -0.550 OA
ENDBRANCH   6   7
ENDBRANCH   5   6
ENDBRANCH   4   5
ENDBRANCH   3   4
ENDBRANCH   2   3
ENDBRANCH   1   2
BRANCH   1  10
ATOM     10  C   UNL     1      59.715  28.764  12.410  1.00  0.00     0.000 C 
BRANCH  10  11
ATOM     11  C   UNL     1      59.967  29.888  11.389  1.00  0.00    -0.000 C 
BRANCH  11  12
ATOM     12  C   UNL     1      59.932  29.395   9.936  1.00  0.00    -0.000 C 
BRANCH  12  13
ATOM     13  C   UNL     1      61.240  29.736   9.207  1.00  0.00    -0.000 C 
BRANCH  13  14
ATOM     14  C   UNL     1      62.276  28.597   9.304  1.00  0.00    -0.000 C 
BRANCH  14  15
ATOM     15  C   UNL     1      63.734  29.089   9.293  1.00  0.00    -0.003 C 
ATOM     16  C   UNL     1      63.921  30.427  10.005  1.00  0.00     0.004 C 
ENDBRANCH  14  15
ENDBRANCH  13  14
ENDBRANCH  12  13
ENDBRANCH  11  12
ENDBRANCH  10  11
ENDBRANCH   1  10
TORSDOF 12
ENDMDL
