MODEL 1
REMARK VINA RESULT:    -2.148      0.000      0.000
REMARK INTER + INTRA:          -2.357
REMARK INTER:                  -3.278
REMARK INTRA:                   0.921
REMARK UNBOUND:                 0.921
REMARK SMILES CC1=CCC[C@@H](C)C(=O)C[C@@H](C(C)C)C(=O)C1
REMARK SMILES IDX 8 1 9 2 6 3 7 4 5 5 4 6 3 7 2 8 1 9 10 11 11 12 15 13 16 14
REMARK SMILES IDX 17 15 12 17 13 18 14 19
REMARK H PARENT
REMARK Flexibility Score: 70.00
ROOT
ATOM      1  C   UNL     1      28.842  39.185  18.792  1.00  0.00     0.136 C 
ATOM      2  O   UNL     1      28.954  38.864  17.617  1.00  0.00    -0.299 OA
ENDROOT
BRANCH   1   3
ATOM      3  C   UNL     1      28.457  40.620  19.154  1.00  0.00     0.053 C 
ATOM      4  C   UNL     1      29.118  41.055  20.475  1.00  0.00     0.016 C 
BRANCH   3   5
ATOM      5  C   UNL     1      26.913  40.810  19.248  1.00  0.00     0.015 C 
BRANCH   5   6
ATOM      6  C   UNL     1      26.373  40.824  20.700  1.00  0.00     0.028 C 
BRANCH   6   7
ATOM      7  C   UNL     1      25.194  39.895  20.875  1.00  0.00    -0.028 C 
ATOM      8  C   UNL     1      25.250  38.561  21.108  1.00  0.00    -0.070 CG0
ATOM      9  C   UNL     1      23.947  37.815  21.244  1.00  0.00     0.039 C 
ATOM     10  G   UNL     1      26.541  37.790  21.311  1.00  0.00     0.000 G0
ENDBRANCH   6   7
ENDBRANCH   5   6
ENDBRANCH   3   5
ENDBRANCH   1   3
BRANCH   1  11
ATOM     11  C   UNL     1      29.104  38.129  19.844  1.00  0.00     0.087 C 
BRANCH  11  12
ATOM     12  C   UNL     1      28.330  36.802  19.610  1.00  0.00     0.066 C 
BRANCH  12  13
ATOM     13  C   UNL     1      26.891  37.022  20.034  1.00  0.00     0.140 C 
ATOM     14  O   UNL     1      25.984  36.516  19.388  1.00  0.00    -0.299 OA
BRANCH  13  15
ATOM     15  C   UNL     1      26.560  37.771  21.296  1.00  0.00     0.106 CG0
ATOM     16  G   UNL     1      25.269  38.548  21.115  1.00  0.00     0.000 G0
ENDBRANCH  13  15
ENDBRANCH  12  13
BRANCH  12  17
ATOM     17  C   UNL     1      28.954  35.580  20.356  1.00  0.00    -0.006 C 
ATOM     18  C   UNL     1      28.095  35.174  21.568  1.00  0.00     0.008 C 
ATOM     19  C   UNL     1      29.123  34.363  19.433  1.00  0.00     0.008 C 
ENDBRANCH  12  17
ENDBRANCH  11  12
ENDBRANCH   1  11
TORSDOF 1
ENDMDL
MODEL 2
REMARK VINA RESULT:    -1.942      1.808      2.642
REMARK INTER + INTRA:          -2.042
REMARK INTER:                  -2.631
REMARK INTRA:                   0.589
REMARK UNBOUND:                 0.921
REMARK SMILES CC1=CCC[C@@H](C)C(=O)C[C@@H](C(C)C)C(=O)C1
REMARK SMILES IDX 8 1 9 2 6 3 7 4 5 5 4 6 3 7 2 8 1 9 10 11 11 12 15 13 16 14
REMARK SMILES IDX 17 15 12 17 13 18 14 19
REMARK H PARENT
REMARK Flexibility Score: 70.00
ROOT
ATOM      1  C   UNL     1      27.678  42.053  19.140  1.00  0.00     0.136 C 
ATOM      2  O   UNL     1      27.349  42.336  17.996  1.00  0.00    -0.299 OA
ENDROOT
BRANCH   1   3
ATOM      3  C   UNL     1      27.436  43.055  20.270  1.00  0.00     0.053 C 
ATOM      4  C   UNL     1      28.635  43.103  21.234  1.00  0.00     0.016 C 
BRANCH   3   5
ATOM      5  C   UNL     1      26.131  42.745  21.063  1.00  0.00     0.015 C 
BRANCH   5   6
ATOM      6  C   UNL     1      26.235  41.493  21.969  1.00  0.00     0.028 C 
BRANCH   6   7
ATOM      7  C   UNL     1      25.155  40.480  21.663  1.00  0.00    -0.028 C 
ATOM      8  C   UNL     1      25.321  39.299  21.018  1.00  0.00    -0.070 CG0
ATOM      9  C   UNL     1      24.104  38.436  20.807  1.00  0.00     0.039 C 
ATOM     10  G   UNL     1      26.667  38.764  20.562  1.00  0.00     0.000 G0
ENDBRANCH   6   7
ENDBRANCH   5   6
ENDBRANCH   3   5
ENDBRANCH   1   3
BRANCH   1  11
ATOM     11  C   UNL     1      28.326  40.706  19.379  1.00  0.00     0.087 C 
BRANCH  11  12
ATOM     12  C   UNL     1      27.872  39.603  18.385  1.00  0.00     0.066 C 
BRANCH  12  13
ATOM     13  C   UNL     1      26.789  38.784  19.062  1.00  0.00     0.140 C 
ATOM     14  O   UNL     1      26.051  38.079  18.388  1.00  0.00    -0.299 OA
BRANCH  13  15
ATOM     15  C   UNL     1      26.669  38.747  20.561  1.00  0.00     0.106 CG0
ATOM     16  G   UNL     1      25.319  39.296  20.987  1.00  0.00     0.000 G0
ENDBRANCH  13  15
ENDBRANCH  12  13
BRANCH  12  17
ATOM     17  C   UNL     1      29.040  38.691  17.894  1.00  0.00    -0.006 C 
ATOM     18  C   UNL     1      29.099  37.383  18.705  1.00  0.00     0.008 C 
ATOM     19  C   UNL     1      28.917  38.347  16.401  1.00  0.00     0.008 C 
ENDBRANCH  12  17
ENDBRANCH  11  12
ENDBRANCH   1  11
TORSDOF 1
ENDMDL
MODEL 3
REMARK VINA RESULT:    -1.615      1.540      3.927
REMARK INTER + INTRA:          -1.543
REMARK INTER:                  -2.150
REMARK INTRA:                   0.607
REMARK UNBOUND:                 0.921
REMARK SMILES CC1=CCC[C@@H](C)C(=O)C[C@@H](C(C)C)C(=O)C1
REMARK SMILES IDX 8 1 9 2 6 3 7 4 5 5 4 6 3 7 2 8 1 9 10 11 11 12 15 13 16 14
REMARK SMILES IDX 17 15 12 17 13 18 14 19
REMARK H PARENT
REMARK Flexibility Score: 70.00
ROOT
ATOM      1  C   UNL     1      28.110  37.977  18.780  1.00  0.00     0.136 C 
ATOM      2  O   UNL     1      28.836  38.011  17.797  1.00  0.00    -0.299 OA
ENDROOT
BRANCH   1   3
ATOM      3  C   UNL     1      28.311  36.887  19.835  1.00  0.00     0.053 C 
ATOM      4  C   UNL     1      29.124  35.709  19.266  1.00  0.00     0.016 C 
BRANCH   3   5
ATOM      5  C   UNL     1      26.959  36.368  20.409  1.00  0.00     0.015 C 
BRANCH   5   6
ATOM      6  C   UNL     1      26.748  36.700  21.907  1.00  0.00     0.028 C 
BRANCH   6   7
ATOM      7  C   UNL     1      25.283  36.827  22.259  1.00  0.00    -0.028 C 
ATOM      8  C   UNL     1      24.374  37.619  21.639  1.00  0.00    -0.070 CG0
ATOM      9  C   UNL     1      22.958  37.601  22.156  1.00  0.00     0.039 C 
ATOM     10  G   UNL     1      24.680  38.463  20.415  1.00  0.00     0.000 G0
ENDBRANCH   6   7
ENDBRANCH   5   6
ENDBRANCH   3   5
ENDBRANCH   1   3
BRANCH   1  11
ATOM     11  C   UNL     1      27.027  39.027  18.898  1.00  0.00     0.087 C 
BRANCH  11  12
ATOM     12  C   UNL     1      26.954  39.703  20.295  1.00  0.00     0.066 C 
BRANCH  12  13
ATOM     13  C   UNL     1      25.516  39.631  20.772  1.00  0.00     0.140 C 
ATOM     14  O   UNL     1      25.032  40.574  21.383  1.00  0.00    -0.299 OA
BRANCH  13  15
ATOM     15  C   UNL     1      24.640  38.459  20.422  1.00  0.00     0.106 CG0
ATOM     16  G   UNL     1      24.368  37.625  21.661  1.00  0.00     0.000 G0
ENDBRANCH  13  15
ENDBRANCH  12  13
BRANCH  12  17
ATOM     17  C   UNL     1      27.474  41.175  20.300  1.00  0.00    -0.006 C 
ATOM     18  C   UNL     1      28.972  41.232  20.650  1.00  0.00     0.008 C 
ATOM     19  C   UNL     1      27.251  41.871  18.948  1.00  0.00     0.008 C 
ENDBRANCH  12  17
ENDBRANCH  11  12
ENDBRANCH   1  11
TORSDOF 1
ENDMDL
MODEL 4
REMARK VINA RESULT:    -0.535      1.649      4.078
REMARK INTER + INTRA:           0.105
REMARK INTER:                  -0.915
REMARK INTRA:                   1.020
REMARK UNBOUND:                 0.921
REMARK SMILES CC1=CCC[C@@H](C)C(=O)C[C@@H](C(C)C)C(=O)C1
REMARK SMILES IDX 8 1 9 2 6 3 7 4 5 5 4 6 3 7 2 8 1 9 10 11 11 12 15 13 16 14
REMARK SMILES IDX 17 15 12 17 13 18 14 19
REMARK H PARENT
REMARK Flexibility Score: 70.00
ROOT
ATOM      1  C   UNL     1      28.170  39.856  17.845  1.00  0.00     0.136 C 
ATOM      2  O   UNL     1      28.697  40.755  17.205  1.00  0.00    -0.299 OA
ENDROOT
BRANCH   1   3
ATOM      3  C   UNL     1      28.790  38.458  17.843  1.00  0.00     0.053 C 
ATOM      4  C   UNL     1      28.931  37.916  16.408  1.00  0.00     0.016 C 
BRANCH   3   5
ATOM      5  C   UNL     1      27.976  37.452  18.710  1.00  0.00     0.015 C 
BRANCH   5   6
ATOM      6  C   UNL     1      28.745  36.930  19.950  1.00  0.00     0.028 C 
BRANCH   6   7
ATOM      7  C   UNL     1      27.811  36.509  21.061  1.00  0.00    -0.028 C 
ATOM      8  C   UNL     1      26.533  36.927  21.238  1.00  0.00    -0.070 CG0
ATOM      9  C   UNL     1      25.774  36.386  22.422  1.00  0.00     0.039 C 
ATOM     10  G   UNL     1      25.802  37.848  20.278  1.00  0.00     0.000 G0
ENDBRANCH   6   7
ENDBRANCH   5   6
ENDBRANCH   3   5
ENDBRANCH   1   3
BRANCH   1  11
ATOM     11  C   UNL     1      26.904  40.178  18.609  1.00  0.00     0.087 C 
BRANCH  11  12
ATOM     12  C   UNL     1      27.071  40.128  20.153  1.00  0.00     0.066 C 
BRANCH  12  13
ATOM     13  C   UNL     1      25.934  39.298  20.717  1.00  0.00     0.140 C 
ATOM     14  O   UNL     1      25.103  39.822  21.445  1.00  0.00    -0.299 OA
BRANCH  13  15
ATOM     15  C   UNL     1      25.751  37.859  20.316  1.00  0.00     0.106 CG0
ATOM     16  G   UNL     1      26.532  36.956  21.254  1.00  0.00     0.000 G0
ENDBRANCH  13  15
ENDBRANCH  12  13
BRANCH  12  17
ATOM     17  C   UNL     1      27.117  41.541  20.817  1.00  0.00    -0.006 C 
ATOM     18  C   UNL     1      28.561  41.936  21.175  1.00  0.00     0.008 C 
ATOM     19  C   UNL     1      26.512  42.626  19.912  1.00  0.00     0.008 C 
ENDBRANCH  12  17
ENDBRANCH  11  12
ENDBRANCH   1  11
TORSDOF 1
ENDMDL
MODEL 5
REMARK VINA RESULT:    -0.226     10.869     13.964
REMARK INTER + INTRA:           0.577
REMARK INTER:                   0.038
REMARK INTRA:                   0.539
REMARK UNBOUND:                 0.921
REMARK SMILES CC1=CCC[C@@H](C)C(=O)C[C@@H](C(C)C)C(=O)C1
REMARK SMILES IDX 8 1 9 2 6 3 7 4 5 5 4 6 3 7 2 8 1 9 10 11 11 12 15 13 16 14
REMARK SMILES IDX 17 15 12 17 13 18 14 19
REMARK H PARENT
REMARK Flexibility Score: 70.00
ROOT
ATOM      1  C   UNL     1      24.656  28.061  27.679  1.00  0.00     0.136 C 
ATOM      2  O   UNL     1      24.022  28.992  28.155  1.00  0.00    -0.299 OA
ENDROOT
BRANCH   1   3
ATOM      3  C   UNL     1      24.018  26.674  27.592  1.00  0.00     0.053 C 
ATOM      4  C   UNL     1      22.689  26.626  28.368  1.00  0.00     0.016 C 
BRANCH   3   5
ATOM      5  C   UNL     1      24.972  25.554  28.106  1.00  0.00     0.015 C 
BRANCH   5   6
ATOM      6  C   UNL     1      25.161  24.386  27.106  1.00  0.00     0.028 C 
BRANCH   6   7
ATOM      7  C   UNL     1      26.612  23.983  26.974  1.00  0.00    -0.028 C 
ATOM      8  C   UNL     1      27.504  24.475  26.079  1.00  0.00    -0.070 CG0
ATOM      9  C   UNL     1      28.908  23.927  26.112  1.00  0.00     0.039 C 
ATOM     10  G   UNL     1      27.193  25.591  25.099  1.00  0.00     0.000 G0
ENDBRANCH   6   7
ENDBRANCH   5   6
ENDBRANCH   3   5
ENDBRANCH   1   3
BRANCH   1  11
ATOM     11  C   UNL     1      26.066  28.334  27.202  1.00  0.00     0.087 C 
BRANCH  11  12
ATOM     12  C   UNL     1      26.310  27.964  25.713  1.00  0.00     0.066 C 
BRANCH  12  13
ATOM     13  C   UNL     1      27.439  26.952  25.665  1.00  0.00     0.140 C 
ATOM     14  O   UNL     1      28.507  27.209  26.202  1.00  0.00    -0.299 OA
BRANCH  13  15
ATOM     15  C   UNL     1      27.237  25.593  25.053  1.00  0.00     0.106 CG0
ATOM     16  G   UNL     1      27.524  24.513  26.080  1.00  0.00     0.000 G0
ENDBRANCH  13  15
ENDBRANCH  12  13
BRANCH  12  17
ATOM     17  C   UNL     1      26.625  29.198  24.810  1.00  0.00    -0.006 C 
ATOM     18  C   UNL     1      28.059  29.706  25.047  1.00  0.00     0.008 C 
ATOM     19  C   UNL     1      26.448  28.883  23.316  1.00  0.00     0.008 C 
ENDBRANCH  12  17
ENDBRANCH  11  12
ENDBRANCH   1  11
TORSDOF 1
ENDMDL
