MODEL 1
REMARK VINA RESULT:    -4.242      0.000      0.000
REMARK INTER + INTRA:          -6.491
REMARK INTER:                  -5.730
REMARK INTRA:                  -0.761
REMARK UNBOUND:                -0.761
REMARK SMILES CC(=O)CCC=C(C)CCC=C(C)C
REMARK SMILES IDX 7 1 6 2 8 3 9 4 10 5 11 6 13 7 12 8 14 9 5 10 4 11 2 12 3 13
REMARK SMILES IDX 1 14
REMARK H PARENT
REMARK Flexibility Score: inf
ROOT
ATOM      1  C   UNL     1      56.431   0.495  21.901  1.00  0.00    -0.077 C 
ATOM      2  C   UNL     1      55.220  -0.105  21.837  1.00  0.00    -0.028 C 
ATOM      3  C   UNL     1      56.604   1.887  22.459  1.00  0.00     0.039 C 
ENDROOT
BRANCH   1   4
ATOM      4  C   UNL     1      57.650  -0.262  21.421  1.00  0.00     0.034 C 
BRANCH   4   5
ATOM      5  C   UNL     1      57.660  -1.690  21.979  1.00  0.00     0.032 C 
BRANCH   5   6
ATOM      6  C   UNL     1      58.874  -1.918  22.844  1.00  0.00    -0.028 C 
ATOM      7  C   UNL     1      60.203  -1.893  24.933  1.00  0.00     0.039 C 
ATOM      8  C   UNL     1      58.926  -1.653  24.170  1.00  0.00    -0.080 C 
ATOM      9  C   UNL     1      57.725  -1.154  24.935  1.00  0.00     0.039 C 
ENDBRANCH   5   6
ENDBRANCH   4   5
ENDBRANCH   1   4
BRANCH   2  10
ATOM     10  C   UNL     1      53.922   0.545  22.249  1.00  0.00     0.035 C 
BRANCH  10  11
ATOM     11  C   UNL     1      53.022   0.783  21.032  1.00  0.00     0.079 C 
BRANCH  11  12
ATOM     12  C   UNL     1      52.015  -0.327  20.890  1.00  0.00     0.130 C 
ATOM     13  O   UNL     1      51.981  -1.219  21.723  1.00  0.00    -0.300 OA
ATOM     14  C   UNL     1      51.038  -0.356  19.751  1.00  0.00     0.087 C 
ENDBRANCH  11  12
ENDBRANCH  10  11
ENDBRANCH   2  10
TORSDOF 6
ENDMDL
MODEL 2
REMARK VINA RESULT:    -4.058     19.507     20.673
REMARK INTER + INTRA:          -6.243
REMARK INTER:                  -5.484
REMARK INTRA:                  -0.759
REMARK UNBOUND:                -0.761
REMARK SMILES CC(=O)CCC=C(C)CCC=C(C)C
REMARK SMILES IDX 7 1 6 2 8 3 9 4 10 5 11 6 13 7 12 8 14 9 5 10 4 11 2 12 3 13
REMARK SMILES IDX 1 14
REMARK H PARENT
REMARK Flexibility Score: inf
ROOT
ATOM      1  C   UNL     1      56.222 -15.262   9.195  1.00  0.00    -0.077 C 
ATOM      2  C   UNL     1      55.505 -15.809   8.186  1.00  0.00    -0.028 C 
ATOM      3  C   UNL     1      57.352 -14.294   8.937  1.00  0.00     0.039 C 
ENDROOT
BRANCH   1   4
ATOM      4  C   UNL     1      55.865 -15.614  10.622  1.00  0.00     0.034 C 
BRANCH   4   5
ATOM      5  C   UNL     1      56.492 -16.953  11.026  1.00  0.00     0.032 C 
BRANCH   5   6
ATOM      6  C   UNL     1      57.835 -16.740  11.680  1.00  0.00    -0.028 C 
ATOM      7  C   UNL     1      59.404 -16.358  13.557  1.00  0.00     0.039 C 
ATOM      8  C   UNL     1      58.019 -16.595  13.013  1.00  0.00    -0.080 C 
ATOM      9  C   UNL     1      56.879 -16.701  13.996  1.00  0.00     0.039 C 
ENDBRANCH   5   6
ENDBRANCH   4   5
ENDBRANCH   1   4
BRANCH   2  10
ATOM     10  C   UNL     1      55.774 -15.572   6.720  1.00  0.00     0.035 C 
BRANCH  10  11
ATOM     11  C   UNL     1      56.666 -16.678   6.145  1.00  0.00     0.079 C 
BRANCH  11  12
ATOM     12  C   UNL     1      57.993 -16.116   5.708  1.00  0.00     0.130 C 
ATOM     13  O   UNL     1      58.023 -15.222   4.877  1.00  0.00    -0.300 OA
ATOM     14  C   UNL     1      59.283 -16.622   6.282  1.00  0.00     0.087 C 
ENDBRANCH  11  12
ENDBRANCH  10  11
ENDBRANCH   2  10
TORSDOF 6
ENDMDL
MODEL 3
REMARK VINA RESULT:    -4.031     18.811     20.383
REMARK INTER + INTRA:          -6.206
REMARK INTER:                  -5.434
REMARK INTRA:                  -0.772
REMARK UNBOUND:                -0.761
REMARK SMILES CC(=O)CCC=C(C)CCC=C(C)C
REMARK SMILES IDX 7 1 6 2 8 3 9 4 10 5 11 6 13 7 12 8 14 9 5 10 4 11 2 12 3 13
REMARK SMILES IDX 1 14
REMARK H PARENT
REMARK Flexibility Score: inf
ROOT
ATOM      1  C   UNL     1      56.485 -16.030  10.413  1.00  0.00    -0.077 C 
ATOM      2  C   UNL     1      55.726 -16.079  11.532  1.00  0.00    -0.028 C 
ATOM      3  C   UNL     1      57.527 -17.080  10.109  1.00  0.00     0.039 C 
ENDROOT
BRANCH   1   4
ATOM      4  C   UNL     1      56.268 -14.903   9.428  1.00  0.00     0.034 C 
BRANCH   4   5
ATOM      5  C   UNL     1      57.576 -14.544   8.714  1.00  0.00     0.032 C 
BRANCH   5   6
ATOM      6  C   UNL     1      57.383 -14.526   7.218  1.00  0.00    -0.028 C 
ATOM      7  C   UNL     1      57.781 -15.221   4.875  1.00  0.00     0.039 C 
ATOM      8  C   UNL     1      58.029 -15.345   6.357  1.00  0.00    -0.080 C 
ATOM      9  C   UNL     1      58.977 -16.420   6.831  1.00  0.00     0.039 C 
ENDBRANCH   5   6
ENDBRANCH   4   5
ENDBRANCH   1   4
BRANCH   2  10
ATOM     10  C   UNL     1      55.860 -17.125  12.611  1.00  0.00     0.035 C 
BRANCH  10  11
ATOM     11  C   UNL     1      56.008 -16.469  13.988  1.00  0.00     0.079 C 
BRANCH  11  12
ATOM     12  C   UNL     1      57.385 -16.711  14.547  1.00  0.00     0.130 C 
ATOM     13  O   UNL     1      57.508 -17.101  15.699  1.00  0.00    -0.300 OA
ATOM     14  C   UNL     1      58.615 -16.498  13.715  1.00  0.00     0.087 C 
ENDBRANCH  11  12
ENDBRANCH  10  11
ENDBRANCH   2  10
TORSDOF 6
ENDMDL
MODEL 4
REMARK VINA RESULT:    -3.947     20.568     22.371
REMARK INTER + INTRA:          -6.093
REMARK INTER:                  -5.301
REMARK INTRA:                  -0.792
REMARK UNBOUND:                -0.761
REMARK SMILES CC(=O)CCC=C(C)CCC=C(C)C
REMARK SMILES IDX 7 1 6 2 8 3 9 4 10 5 11 6 13 7 12 8 14 9 5 10 4 11 2 12 3 13
REMARK SMILES IDX 1 14
REMARK H PARENT
REMARK Flexibility Score: inf
ROOT
ATOM      1  C   UNL     1      66.313 -15.664  12.258  1.00  0.00    -0.077 C 
ATOM      2  C   UNL     1      66.814 -16.699  11.544  1.00  0.00    -0.028 C 
ATOM      3  C   UNL     1      66.001 -14.332  11.619  1.00  0.00     0.039 C 
ENDROOT
BRANCH   1   4
ATOM      4  C   UNL     1      66.038 -15.855  13.733  1.00  0.00     0.034 C 
BRANCH   4   5
ATOM      5  C   UNL     1      66.984 -14.995  14.579  1.00  0.00     0.032 C 
BRANCH   5   6
ATOM      6  C   UNL     1      68.341 -15.643  14.691  1.00  0.00    -0.028 C 
ATOM      7  C   UNL     1      70.125 -16.994  15.751  1.00  0.00     0.039 C 
ATOM      8  C   UNL     1      68.732 -16.419  15.728  1.00  0.00    -0.080 C 
ATOM      9  C   UNL     1      67.801 -16.768  16.864  1.00  0.00     0.039 C 
ENDBRANCH   5   6
ENDBRANCH   4   5
ENDBRANCH   1   4
BRANCH   2  10
ATOM     10  C   UNL     1      67.165 -16.636  10.079  1.00  0.00     0.035 C 
BRANCH  10  11
ATOM     11  C   UNL     1      68.652 -16.938   9.862  1.00  0.00     0.079 C 
BRANCH  11  12
ATOM     12  C   UNL     1      69.353 -15.750   9.257  1.00  0.00     0.130 C 
ATOM     13  O   UNL     1      69.682 -15.780   8.081  1.00  0.00    -0.300 OA
ATOM     14  C   UNL     1      69.644 -14.519  10.064  1.00  0.00     0.087 C 
ENDBRANCH  11  12
ENDBRANCH  10  11
ENDBRANCH   2  10
TORSDOF 6
ENDMDL
MODEL 5
REMARK VINA RESULT:    -3.866     20.726     22.755
REMARK INTER + INTRA:          -5.984
REMARK INTER:                  -5.142
REMARK INTRA:                  -0.841
REMARK UNBOUND:                -0.761
REMARK SMILES CC(=O)CCC=C(C)CCC=C(C)C
REMARK SMILES IDX 7 1 6 2 8 3 9 4 10 5 11 6 13 7 12 8 14 9 5 10 4 11 2 12 3 13
REMARK SMILES IDX 1 14
REMARK H PARENT
REMARK Flexibility Score: inf
ROOT
ATOM      1  C   UNL     1      66.181 -16.181  11.266  1.00  0.00    -0.077 C 
ATOM      2  C   UNL     1      67.261 -16.873  10.836  1.00  0.00    -0.028 C 
ATOM      3  C   UNL     1      65.933 -14.749  10.853  1.00  0.00     0.039 C 
ENDROOT
BRANCH   1   4
ATOM      4  C   UNL     1      65.181 -16.868  12.170  1.00  0.00     0.034 C 
BRANCH   4   5
ATOM      5  C   UNL     1      64.972 -16.068  13.460  1.00  0.00     0.032 C 
BRANCH   5   6
ATOM      6  C   UNL     1      65.961 -16.490  14.518  1.00  0.00    -0.028 C 
ATOM      7  C   UNL     1      68.013 -16.325  15.895  1.00  0.00     0.039 C 
ATOM      8  C   UNL     1      67.076 -15.794  14.839  1.00  0.00    -0.080 C 
ATOM      9  C   UNL     1      67.406 -14.468  14.199  1.00  0.00     0.039 C 
ENDBRANCH   5   6
ENDBRANCH   4   5
ENDBRANCH   1   4
BRANCH   2  10
ATOM     10  C   UNL     1      68.350 -16.301   9.962  1.00  0.00     0.035 C 
BRANCH  10  11
ATOM     11  C   UNL     1      68.288 -16.900   8.553  1.00  0.00     0.079 C 
BRANCH  11  12
ATOM     12  C   UNL     1      69.185 -16.140   7.612  1.00  0.00     0.130 C 
ATOM     13  O   UNL     1      70.029 -15.383   8.066  1.00  0.00    -0.300 OA
ATOM     14  C   UNL     1      69.075 -16.301   6.125  1.00  0.00     0.087 C 
ENDBRANCH  11  12
ENDBRANCH  10  11
ENDBRANCH   2  10
TORSDOF 6
ENDMDL
MODEL 6
REMARK VINA RESULT:    -3.817      1.828      6.389
REMARK INTER + INTRA:          -5.918
REMARK INTER:                  -5.334
REMARK INTRA:                  -0.584
REMARK UNBOUND:                -0.761
REMARK SMILES CC(=O)CCC=C(C)CCC=C(C)C
REMARK SMILES IDX 7 1 6 2 8 3 9 4 10 5 11 6 13 7 12 8 14 9 5 10 4 11 2 12 3 13
REMARK SMILES IDX 1 14
REMARK H PARENT
REMARK Flexibility Score: inf
ROOT
ATOM      1  C   UNL     1      55.607   0.903  22.392  1.00  0.00    -0.077 C 
ATOM      2  C   UNL     1      56.162  -0.072  21.637  1.00  0.00    -0.028 C 
ATOM      3  C   UNL     1      56.447   1.849  23.217  1.00  0.00     0.039 C 
ENDROOT
BRANCH   1   4
ATOM      4  C   UNL     1      54.103   1.065  22.392  1.00  0.00     0.034 C 
BRANCH   4   5
ATOM      5  C   UNL     1      53.493   0.487  21.110  1.00  0.00     0.032 C 
BRANCH   5   6
ATOM      6  C   UNL     1      52.472  -0.574  21.434  1.00  0.00    -0.028 C 
ATOM      7  C   UNL     1      50.311  -1.769  21.248  1.00  0.00     0.039 C 
ATOM      8  C   UNL     1      51.269  -0.686  20.824  1.00  0.00    -0.080 C 
ATOM      9  C   UNL     1      50.857   0.223  19.693  1.00  0.00     0.039 C 
ENDBRANCH   5   6
ENDBRANCH   4   5
ENDBRANCH   1   4
BRANCH   2  10
ATOM     10  C   UNL     1      57.640  -0.366  21.572  1.00  0.00     0.035 C 
BRANCH  10  11
ATOM     11  C   UNL     1      57.952  -1.734  22.187  1.00  0.00     0.079 C 
BRANCH  11  12
ATOM     12  C   UNL     1      58.255  -1.600  23.656  1.00  0.00     0.130 C 
ATOM     13  O   UNL     1      57.345  -1.377  24.440  1.00  0.00    -0.300 OA
ATOM     14  C   UNL     1      59.652  -1.747  24.183  1.00  0.00     0.087 C 
ENDBRANCH  11  12
ENDBRANCH  10  11
ENDBRANCH   2  10
TORSDOF 6
ENDMDL
MODEL 7
REMARK VINA RESULT:    -3.659      2.235      6.307
REMARK INTER + INTRA:          -5.704
REMARK INTER:                  -4.728
REMARK INTRA:                  -0.976
REMARK UNBOUND:                -0.761
REMARK SMILES CC(=O)CCC=C(C)CCC=C(C)C
REMARK SMILES IDX 7 1 6 2 8 3 9 4 10 5 11 6 13 7 12 8 14 9 5 10 4 11 2 12 3 13
REMARK SMILES IDX 1 14
REMARK H PARENT
REMARK Flexibility Score: inf
ROOT
ATOM      1  C   UNL     1      52.920   0.635  20.871  1.00  0.00    -0.077 C 
ATOM      2  C   UNL     1      53.952   0.071  21.540  1.00  0.00    -0.028 C 
ATOM      3  C   UNL     1      52.579   2.099  21.018  1.00  0.00     0.039 C 
ENDROOT
BRANCH   1   4
ATOM      4  C   UNL     1      52.099  -0.220  19.932  1.00  0.00     0.034 C 
BRANCH   4   5
ATOM      5  C   UNL     1      50.632  -0.260  20.374  1.00  0.00     0.032 C 
BRANCH   5   6
ATOM      6  C   UNL     1      50.398  -1.382  21.355  1.00  0.00    -0.028 C 
ATOM      7  C   UNL     1      50.049  -2.406  23.582  1.00  0.00     0.039 C 
ATOM      8  C   UNL     1      50.249  -1.209  22.689  1.00  0.00    -0.080 C 
ATOM      9  C   UNL     1      50.237   0.161  23.323  1.00  0.00     0.039 C 
ENDBRANCH   5   6
ENDBRANCH   4   5
ENDBRANCH   1   4
BRANCH   2  10
ATOM     10  C   UNL     1      54.829   0.798  22.530  1.00  0.00     0.035 C 
BRANCH  10  11
ATOM     11  C   UNL     1      56.307   0.671  22.144  1.00  0.00     0.079 C 
BRANCH  11  12
ATOM     12  C   UNL     1      56.906  -0.576  22.738  1.00  0.00     0.130 C 
ATOM     13  O   UNL     1      56.652  -0.873  23.896  1.00  0.00    -0.300 OA
ATOM     14  C   UNL     1      57.799  -1.474  21.934  1.00  0.00     0.087 C 
ENDBRANCH  11  12
ENDBRANCH  10  11
ENDBRANCH   2  10
TORSDOF 6
ENDMDL
MODEL 8
REMARK VINA RESULT:    -3.658      2.122      6.673
REMARK INTER + INTRA:          -5.703
REMARK INTER:                  -5.252
REMARK INTRA:                  -0.450
REMARK UNBOUND:                -0.761
REMARK SMILES CC(=O)CCC=C(C)CCC=C(C)C
REMARK SMILES IDX 7 1 6 2 8 3 9 4 10 5 11 6 13 7 12 8 14 9 5 10 4 11 2 12 3 13
REMARK SMILES IDX 1 14
REMARK H PARENT
REMARK Flexibility Score: inf
ROOT
ATOM      1  C   UNL     1      55.922   0.601  22.607  1.00  0.00    -0.077 C 
ATOM      2  C   UNL     1      56.191   0.555  23.932  1.00  0.00    -0.028 C 
ATOM      3  C   UNL     1      56.925   0.150  21.572  1.00  0.00     0.039 C 
ENDROOT
BRANCH   1   4
ATOM      4  C   UNL     1      54.568   1.098  22.151  1.00  0.00     0.034 C 
BRANCH   4   5
ATOM      5  C   UNL     1      53.660  -0.074  21.760  1.00  0.00     0.032 C 
BRANCH   5   6
ATOM      6  C   UNL     1      52.612   0.368  20.770  1.00  0.00    -0.028 C 
ATOM      7  C   UNL     1      50.445   0.276  19.574  1.00  0.00     0.039 C 
ATOM      8  C   UNL     1      51.408  -0.231  20.617  1.00  0.00    -0.080 C 
ATOM      9  C   UNL     1      50.970  -1.384  21.487  1.00  0.00     0.039 C 
ENDBRANCH   5   6
ENDBRANCH   4   5
ENDBRANCH   1   4
BRANCH   2  10
ATOM     10  C   UNL     1      57.508   0.114  24.521  1.00  0.00     0.035 C 
BRANCH  10  11
ATOM     11  C   UNL     1      57.547  -1.409  24.689  1.00  0.00     0.079 C 
BRANCH  11  12
ATOM     12  C   UNL     1      58.816  -1.975  24.109  1.00  0.00     0.130 C 
ATOM     13  O   UNL     1      58.777  -2.574  23.046  1.00  0.00    -0.300 OA
ATOM     14  C   UNL     1      60.135  -1.809  24.804  1.00  0.00     0.087 C 
ENDBRANCH  11  12
ENDBRANCH  10  11
ENDBRANCH   2  10
TORSDOF 6
ENDMDL
MODEL 9
REMARK VINA RESULT:    -3.635      1.391      2.258
REMARK INTER + INTRA:          -5.672
REMARK INTER:                  -4.961
REMARK INTRA:                  -0.710
REMARK UNBOUND:                -0.761
REMARK SMILES CC(=O)CCC=C(C)CCC=C(C)C
REMARK SMILES IDX 7 1 6 2 8 3 9 4 10 5 11 6 13 7 12 8 14 9 5 10 4 11 2 12 3 13
REMARK SMILES IDX 1 14
REMARK H PARENT
REMARK Flexibility Score: inf
ROOT
ATOM      1  C   UNL     1      54.346   1.145  22.054  1.00  0.00    -0.077 C 
ATOM      2  C   UNL     1      53.758   0.167  21.327  1.00  0.00    -0.028 C 
ATOM      3  C   UNL     1      53.681   2.482  22.279  1.00  0.00     0.039 C 
ENDROOT
BRANCH   1   4
ATOM      4  C   UNL     1      55.700   0.883  22.677  1.00  0.00     0.034 C 
BRANCH   4   5
ATOM      5  C   UNL     1      55.975  -0.622  22.769  1.00  0.00     0.032 C 
BRANCH   5   6
ATOM      6  C   UNL     1      56.897  -0.928  23.923  1.00  0.00    -0.028 C 
ATOM      7  C   UNL     1      58.907  -1.857  25.031  1.00  0.00     0.039 C 
ATOM      8  C   UNL     1      58.077  -1.579  23.804  1.00  0.00    -0.080 C 
ATOM      9  C   UNL     1      58.622  -2.012  22.465  1.00  0.00     0.039 C 
ENDBRANCH   5   6
ENDBRANCH   4   5
ENDBRANCH   1   4
BRANCH   2  10
ATOM     10  C   UNL     1      52.430   0.305  20.625  1.00  0.00     0.035 C 
BRANCH  10  11
ATOM     11  C   UNL     1      51.505  -0.866  20.975  1.00  0.00     0.079 C 
BRANCH  11  12
ATOM     12  C   UNL     1      50.981  -0.727  22.380  1.00  0.00     0.130 C 
ATOM     13  O   UNL     1      50.995  -1.694  23.125  1.00  0.00    -0.300 OA
ATOM     14  C   UNL     1      50.453   0.581  22.891  1.00  0.00     0.087 C 
ENDBRANCH  11  12
ENDBRANCH  10  11
ENDBRANCH   2  10
TORSDOF 6
ENDMDL
