MODEL 1
REMARK VINA RESULT:    -5.266      0.000      0.000
REMARK INTER + INTRA:          -5.420
REMARK INTER:                  -5.420
REMARK INTRA:                   0.000
REMARK UNBOUND:                 0.000
REMARK SMILES O=c1ccc2ccc(O)cc2o1
REMARK SMILES IDX 6 1 7 2 8 3 10 4 11 5 5 6 4 7 3 8 2 9 1 10 12 11 9 12
REMARK H PARENT 9 13
REMARK Flexibility Score: inf
ROOT
ATOM      1  C   UNL     1      21.860  -0.486 -22.513  1.00  0.00     0.016 A 
ATOM      2  C   UNL     1      22.222   0.719 -23.125  1.00  0.00     0.047 A 
ATOM      3  C   UNL     1      22.202   1.915 -22.398  1.00  0.00     0.119 A 
ATOM      4  C   UNL     1      21.817   1.908 -21.050  1.00  0.00     0.094 A 
ATOM      5  C   UNL     1      21.453   0.707 -20.429  1.00  0.00     0.142 A 
ATOM      6  C   UNL     1      21.475  -0.498 -21.166  1.00  0.00     0.018 A 
ATOM      7  C   UNL     1      21.106  -1.681 -20.519  1.00  0.00     0.019 A 
ATOM      8  C   UNL     1      20.731  -1.639 -19.177  1.00  0.00     0.094 A 
ATOM      9  C   UNL     1      20.733  -0.408 -18.510  1.00  0.00     0.336 A 
ATOM     10  O   UNL     1      20.397  -0.349 -17.299  1.00  0.00    -0.246 OA
ATOM     11  O   UNL     1      21.088   0.704 -19.149  1.00  0.00    -0.423 OA
ENDROOT
BRANCH   3  12
ATOM     12  O   UNL     1      22.565   3.105 -23.025  1.00  0.00    -0.508 OA
ATOM     13  H   UNL     1      23.048   3.841 -22.525  1.00  0.00     0.293 HD
ENDBRANCH   3  12
TORSDOF 1
ENDMDL
MODEL 2
REMARK VINA RESULT:    -4.993     16.800     19.510
REMARK INTER + INTRA:          -5.139
REMARK INTER:                  -5.139
REMARK INTRA:                   0.000
REMARK UNBOUND:                 0.000
REMARK SMILES O=c1ccc2ccc(O)cc2o1
REMARK SMILES IDX 6 1 7 2 8 3 10 4 11 5 5 6 4 7 3 8 2 9 1 10 12 11 9 12
REMARK H PARENT 9 13
REMARK Flexibility Score: inf
ROOT
ATOM      1  C   UNL     1       8.274  -7.693  -6.532  1.00  0.00     0.016 A 
ATOM      2  C   UNL     1       7.658  -6.786  -5.664  1.00  0.00     0.047 A 
ATOM      3  C   UNL     1       8.083  -5.452  -5.616  1.00  0.00     0.119 A 
ATOM      4  C   UNL     1       9.132  -5.022  -6.441  1.00  0.00     0.094 A 
ATOM      5  C   UNL     1       9.754  -5.923  -7.313  1.00  0.00     0.142 A 
ATOM      6  C   UNL     1       9.323  -7.267  -7.359  1.00  0.00     0.018 A 
ATOM      7  C   UNL     1       9.964  -8.143  -8.240  1.00  0.00     0.019 A 
ATOM      8  C   UNL     1      11.002  -7.670  -9.041  1.00  0.00     0.094 A 
ATOM      9  C   UNL     1      11.377  -6.325  -8.941  1.00  0.00     0.336 A 
ATOM     10  O   UNL     1      12.312  -5.879  -9.656  1.00  0.00    -0.246 OA
ATOM     11  O   UNL     1      10.750  -5.512  -8.095  1.00  0.00    -0.423 OA
ENDROOT
BRANCH   3  12
ATOM     12  O   UNL     1       7.457  -4.564  -4.744  1.00  0.00    -0.508 OA
ATOM     13  H   UNL     1       7.979  -3.848  -4.253  1.00  0.00     0.293 HD
ENDBRANCH   3  12
TORSDOF 1
ENDMDL
MODEL 3
REMARK VINA RESULT:    -4.941      1.046      4.249
REMARK INTER + INTRA:          -5.085
REMARK INTER:                  -5.085
REMARK INTRA:                   0.000
REMARK UNBOUND:                 0.000
REMARK SMILES O=c1ccc2ccc(O)cc2o1
REMARK SMILES IDX 6 1 7 2 8 3 10 4 11 5 5 6 4 7 3 8 2 9 1 10 12 11 9 12
REMARK H PARENT 9 13
REMARK Flexibility Score: inf
ROOT
ATOM      1  C   UNL     1      20.457  -1.999 -20.141  1.00  0.00     0.016 A 
ATOM      2  C   UNL     1      20.193  -1.730 -18.794  1.00  0.00     0.047 A 
ATOM      3  C   UNL     1      20.500  -0.478 -18.248  1.00  0.00     0.119 A 
ATOM      4  C   UNL     1      21.075   0.514 -19.054  1.00  0.00     0.094 A 
ATOM      5  C   UNL     1      21.342   0.256 -20.403  1.00  0.00     0.142 A 
ATOM      6  C   UNL     1      21.032  -1.009 -20.951  1.00  0.00     0.018 A 
ATOM      7  C   UNL     1      21.310  -1.238 -22.301  1.00  0.00     0.019 A 
ATOM      8  C   UNL     1      21.883  -0.220 -23.063  1.00  0.00     0.094 A 
ATOM      9  C   UNL     1      22.164   1.007 -22.454  1.00  0.00     0.336 A 
ATOM     10  O   UNL     1      22.681   1.939 -23.125  1.00  0.00    -0.246 OA
ATOM     11  O   UNL     1      21.889   1.200 -21.167  1.00  0.00    -0.423 OA
ENDROOT
BRANCH   3  12
ATOM     12  O   UNL     1      20.230  -0.231 -16.904  1.00  0.00    -0.508 OA
ATOM     13  H   UNL     1      20.687  -0.755 -16.167  1.00  0.00     0.293 HD
ENDBRANCH   3  12
TORSDOF 1
ENDMDL
MODEL 4
REMARK VINA RESULT:    -4.875      1.966      5.037
REMARK INTER + INTRA:          -5.018
REMARK INTER:                  -5.018
REMARK INTRA:                   0.000
REMARK UNBOUND:                 0.000
REMARK SMILES O=c1ccc2ccc(O)cc2o1
REMARK SMILES IDX 6 1 7 2 8 3 10 4 11 5 5 6 4 7 3 8 2 9 1 10 12 11 9 12
REMARK H PARENT 9 13
REMARK Flexibility Score: inf
ROOT
ATOM      1  C   UNL     1      20.542   0.081 -17.934  1.00  0.00     0.016 A 
ATOM      2  C   UNL     1      19.788  -0.898 -17.278  1.00  0.00     0.047 A 
ATOM      3  C   UNL     1      19.392  -2.058 -17.955  1.00  0.00     0.119 A 
ATOM      4  C   UNL     1      19.751  -2.241 -19.298  1.00  0.00     0.094 A 
ATOM      5  C   UNL     1      20.505  -1.267 -19.963  1.00  0.00     0.142 A 
ATOM      6  C   UNL     1      20.903  -0.098 -19.276  1.00  0.00     0.018 A 
ATOM      7  C   UNL     1      21.655   0.857 -19.967  1.00  0.00     0.019 A 
ATOM      8  C   UNL     1      21.988   0.631 -21.302  1.00  0.00     0.094 A 
ATOM      9  C   UNL     1      21.560  -0.550 -21.917  1.00  0.00     0.336 A 
ATOM     10  O   UNL     1      21.850  -0.772 -23.122  1.00  0.00    -0.246 OA
ATOM     11  O   UNL     1      20.845  -1.443 -21.238  1.00  0.00    -0.423 OA
ENDROOT
BRANCH   3  12
ATOM     12  O   UNL     1      18.642  -3.021 -17.284  1.00  0.00    -0.508 OA
ATOM     13  H   UNL     1      17.673  -3.199 -17.524  1.00  0.00     0.293 HD
ENDBRANCH   3  12
TORSDOF 1
ENDMDL
MODEL 5
REMARK VINA RESULT:    -4.819     16.556     18.759
REMARK INTER + INTRA:          -4.960
REMARK INTER:                  -4.960
REMARK INTRA:                   0.000
REMARK UNBOUND:                 0.000
REMARK SMILES O=c1ccc2ccc(O)cc2o1
REMARK SMILES IDX 6 1 7 2 8 3 10 4 11 5 5 6 4 7 3 8 2 9 1 10 12 11 9 12
REMARK H PARENT 9 13
REMARK Flexibility Score: inf
ROOT
ATOM      1  C   UNL     1      10.265  -5.720  -7.382  1.00  0.00     0.016 A 
ATOM      2  C   UNL     1       9.480  -5.395  -6.271  1.00  0.00     0.047 A 
ATOM      3  C   UNL     1       8.162  -4.955  -6.440  1.00  0.00     0.119 A 
ATOM      4  C   UNL     1       7.624  -4.836  -7.729  1.00  0.00     0.094 A 
ATOM      5  C   UNL     1       8.402  -5.159  -8.847  1.00  0.00     0.142 A 
ATOM      6  C   UNL     1       9.732  -5.603  -8.673  1.00  0.00     0.018 A 
ATOM      7  C   UNL     1      10.483  -5.918  -9.808  1.00  0.00     0.019 A 
ATOM      8  C   UNL     1       9.906  -5.784 -11.070  1.00  0.00     0.094 A 
ATOM      9  C   UNL     1       8.583  -5.338 -11.167  1.00  0.00     0.336 A 
ATOM     10  O   UNL     1       8.043  -5.211 -12.297  1.00  0.00    -0.246 OA
ATOM     11  O   UNL     1       7.888  -5.046 -10.070  1.00  0.00    -0.423 OA
ENDROOT
BRANCH   3  12
ATOM     12  O   UNL     1       7.397  -4.636  -5.320  1.00  0.00    -0.508 OA
ATOM     13  H   UNL     1       7.756  -4.759  -4.381  1.00  0.00     0.293 HD
ENDBRANCH   3  12
TORSDOF 1
ENDMDL
MODEL 6
REMARK VINA RESULT:    -4.786     16.976     18.730
REMARK INTER + INTRA:          -4.926
REMARK INTER:                  -4.926
REMARK INTRA:                   0.000
REMARK UNBOUND:                 0.000
REMARK SMILES O=c1ccc2ccc(O)cc2o1
REMARK SMILES IDX 6 1 7 2 8 3 10 4 11 5 5 6 4 7 3 8 2 9 1 10 12 11 9 12
REMARK H PARENT 9 13
REMARK Flexibility Score: inf
ROOT
ATOM      1  C   UNL     1       7.871  -6.527  -7.427  1.00  0.00     0.016 A 
ATOM      2  C   UNL     1       8.517  -5.752  -6.458  1.00  0.00     0.047 A 
ATOM      3  C   UNL     1       9.828  -5.305  -6.668  1.00  0.00     0.119 A 
ATOM      4  C   UNL     1      10.498  -5.637  -7.854  1.00  0.00     0.094 A 
ATOM      5  C   UNL     1       9.859  -6.412  -8.829  1.00  0.00     0.142 A 
ATOM      6  C   UNL     1       8.537  -6.860  -8.614  1.00  0.00     0.018 A 
ATOM      7  C   UNL     1       7.925  -7.632  -9.606  1.00  0.00     0.019 A 
ATOM      8  C   UNL     1       8.631  -7.936 -10.769  1.00  0.00     0.094 A 
ATOM      9  C   UNL     1       9.938  -7.458 -10.913  1.00  0.00     0.336 A 
ATOM     10  O   UNL     1      10.593  -7.722 -11.956  1.00  0.00    -0.246 OA
ATOM     11  O   UNL     1      10.497  -6.724  -9.955  1.00  0.00    -0.423 OA
ENDROOT
BRANCH   3  12
ATOM     12  O   UNL     1      10.454  -4.535  -5.691  1.00  0.00    -0.508 OA
ATOM     13  H   UNL     1      11.424  -4.685  -5.439  1.00  0.00     0.293 HD
ENDBRANCH   3  12
TORSDOF 1
ENDMDL
MODEL 7
REMARK VINA RESULT:    -4.781      2.048      2.985
REMARK INTER + INTRA:          -4.921
REMARK INTER:                  -4.921
REMARK INTRA:                   0.000
REMARK UNBOUND:                 0.000
REMARK SMILES O=c1ccc2ccc(O)cc2o1
REMARK SMILES IDX 6 1 7 2 8 3 10 4 11 5 5 6 4 7 3 8 2 9 1 10 12 11 9 12
REMARK H PARENT 9 13
REMARK Flexibility Score: inf
ROOT
ATOM      1  C   UNL     1      21.726   0.639 -19.965  1.00  0.00     0.016 A 
ATOM      2  C   UNL     1      21.875   0.252 -21.301  1.00  0.00     0.047 A 
ATOM      3  C   UNL     1      21.203  -0.874 -21.791  1.00  0.00     0.119 A 
ATOM      4  C   UNL     1      20.375  -1.620 -20.940  1.00  0.00     0.094 A 
ATOM      5  C   UNL     1      20.219  -1.240 -19.602  1.00  0.00     0.142 A 
ATOM      6  C   UNL     1      20.900  -0.103 -19.111  1.00  0.00     0.018 A 
ATOM      7  C   UNL     1      20.724   0.251 -17.770  1.00  0.00     0.019 A 
ATOM      8  C   UNL     1      19.891  -0.522 -16.962  1.00  0.00     0.094 A 
ATOM      9  C   UNL     1      19.250  -1.635 -17.517  1.00  0.00     0.336 A 
ATOM     10  O   UNL     1      18.493  -2.345 -16.803  1.00  0.00    -0.246 OA
ATOM     11  O   UNL     1      19.433  -1.950 -18.796  1.00  0.00    -0.423 OA
ENDROOT
BRANCH   3  12
ATOM     12  O   UNL     1      21.365  -1.243 -23.125  1.00  0.00    -0.508 OA
ATOM     13  H   UNL     1      22.186  -1.748 -23.439  1.00  0.00     0.293 HD
ENDBRANCH   3  12
TORSDOF 1
ENDMDL
MODEL 8
REMARK VINA RESULT:    -4.703     15.973     18.283
REMARK INTER + INTRA:          -4.840
REMARK INTER:                  -4.840
REMARK INTRA:                   0.000
REMARK UNBOUND:                 0.000
REMARK SMILES O=c1ccc2ccc(O)cc2o1
REMARK SMILES IDX 6 1 7 2 8 3 10 4 11 5 5 6 4 7 3 8 2 9 1 10 12 11 9 12
REMARK H PARENT 9 13
REMARK Flexibility Score: inf
ROOT
ATOM      1  C   UNL     1      14.348   4.748  -5.379  1.00  0.00     0.016 A 
ATOM      2  C   UNL     1      14.678   4.284  -6.657  1.00  0.00     0.047 A 
ATOM      3  C   UNL     1      13.861   3.349  -7.304  1.00  0.00     0.119 A 
ATOM      4  C   UNL     1      12.704   2.875  -6.669  1.00  0.00     0.094 A 
ATOM      5  C   UNL     1      12.364   3.334  -5.392  1.00  0.00     0.142 A 
ATOM      6  C   UNL     1      13.192   4.277  -4.742  1.00  0.00     0.018 A 
ATOM      7  C   UNL     1      12.827   4.717  -3.466  1.00  0.00     0.019 A 
ATOM      8  C   UNL     1      11.668   4.217  -2.876  1.00  0.00     0.094 A 
ATOM      9  C   UNL     1      10.896   3.284  -3.578  1.00  0.00     0.336 A 
ATOM     10  O   UNL     1       9.846   2.821  -3.062  1.00  0.00    -0.246 OA
ATOM     11  O   UNL     1      11.265   2.882  -4.792  1.00  0.00    -0.423 OA
ENDROOT
BRANCH   3  12
ATOM     12  O   UNL     1      14.208   2.899  -8.575  1.00  0.00    -0.508 OA
ATOM     13  H   UNL     1      14.635   3.515  -9.257  1.00  0.00     0.293 HD
ENDBRANCH   3  12
TORSDOF 1
ENDMDL
MODEL 9
REMARK VINA RESULT:    -4.480     15.926     18.642
REMARK INTER + INTRA:          -4.611
REMARK INTER:                  -4.611
REMARK INTRA:                   0.000
REMARK UNBOUND:                 0.000
REMARK SMILES O=c1ccc2ccc(O)cc2o1
REMARK SMILES IDX 6 1 7 2 8 3 10 4 11 5 5 6 4 7 3 8 2 9 1 10 12 11 9 12
REMARK H PARENT 9 13
REMARK Flexibility Score: inf
ROOT
ATOM      1  C   UNL     1      12.885   4.585  -3.468  1.00  0.00     0.016 A 
ATOM      2  C   UNL     1      11.756   4.009  -2.875  1.00  0.00     0.047 A 
ATOM      3  C   UNL     1      10.999   3.059  -3.570  1.00  0.00     0.119 A 
ATOM      4  C   UNL     1      11.371   2.681  -4.868  1.00  0.00     0.094 A 
ATOM      5  C   UNL     1      12.499   3.251  -5.469  1.00  0.00     0.142 A 
ATOM      6  C   UNL     1      13.261   4.209  -4.764  1.00  0.00     0.018 A 
ATOM      7  C   UNL     1      14.382   4.761  -5.391  1.00  0.00     0.019 A 
ATOM      8  C   UNL     1      14.714   4.354  -6.683  1.00  0.00     0.094 A 
ATOM      9  C   UNL     1      13.913   3.400  -7.320  1.00  0.00     0.336 A 
ATOM     10  O   UNL     1      14.195   3.020  -8.486  1.00  0.00    -0.246 OA
ATOM     11  O   UNL     1      12.851   2.890  -6.701  1.00  0.00    -0.423 OA
ENDROOT
BRANCH   3  12
ATOM     12  O   UNL     1       9.878   2.497  -2.963  1.00  0.00    -0.508 OA
ATOM     13  H   UNL     1       9.377   2.980  -2.225  1.00  0.00     0.293 HD
ENDBRANCH   3  12
TORSDOF 1
ENDMDL
