MODEL 1
REMARK VINA RESULT:    -5.366      0.000      0.000
REMARK INTER + INTRA:          -6.106
REMARK INTER:                  -5.993
REMARK INTRA:                  -0.113
REMARK UNBOUND:                -0.113
REMARK SMILES COc1cc(OC)c2ccc(=O)oc2c1
REMARK SMILES IDX 3 1 15 2 14 3 8 4 9 5 10 6 11 7 12 8 13 9 5 10 4 11 2 12
REMARK SMILES IDX 1 13 6 14 7 15
REMARK H PARENT
REMARK Flexibility Score: inf
ROOT
ATOM      1  C   UNL     1      -4.054  -3.339  14.761  1.00  0.00     0.126 A 
ATOM      2  C   UNL     1      -5.196  -4.084  15.107  1.00  0.00     0.094 A 
ATOM      3  C   UNL     1      -5.568  -5.198  14.349  1.00  0.00     0.145 A 
ATOM      4  C   UNL     1      -4.795  -5.582  13.229  1.00  0.00     0.060 A 
ATOM      5  C   UNL     1      -5.207  -6.707  12.500  1.00  0.00     0.023 A 
ATOM      6  C   UNL     1      -6.349  -7.403  12.893  1.00  0.00     0.095 A 
ATOM      7  C   UNL     1      -7.060  -6.961  14.012  1.00  0.00     0.336 A 
ATOM      8  O   UNL     1      -8.094  -7.576  14.383  1.00  0.00    -0.246 OA
ATOM      9  O   UNL     1      -6.651  -5.892  14.689  1.00  0.00    -0.422 OA
ATOM     10  C   UNL     1      -3.650  -4.843  12.875  1.00  0.00     0.133 A 
ATOM     11  C   UNL     1      -3.292  -3.723  13.651  1.00  0.00     0.093 A 
ENDROOT
BRANCH   1  12
ATOM     12  O   UNL     1      -3.643  -2.214  15.492  1.00  0.00    -0.496 OA
ATOM     13  C   UNL     1      -4.522  -1.358  16.214  1.00  0.00     0.278 C 
ENDBRANCH   1  12
BRANCH  10  14
ATOM     14  O   UNL     1      -2.895  -5.241  11.757  1.00  0.00    -0.496 OA
ATOM     15  C   UNL     1      -1.604  -5.836  11.823  1.00  0.00     0.278 C 
ENDBRANCH  10  14
TORSDOF 2
ENDMDL
MODEL 2
REMARK VINA RESULT:    -5.282      9.163     10.271
REMARK INTER + INTRA:          -6.013
REMARK INTER:                  -5.910
REMARK INTRA:                  -0.103
REMARK UNBOUND:                -0.113
REMARK SMILES COc1cc(OC)c2ccc(=O)oc2c1
REMARK SMILES IDX 3 1 15 2 14 3 8 4 9 5 10 6 11 7 12 8 13 9 5 10 4 11 2 12
REMARK SMILES IDX 1 13 6 14 7 15
REMARK H PARENT
REMARK Flexibility Score: inf
ROOT
ATOM      1  C   UNL     1       1.475  -5.199   7.277  1.00  0.00     0.126 A 
ATOM      2  C   UNL     1       0.716  -6.071   6.476  1.00  0.00     0.094 A 
ATOM      3  C   UNL     1       0.025  -5.586   5.364  1.00  0.00     0.145 A 
ATOM      4  C   UNL     1       0.086  -4.212   5.036  1.00  0.00     0.060 A 
ATOM      5  C   UNL     1      -0.624  -3.771   3.910  1.00  0.00     0.023 A 
ATOM      6  C   UNL     1      -1.359  -4.686   3.157  1.00  0.00     0.095 A 
ATOM      7  C   UNL     1      -1.369  -6.029   3.544  1.00  0.00     0.336 A 
ATOM      8  O   UNL     1      -2.026  -6.870   2.877  1.00  0.00    -0.246 OA
ATOM      9  O   UNL     1      -0.688  -6.424   4.615  1.00  0.00    -0.422 OA
ATOM     10  C   UNL     1       0.843  -3.330   5.832  1.00  0.00     0.133 A 
ATOM     11  C   UNL     1       1.532  -3.838   6.951  1.00  0.00     0.093 A 
ENDROOT
BRANCH   1  12
ATOM     12  O   UNL     1       2.185  -5.641   8.404  1.00  0.00    -0.496 OA
ATOM     13  C   UNL     1       2.066  -6.941   8.971  1.00  0.00     0.278 C 
ENDBRANCH   1  12
BRANCH  10  14
ATOM     14  O   UNL     1       0.889  -1.966   5.491  1.00  0.00    -0.496 OA
ATOM     15  C   UNL     1       1.654  -0.986   6.183  1.00  0.00     0.278 C 
ENDBRANCH  10  14
TORSDOF 2
ENDMDL
MODEL 3
REMARK VINA RESULT:    -5.041      9.164     10.297
REMARK INTER + INTRA:          -5.744
REMARK INTER:                  -5.646
REMARK INTRA:                  -0.098
REMARK UNBOUND:                -0.113
REMARK SMILES COc1cc(OC)c2ccc(=O)oc2c1
REMARK SMILES IDX 3 1 15 2 14 3 8 4 9 5 10 6 11 7 12 8 13 9 5 10 4 11 2 12
REMARK SMILES IDX 1 13 6 14 7 15
REMARK H PARENT
REMARK Flexibility Score: inf
ROOT
ATOM      1  C   UNL     1       1.188  -2.752   6.119  1.00  0.00     0.126 A 
ATOM      2  C   UNL     1       0.308  -2.809   5.023  1.00  0.00     0.094 A 
ATOM      3  C   UNL     1      -0.229  -4.031   4.613  1.00  0.00     0.145 A 
ATOM      4  C   UNL     1       0.109  -5.220   5.300  1.00  0.00     0.060 A 
ATOM      5  C   UNL     1      -0.455  -6.423   4.852  1.00  0.00     0.023 A 
ATOM      6  C   UNL     1      -1.321  -6.413   3.759  1.00  0.00     0.095 A 
ATOM      7  C   UNL     1      -1.607  -5.197   3.133  1.00  0.00     0.336 A 
ATOM      8  O   UNL     1      -2.386  -5.168   2.145  1.00  0.00    -0.246 OA
ATOM      9  O   UNL     1      -1.060  -4.069   3.575  1.00  0.00    -0.422 OA
ATOM     10  C   UNL     1       0.989  -5.173   6.399  1.00  0.00     0.133 A 
ATOM     11  C   UNL     1       1.522  -3.931   6.796  1.00  0.00     0.093 A 
ENDROOT
BRANCH   1  12
ATOM     12  O   UNL     1       1.752  -1.547   6.567  1.00  0.00    -0.496 OA
ATOM     13  C   UNL     1       3.146  -1.339   6.772  1.00  0.00     0.278 C 
ENDBRANCH   1  12
BRANCH  10  14
ATOM     14  O   UNL     1       1.315  -6.366   7.068  1.00  0.00    -0.496 OA
ATOM     15  C   UNL     1       1.653  -6.453   8.448  1.00  0.00     0.278 C 
ENDBRANCH  10  14
TORSDOF 2
ENDMDL
MODEL 4
REMARK VINA RESULT:    -4.995      1.245      4.293
REMARK INTER + INTRA:          -5.692
REMARK INTER:                  -5.580
REMARK INTRA:                  -0.112
REMARK UNBOUND:                -0.113
REMARK SMILES COc1cc(OC)c2ccc(=O)oc2c1
REMARK SMILES IDX 3 1 15 2 14 3 8 4 9 5 10 6 11 7 12 8 13 9 5 10 4 11 2 12
REMARK SMILES IDX 1 13 6 14 7 15
REMARK H PARENT
REMARK Flexibility Score: inf
ROOT
ATOM      1  C   UNL     1      -5.816  -6.500  13.343  1.00  0.00     0.126 A 
ATOM      2  C   UNL     1      -6.082  -5.622  14.409  1.00  0.00     0.094 A 
ATOM      3  C   UNL     1      -5.228  -4.547  14.668  1.00  0.00     0.145 A 
ATOM      4  C   UNL     1      -4.089  -4.337  13.857  1.00  0.00     0.060 A 
ATOM      5  C   UNL     1      -3.261  -3.245  14.155  1.00  0.00     0.023 A 
ATOM      6  C   UNL     1      -3.580  -2.411  15.225  1.00  0.00     0.095 A 
ATOM      7  C   UNL     1      -4.724  -2.684  15.980  1.00  0.00     0.336 A 
ATOM      8  O   UNL     1      -5.028  -1.942  16.950  1.00  0.00    -0.246 OA
ATOM      9  O   UNL     1      -5.494  -3.725  15.679  1.00  0.00    -0.422 OA
ATOM     10  C   UNL     1      -3.814  -5.211  12.787  1.00  0.00     0.133 A 
ATOM     11  C   UNL     1      -4.686  -6.289  12.543  1.00  0.00     0.093 A 
ENDROOT
BRANCH   1  12
ATOM     12  O   UNL     1      -6.645  -7.593  13.045  1.00  0.00    -0.496 OA
ATOM     13  C   UNL     1      -7.372  -8.339  14.016  1.00  0.00     0.278 C 
ENDBRANCH   1  12
BRANCH  10  14
ATOM     14  O   UNL     1      -2.675  -4.986  11.993  1.00  0.00    -0.496 OA
ATOM     15  C   UNL     1      -1.670  -5.958  11.727  1.00  0.00     0.278 C 
ENDBRANCH  10  14
TORSDOF 2
ENDMDL
MODEL 5
REMARK VINA RESULT:    -4.938     11.875     13.718
REMARK INTER + INTRA:          -5.628
REMARK INTER:                  -5.524
REMARK INTRA:                  -0.104
REMARK UNBOUND:                -0.113
REMARK SMILES COc1cc(OC)c2ccc(=O)oc2c1
REMARK SMILES IDX 3 1 15 2 14 3 8 4 9 5 10 6 11 7 12 8 13 9 5 10 4 11 2 12
REMARK SMILES IDX 1 13 6 14 7 15
REMARK H PARENT
REMARK Flexibility Score: inf
ROOT
ATOM      1  C   UNL     1      -4.017   2.262   5.796  1.00  0.00     0.126 A 
ATOM      2  C   UNL     1      -3.324   2.333   4.575  1.00  0.00     0.094 A 
ATOM      3  C   UNL     1      -2.955   3.571   4.043  1.00  0.00     0.145 A 
ATOM      4  C   UNL     1      -3.279   4.762   4.732  1.00  0.00     0.060 A 
ATOM      5  C   UNL     1      -2.889   5.981   4.160  1.00  0.00     0.023 A 
ATOM      6  C   UNL     1      -2.203   5.984   2.946  1.00  0.00     0.095 A 
ATOM      7  C   UNL     1      -1.920   4.765   2.325  1.00  0.00     0.336 A 
ATOM      8  O   UNL     1      -1.302   4.747   1.228  1.00  0.00    -0.246 OA
ATOM      9  O   UNL     1      -2.299   3.621   2.886  1.00  0.00    -0.422 OA
ATOM     10  C   UNL     1      -3.973   4.702   5.956  1.00  0.00     0.133 A 
ATOM     11  C   UNL     1      -4.337   3.444   6.476  1.00  0.00     0.093 A 
ENDROOT
BRANCH   1  12
ATOM     12  O   UNL     1      -4.407   1.042   6.369  1.00  0.00    -0.496 OA
ATOM     13  C   UNL     1      -5.118   0.920   7.596  1.00  0.00     0.278 C 
ENDBRANCH   1  12
BRANCH  10  14
ATOM     14  O   UNL     1      -4.287   5.898   6.626  1.00  0.00    -0.496 OA
ATOM     15  C   UNL     1      -4.304   6.052   8.041  1.00  0.00     0.278 C 
ENDBRANCH  10  14
TORSDOF 2
ENDMDL
MODEL 6
REMARK VINA RESULT:    -4.918     10.327     11.697
REMARK INTER + INTRA:          -5.606
REMARK INTER:                  -5.492
REMARK INTRA:                  -0.114
REMARK UNBOUND:                -0.113
REMARK SMILES COc1cc(OC)c2ccc(=O)oc2c1
REMARK SMILES IDX 3 1 15 2 14 3 8 4 9 5 10 6 11 7 12 8 13 9 5 10 4 11 2 12
REMARK SMILES IDX 1 13 6 14 7 15
REMARK H PARENT
REMARK Flexibility Score: inf
ROOT
ATOM      1  C   UNL     1      -5.321  -4.566   1.541  1.00  0.00     0.126 A 
ATOM      2  C   UNL     1      -5.610  -5.672   2.361  1.00  0.00     0.094 A 
ATOM      3  C   UNL     1      -4.575  -6.400   2.953  1.00  0.00     0.145 A 
ATOM      4  C   UNL     1      -3.230  -6.027   2.731  1.00  0.00     0.060 A 
ATOM      5  C   UNL     1      -2.226  -6.788   3.347  1.00  0.00     0.023 A 
ATOM      6  C   UNL     1      -2.577  -7.873   4.149  1.00  0.00     0.095 A 
ATOM      7  C   UNL     1      -3.930  -8.178   4.321  1.00  0.00     0.336 A 
ATOM      8  O   UNL     1      -4.267  -9.154   5.041  1.00  0.00    -0.246 OA
ATOM      9  O   UNL     1      -4.865  -7.443   3.727  1.00  0.00    -0.422 OA
ATOM     10  C   UNL     1      -2.930  -4.922   1.912  1.00  0.00     0.133 A 
ATOM     11  C   UNL     1      -3.987  -4.201   1.322  1.00  0.00     0.093 A 
ENDROOT
BRANCH   1  12
ATOM     12  O   UNL     1      -6.326  -3.805   0.925  1.00  0.00    -0.496 OA
ATOM     13  C   UNL     1      -7.719  -4.089   1.015  1.00  0.00     0.278 C 
ENDBRANCH   1  12
BRANCH  10  14
ATOM     14  O   UNL     1      -1.585  -4.568   1.701  1.00  0.00    -0.496 OA
ATOM     15  C   UNL     1      -0.953  -3.424   2.265  1.00  0.00     0.278 C 
ENDBRANCH  10  14
TORSDOF 2
ENDMDL
MODEL 7
REMARK VINA RESULT:    -4.860     10.168     12.664
REMARK INTER + INTRA:          -5.542
REMARK INTER:                  -5.444
REMARK INTRA:                  -0.098
REMARK UNBOUND:                -0.113
REMARK SMILES COc1cc(OC)c2ccc(=O)oc2c1
REMARK SMILES IDX 3 1 15 2 14 3 8 4 9 5 10 6 11 7 12 8 13 9 5 10 4 11 2 12
REMARK SMILES IDX 1 13 6 14 7 15
REMARK H PARENT
REMARK Flexibility Score: inf
ROOT
ATOM      1  C   UNL     1       2.926   1.579  15.900  1.00  0.00     0.126 A 
ATOM      2  C   UNL     1       2.366   1.944  17.137  1.00  0.00     0.094 A 
ATOM      3  C   UNL     1       2.469   3.259  17.598  1.00  0.00     0.145 A 
ATOM      4  C   UNL     1       3.138   4.231  16.820  1.00  0.00     0.060 A 
ATOM      5  C   UNL     1       3.215   5.538  17.324  1.00  0.00     0.023 A 
ATOM      6  C   UNL     1       2.640   5.836  18.558  1.00  0.00     0.095 A 
ATOM      7  C   UNL     1       1.995   4.820  19.268  1.00  0.00     0.336 A 
ATOM      8  O   UNL     1       1.469   5.069  20.384  1.00  0.00    -0.246 OA
ATOM      9  O   UNL     1       1.934   3.588  18.771  1.00  0.00    -0.422 OA
ATOM     10  C   UNL     1       3.702   3.876  15.579  1.00  0.00     0.133 A 
ATOM     11  C   UNL     1       3.589   2.545  15.133  1.00  0.00     0.093 A 
ENDROOT
BRANCH   1  12
ATOM     12  O   UNL     1       2.848   0.272  15.397  1.00  0.00    -0.496 OA
ATOM     13  C   UNL     1       3.965  -0.480  14.932  1.00  0.00     0.278 C 
ENDBRANCH   1  12
BRANCH  10  14
ATOM     14  O   UNL     1       4.365   4.858  14.821  1.00  0.00    -0.496 OA
ATOM     15  C   UNL     1       4.421   4.879  13.399  1.00  0.00     0.278 C 
ENDBRANCH  10  14
TORSDOF 2
ENDMDL
MODEL 8
REMARK VINA RESULT:    -4.767      9.162     10.447
REMARK INTER + INTRA:          -5.438
REMARK INTER:                  -5.333
REMARK INTRA:                  -0.104
REMARK UNBOUND:                -0.113
REMARK SMILES COc1cc(OC)c2ccc(=O)oc2c1
REMARK SMILES IDX 3 1 15 2 14 3 8 4 9 5 10 6 11 7 12 8 13 9 5 10 4 11 2 12
REMARK SMILES IDX 1 13 6 14 7 15
REMARK H PARENT
REMARK Flexibility Score: inf
ROOT
ATOM      1  C   UNL     1       1.257  -5.756   7.276  1.00  0.00     0.126 A 
ATOM      2  C   UNL     1       1.546  -4.414   7.583  1.00  0.00     0.094 A 
ATOM      3  C   UNL     1       1.101  -3.388   6.746  1.00  0.00     0.145 A 
ATOM      4  C   UNL     1       0.355  -3.694   5.585  1.00  0.00     0.060 A 
ATOM      5  C   UNL     1      -0.071  -2.630   4.776  1.00  0.00     0.023 A 
ATOM      6  C   UNL     1       0.249  -1.321   5.134  1.00  0.00     0.095 A 
ATOM      7  C   UNL     1       0.990  -1.099   6.298  1.00  0.00     0.336 A 
ATOM      8  O   UNL     1       1.288   0.075   6.639  1.00  0.00    -0.246 OA
ATOM      9  O   UNL     1       1.382  -2.123   7.050  1.00  0.00    -0.422 OA
ATOM     10  C   UNL     1       0.060  -5.034   5.269  1.00  0.00     0.133 A 
ATOM     11  C   UNL     1       0.519  -6.055   6.124  1.00  0.00     0.093 A 
ENDROOT
BRANCH   1  12
ATOM     12  O   UNL     1       1.683  -6.820   8.086  1.00  0.00    -0.496 OA
ATOM     13  C   UNL     1       2.451  -6.668   9.275  1.00  0.00     0.278 C 
ENDBRANCH   1  12
BRANCH  10  14
ATOM     14  O   UNL     1      -0.682  -5.319   4.109  1.00  0.00    -0.496 OA
ATOM     15  C   UNL     1      -1.364  -6.544   3.865  1.00  0.00     0.278 C 
ENDBRANCH  10  14
TORSDOF 2
ENDMDL
MODEL 9
REMARK VINA RESULT:    -4.761      9.489     11.070
REMARK INTER + INTRA:          -5.431
REMARK INTER:                  -5.334
REMARK INTRA:                  -0.096
REMARK UNBOUND:                -0.113
REMARK SMILES COc1cc(OC)c2ccc(=O)oc2c1
REMARK SMILES IDX 3 1 15 2 14 3 8 4 9 5 10 6 11 7 12 8 13 9 5 10 4 11 2 12
REMARK SMILES IDX 1 13 6 14 7 15
REMARK H PARENT
REMARK Flexibility Score: inf
ROOT
ATOM      1  C   UNL     1      -1.437  -5.901   3.563  1.00  0.00     0.126 A 
ATOM      2  C   UNL     1      -0.722  -6.433   4.651  1.00  0.00     0.094 A 
ATOM      3  C   UNL     1       0.068  -5.602   5.449  1.00  0.00     0.145 A 
ATOM      4  C   UNL     1       0.152  -4.219   5.167  1.00  0.00     0.060 A 
ATOM      5  C   UNL     1       0.957  -3.425   5.996  1.00  0.00     0.023 A 
ATOM      6  C   UNL     1       1.642  -4.013   7.059  1.00  0.00     0.095 A 
ATOM      7  C   UNL     1       1.508  -5.387   7.274  1.00  0.00     0.336 A 
ATOM      8  O   UNL     1       2.118  -5.936   8.229  1.00  0.00    -0.246 OA
ATOM      9  O   UNL     1       0.739  -6.120   6.475  1.00  0.00    -0.422 OA
ATOM     10  C   UNL     1      -0.561  -3.677   4.080  1.00  0.00     0.133 A 
ATOM     11  C   UNL     1      -1.351  -4.531   3.286  1.00  0.00     0.093 A 
ENDROOT
BRANCH   1  12
ATOM     12  O   UNL     1      -2.243  -6.696   2.734  1.00  0.00    -0.496 OA
ATOM     13  C   UNL     1      -3.603  -7.018   3.003  1.00  0.00     0.278 C 
ENDBRANCH   1  12
BRANCH  10  14
ATOM     14  O   UNL     1      -0.464  -2.300   3.814  1.00  0.00    -0.496 OA
ATOM     15  C   UNL     1      -0.803  -1.689   2.574  1.00  0.00     0.278 C 
ENDBRANCH  10  14
TORSDOF 2
ENDMDL
