MODEL 1
REMARK VINA RESULT:    -6.751      0.000      0.000
REMARK INTER + INTRA:         -10.808
REMARK INTER:                  -9.513
REMARK INTRA:                  -1.294
REMARK UNBOUND:                -1.294
REMARK SMILES COc1c(O[C@@H]2O[C@H](C(=O)[O-])[C@H](O)[C@@H](O)[C@@H]2O)cc(O)c2c(=O)cc(-c3ccccc3)oc12
REMARK SMILES IDX 5 1 6 2 8 3 12 4 7 5 14 6 16 7 9 8 10 9 11 10 13 11 15 13
REMARK SMILES IDX 17 15 4 17 3 18 18 19 33 20 19 21 21 22 32 23 22 24 25 25
REMARK SMILES IDX 24 26 23 27 2 28 1 29 20 30 26 32 27 33 31 34 28 35 30 36
REMARK SMILES IDX 29 37
REMARK H PARENT 13 12 15 14 17 16 20 31
REMARK Flexibility Score: inf
ROOT
ATOM      1  O   UNL     1       7.944   6.076   3.343  1.00  0.00    -0.458 OA
ENDROOT
BRANCH   1   2
ATOM      2  C   UNL     1       6.700   6.559   3.862  1.00  0.00     0.339 C 
ATOM      3  C   UNL     1       7.630   7.980   5.533  1.00  0.00     0.199 C 
ATOM      4  C   UNL     1       7.150   7.038   6.671  1.00  0.00     0.180 C 
ATOM      5  O   UNL     1       6.825   7.884   4.362  1.00  0.00    -0.328 OA
ATOM      6  C   UNL     1       6.992   5.598   6.178  1.00  0.00     0.181 C 
ATOM      7  C   UNL     1       6.130   5.587   4.911  1.00  0.00     0.214 C 
BRANCH   3   8
ATOM      8  C   UNL     1       9.106   7.911   5.214  1.00  0.00     0.073 C 
ATOM      9  O   UNL     1       9.827   6.967   5.643  1.00  0.00    -0.547 OA
ATOM     10  O   UNL     1       9.683   8.901   4.429  1.00  0.00    -0.547 OA
ENDBRANCH   3   8
BRANCH   4  11
ATOM     11  O   UNL     1       8.038   7.070   7.761  1.00  0.00    -0.387 OA
ATOM     12  H   UNL     1       8.956   7.111   7.385  1.00  0.00     0.211 HD
ENDBRANCH   4  11
BRANCH   6  13
ATOM     13  O   UNL     1       6.372   4.838   7.182  1.00  0.00    -0.387 OA
ATOM     14  H   UNL     1       6.238   3.923   6.817  1.00  0.00     0.211 HD
ENDBRANCH   6  13
BRANCH   7  15
ATOM     15  O   UNL     1       6.080   4.286   4.385  1.00  0.00    -0.384 OA
ATOM     16  H   UNL     1       6.383   3.677   5.107  1.00  0.00     0.211 HD
ENDBRANCH   7  15
ENDBRANCH   1   2
BRANCH   1  17
ATOM     17  C   UNL     1       8.361   6.190   2.006  1.00  0.00     0.172 A 
ATOM     18  C   UNL     1       8.128   5.106   1.148  1.00  0.00     0.205 A 
ATOM     19  C   UNL     1       9.011   7.336   1.523  1.00  0.00     0.097 A 
ATOM     20  C   UNL     1       8.526   5.186  -0.208  1.00  0.00     0.188 A 
ATOM     21  C   UNL     1       9.421   7.423   0.189  1.00  0.00     0.134 A 
ATOM     22  C   UNL     1       9.175   6.350  -0.691  1.00  0.00     0.111 A 
ATOM     23  O   UNL     1       8.279   4.176  -1.039  1.00  0.00    -0.452 OA
ATOM     24  C   UNL     1       9.540   6.386  -2.055  1.00  0.00     0.197 A 
ATOM     25  C   UNL     1       8.599   4.185  -2.330  1.00  0.00     0.138 A 
ATOM     26  C   UNL     1       9.248   5.299  -2.875  1.00  0.00     0.100 A 
ATOM     27  O   UNL     1      10.125   7.385  -2.555  1.00  0.00    -0.289 OA
BRANCH  18  28
ATOM     28  O   UNL     1       7.495   3.978   1.704  1.00  0.00    -0.490 OA
ATOM     29  C   UNL     1       7.877   2.618   1.490  1.00  0.00     0.278 C 
ENDBRANCH  18  28
BRANCH  21  30
ATOM     30  O   UNL     1      10.061   8.582  -0.252  1.00  0.00    -0.507 OA
ATOM     31  H   UNL     1      10.773   9.040   0.302  1.00  0.00     0.293 HD
ENDBRANCH  21  30
BRANCH  25  32
ATOM     32  C   UNL     1       8.261   3.010  -3.160  1.00  0.00     0.017 A 
ATOM     33  C   UNL     1       7.982   3.179  -4.524  1.00  0.00     0.012 A 
ATOM     34  C   UNL     1       8.257   1.712  -2.620  1.00  0.00     0.012 A 
ATOM     35  C   UNL     1       7.683   2.073  -5.329  1.00  0.00     0.001 A 
ATOM     36  C   UNL     1       7.969   0.609  -3.430  1.00  0.00     0.001 A 
ATOM     37  C   UNL     1       7.677   0.791  -4.784  1.00  0.00     0.000 A 
ENDBRANCH  25  32
ENDBRANCH   1  17
TORSDOF 9
ENDMDL
MODEL 2
REMARK VINA RESULT:    -6.672      5.313     11.284
REMARK INTER + INTRA:         -10.696
REMARK INTER:                  -9.376
REMARK INTRA:                  -1.320
REMARK UNBOUND:                -1.294
REMARK SMILES COc1c(O[C@@H]2O[C@H](C(=O)[O-])[C@H](O)[C@@H](O)[C@@H]2O)cc(O)c2c(=O)cc(-c3ccccc3)oc12
REMARK SMILES IDX 5 1 6 2 8 3 12 4 7 5 14 6 16 7 9 8 10 9 11 10 13 11 15 13
REMARK SMILES IDX 17 15 4 17 3 18 18 19 33 20 19 21 21 22 32 23 22 24 25 25
REMARK SMILES IDX 24 26 23 27 2 28 1 29 20 30 26 32 27 33 31 34 28 35 30 36
REMARK SMILES IDX 29 37
REMARK H PARENT 13 12 15 14 17 16 20 31
REMARK Flexibility Score: inf
ROOT
ATOM      1  O   UNL     1       7.530   0.789  -7.641  1.00  0.00    -0.458 OA
ENDROOT
BRANCH   1   2
ATOM      2  C   UNL     1       8.079   0.264  -8.854  1.00  0.00     0.339 C 
ATOM      3  C   UNL     1       6.012   0.022 -10.013  1.00  0.00     0.199 C 
ATOM      4  C   UNL     1       6.082  -1.527  -9.914  1.00  0.00     0.180 C 
ATOM      5  O   UNL     1       7.297   0.635  -9.982  1.00  0.00    -0.328 OA
ATOM      6  C   UNL     1       6.923  -1.975  -8.717  1.00  0.00     0.181 C 
ATOM      7  C   UNL     1       8.277  -1.259  -8.752  1.00  0.00     0.214 C 
BRANCH   3   8
ATOM      8  C   UNL     1       5.043   0.687  -9.062  1.00  0.00     0.073 C 
ATOM      9  O   UNL     1       4.348   0.013  -8.251  1.00  0.00    -0.547 OA
ATOM     10  O   UNL     1       4.915   2.071  -9.074  1.00  0.00    -0.547 OA
ENDBRANCH   3   8
BRANCH   4  11
ATOM     11  O   UNL     1       4.794  -2.086  -9.824  1.00  0.00    -0.387 OA
ATOM     12  H   UNL     1       4.671  -2.377  -8.883  1.00  0.00     0.211 HD
ENDBRANCH   4  11
BRANCH   6  13
ATOM     13  O   UNL     1       7.116  -3.364  -8.791  1.00  0.00    -0.387 OA
ATOM     14  H   UNL     1       7.298  -3.583  -9.744  1.00  0.00     0.211 HD
ENDBRANCH   6  13
BRANCH   7  15
ATOM     15  O   UNL     1       9.007  -1.573  -7.593  1.00  0.00    -0.384 OA
ATOM     16  H   UNL     1       9.820  -1.006  -7.608  1.00  0.00     0.211 HD
ENDBRANCH   7  15
ENDBRANCH   1   2
BRANCH   1  17
ATOM     17  C   UNL     1       8.033   1.898  -6.938  1.00  0.00     0.172 A 
ATOM     18  C   UNL     1       7.824   1.951  -5.554  1.00  0.00     0.205 A 
ATOM     19  C   UNL     1       8.711   2.943  -7.584  1.00  0.00     0.097 A 
ATOM     20  C   UNL     1       8.322   3.047  -4.810  1.00  0.00     0.188 A 
ATOM     21  C   UNL     1       9.199   4.038  -6.863  1.00  0.00     0.134 A 
ATOM     22  C   UNL     1       9.015   4.096  -5.466  1.00  0.00     0.111 A 
ATOM     23  O   UNL     1       8.159   3.091  -3.490  1.00  0.00    -0.452 OA
ATOM     24  C   UNL     1       9.505   5.160  -4.678  1.00  0.00     0.197 A 
ATOM     25  C   UNL     1       8.620   4.072  -2.719  1.00  0.00     0.138 A 
ATOM     26  C   UNL     1       9.307   5.144  -3.299  1.00  0.00     0.100 A 
ATOM     27  O   UNL     1      10.125   6.131  -5.192  1.00  0.00    -0.289 OA
BRANCH  18  28
ATOM     28  O   UNL     1       7.113   0.882  -4.975  1.00  0.00    -0.490 OA
ATOM     29  C   UNL     1       7.688  -0.319  -4.458  1.00  0.00     0.278 C 
ENDBRANCH  18  28
BRANCH  21  30
ATOM     30  O   UNL     1       9.870   5.055  -7.541  1.00  0.00    -0.507 OA
ATOM     31  H   UNL     1       9.374   5.811  -7.994  1.00  0.00     0.293 HD
ENDBRANCH  21  30
BRANCH  25  32
ATOM     32  C   UNL     1       8.390   4.005  -1.261  1.00  0.00     0.017 A 
ATOM     33  C   UNL     1       8.151   5.185  -0.540  1.00  0.00     0.012 A 
ATOM     34  C   UNL     1       8.361   2.775  -0.581  1.00  0.00     0.012 A 
ATOM     35  C   UNL     1       7.908   5.137   0.838  1.00  0.00     0.001 A 
ATOM     36  C   UNL     1       8.107   2.730   0.793  1.00  0.00     0.001 A 
ATOM     37  C   UNL     1       7.886   3.913   1.504  1.00  0.00     0.000 A 
ENDBRANCH  25  32
ENDBRANCH   1  17
TORSDOF 9
ENDMDL
MODEL 3
REMARK VINA RESULT:    -5.836      1.870      3.697
REMARK INTER + INTRA:          -9.519
REMARK INTER:                  -8.548
REMARK INTRA:                  -0.970
REMARK UNBOUND:                -1.294
REMARK SMILES COc1c(O[C@@H]2O[C@H](C(=O)[O-])[C@H](O)[C@@H](O)[C@@H]2O)cc(O)c2c(=O)cc(-c3ccccc3)oc12
REMARK SMILES IDX 5 1 6 2 8 3 12 4 7 5 14 6 16 7 9 8 10 9 11 10 13 11 15 13
REMARK SMILES IDX 17 15 4 17 3 18 18 19 33 20 19 21 21 22 32 23 22 24 25 25
REMARK SMILES IDX 24 26 23 27 2 28 1 29 20 30 26 32 27 33 31 34 28 35 30 36
REMARK SMILES IDX 29 37
REMARK H PARENT 13 12 15 14 17 16 20 31
REMARK Flexibility Score: inf
ROOT
ATOM      1  O   UNL     1       8.688   6.008   0.475  1.00  0.00    -0.458 OA
ENDROOT
BRANCH   1   2
ATOM      2  C   UNL     1       9.700   6.158   1.476  1.00  0.00     0.339 C 
ATOM      3  C   UNL     1       8.437   5.255   3.283  1.00  0.00     0.199 C 
ATOM      4  C   UNL     1       8.297   6.652   3.948  1.00  0.00     0.180 C 
ATOM      5  O   UNL     1       9.601   5.145   2.470  1.00  0.00    -0.328 OA
ATOM      6  C   UNL     1       8.407   7.777   2.916  1.00  0.00     0.181 C 
ATOM      7  C   UNL     1       9.672   7.574   2.077  1.00  0.00     0.214 C 
BRANCH   3   8
ATOM      8  C   UNL     1       7.201   4.748   2.576  1.00  0.00     0.073 C 
ATOM      9  O   UNL     1       6.234   5.516   2.310  1.00  0.00    -0.547 OA
ATOM     10  O   UNL     1       7.125   3.411   2.203  1.00  0.00    -0.547 OA
ENDBRANCH   3   8
BRANCH   4  11
ATOM     11  O   UNL     1       7.077   6.762   4.640  1.00  0.00    -0.387 OA
ATOM     12  H   UNL     1       6.501   6.015   4.331  1.00  0.00     0.211 HD
ENDBRANCH   4  11
BRANCH   6  13
ATOM     13  O   UNL     1       8.473   9.007   3.590  1.00  0.00    -0.387 OA
ATOM     14  H   UNL     1       7.595   9.144   4.036  1.00  0.00     0.211 HD
ENDBRANCH   6  13
BRANCH   7  15
ATOM     15  O   UNL     1       9.717   8.533   1.051  1.00  0.00    -0.384 OA
ATOM     16  H   UNL     1      10.510   8.318   0.497  1.00  0.00     0.211 HD
ENDBRANCH   7  15
ENDBRANCH   1   2
BRANCH   1  17
ATOM     17  C   UNL     1       8.927   5.893  -0.906  1.00  0.00     0.172 A 
ATOM     18  C   UNL     1       8.683   4.656  -1.517  1.00  0.00     0.205 A 
ATOM     19  C   UNL     1       9.412   6.966  -1.669  1.00  0.00     0.097 A 
ATOM     20  C   UNL     1       8.903   4.504  -2.907  1.00  0.00     0.188 A 
ATOM     21  C   UNL     1       9.645   6.826  -3.041  1.00  0.00     0.134 A 
ATOM     22  C   UNL     1       9.385   5.594  -3.674  1.00  0.00     0.111 A 
ATOM     23  O   UNL     1       8.642   3.343  -3.502  1.00  0.00    -0.452 OA
ATOM     24  C   UNL     1       9.575   5.395  -5.059  1.00  0.00     0.197 A 
ATOM     25  C   UNL     1       8.798   3.128  -4.806  1.00  0.00     0.138 A 
ATOM     26  C   UNL     1       9.277   4.157  -5.625  1.00  0.00     0.100 A 
ATOM     27  O   UNL     1      10.006   6.317  -5.804  1.00  0.00    -0.289 OA
BRANCH  18  28
ATOM     28  O   UNL     1       8.222   3.616  -0.687  1.00  0.00    -0.490 OA
ATOM     29  C   UNL     1       9.019   2.549  -0.168  1.00  0.00     0.278 C 
ENDBRANCH  18  28
BRANCH  21  30
ATOM     30  O   UNL     1      10.125   7.918  -3.765  1.00  0.00    -0.507 OA
ATOM     31  H   UNL     1      11.046   7.916  -4.184  1.00  0.00     0.293 HD
ENDBRANCH  21  30
BRANCH  25  32
ATOM     32  C   UNL     1       8.462   1.799  -5.359  1.00  0.00     0.017 A 
ATOM     33  C   UNL     1       7.128   1.365  -5.364  1.00  0.00     0.012 A 
ATOM     34  C   UNL     1       9.449   0.974  -5.925  1.00  0.00     0.012 A 
ATOM     35  C   UNL     1       6.791   0.118  -5.905  1.00  0.00     0.001 A 
ATOM     36  C   UNL     1       9.106  -0.265  -6.475  1.00  0.00     0.001 A 
ATOM     37  C   UNL     1       7.776  -0.695  -6.460  1.00  0.00     0.000 A 
ENDBRANCH  25  32
ENDBRANCH   1  17
TORSDOF 9
ENDMDL
MODEL 4
REMARK VINA RESULT:    -5.573      1.980      8.499
REMARK INTER + INTRA:          -9.148
REMARK INTER:                  -8.085
REMARK INTRA:                  -1.063
REMARK UNBOUND:                -1.294
REMARK SMILES COc1c(O[C@@H]2O[C@H](C(=O)[O-])[C@H](O)[C@@H](O)[C@@H]2O)cc(O)c2c(=O)cc(-c3ccccc3)oc12
REMARK SMILES IDX 5 1 6 2 8 3 12 4 7 5 14 6 16 7 9 8 10 9 11 10 13 11 15 13
REMARK SMILES IDX 17 15 4 17 3 18 18 19 33 20 19 21 21 22 32 23 22 24 25 25
REMARK SMILES IDX 24 26 23 27 2 28 1 29 20 30 26 32 27 33 31 34 28 35 30 36
REMARK SMILES IDX 29 37
REMARK H PARENT 13 12 15 14 17 16 20 31
REMARK Flexibility Score: inf
ROOT
ATOM      1  O   UNL     1       8.273   5.419   1.211  1.00  0.00    -0.458 OA
ENDROOT
BRANCH   1   2
ATOM      2  C   UNL     1       9.228   4.368   1.031  1.00  0.00     0.339 C 
ATOM      3  C   UNL     1       9.510   4.651  -1.318  1.00  0.00     0.199 C 
ATOM      4  C   UNL     1       8.760   3.324  -1.618  1.00  0.00     0.180 C 
ATOM      5  O   UNL     1      10.125   4.659  -0.034  1.00  0.00    -0.328 OA
ATOM      6  C   UNL     1       7.786   2.964  -0.493  1.00  0.00     0.181 C 
ATOM      7  C   UNL     1       8.523   3.012   0.850  1.00  0.00     0.214 C 
BRANCH   3   8
ATOM      8  C   UNL     1       8.719   5.913  -1.577  1.00  0.00     0.073 C 
ATOM      9  O   UNL     1       7.504   5.870  -1.919  1.00  0.00    -0.547 OA
ATOM     10  O   UNL     1       9.337   7.149  -1.430  1.00  0.00    -0.547 OA
ENDBRANCH   3   8
BRANCH   4  11
ATOM     11  O   UNL     1       8.065   3.401  -2.839  1.00  0.00    -0.387 OA
ATOM     12  H   UNL     1       8.749   3.459  -3.556  1.00  0.00     0.211 HD
ENDBRANCH   4  11
BRANCH   6  13
ATOM     13  O   UNL     1       7.290   1.670  -0.718  1.00  0.00    -0.387 OA
ATOM     14  H   UNL     1       7.758   1.312  -1.519  1.00  0.00     0.211 HD
ENDBRANCH   6  13
BRANCH   7  15
ATOM     15  O   UNL     1       7.610   2.801   1.896  1.00  0.00    -0.384 OA
ATOM     16  H   UNL     1       7.653   3.604   2.476  1.00  0.00     0.211 HD
ENDBRANCH   7  15
ENDBRANCH   1   2
BRANCH   1  17
ATOM     17  C   UNL     1       8.390   6.469   2.139  1.00  0.00     0.172 A 
ATOM     18  C   UNL     1       7.651   6.385   3.326  1.00  0.00     0.205 A 
ATOM     19  C   UNL     1       9.202   7.588   1.898  1.00  0.00     0.097 A 
ATOM     20  C   UNL     1       7.749   7.419   4.288  1.00  0.00     0.188 A 
ATOM     21  C   UNL     1       9.299   8.621   2.835  1.00  0.00     0.134 A 
ATOM     22  C   UNL     1       8.577   8.542   4.043  1.00  0.00     0.111 A 
ATOM     23  O   UNL     1       7.077   7.333   5.434  1.00  0.00    -0.452 OA
ATOM     24  C   UNL     1       8.652   9.539   5.040  1.00  0.00     0.197 A 
ATOM     25  C   UNL     1       7.137   8.248   6.397  1.00  0.00     0.138 A 
ATOM     26  C   UNL     1       7.930   9.388   6.222  1.00  0.00     0.100 A 
ATOM     27  O   UNL     1       9.364  10.570   4.891  1.00  0.00    -0.289 OA
BRANCH  18  28
ATOM     28  O   UNL     1       6.836   5.248   3.491  1.00  0.00    -0.490 OA
ATOM     29  C   UNL     1       6.130   4.895   4.681  1.00  0.00     0.278 C 
ENDBRANCH  18  28
BRANCH  21  30
ATOM     30  O   UNL     1      10.120   9.715   2.559  1.00  0.00    -0.507 OA
ATOM     31  H   UNL     1       9.786  10.512   2.033  1.00  0.00     0.293 HD
ENDBRANCH  21  30
BRANCH  25  32
ATOM     32  C   UNL     1       6.357   8.037   7.635  1.00  0.00     0.017 A 
ATOM     33  C   UNL     1       6.274   9.064   8.588  1.00  0.00     0.012 A 
ATOM     34  C   UNL     1       5.653   6.841   7.860  1.00  0.00     0.012 A 
ATOM     35  C   UNL     1       5.520   8.889   9.755  1.00  0.00     0.001 A 
ATOM     36  C   UNL     1       4.892   6.675   9.022  1.00  0.00     0.001 A 
ATOM     37  C   UNL     1       4.830   7.698   9.972  1.00  0.00     0.000 A 
ENDBRANCH  25  32
ENDBRANCH   1  17
TORSDOF 9
ENDMDL
MODEL 5
REMARK VINA RESULT:    -5.511      4.062     10.144
REMARK INTER + INTRA:          -9.061
REMARK INTER:                  -8.096
REMARK INTRA:                  -0.965
REMARK UNBOUND:                -1.294
REMARK SMILES COc1c(O[C@@H]2O[C@H](C(=O)[O-])[C@H](O)[C@@H](O)[C@@H]2O)cc(O)c2c(=O)cc(-c3ccccc3)oc12
REMARK SMILES IDX 5 1 6 2 8 3 12 4 7 5 14 6 16 7 9 8 10 9 11 10 13 11 15 13
REMARK SMILES IDX 17 15 4 17 3 18 18 19 33 20 19 21 21 22 32 23 22 24 25 25
REMARK SMILES IDX 24 26 23 27 2 28 1 29 20 30 26 32 27 33 31 34 28 35 30 36
REMARK SMILES IDX 29 37
REMARK H PARENT 13 12 15 14 17 16 20 31
REMARK Flexibility Score: inf
ROOT
ATOM      1  O   UNL     1       8.099   1.689  -5.809  1.00  0.00    -0.458 OA
ENDROOT
BRANCH   1   2
ATOM      2  C   UNL     1       9.012   0.738  -6.366  1.00  0.00     0.339 C 
ATOM      3  C   UNL     1       8.492   1.162  -8.652  1.00  0.00     0.199 C 
ATOM      4  C   UNL     1       7.778  -0.210  -8.795  1.00  0.00     0.180 C 
ATOM      5  O   UNL     1       9.491   1.161  -7.637  1.00  0.00    -0.328 OA
ATOM      6  C   UNL     1       7.252  -0.711  -7.448  1.00  0.00     0.181 C 
ATOM      7  C   UNL     1       8.381  -0.665  -6.413  1.00  0.00     0.214 C 
BRANCH   3   8
ATOM      8  C   UNL     1       7.576   2.360  -8.546  1.00  0.00     0.073 C 
ATOM      9  O   UNL     1       7.960   3.514  -8.886  1.00  0.00    -0.547 OA
ATOM     10  O   UNL     1       6.282   2.191  -8.069  1.00  0.00    -0.547 OA
ENDBRANCH   3   8
BRANCH   4  11
ATOM     11  O   UNL     1       6.719  -0.134  -9.718  1.00  0.00    -0.387 OA
ATOM     12  H   UNL     1       5.902  -0.442  -9.246  1.00  0.00     0.211 HD
ENDBRANCH   4  11
BRANCH   6  13
ATOM     13  O   UNL     1       6.798  -2.031  -7.599  1.00  0.00    -0.387 OA
ATOM     14  H   UNL     1       6.478  -2.335  -6.708  1.00  0.00     0.211 HD
ENDBRANCH   6  13
BRANCH   7  15
ATOM     15  O   UNL     1       7.876  -1.009  -5.148  1.00  0.00    -0.384 OA
ATOM     16  H   UNL     1       8.656  -1.073  -4.540  1.00  0.00     0.211 HD
ENDBRANCH   7  15
ENDBRANCH   1   2
BRANCH   1  17
ATOM     17  C   UNL     1       8.467   2.887  -5.171  1.00  0.00     0.172 A 
ATOM     18  C   UNL     1       8.147   3.038  -3.815  1.00  0.00     0.205 A 
ATOM     19  C   UNL     1       9.121   3.924  -5.854  1.00  0.00     0.097 A 
ATOM     20  C   UNL     1       8.508   4.226  -3.136  1.00  0.00     0.188 A 
ATOM     21  C   UNL     1       9.473   5.107  -5.199  1.00  0.00     0.134 A 
ATOM     22  C   UNL     1       9.176   5.267  -3.830  1.00  0.00     0.111 A 
ATOM     23  O   UNL     1       8.239   4.366  -1.841  1.00  0.00    -0.452 OA
ATOM     24  C   UNL     1       9.528   6.426  -3.105  1.00  0.00     0.197 A 
ATOM     25  C   UNL     1       8.568   5.439  -1.128  1.00  0.00     0.138 A 
ATOM     26  C   UNL     1       9.224   6.509  -1.748  1.00  0.00     0.100 A 
ATOM     27  O   UNL     1      10.118   7.395  -3.656  1.00  0.00    -0.289 OA
BRANCH  18  28
ATOM     28  O   UNL     1       7.468   1.970  -3.198  1.00  0.00    -0.490 OA
ATOM     29  C   UNL     1       8.036   1.048  -2.266  1.00  0.00     0.278 C 
ENDBRANCH  18  28
BRANCH  21  30
ATOM     30  O   UNL     1      10.125   6.113  -5.914  1.00  0.00    -0.507 OA
ATOM     31  H   UNL     1      10.785   6.739  -5.471  1.00  0.00     0.293 HD
ENDBRANCH  21  30
BRANCH  25  32
ATOM     32  C   UNL     1       8.229   5.476   0.310  1.00  0.00     0.017 A 
ATOM     33  C   UNL     1       7.257   4.601   0.819  1.00  0.00     0.012 A 
ATOM     34  C   UNL     1       8.894   6.342   1.195  1.00  0.00     0.012 A 
ATOM     35  C   UNL     1       6.941   4.607   2.182  1.00  0.00     0.001 A 
ATOM     36  C   UNL     1       8.584   6.337   2.559  1.00  0.00     0.001 A 
ATOM     37  C   UNL     1       7.602   5.472   3.051  1.00  0.00     0.000 A 
ENDBRANCH  25  32
ENDBRANCH   1  17
TORSDOF 9
ENDMDL
MODEL 6
REMARK VINA RESULT:    -5.483      3.058      6.290
REMARK INTER + INTRA:          -9.021
REMARK INTER:                  -8.788
REMARK INTRA:                  -0.233
REMARK UNBOUND:                -1.294
REMARK SMILES COc1c(O[C@@H]2O[C@H](C(=O)[O-])[C@H](O)[C@@H](O)[C@@H]2O)cc(O)c2c(=O)cc(-c3ccccc3)oc12
REMARK SMILES IDX 5 1 6 2 8 3 12 4 7 5 14 6 16 7 9 8 10 9 11 10 13 11 15 13
REMARK SMILES IDX 17 15 4 17 3 18 18 19 33 20 19 21 21 22 32 23 22 24 25 25
REMARK SMILES IDX 24 26 23 27 2 28 1 29 20 30 26 32 27 33 31 34 28 35 30 36
REMARK SMILES IDX 29 37
REMARK H PARENT 13 12 15 14 17 16 20 31
REMARK Flexibility Score: inf
ROOT
ATOM      1  O   UNL     1       8.889   4.159  -2.075  1.00  0.00    -0.458 OA
ENDROOT
BRANCH   1   2
ATOM      2  C   UNL     1      10.032   4.339  -1.233  1.00  0.00     0.339 C 
ATOM      3  C   UNL     1       9.087   3.375   0.730  1.00  0.00     0.199 C 
ATOM      4  C   UNL     1       8.996   4.761   1.426  1.00  0.00     0.180 C 
ATOM      5  O   UNL     1      10.120   3.316  -0.249  1.00  0.00    -0.328 OA
ATOM      6  C   UNL     1       8.909   5.897   0.404  1.00  0.00     0.181 C 
ATOM      7  C   UNL     1      10.042   5.749  -0.617  1.00  0.00     0.214 C 
BRANCH   3   8
ATOM      8  C   UNL     1       7.778   2.827   0.207  1.00  0.00     0.073 C 
ATOM      9  O   UNL     1       7.732   1.750  -0.452  1.00  0.00    -0.547 OA
ATOM     10  O   UNL     1       6.599   3.516   0.461  1.00  0.00    -0.547 OA
ENDBRANCH   3   8
BRANCH   4  11
ATOM     11  O   UNL     1       7.890   4.818   2.294  1.00  0.00    -0.387 OA
ATOM     12  H   UNL     1       7.790   3.915   2.694  1.00  0.00     0.211 HD
ENDBRANCH   4  11
BRANCH   6  13
ATOM     13  O   UNL     1       9.030   7.123   1.077  1.00  0.00    -0.387 OA
ATOM     14  H   UNL     1       8.673   7.826   0.470  1.00  0.00     0.211 HD
ENDBRANCH   6  13
BRANCH   7  15
ATOM     15  O   UNL     1       9.897   6.717  -1.625  1.00  0.00    -0.384 OA
ATOM     16  H   UNL     1       9.056   6.503  -2.103  1.00  0.00     0.211 HD
ENDBRANCH   7  15
ENDBRANCH   1   2
BRANCH   1  17
ATOM     17  C   UNL     1       8.920   4.079  -3.478  1.00  0.00     0.172 A 
ATOM     18  C   UNL     1       8.358   2.950  -4.088  1.00  0.00     0.205 A 
ATOM     19  C   UNL     1       9.509   5.080  -4.267  1.00  0.00     0.097 A 
ATOM     20  C   UNL     1       8.363   2.838  -5.499  1.00  0.00     0.188 A 
ATOM     21  C   UNL     1       9.532   4.976  -5.661  1.00  0.00     0.134 A 
ATOM     22  C   UNL     1       8.952   3.856  -6.291  1.00  0.00     0.111 A 
ATOM     23  O   UNL     1       7.802   1.786  -6.089  1.00  0.00    -0.452 OA
ATOM     24  C   UNL     1       8.919   3.705  -7.694  1.00  0.00     0.197 A 
ATOM     25  C   UNL     1       7.744   1.621  -7.407  1.00  0.00     0.138 A 
ATOM     26  C   UNL     1       8.310   2.583  -8.252  1.00  0.00     0.100 A 
ATOM     27  O   UNL     1       9.427   4.566  -8.462  1.00  0.00    -0.289 OA
BRANCH  18  28
ATOM     28  O   UNL     1       7.808   1.973  -3.236  1.00  0.00    -0.490 OA
ATOM     29  C   UNL     1       8.092   0.573  -3.280  1.00  0.00     0.278 C 
ENDBRANCH  18  28
BRANCH  21  30
ATOM     30  O   UNL     1      10.124   5.994  -6.409  1.00  0.00    -0.507 OA
ATOM     31  H   UNL     1       9.574   6.721  -6.848  1.00  0.00     0.293 HD
ENDBRANCH  21  30
BRANCH  25  32
ATOM     32  C   UNL     1       7.081   0.417  -7.950  1.00  0.00     0.017 A 
ATOM     33  C   UNL     1       7.819  -0.762  -8.132  1.00  0.00     0.012 A 
ATOM     34  C   UNL     1       5.707   0.412  -8.249  1.00  0.00     0.012 A 
ATOM     35  C   UNL     1       7.201  -1.918  -8.623  1.00  0.00     0.001 A 
ATOM     36  C   UNL     1       5.091  -0.748  -8.729  1.00  0.00     0.001 A 
ATOM     37  C   UNL     1       5.841  -1.912  -8.921  1.00  0.00     0.000 A 
ENDBRANCH  25  32
ENDBRANCH   1  17
TORSDOF 9
ENDMDL
MODEL 7
REMARK VINA RESULT:    -5.372      2.514      5.358
REMARK INTER + INTRA:          -8.864
REMARK INTER:                  -8.559
REMARK INTRA:                  -0.305
REMARK UNBOUND:                -1.294
REMARK SMILES COc1c(O[C@@H]2O[C@H](C(=O)[O-])[C@H](O)[C@@H](O)[C@@H]2O)cc(O)c2c(=O)cc(-c3ccccc3)oc12
REMARK SMILES IDX 5 1 6 2 8 3 12 4 7 5 14 6 16 7 9 8 10 9 11 10 13 11 15 13
REMARK SMILES IDX 17 15 4 17 3 18 18 19 33 20 19 21 21 22 32 23 22 24 25 25
REMARK SMILES IDX 24 26 23 27 2 28 1 29 20 30 26 32 27 33 31 34 28 35 30 36
REMARK SMILES IDX 29 37
REMARK H PARENT 13 12 15 14 17 16 20 31
REMARK Flexibility Score: inf
ROOT
ATOM      1  O   UNL     1       9.001   4.758  -1.198  1.00  0.00    -0.458 OA
ENDROOT
BRANCH   1   2
ATOM      2  C   UNL     1      10.108   4.951  -0.312  1.00  0.00     0.339 C 
ATOM      3  C   UNL     1       9.049   4.096   1.644  1.00  0.00     0.199 C 
ATOM      4  C   UNL     1       8.959   5.514   2.274  1.00  0.00     0.180 C 
ATOM      5  O   UNL     1      10.125   3.972   0.720  1.00  0.00    -0.328 OA
ATOM      6  C   UNL     1       8.946   6.605   1.200  1.00  0.00     0.181 C 
ATOM      7  C   UNL     1      10.122   6.387   0.242  1.00  0.00     0.214 C 
BRANCH   3   8
ATOM      8  C   UNL     1       7.754   3.554   1.084  1.00  0.00     0.073 C 
ATOM      9  O   UNL     1       6.708   4.260   1.042  1.00  0.00    -0.547 OA
ATOM     10  O   UNL     1       7.711   2.252   0.599  1.00  0.00    -0.547 OA
ENDBRANCH   3   8
BRANCH   4  11
ATOM     11  O   UNL     1       7.815   5.634   3.084  1.00  0.00    -0.387 OA
ATOM     12  H   UNL     1       7.294   6.405   2.736  1.00  0.00     0.211 HD
ENDBRANCH   4  11
BRANCH   6  13
ATOM     13  O   UNL     1       9.065   7.857   1.823  1.00  0.00    -0.387 OA
ATOM     14  H   UNL     1       8.768   8.541   1.165  1.00  0.00     0.211 HD
ENDBRANCH   6  13
BRANCH   7  15
ATOM     15  O   UNL     1      10.048   7.311  -0.813  1.00  0.00    -0.384 OA
ATOM     16  H   UNL     1       9.185   7.788  -0.712  1.00  0.00     0.211 HD
ENDBRANCH   7  15
ENDBRANCH   1   2
BRANCH   1  17
ATOM     17  C   UNL     1       9.093   4.660  -2.598  1.00  0.00     0.172 A 
ATOM     18  C   UNL     1       8.711   3.454  -3.201  1.00  0.00     0.205 A 
ATOM     19  C   UNL     1       9.566   5.718  -3.388  1.00  0.00     0.097 A 
ATOM     20  C   UNL     1       8.782   3.320  -4.609  1.00  0.00     0.188 A 
ATOM     21  C   UNL     1       9.652   5.596  -4.778  1.00  0.00     0.134 A 
ATOM     22  C   UNL     1       9.253   4.396  -5.403  1.00  0.00     0.111 A 
ATOM     23  O   UNL     1       8.390   2.192  -5.194  1.00  0.00    -0.452 OA
ATOM     24  C   UNL     1       9.290   4.218  -6.803  1.00  0.00     0.197 A 
ATOM     25  C   UNL     1       8.401   1.998  -6.510  1.00  0.00     0.138 A 
ATOM     26  C   UNL     1       8.860   3.014  -7.356  1.00  0.00     0.100 A 
ATOM     27  O   UNL     1       9.702   5.128  -7.573  1.00  0.00    -0.289 OA
BRANCH  18  28
ATOM     28  O   UNL     1       8.271   2.425  -2.347  1.00  0.00    -0.490 OA
ATOM     29  C   UNL     1       7.939   1.094  -2.747  1.00  0.00     0.278 C 
ENDBRANCH  18  28
BRANCH  21  30
ATOM     30  O   UNL     1      10.125   6.673  -5.529  1.00  0.00    -0.507 OA
ATOM     31  H   UNL     1       9.855   6.808  -6.495  1.00  0.00     0.293 HD
ENDBRANCH  21  30
BRANCH  25  32
ATOM     32  C   UNL     1       7.929   0.705  -7.048  1.00  0.00     0.017 A 
ATOM     33  C   UNL     1       6.697   0.638  -7.716  1.00  0.00     0.012 A 
ATOM     34  C   UNL     1       8.711  -0.458  -6.946  1.00  0.00     0.012 A 
ATOM     35  C   UNL     1       6.245  -0.574  -8.252  1.00  0.00     0.001 A 
ATOM     36  C   UNL     1       8.262  -1.665  -7.492  1.00  0.00     0.001 A 
ATOM     37  C   UNL     1       7.025  -1.723  -8.141  1.00  0.00     0.000 A 
ENDBRANCH  25  32
ENDBRANCH   1  17
TORSDOF 9
ENDMDL
MODEL 8
REMARK VINA RESULT:    -5.256      2.636      8.740
REMARK INTER + INTRA:          -8.701
REMARK INTER:                  -7.829
REMARK INTRA:                  -0.872
REMARK UNBOUND:                -1.294
REMARK SMILES COc1c(O[C@@H]2O[C@H](C(=O)[O-])[C@H](O)[C@@H](O)[C@@H]2O)cc(O)c2c(=O)cc(-c3ccccc3)oc12
REMARK SMILES IDX 5 1 6 2 8 3 12 4 7 5 14 6 16 7 9 8 10 9 11 10 13 11 15 13
REMARK SMILES IDX 17 15 4 17 3 18 18 19 33 20 19 21 21 22 32 23 22 24 25 25
REMARK SMILES IDX 24 26 23 27 2 28 1 29 20 30 26 32 27 33 31 34 28 35 30 36
REMARK SMILES IDX 29 37
REMARK H PARENT 13 12 15 14 17 16 20 31
REMARK Flexibility Score: inf
ROOT
ATOM      1  O   UNL     1       8.350   3.148  -3.296  1.00  0.00    -0.458 OA
ENDROOT
BRANCH   1   2
ATOM      2  C   UNL     1       9.095   1.926  -3.256  1.00  0.00     0.339 C 
ATOM      3  C   UNL     1       9.640   1.859  -5.574  1.00  0.00     0.199 C 
ATOM      4  C   UNL     1       8.677   0.664  -5.816  1.00  0.00     0.180 C 
ATOM      5  O   UNL     1      10.125   1.914  -4.237  1.00  0.00    -0.328 OA
ATOM      6  C   UNL     1       7.553   0.630  -4.777  1.00  0.00     0.181 C 
ATOM      7  C   UNL     1       8.160   0.710  -3.372  1.00  0.00     0.214 C 
BRANCH   3   8
ATOM      8  C   UNL     1       9.136   3.202  -6.051  1.00  0.00     0.073 C 
ATOM      9  O   UNL     1       7.971   3.340  -6.520  1.00  0.00    -0.547 OA
ATOM     10  O   UNL     1       9.968   4.313  -5.969  1.00  0.00    -0.547 OA
ENDBRANCH   3   8
BRANCH   4  11
ATOM     11  O   UNL     1       8.125   0.714  -7.109  1.00  0.00    -0.387 OA
ATOM     12  H   UNL     1       8.072  -0.221  -7.437  1.00  0.00     0.211 HD
ENDBRANCH   4  11
BRANCH   6  13
ATOM     13  O   UNL     1       6.838  -0.569  -4.920  1.00  0.00    -0.387 OA
ATOM     14  H   UNL     1       7.458  -1.234  -5.323  1.00  0.00     0.211 HD
ENDBRANCH   6  13
BRANCH   7  15
ATOM     15  O   UNL     1       7.131   0.800  -2.420  1.00  0.00    -0.384 OA
ATOM     16  H   UNL     1       6.665   1.658  -2.587  1.00  0.00     0.211 HD
ENDBRANCH   7  15
ENDBRANCH   1   2
BRANCH   1  17
ATOM     17  C   UNL     1       8.679   4.320  -2.592  1.00  0.00     0.172 A 
ATOM     18  C   UNL     1       8.434   4.351  -1.212  1.00  0.00     0.205 A 
ATOM     19  C   UNL     1       9.220   5.445  -3.232  1.00  0.00     0.097 A 
ATOM     20  C   UNL     1       8.759   5.510  -0.468  1.00  0.00     0.188 A 
ATOM     21  C   UNL     1       9.535   6.601  -2.511  1.00  0.00     0.134 A 
ATOM     22  C   UNL     1       9.313   6.641  -1.119  1.00  0.00     0.111 A 
ATOM     23  O   UNL     1       8.562   5.538   0.847  1.00  0.00    -0.452 OA
ATOM     24  C   UNL     1       9.634   7.767  -0.330  1.00  0.00     0.197 A 
ATOM     25  C   UNL     1       8.865   6.578   1.619  1.00  0.00     0.138 A 
ATOM     26  C   UNL     1       9.410   7.732   1.044  1.00  0.00     0.100 A 
ATOM     27  O   UNL     1      10.125   8.811  -0.839  1.00  0.00    -0.289 OA
BRANCH  18  28
ATOM     28  O   UNL     1       7.865   3.197  -0.640  1.00  0.00    -0.490 OA
ATOM     29  C   UNL     1       8.212   2.639   0.629  1.00  0.00     0.278 C 
ENDBRANCH  18  28
BRANCH  21  30
ATOM     30  O   UNL     1      10.074   7.698  -3.184  1.00  0.00    -0.507 OA
ATOM     31  H   UNL     1      10.908   8.167  -2.855  1.00  0.00     0.293 HD
ENDBRANCH  21  30
BRANCH  25  32
ATOM     32  C   UNL     1       8.614   6.489   3.073  1.00  0.00     0.017 A 
ATOM     33  C   UNL     1       9.694   6.517   3.969  1.00  0.00     0.012 A 
ATOM     34  C   UNL     1       7.307   6.421   3.586  1.00  0.00     0.012 A 
ATOM     35  C   UNL     1       9.472   6.457   5.350  1.00  0.00     0.001 A 
ATOM     36  C   UNL     1       7.089   6.373   4.966  1.00  0.00     0.001 A 
ATOM     37  C   UNL     1       8.173   6.385   5.848  1.00  0.00     0.000 A 
ENDBRANCH  25  32
ENDBRANCH   1  17
TORSDOF 9
ENDMDL
MODEL 9
REMARK VINA RESULT:    -4.828      4.674     10.386
REMARK INTER + INTRA:          -8.098
REMARK INTER:                  -8.930
REMARK INTRA:                   0.832
REMARK UNBOUND:                -1.294
REMARK SMILES COc1c(O[C@@H]2O[C@H](C(=O)[O-])[C@H](O)[C@@H](O)[C@@H]2O)cc(O)c2c(=O)cc(-c3ccccc3)oc12
REMARK SMILES IDX 5 1 6 2 8 3 12 4 7 5 14 6 16 7 9 8 10 9 11 10 13 11 15 13
REMARK SMILES IDX 17 15 4 17 3 18 18 19 33 20 19 21 21 22 32 23 22 24 25 25
REMARK SMILES IDX 24 26 23 27 2 28 1 29 20 30 26 32 27 33 31 34 28 35 30 36
REMARK SMILES IDX 29 37
REMARK H PARENT 13 12 15 14 17 16 20 31
REMARK Flexibility Score: inf
ROOT
ATOM      1  O   UNL     1       8.993   0.435  -6.023  1.00  0.00    -0.458 OA
ENDROOT
BRANCH   1   2
ATOM      2  C   UNL     1       7.771  -0.299  -5.888  1.00  0.00     0.339 C 
ATOM      3  C   UNL     1       7.775  -1.246  -8.074  1.00  0.00     0.199 C 
ATOM      4  C   UNL     1       6.587  -0.348  -8.518  1.00  0.00     0.180 C 
ATOM      5  O   UNL     1       7.790  -1.486  -6.671  1.00  0.00    -0.328 OA
ATOM      6  C   UNL     1       6.520   0.941  -7.696  1.00  0.00     0.181 C 
ATOM      7  C   UNL     1       6.558   0.594  -6.204  1.00  0.00     0.214 C 
BRANCH   3   8
ATOM      8  C   UNL     1       9.132  -0.826  -8.593  1.00  0.00     0.073 C 
ATOM      9  O   UNL     1      10.125  -1.605  -8.544  1.00  0.00    -0.547 OA
ATOM     10  O   UNL     1       9.292   0.441  -9.141  1.00  0.00    -0.547 OA
ENDBRANCH   3   8
BRANCH   4  11
ATOM     11  O   UNL     1       6.676  -0.034  -9.887  1.00  0.00    -0.387 OA
ATOM     12  H   UNL     1       7.626  -0.153 -10.149  1.00  0.00     0.211 HD
ENDBRANCH   4  11
BRANCH   6  13
ATOM     13  O   UNL     1       5.326   1.612  -7.999  1.00  0.00    -0.387 OA
ATOM     14  H   UNL     1       4.728   1.517  -7.210  1.00  0.00     0.211 HD
ENDBRANCH   6  13
BRANCH   7  15
ATOM     15  O   UNL     1       6.619   1.775  -5.447  1.00  0.00    -0.384 OA
ATOM     16  H   UNL     1       7.042   2.460  -6.024  1.00  0.00     0.211 HD
ENDBRANCH   7  15
ENDBRANCH   1   2
BRANCH   1  17
ATOM     17  C   UNL     1       9.189   1.765  -5.609  1.00  0.00     0.172 A 
ATOM     18  C   UNL     1       9.024   2.063  -4.250  1.00  0.00     0.205 A 
ATOM     19  C   UNL     1       9.522   2.784  -6.514  1.00  0.00     0.097 A 
ATOM     20  C   UNL     1       9.220   3.389  -3.794  1.00  0.00     0.188 A 
ATOM     21  C   UNL     1       9.707   4.100  -6.079  1.00  0.00     0.134 A 
ATOM     22  C   UNL     1       9.565   4.413  -4.712  1.00  0.00     0.111 A 
ATOM     23  O   UNL     1       9.099   3.677  -2.501  1.00  0.00    -0.452 OA
ATOM     24  C   UNL     1       9.764   5.716  -4.205  1.00  0.00     0.197 A 
ATOM     25  C   UNL     1       9.292   4.890  -1.992  1.00  0.00     0.138 A 
ATOM     26  C   UNL     1       9.629   5.952  -2.839  1.00  0.00     0.100 A 
ATOM     27  O   UNL     1      10.067   6.678  -4.962  1.00  0.00    -0.289 OA
BRANCH  18  28
ATOM     28  O   UNL     1       8.663   0.998  -3.403  1.00  0.00    -0.490 OA
ATOM     29  C   UNL     1       7.826   1.098  -2.249  1.00  0.00     0.278 C 
ENDBRANCH  18  28
BRANCH  21  30
ATOM     30  O   UNL     1      10.041   5.084  -7.010  1.00  0.00    -0.507 OA
ATOM     31  H   UNL     1      10.874   5.650  -6.912  1.00  0.00     0.293 HD
ENDBRANCH  21  30
BRANCH  25  32
ATOM     32  C   UNL     1       9.143   5.088  -0.534  1.00  0.00     0.017 A 
ATOM     33  C   UNL     1       9.885   6.088   0.112  1.00  0.00     0.012 A 
ATOM     34  C   UNL     1       8.236   4.321   0.217  1.00  0.00     0.012 A 
ATOM     35  C   UNL     1       9.738   6.303   1.487  1.00  0.00     0.001 A 
ATOM     36  C   UNL     1       8.083   4.547   1.589  1.00  0.00     0.001 A 
ATOM     37  C   UNL     1       8.840   5.536   2.225  1.00  0.00     0.000 A 
ENDBRANCH  25  32
ENDBRANCH   1  17
TORSDOF 9
ENDMDL
