MODEL 1
REMARK VINA RESULT:    -4.385      0.000      0.000
REMARK INTER + INTRA:          -7.927
REMARK INTER:                  -6.692
REMARK INTRA:                  -1.235
REMARK UNBOUND:                -1.235
REMARK SMILES CC(=O)CCC=C(C)CCC=C(C)CCC=C(C)C
REMARK SMILES IDX 10 1 11 2 12 3 13 4 14 5 15 6 16 7 18 8 17 9 19 10 9 11 7 12
REMARK SMILES IDX 6 13 8 14 5 15 4 16 2 17 3 18 1 19
REMARK H PARENT
REMARK Flexibility Score: inf
ROOT
ATOM      1  C   UNL     1     199.920 151.617 166.033  1.00  0.00     0.032 C 
ENDROOT
BRANCH   1   2
ATOM      2  C   UNL     1     198.905 150.812 165.259  1.00  0.00    -0.028 C 
ATOM      3  C   UNL     1     199.160 149.577 164.772  1.00  0.00    -0.077 C 
ATOM      4  C   UNL     1     200.505 148.917 164.967  1.00  0.00     0.039 C 
BRANCH   3   5
ATOM      5  C   UNL     1     198.077 148.845 164.010  1.00  0.00     0.034 C 
BRANCH   5   6
ATOM      6  C   UNL     1     198.444 148.719 162.527  1.00  0.00     0.032 C 
BRANCH   6   7
ATOM      7  C   UNL     1     197.403 149.371 161.649  1.00  0.00    -0.028 C 
ATOM      8  C   UNL     1     198.900 151.311 161.164  1.00  0.00     0.039 C 
ATOM      9  C   UNL     1     197.602 150.551 161.024  1.00  0.00    -0.080 C 
ATOM     10  C   UNL     1     196.496 151.111 160.167  1.00  0.00     0.039 C 
ENDBRANCH   6   7
ENDBRANCH   5   6
ENDBRANCH   3   5
ENDBRANCH   1   2
BRANCH   1  11
ATOM     11  C   UNL     1     199.729 153.121 165.804  1.00  0.00     0.034 C 
BRANCH  11  12
ATOM     12  C   UNL     1     200.919 153.705 165.068  1.00  0.00    -0.077 C 
ATOM     13  C   UNL     1     200.991 155.005 164.700  1.00  0.00    -0.028 C 
ATOM     14  C   UNL     1     202.044 152.786 164.670  1.00  0.00     0.039 C 
BRANCH  13  15
ATOM     15  C   UNL     1     199.962 156.058 165.038  1.00  0.00     0.035 C 
BRANCH  15  16
ATOM     16  C   UNL     1     200.599 157.445 165.191  1.00  0.00     0.079 C 
BRANCH  16  17
ATOM     17  C   UNL     1     200.767 158.126 163.858  1.00  0.00     0.130 C 
ATOM     18  O   UNL     1     199.795 158.617 163.303  1.00  0.00    -0.300 OA
ATOM     19  C   UNL     1     202.118 158.248 163.217  1.00  0.00     0.087 C 
ENDBRANCH  16  17
ENDBRANCH  15  16
ENDBRANCH  13  15
ENDBRANCH  11  12
ENDBRANCH   1  11
TORSDOF 9
ENDMDL
MODEL 2
REMARK VINA RESULT:    -4.354      3.857      7.913
REMARK INTER + INTRA:          -7.879
REMARK INTER:                  -6.460
REMARK INTRA:                  -1.420
REMARK UNBOUND:                -1.235
REMARK SMILES CC(=O)CCC=C(C)CCC=C(C)CCC=C(C)C
REMARK SMILES IDX 10 1 11 2 12 3 13 4 14 5 15 6 16 7 18 8 17 9 19 10 9 11 7 12
REMARK SMILES IDX 6 13 8 14 5 15 4 16 2 17 3 18 1 19
REMARK H PARENT
REMARK Flexibility Score: inf
ROOT
ATOM      1  C   UNL     1     199.523 151.468 162.602  1.00  0.00     0.032 C 
ENDROOT
BRANCH   1   2
ATOM      2  C   UNL     1     199.657 150.917 164.000  1.00  0.00    -0.028 C 
ATOM      3  C   UNL     1     199.915 151.692 165.077  1.00  0.00    -0.077 C 
ATOM      4  C   UNL     1     200.100 153.186 164.944  1.00  0.00     0.039 C 
BRANCH   3   5
ATOM      5  C   UNL     1     200.028 151.048 166.441  1.00  0.00     0.034 C 
BRANCH   5   6
ATOM      6  C   UNL     1     201.369 150.320 166.590  1.00  0.00     0.032 C 
BRANCH   6   7
ATOM      7  C   UNL     1     201.180 148.939 167.169  1.00  0.00    -0.028 C 
ATOM      8  C   UNL     1     202.176 149.621 169.355  1.00  0.00     0.039 C 
ATOM      9  C   UNL     1     201.545 148.611 168.426  1.00  0.00    -0.080 C 
ATOM     10  C   UNL     1     201.308 147.202 168.905  1.00  0.00     0.039 C 
ENDBRANCH   6   7
ENDBRANCH   5   6
ENDBRANCH   3   5
ENDBRANCH   1   2
BRANCH   1  11
ATOM     11  C   UNL     1     199.269 150.349 161.585  1.00  0.00     0.034 C 
BRANCH  11  12
ATOM     12  C   UNL     1     197.790 150.235 161.274  1.00  0.00    -0.077 C 
ATOM     13  C   UNL     1     196.967 149.374 161.916  1.00  0.00    -0.028 C 
ATOM     14  C   UNL     1     197.220 151.069 160.157  1.00  0.00     0.039 C 
BRANCH  13  15
ATOM     15  C   UNL     1     197.373 148.486 163.068  1.00  0.00     0.035 C 
BRANCH  15  16
ATOM     16  C   UNL     1     197.594 147.037 162.618  1.00  0.00     0.079 C 
BRANCH  16  17
ATOM     17  C   UNL     1     198.931 146.513 163.075  1.00  0.00     0.130 C 
ATOM     18  O   UNL     1     199.384 145.494 162.574  1.00  0.00    -0.300 OA
ATOM     19  C   UNL     1     199.735 147.245 164.107  1.00  0.00     0.087 C 
ENDBRANCH  16  17
ENDBRANCH  15  16
ENDBRANCH  13  15
ENDBRANCH  11  12
ENDBRANCH   1  11
TORSDOF 9
ENDMDL
MODEL 3
REMARK VINA RESULT:    -4.352      2.844      6.952
REMARK INTER + INTRA:          -7.876
REMARK INTER:                  -5.956
REMARK INTRA:                  -1.920
REMARK UNBOUND:                -1.235
REMARK SMILES CC(=O)CCC=C(C)CCC=C(C)CCC=C(C)C
REMARK SMILES IDX 10 1 11 2 12 3 13 4 14 5 15 6 16 7 18 8 17 9 19 10 9 11 7 12
REMARK SMILES IDX 6 13 8 14 5 15 4 16 2 17 3 18 1 19
REMARK H PARENT
REMARK Flexibility Score: inf
ROOT
ATOM      1  C   UNL     1     200.108 152.601 163.009  1.00  0.00     0.032 C 
ENDROOT
BRANCH   1   2
ATOM      2  C   UNL     1     201.217 153.451 163.578  1.00  0.00    -0.028 C 
ATOM      3  C   UNL     1     201.041 154.291 164.623  1.00  0.00    -0.077 C 
ATOM      4  C   UNL     1     199.694 154.442 165.290  1.00  0.00     0.039 C 
BRANCH   3   5
ATOM      5  C   UNL     1     202.215 155.101 165.126  1.00  0.00     0.034 C 
BRANCH   5   6
ATOM      6  C   UNL     1     201.838 156.580 165.264  1.00  0.00     0.032 C 
BRANCH   6   7
ATOM      7  C   UNL     1     201.481 157.180 163.925  1.00  0.00    -0.028 C 
ATOM      8  C   UNL     1     199.643 158.543 164.926  1.00  0.00     0.039 C 
ATOM      9  C   UNL     1     200.483 158.075 163.762  1.00  0.00    -0.080 C 
ATOM     10  C   UNL     1     200.213 158.613 162.381  1.00  0.00     0.039 C 
ENDBRANCH   6   7
ENDBRANCH   5   6
ENDBRANCH   3   5
ENDBRANCH   1   2
BRANCH   1  11
ATOM     11  C   UNL     1     200.398 151.108 163.199  1.00  0.00     0.034 C 
BRANCH  11  12
ATOM     12  C   UNL     1     199.227 150.417 163.871  1.00  0.00    -0.077 C 
ATOM     13  C   UNL     1     199.085 150.350 165.215  1.00  0.00    -0.028 C 
ATOM     14  C   UNL     1     198.209 149.718 163.009  1.00  0.00     0.039 C 
BRANCH  13  15
ATOM     15  C   UNL     1     200.002 151.013 166.216  1.00  0.00     0.035 C 
BRANCH  15  16
ATOM     16  C   UNL     1     201.011 150.020 166.806  1.00  0.00     0.079 C 
BRANCH  16  17
ATOM     17  C   UNL     1     202.285 149.983 166.003  1.00  0.00     0.130 C 
ATOM     18  O   UNL     1     202.594 148.961 165.408  1.00  0.00    -0.300 OA
ATOM     19  C   UNL     1     203.162 151.194 165.889  1.00  0.00     0.087 C 
ENDBRANCH  16  17
ENDBRANCH  15  16
ENDBRANCH  13  15
ENDBRANCH  11  12
ENDBRANCH   1  11
TORSDOF 9
ENDMDL
MODEL 4
REMARK VINA RESULT:    -4.274      2.262      3.617
REMARK INTER + INTRA:          -7.758
REMARK INTER:                  -5.624
REMARK INTRA:                  -2.134
REMARK UNBOUND:                -1.235
REMARK SMILES CC(=O)CCC=C(C)CCC=C(C)CCC=C(C)C
REMARK SMILES IDX 10 1 11 2 12 3 13 4 14 5 15 6 16 7 18 8 17 9 19 10 9 11 7 12
REMARK SMILES IDX 6 13 8 14 5 15 4 16 2 17 3 18 1 19
REMARK H PARENT
REMARK Flexibility Score: inf
ROOT
ATOM      1  C   UNL     1     201.841 148.533 163.462  1.00  0.00     0.032 C 
ENDROOT
BRANCH   1   2
ATOM      2  C   UNL     1     200.465 148.552 162.843  1.00  0.00    -0.028 C 
ATOM      3  C   UNL     1     199.507 147.648 163.148  1.00  0.00    -0.077 C 
ATOM      4  C   UNL     1     199.762 146.535 164.136  1.00  0.00     0.039 C 
BRANCH   3   5
ATOM      5  C   UNL     1     198.155 147.751 162.477  1.00  0.00     0.034 C 
BRANCH   5   6
ATOM      6  C   UNL     1     197.507 149.111 162.759  1.00  0.00     0.032 C 
BRANCH   6   7
ATOM      7  C   UNL     1     197.019 149.759 161.486  1.00  0.00    -0.028 C 
ATOM      8  C   UNL     1     198.944 151.350 161.453  1.00  0.00     0.039 C 
ATOM      9  C   UNL     1     197.666 150.779 160.884  1.00  0.00    -0.080 C 
ATOM     10  C   UNL     1     197.093 151.352 159.614  1.00  0.00     0.039 C 
ENDBRANCH   6   7
ENDBRANCH   5   6
ENDBRANCH   3   5
ENDBRANCH   1   2
BRANCH   1  11
ATOM     11  C   UNL     1     202.041 149.720 164.412  1.00  0.00     0.034 C 
BRANCH  11  12
ATOM     12  C   UNL     1     201.301 149.493 165.715  1.00  0.00    -0.077 C 
ATOM     13  C   UNL     1     200.238 150.237 166.097  1.00  0.00    -0.028 C 
ATOM     14  C   UNL     1     201.808 148.434 166.659  1.00  0.00     0.039 C 
BRANCH  13  15
ATOM     15  C   UNL     1     199.594 151.319 165.262  1.00  0.00     0.035 C 
BRANCH  15  16
ATOM     16  C   UNL     1     199.535 152.656 166.012  1.00  0.00     0.079 C 
BRANCH  16  17
ATOM     17  C   UNL     1     200.217 153.754 165.240  1.00  0.00     0.130 C 
ATOM     18  O   UNL     1     199.669 154.841 165.123  1.00  0.00    -0.300 OA
ATOM     19  C   UNL     1     201.578 153.551 164.645  1.00  0.00     0.087 C 
ENDBRANCH  16  17
ENDBRANCH  15  16
ENDBRANCH  13  15
ENDBRANCH  11  12
ENDBRANCH   1  11
TORSDOF 9
ENDMDL
MODEL 5
REMARK VINA RESULT:    -4.255     14.109     16.301
REMARK INTER + INTRA:          -7.728
REMARK INTER:                  -5.662
REMARK INTRA:                  -2.066
REMARK UNBOUND:                -1.235
REMARK SMILES CC(=O)CCC=C(C)CCC=C(C)CCC=C(C)C
REMARK SMILES IDX 10 1 11 2 12 3 13 4 14 5 15 6 16 7 18 8 17 9 19 10 9 11 7 12
REMARK SMILES IDX 6 13 8 14 5 15 4 16 2 17 3 18 1 19
REMARK H PARENT
REMARK Flexibility Score: inf
ROOT
ATOM      1  C   UNL     1     214.359 149.093 171.834  1.00  0.00     0.032 C 
ENDROOT
BRANCH   1   2
ATOM      2  C   UNL     1     215.223 147.874 171.628  1.00  0.00    -0.028 C 
ATOM      3  C   UNL     1     215.029 146.712 172.293  1.00  0.00    -0.077 C 
ATOM      4  C   UNL     1     213.922 146.564 173.310  1.00  0.00     0.039 C 
BRANCH   3   5
ATOM      5  C   UNL     1     215.947 145.541 172.017  1.00  0.00     0.034 C 
BRANCH   5   6
ATOM      6  C   UNL     1     215.870 145.123 170.544  1.00  0.00     0.032 C 
BRANCH   6   7
ATOM      7  C   UNL     1     214.495 144.610 170.192  1.00  0.00    -0.028 C 
ATOM      8  C   UNL     1     214.165 146.406 168.488  1.00  0.00     0.039 C 
ATOM      9  C   UNL     1     213.711 145.187 169.257  1.00  0.00    -0.080 C 
ATOM     10  C   UNL     1     212.355 144.591 168.981  1.00  0.00     0.039 C 
ENDBRANCH   6   7
ENDBRANCH   5   6
ENDBRANCH   3   5
ENDBRANCH   1   2
BRANCH   1  11
ATOM     11  C   UNL     1     213.834 149.635 170.499  1.00  0.00     0.034 C 
BRANCH  11  12
ATOM     12  C   UNL     1     212.332 149.458 170.404  1.00  0.00    -0.077 C 
ATOM     13  C   UNL     1     211.493 150.462 170.057  1.00  0.00    -0.028 C 
ATOM     14  C   UNL     1     211.735 148.126 170.775  1.00  0.00     0.039 C 
BRANCH  13  15
ATOM     15  C   UNL     1     211.928 151.847 169.637  1.00  0.00     0.035 C 
BRANCH  15  16
ATOM     16  C   UNL     1     211.122 152.936 170.354  1.00  0.00     0.079 C 
BRANCH  16  17
ATOM     17  C   UNL     1     211.978 153.717 171.316  1.00  0.00     0.130 C 
ATOM     18  O   UNL     1     211.518 154.703 171.873  1.00  0.00    -0.300 OA
ATOM     19  C   UNL     1     213.377 153.280 171.634  1.00  0.00     0.087 C 
ENDBRANCH  16  17
ENDBRANCH  15  16
ENDBRANCH  13  15
ENDBRANCH  11  12
ENDBRANCH   1  11
TORSDOF 9
ENDMDL
MODEL 6
REMARK VINA RESULT:    -4.233      2.615      7.262
REMARK INTER + INTRA:          -7.695
REMARK INTER:                  -6.283
REMARK INTRA:                  -1.412
REMARK UNBOUND:                -1.235
REMARK SMILES CC(=O)CCC=C(C)CCC=C(C)CCC=C(C)C
REMARK SMILES IDX 10 1 11 2 12 3 13 4 14 5 15 6 16 7 18 8 17 9 19 10 9 11 7 12
REMARK SMILES IDX 6 13 8 14 5 15 4 16 2 17 3 18 1 19
REMARK H PARENT
REMARK Flexibility Score: inf
ROOT
ATOM      1  C   UNL     1     200.169 152.403 163.315  1.00  0.00     0.032 C 
ENDROOT
BRANCH   1   2
ATOM      2  C   UNL     1     201.277 153.335 163.741  1.00  0.00    -0.028 C 
ATOM      3  C   UNL     1     201.099 154.330 164.640  1.00  0.00    -0.077 C 
ATOM      4  C   UNL     1     199.753 154.582 165.276  1.00  0.00     0.039 C 
BRANCH   3   5
ATOM      5  C   UNL     1     202.272 155.212 165.007  1.00  0.00     0.034 C 
BRANCH   5   6
ATOM      6  C   UNL     1     201.842 156.681 165.094  1.00  0.00     0.032 C 
BRANCH   6   7
ATOM      7  C   UNL     1     201.508 157.235 163.730  1.00  0.00    -0.028 C 
ATOM      8  C   UNL     1     199.572 158.530 164.632  1.00  0.00     0.039 C 
ATOM      9  C   UNL     1     200.477 158.078 163.510  1.00  0.00    -0.080 C 
ATOM     10  C   UNL     1     200.233 158.574 162.108  1.00  0.00     0.039 C 
ENDBRANCH   6   7
ENDBRANCH   5   6
ENDBRANCH   3   5
ENDBRANCH   1   2
BRANCH   1  11
ATOM     11  C   UNL     1     200.441 150.967 163.779  1.00  0.00     0.034 C 
BRANCH  11  12
ATOM     12  C   UNL     1     199.354 150.496 164.725  1.00  0.00    -0.077 C 
ATOM     13  C   UNL     1     198.439 149.559 164.386  1.00  0.00    -0.028 C 
ATOM     14  C   UNL     1     199.244 151.144 166.080  1.00  0.00     0.039 C 
BRANCH  13  15
ATOM     15  C   UNL     1     198.421 148.800 163.080  1.00  0.00     0.035 C 
BRANCH  15  16
ATOM     16  C   UNL     1     197.263 149.248 162.179  1.00  0.00     0.079 C 
BRANCH  16  17
ATOM     17  C   UNL     1     197.763 149.802 160.870  1.00  0.00     0.130 C 
ATOM     18  O   UNL     1     198.553 149.152 160.201  1.00  0.00    -0.300 OA
ATOM     19  C   UNL     1     197.275 151.123 160.354  1.00  0.00     0.087 C 
ENDBRANCH  16  17
ENDBRANCH  15  16
ENDBRANCH  13  15
ENDBRANCH  11  12
ENDBRANCH   1  11
TORSDOF 9
ENDMDL
MODEL 7
REMARK VINA RESULT:    -4.213     14.108     17.112
REMARK INTER + INTRA:          -7.664
REMARK INTER:                  -5.346
REMARK INTRA:                  -2.319
REMARK UNBOUND:                -1.235
REMARK SMILES CC(=O)CCC=C(C)CCC=C(C)CCC=C(C)C
REMARK SMILES IDX 10 1 11 2 12 3 13 4 14 5 15 6 16 7 18 8 17 9 19 10 9 11 7 12
REMARK SMILES IDX 6 13 8 14 5 15 4 16 2 17 3 18 1 19
REMARK H PARENT
REMARK Flexibility Score: inf
ROOT
ATOM      1  C   UNL     1     215.161 147.614 170.821  1.00  0.00     0.032 C 
ENDROOT
BRANCH   1   2
ATOM      2  C   UNL     1     213.964 148.285 170.193  1.00  0.00    -0.028 C 
ATOM      3  C   UNL     1     212.703 148.124 170.653  1.00  0.00    -0.077 C 
ATOM      4  C   UNL     1     212.406 147.237 171.839  1.00  0.00     0.039 C 
BRANCH   3   5
ATOM      5  C   UNL     1     211.566 148.841 169.959  1.00  0.00     0.034 C 
BRANCH   5   6
ATOM      6  C   UNL     1     212.071 150.099 169.243  1.00  0.00     0.032 C 
BRANCH   6   7
ATOM      7  C   UNL     1     211.434 151.344 169.810  1.00  0.00    -0.028 C 
ATOM      8  C   UNL     1     213.429 151.821 171.236  1.00  0.00     0.039 C 
ATOM      9  C   UNL     1     212.045 152.135 170.718  1.00  0.00    -0.080 C 
ATOM     10  C   UNL     1     211.320 153.358 171.218  1.00  0.00     0.039 C 
ENDBRANCH   6   7
ENDBRANCH   5   6
ENDBRANCH   3   5
ENDBRANCH   1   2
BRANCH   1  11
ATOM     11  C   UNL     1     215.544 146.338 170.062  1.00  0.00     0.034 C 
BRANCH  11  12
ATOM     12  C   UNL     1     215.336 145.115 170.933  1.00  0.00    -0.077 C 
ATOM     13  C   UNL     1     214.690 144.007 170.504  1.00  0.00    -0.028 C 
ATOM     14  C   UNL     1     215.810 145.157 172.362  1.00  0.00     0.039 C 
BRANCH  13  15
ATOM     15  C   UNL     1     214.173 143.796 169.100  1.00  0.00     0.035 C 
BRANCH  15  16
ATOM     16  C   UNL     1     212.645 143.666 169.071  1.00  0.00     0.079 C 
BRANCH  16  17
ATOM     17  C   UNL     1     211.985 144.971 168.711  1.00  0.00     0.130 C 
ATOM     18  O   UNL     1     210.958 145.308 169.282  1.00  0.00    -0.300 OA
ATOM     19  C   UNL     1     212.592 145.887 167.690  1.00  0.00     0.087 C 
ENDBRANCH  16  17
ENDBRANCH  15  16
ENDBRANCH  13  15
ENDBRANCH  11  12
ENDBRANCH   1  11
TORSDOF 9
ENDMDL
MODEL 8
REMARK VINA RESULT:    -4.204      3.003      6.510
REMARK INTER + INTRA:          -7.650
REMARK INTER:                  -5.061
REMARK INTRA:                  -2.590
REMARK UNBOUND:                -1.235
REMARK SMILES CC(=O)CCC=C(C)CCC=C(C)CCC=C(C)C
REMARK SMILES IDX 10 1 11 2 12 3 13 4 14 5 15 6 16 7 18 8 17 9 19 10 9 11 7 12
REMARK SMILES IDX 6 13 8 14 5 15 4 16 2 17 3 18 1 19
REMARK H PARENT
REMARK Flexibility Score: inf
ROOT
ATOM      1  C   UNL     1     196.995 148.827 162.270  1.00  0.00     0.032 C 
ENDROOT
BRANCH   1   2
ATOM      2  C   UNL     1     197.782 150.029 161.807  1.00  0.00    -0.028 C 
ATOM      3  C   UNL     1     198.750 149.959 160.866  1.00  0.00    -0.077 C 
ATOM      4  C   UNL     1     199.119 148.647 160.214  1.00  0.00     0.039 C 
BRANCH   3   5
ATOM      5  C   UNL     1     199.483 151.220 160.464  1.00  0.00     0.034 C 
BRANCH   5   6
ATOM      6  C   UNL     1     199.667 152.151 161.669  1.00  0.00     0.032 C 
BRANCH   6   7
ATOM      7  C   UNL     1     200.966 151.869 162.384  1.00  0.00    -0.028 C 
ATOM      8  C   UNL     1     200.586 153.738 163.996  1.00  0.00     0.039 C 
ATOM      9  C   UNL     1     201.393 152.586 163.445  1.00  0.00    -0.080 C 
ATOM     10  C   UNL     1     202.706 152.218 164.087  1.00  0.00     0.039 C 
ENDBRANCH   6   7
ENDBRANCH   5   6
ENDBRANCH   3   5
ENDBRANCH   1   2
BRANCH   1  11
ATOM     11  C   UNL     1     197.422 148.391 163.677  1.00  0.00     0.034 C 
BRANCH  11  12
ATOM     12  C   UNL     1     198.373 147.213 163.605  1.00  0.00    -0.077 C 
ATOM     13  C   UNL     1     199.717 147.346 163.684  1.00  0.00    -0.028 C 
ATOM     14  C   UNL     1     197.804 145.838 163.372  1.00  0.00     0.039 C 
BRANCH  13  15
ATOM     15  C   UNL     1     200.445 148.645 163.937  1.00  0.00     0.035 C 
BRANCH  15  16
ATOM     16  C   UNL     1     200.952 148.740 165.381  1.00  0.00     0.079 C 
BRANCH  16  17
ATOM     17  C   UNL     1     200.414 149.962 166.078  1.00  0.00     0.130 C 
ATOM     18  O   UNL     1     201.001 150.410 167.052  1.00  0.00    -0.300 OA
ATOM     19  C   UNL     1     199.190 150.664 165.571  1.00  0.00     0.087 C 
ENDBRANCH  16  17
ENDBRANCH  15  16
ENDBRANCH  13  15
ENDBRANCH  11  12
ENDBRANCH   1  11
TORSDOF 9
ENDMDL
MODEL 9
REMARK VINA RESULT:    -4.174     12.923     15.679
REMARK INTER + INTRA:          -7.605
REMARK INTER:                  -5.214
REMARK INTRA:                  -2.391
REMARK UNBOUND:                -1.235
REMARK SMILES CC(=O)CCC=C(C)CCC=C(C)CCC=C(C)C
REMARK SMILES IDX 10 1 11 2 12 3 13 4 14 5 15 6 16 7 18 8 17 9 19 10 9 11 7 12
REMARK SMILES IDX 6 13 8 14 5 15 4 16 2 17 3 18 1 19
REMARK H PARENT
REMARK Flexibility Score: inf
ROOT
ATOM      1  C   UNL     1     213.184 161.300 161.877  1.00  0.00     0.032 C 
ENDROOT
BRANCH   1   2
ATOM      2  C   UNL     1     212.370 160.112 162.328  1.00  0.00    -0.028 C 
ATOM      3  C   UNL     1     211.188 159.772 161.766  1.00  0.00    -0.077 C 
ATOM      4  C   UNL     1     210.593 160.580 160.637  1.00  0.00     0.039 C 
BRANCH   3   5
ATOM      5  C   UNL     1     210.445 158.560 162.285  1.00  0.00     0.034 C 
BRANCH   5   6
ATOM      6  C   UNL     1     211.173 157.946 163.485  1.00  0.00     0.032 C 
BRANCH   6   7
ATOM      7  C   UNL     1     210.450 158.247 164.776  1.00  0.00    -0.028 C 
ATOM      8  C   UNL     1     212.533 157.934 166.118  1.00  0.00     0.039 C 
ATOM      9  C   UNL     1     211.061 158.244 165.980  1.00  0.00    -0.080 C 
ATOM     10  C   UNL     1     210.245 158.560 167.207  1.00  0.00     0.039 C 
ENDBRANCH   6   7
ENDBRANCH   5   6
ENDBRANCH   3   5
ENDBRANCH   1   2
BRANCH   1  11
ATOM     11  C   UNL     1     214.429 160.858 161.099  1.00  0.00     0.034 C 
BRANCH  11  12
ATOM     12  C   UNL     1     214.139 160.801 159.613  1.00  0.00    -0.077 C 
ATOM     13  C   UNL     1     214.292 159.677 158.875  1.00  0.00    -0.028 C 
ATOM     14  C   UNL     1     213.725 162.067 158.909  1.00  0.00     0.039 C 
BRANCH  13  15
ATOM     15  C   UNL     1     214.679 158.326 159.428  1.00  0.00     0.035 C 
BRANCH  15  16
ATOM     16  C   UNL     1     213.455 157.542 159.919  1.00  0.00     0.079 C 
BRANCH  16  17
ATOM     17  C   UNL     1     213.780 156.716 161.136  1.00  0.00     0.130 C 
ATOM     18  O   UNL     1     213.381 155.562 161.207  1.00  0.00    -0.300 OA
ATOM     19  C   UNL     1     214.622 157.271 162.246  1.00  0.00     0.087 C 
ENDBRANCH  16  17
ENDBRANCH  15  16
ENDBRANCH  13  15
ENDBRANCH  11  12
ENDBRANCH   1  11
TORSDOF 9
ENDMDL
