MODEL 1
REMARK VINA RESULT:    -0.079      0.000      0.000
REMARK INTER + INTRA:          -0.272
REMARK INTER:                  -0.102
REMARK INTRA:                  -0.169
REMARK UNBOUND:                -0.169
REMARK SMILES CCCCCCC(=O)[O-]
REMARK SMILES IDX 5 1 6 2 7 3 8 4 9 5 4 6 3 7 2 8 1 9
REMARK H PARENT
REMARK Flexibility Score: inf
ROOT
ATOM      1  C   UNL     1      23.483  32.391  -7.060  1.00  0.00     0.006 C 
ENDROOT
BRANCH   1   2
ATOM      2  C   UNL     1      24.576  32.233  -8.125  1.00  0.00     0.053 C 
BRANCH   2   3
ATOM      3  C   UNL     1      25.810  31.639  -7.521  1.00  0.00     0.041 C 
ATOM      4  O   UNL     1      25.716  30.799  -6.588  1.00  0.00    -0.550 OA
ATOM      5  O   UNL     1      27.063  32.049  -7.956  1.00  0.00    -0.550 OA
ENDBRANCH   2   3
ENDBRANCH   1   2
BRANCH   1   6
ATOM      6  C   UNL     1      22.073  32.147  -7.621  1.00  0.00     0.000 C 
BRANCH   6   7
ATOM      7  C   UNL     1      21.878  30.705  -8.125  1.00  0.00    -0.000 C 
BRANCH   7   8
ATOM      8  C   UNL     1      22.448  29.661  -7.153  1.00  0.00    -0.003 C 
ATOM      9  C   UNL     1      22.041  28.233  -7.517  1.00  0.00     0.004 C 
ENDBRANCH   7   8
ENDBRANCH   6   7
ENDBRANCH   1   6
TORSDOF 5
ENDMDL
MODEL 2
REMARK VINA RESULT:     0.930      3.181      5.321
REMARK INTER + INTRA:           1.032
REMARK INTER:                   1.179
REMARK INTRA:                  -0.147
REMARK UNBOUND:                -0.169
REMARK SMILES CCCCCCC(=O)[O-]
REMARK SMILES IDX 5 1 6 2 7 3 8 4 9 5 4 6 3 7 2 8 1 9
REMARK H PARENT
REMARK Flexibility Score: inf
ROOT
ATOM      1  C   UNL     1      23.901  33.886  -8.116  1.00  0.00     0.006 C 
ENDROOT
BRANCH   1   2
ATOM      2  C   UNL     1      25.056  32.875  -8.121  1.00  0.00     0.053 C 
BRANCH   2   3
ATOM      3  C   UNL     1      24.669  31.639  -7.370  1.00  0.00     0.041 C 
ATOM      4  O   UNL     1      25.545  30.963  -6.770  1.00  0.00    -0.550 OA
ATOM      5  O   UNL     1      23.349  31.209  -7.373  1.00  0.00    -0.550 OA
ENDBRANCH   2   3
ENDBRANCH   1   2
BRANCH   1   6
ATOM      6  C   UNL     1      24.391  35.342  -8.125  1.00  0.00     0.000 C 
BRANCH   6   7
ATOM      7  C   UNL     1      25.874  35.470  -7.732  1.00  0.00    -0.000 C 
BRANCH   7   8
ATOM      8  C   UNL     1      26.470  36.832  -8.119  1.00  0.00    -0.003 C 
ATOM      9  C   UNL     1      27.925  36.985  -7.678  1.00  0.00     0.004 C 
ENDBRANCH   7   8
ENDBRANCH   6   7
ENDBRANCH   1   6
TORSDOF 5
ENDMDL
MODEL 3
REMARK VINA RESULT:     0.942     15.970     16.999
REMARK INTER + INTRA:           1.048
REMARK INTER:                   1.065
REMARK INTRA:                  -0.017
REMARK UNBOUND:                -0.169
REMARK SMILES CCCCCCC(=O)[O-]
REMARK SMILES IDX 5 1 6 2 7 3 8 4 9 5 4 6 3 7 2 8 1 9
REMARK H PARENT
REMARK Flexibility Score: inf
ROOT
ATOM      1  C   UNL     1      25.546  43.329   3.790  1.00  0.00     0.006 C 
ENDROOT
BRANCH   1   2
ATOM      2  C   UNL     1      26.548  43.701   4.892  1.00  0.00     0.053 C 
BRANCH   2   3
ATOM      3  C   UNL     1      27.540  44.697   4.378  1.00  0.00     0.041 C 
ATOM      4  O   UNL     1      28.398  44.352   3.524  1.00  0.00    -0.550 OA
ATOM      5  O   UNL     1      27.548  45.992   4.879  1.00  0.00    -0.550 OA
ENDBRANCH   2   3
ENDBRANCH   1   2
BRANCH   1   6
ATOM      6  C   UNL     1      24.631  42.162   4.195  1.00  0.00     0.000 C 
BRANCH   6   7
ATOM      7  C   UNL     1      23.155  42.582   4.316  1.00  0.00    -0.000 C 
BRANCH   7   8
ATOM      8  C   UNL     1      22.433  42.592   2.959  1.00  0.00    -0.003 C 
ATOM      9  C   UNL     1      23.165  41.773   1.896  1.00  0.00     0.004 C 
ENDBRANCH   7   8
ENDBRANCH   6   7
ENDBRANCH   1   6
TORSDOF 5
ENDMDL
MODEL 4
REMARK VINA RESULT:     1.487     17.070     18.084
REMARK INTER + INTRA:           1.752
REMARK INTER:                   1.840
REMARK INTRA:                  -0.089
REMARK UNBOUND:                -0.169
REMARK SMILES CCCCCCC(=O)[O-]
REMARK SMILES IDX 5 1 6 2 7 3 8 4 9 5 4 6 3 7 2 8 1 9
REMARK H PARENT
REMARK Flexibility Score: inf
ROOT
ATOM      1  C   UNL     1      26.610  43.876   4.794  1.00  0.00     0.006 C 
ENDROOT
BRANCH   1   2
ATOM      2  C   UNL     1      27.491  45.107   4.542  1.00  0.00     0.053 C 
BRANCH   2   3
ATOM      3  C   UNL     1      27.239  46.150   5.587  1.00  0.00     0.041 C 
ATOM      4  O   UNL     1      27.792  47.278   5.501  1.00  0.00    -0.550 OA
ATOM      5  O   UNL     1      26.432  45.859   6.679  1.00  0.00    -0.550 OA
ENDBRANCH   2   3
ENDBRANCH   1   2
BRANCH   1   6
ATOM      6  C   UNL     1      25.853  43.425   3.535  1.00  0.00     0.000 C 
BRANCH   6   7
ATOM      7  C   UNL     1      24.648  42.524   3.861  1.00  0.00    -0.000 C 
BRANCH   7   8
ATOM      8  C   UNL     1      23.881  42.091   2.602  1.00  0.00    -0.003 C 
ATOM      9  C   UNL     1      22.399  42.461   2.659  1.00  0.00     0.004 C 
ENDBRANCH   7   8
ENDBRANCH   6   7
ENDBRANCH   1   6
TORSDOF 5
ENDMDL
MODEL 5
REMARK VINA RESULT:     1.586     16.615     17.992
REMARK INTER + INTRA:           1.881
REMARK INTER:                   2.027
REMARK INTRA:                  -0.146
REMARK UNBOUND:                -0.169
REMARK SMILES CCCCCCC(=O)[O-]
REMARK SMILES IDX 5 1 6 2 7 3 8 4 9 5 4 6 3 7 2 8 1 9
REMARK H PARENT
REMARK Flexibility Score: inf
ROOT
ATOM      1  C   UNL     1      25.723  43.300   4.251  1.00  0.00     0.006 C 
ENDROOT
BRANCH   1   2
ATOM      2  C   UNL     1      25.093  42.906   2.909  1.00  0.00     0.053 C 
BRANCH   2   3
ATOM      3  C   UNL     1      23.723  42.341   3.122  1.00  0.00     0.041 C 
ATOM      4  O   UNL     1      23.051  41.923   2.144  1.00  0.00    -0.550 OA
ATOM      5  O   UNL     1      23.171  42.322   4.397  1.00  0.00    -0.550 OA
ENDBRANCH   2   3
ENDBRANCH   1   2
BRANCH   1   6
ATOM      6  C   UNL     1      27.092  43.980   4.083  1.00  0.00     0.000 C 
BRANCH   6   7
ATOM      7  C   UNL     1      27.236  45.242   4.952  1.00  0.00    -0.000 C 
BRANCH   7   8
ATOM      8  C   UNL     1      26.548  45.098   6.318  1.00  0.00    -0.003 C 
ATOM      9  C   UNL     1      26.460  46.422   7.077  1.00  0.00     0.004 C 
ENDBRANCH   7   8
ENDBRANCH   6   7
ENDBRANCH   1   6
TORSDOF 5
ENDMDL
MODEL 6
REMARK VINA RESULT:     2.342     25.759     27.195
REMARK INTER + INTRA:           2.857
REMARK INTER:                   3.030
REMARK INTRA:                  -0.173
REMARK UNBOUND:                -0.169
REMARK SMILES CCCCCCC(=O)[O-]
REMARK SMILES IDX 5 1 6 2 7 3 8 4 9 5 4 6 3 7 2 8 1 9
REMARK H PARENT
REMARK Flexibility Score: inf
ROOT
ATOM      1  C   UNL     1      41.128  40.658   8.920  1.00  0.00     0.006 C 
ENDROOT
BRANCH   1   2
ATOM      2  C   UNL     1      42.125  40.143   9.967  1.00  0.00     0.053 C 
BRANCH   2   3
ATOM      3  C   UNL     1      41.856  38.704  10.278  1.00  0.00     0.041 C 
ATOM      4  O   UNL     1      41.426  38.371  11.414  1.00  0.00    -0.550 OA
ATOM      5  O   UNL     1      42.125  37.725   9.329  1.00  0.00    -0.550 OA
ENDBRANCH   2   3
ENDBRANCH   1   2
BRANCH   1   6
ATOM      6  C   UNL     1      41.254  42.171   8.681  1.00  0.00     0.000 C 
BRANCH   6   7
ATOM      7  C   UNL     1      42.084  42.876   9.769  1.00  0.00    -0.000 C 
BRANCH   7   8
ATOM      8  C   UNL     1      41.211  43.675  10.749  1.00  0.00    -0.003 C 
ATOM      9  C   UNL     1      42.014  44.262  11.910  1.00  0.00     0.004 C 
ENDBRANCH   7   8
ENDBRANCH   6   7
ENDBRANCH   1   6
TORSDOF 5
ENDMDL
