MODEL 1
REMARK VINA RESULT:    -5.136      0.000      0.000
REMARK INTER + INTRA:          -5.286
REMARK INTER:                  -5.286
REMARK INTRA:                   0.000
REMARK UNBOUND:                 0.000
REMARK SMILES Oc1ccc2[nH]ccc2c1
REMARK SMILES IDX 3 1 4 2 5 3 9 4 8 5 7 6 6 7 10 8 2 9 1 11
REMARK H PARENT 6 10 1 12
REMARK Flexibility Score: inf
ROOT
ATOM      1  C   UNL     1      23.580  -1.496  -5.704  1.00  0.00     0.048 A 
ATOM      2  C   UNL     1      22.518  -2.146  -5.047  1.00  0.00     0.030 A 
ATOM      3  C   UNL     1      21.570  -1.353  -4.402  1.00  0.00     0.046 A 
ATOM      4  C   UNL     1      21.656   0.013  -4.400  1.00  0.00     0.003 A 
ATOM      5  C   UNL     1      20.580   0.492  -3.686  1.00  0.00     0.028 A 
ATOM      6  C   UNL     1      19.879  -0.640  -3.283  1.00  0.00     0.083 A 
ATOM      7  N   UNL     1      20.487  -1.765  -3.722  1.00  0.00    -0.361 N 
ATOM      8  C   UNL     1      22.695   0.687  -5.040  1.00  0.00     0.056 A 
ATOM      9  C   UNL     1      23.670  -0.083  -5.701  1.00  0.00     0.116 A 
ATOM     10  H   UNL     1      20.176  -2.749  -3.564  1.00  0.00     0.166 HD
ENDROOT
BRANCH   9  11
ATOM     11  O   UNL     1      24.722   0.558  -6.352  1.00  0.00    -0.508 OA
ATOM     12  H   UNL     1      25.628   0.117  -6.455  1.00  0.00     0.293 HD
ENDBRANCH   9  11
TORSDOF 1
ENDMDL
MODEL 2
REMARK VINA RESULT:    -5.075      3.381      5.010
REMARK INTER + INTRA:          -5.224
REMARK INTER:                  -5.224
REMARK INTRA:                   0.000
REMARK UNBOUND:                 0.000
REMARK SMILES Oc1ccc2[nH]ccc2c1
REMARK SMILES IDX 3 1 4 2 5 3 9 4 8 5 7 6 6 7 10 8 2 9 1 11
REMARK H PARENT 6 10 1 12
REMARK Flexibility Score: inf
ROOT
ATOM      1  C   UNL     1      23.767  -0.765  -4.554  1.00  0.00     0.048 A 
ATOM      2  C   UNL     1      25.114  -0.842  -4.152  1.00  0.00     0.030 A 
ATOM      3  C   UNL     1      26.086  -0.915  -5.148  1.00  0.00     0.046 A 
ATOM      4  C   UNL     1      25.757  -0.912  -6.477  1.00  0.00     0.003 A 
ATOM      5  C   UNL     1      26.932  -0.994  -7.192  1.00  0.00     0.028 A 
ATOM      6  C   UNL     1      27.939  -1.042  -6.233  1.00  0.00     0.083 A 
ATOM      7  N   UNL     1      27.418  -0.994  -4.986  1.00  0.00    -0.361 N 
ATOM      8  C   UNL     1      24.435  -0.838  -6.909  1.00  0.00     0.056 A 
ATOM      9  C   UNL     1      23.426  -0.763  -5.929  1.00  0.00     0.116 A 
ATOM     10  H   UNL     1      27.945  -1.014  -4.085  1.00  0.00     0.166 HD
ENDROOT
BRANCH   9  11
ATOM     11  O   UNL     1      22.093  -0.687  -6.325  1.00  0.00    -0.508 OA
ATOM     12  H   UNL     1      21.337  -0.881  -5.679  1.00  0.00     0.293 HD
ENDBRANCH   9  11
TORSDOF 1
ENDMDL
MODEL 3
REMARK VINA RESULT:    -5.024      2.441      3.147
REMARK INTER + INTRA:          -5.171
REMARK INTER:                  -5.171
REMARK INTRA:                   0.000
REMARK UNBOUND:                 0.000
REMARK SMILES Oc1ccc2[nH]ccc2c1
REMARK SMILES IDX 3 1 4 2 5 3 9 4 8 5 7 6 6 7 10 8 2 9 1 11
REMARK H PARENT 6 10 1 12
REMARK Flexibility Score: inf
ROOT
ATOM      1  C   UNL     1      26.294  -0.793  -6.622  1.00  0.00     0.048 A 
ATOM      2  C   UNL     1      24.960  -0.844  -7.066  1.00  0.00     0.030 A 
ATOM      3  C   UNL     1      23.954  -0.856  -6.101  1.00  0.00     0.046 A 
ATOM      4  C   UNL     1      24.240  -0.819  -4.762  1.00  0.00     0.003 A 
ATOM      5  C   UNL     1      23.041  -0.843  -4.084  1.00  0.00     0.028 A 
ATOM      6  C   UNL     1      22.064  -0.893  -5.075  1.00  0.00     0.083 A 
ATOM      7  N   UNL     1      22.627  -0.902  -6.305  1.00  0.00    -0.361 N 
ATOM      8  C   UNL     1      25.549  -0.769  -4.290  1.00  0.00     0.056 A 
ATOM      9  C   UNL     1      26.591  -0.756  -5.238  1.00  0.00     0.116 A 
ATOM     10  H   UNL     1      22.128  -0.935  -7.222  1.00  0.00     0.166 HD
ENDROOT
BRANCH   9  11
ATOM     11  O   UNL     1      27.912  -0.705  -4.800  1.00  0.00    -0.508 OA
ATOM     12  H   UNL     1      28.381  -1.526  -4.436  1.00  0.00     0.293 HD
ENDBRANCH   9  11
TORSDOF 1
ENDMDL
MODEL 4
REMARK VINA RESULT:    -5.003      4.427      5.909
REMARK INTER + INTRA:          -5.150
REMARK INTER:                  -5.150
REMARK INTRA:                   0.000
REMARK UNBOUND:                 0.000
REMARK SMILES Oc1ccc2[nH]ccc2c1
REMARK SMILES IDX 3 1 4 2 5 3 9 4 8 5 7 6 6 7 10 8 2 9 1 11
REMARK H PARENT 6 10 1 12
REMARK Flexibility Score: inf
ROOT
ATOM      1  C   UNL     1      25.628   0.962  -4.864  1.00  0.00     0.048 A 
ATOM      2  C   UNL     1      26.209   1.593  -5.980  1.00  0.00     0.030 A 
ATOM      3  C   UNL     1      26.497   0.807  -7.094  1.00  0.00     0.046 A 
ATOM      4  C   UNL     1      26.227  -0.535  -7.118  1.00  0.00     0.003 A 
ATOM      5  C   UNL     1      26.625  -1.014  -8.347  1.00  0.00     0.028 A 
ATOM      6  C   UNL     1      27.127   0.094  -9.023  1.00  0.00     0.083 A 
ATOM      7  N   UNL     1      27.048   1.204  -8.254  1.00  0.00    -0.361 N 
ATOM      8  C   UNL     1      25.653  -1.190  -6.030  1.00  0.00     0.056 A 
ATOM      9  C   UNL     1      25.349  -0.426  -4.887  1.00  0.00     0.116 A 
ATOM     10  H   UNL     1      27.351   2.169  -8.512  1.00  0.00     0.166 HD
ENDROOT
BRANCH   9  11
ATOM     11  O   UNL     1      24.773  -1.049  -3.782  1.00  0.00    -0.508 OA
ATOM     12  H   UNL     1      24.892  -2.040  -3.612  1.00  0.00     0.293 HD
ENDBRANCH   9  11
TORSDOF 1
ENDMDL
MODEL 5
REMARK VINA RESULT:    -4.996     12.969     14.437
REMARK INTER + INTRA:          -5.142
REMARK INTER:                  -5.142
REMARK INTRA:                   0.000
REMARK UNBOUND:                 0.000
REMARK SMILES Oc1ccc2[nH]ccc2c1
REMARK SMILES IDX 3 1 4 2 5 3 9 4 8 5 7 6 6 7 10 8 2 9 1 11
REMARK H PARENT 6 10 1 12
REMARK Flexibility Score: inf
ROOT
ATOM      1  C   UNL     1      34.569   0.768  -6.236  1.00  0.00     0.048 A 
ATOM      2  C   UNL     1      35.937   0.794  -6.567  1.00  0.00     0.030 A 
ATOM      3  C   UNL     1      36.852   0.971  -5.531  1.00  0.00     0.046 A 
ATOM      4  C   UNL     1      36.449   1.114  -4.230  1.00  0.00     0.003 A 
ATOM      5  C   UNL     1      37.582   1.268  -3.462  1.00  0.00     0.028 A 
ATOM      6  C   UNL     1      38.642   1.207  -4.362  1.00  0.00     0.083 A 
ATOM      7  N   UNL     1      38.191   1.025  -5.624  1.00  0.00    -0.361 N 
ATOM      8  C   UNL     1      35.103   1.094  -3.869  1.00  0.00     0.056 A 
ATOM      9  C   UNL     1      34.151   0.917  -4.891  1.00  0.00     0.116 A 
ATOM     10  H   UNL     1      38.769   0.944  -6.490  1.00  0.00     0.166 HD
ENDROOT
BRANCH   9  11
ATOM     11  O   UNL     1      32.797   0.891  -4.566  1.00  0.00    -0.508 OA
ATOM     12  H   UNL     1      32.207   1.705  -4.689  1.00  0.00     0.293 HD
ENDBRANCH   9  11
TORSDOF 1
ENDMDL
MODEL 6
REMARK VINA RESULT:    -4.981     12.270     13.794
REMARK INTER + INTRA:          -5.127
REMARK INTER:                  -5.127
REMARK INTRA:                   0.000
REMARK UNBOUND:                 0.000
REMARK SMILES Oc1ccc2[nH]ccc2c1
REMARK SMILES IDX 3 1 4 2 5 3 9 4 8 5 7 6 6 7 10 8 2 9 1 11
REMARK H PARENT 6 10 1 12
REMARK Flexibility Score: inf
ROOT
ATOM      1  C   UNL     1      33.462   0.958  -5.273  1.00  0.00     0.048 A 
ATOM      2  C   UNL     1      34.317   0.941  -4.155  1.00  0.00     0.030 A 
ATOM      3  C   UNL     1      35.690   0.869  -4.388  1.00  0.00     0.046 A 
ATOM      4  C   UNL     1      36.202   0.815  -5.657  1.00  0.00     0.003 A 
ATOM      5  C   UNL     1      37.574   0.750  -5.544  1.00  0.00     0.028 A 
ATOM      6  C   UNL     1      37.827   0.770  -4.176  1.00  0.00     0.083 A 
ATOM      7  N   UNL     1      36.673   0.842  -3.474  1.00  0.00    -0.361 N 
ATOM      8  C   UNL     1      35.383   0.828  -6.784  1.00  0.00     0.056 A 
ATOM      9  C   UNL     1      33.991   0.901  -6.585  1.00  0.00     0.116 A 
ATOM     10  H   UNL     1      36.572   0.872  -2.435  1.00  0.00     0.166 HD
ENDROOT
BRANCH   9  11
ATOM     11  O   UNL     1      33.143   0.917  -7.690  1.00  0.00    -0.508 OA
ATOM     12  H   UNL     1      32.175   0.627  -7.618  1.00  0.00     0.293 HD
ENDBRANCH   9  11
TORSDOF 1
ENDMDL
MODEL 7
REMARK VINA RESULT:    -4.980     11.879     12.540
REMARK INTER + INTRA:          -5.125
REMARK INTER:                  -5.125
REMARK INTRA:                   0.000
REMARK UNBOUND:                 0.000
REMARK SMILES Oc1ccc2[nH]ccc2c1
REMARK SMILES IDX 3 1 4 2 5 3 9 4 8 5 7 6 6 7 10 8 2 9 1 11
REMARK H PARENT 6 10 1 12
REMARK Flexibility Score: inf
ROOT
ATOM      1  C   UNL     1      34.985   0.404  -5.905  1.00  0.00     0.048 A 
ATOM      2  C   UNL     1      34.837   0.738  -7.264  1.00  0.00     0.030 A 
ATOM      3  C   UNL     1      34.074  -0.113  -8.062  1.00  0.00     0.046 A 
ATOM      4  C   UNL     1      33.484  -1.239  -7.555  1.00  0.00     0.003 A 
ATOM      5  C   UNL     1      32.812  -1.854  -8.589  1.00  0.00     0.028 A 
ATOM      6  C   UNL     1      33.036  -1.045  -9.699  1.00  0.00     0.083 A 
ATOM      7  N   UNL     1      33.808   0.017  -9.373  1.00  0.00    -0.361 N 
ATOM      8  C   UNL     1      33.612  -1.598  -6.215  1.00  0.00     0.056 A 
ATOM      9  C   UNL     1      34.375  -0.761  -5.379  1.00  0.00     0.116 A 
ATOM     10  H   UNL     1      34.127   0.779 -10.011  1.00  0.00     0.166 HD
ENDROOT
BRANCH   9  11
ATOM     11  O   UNL     1      34.523  -1.089  -4.034  1.00  0.00    -0.508 OA
ATOM     12  H   UNL     1      34.707  -0.381  -3.333  1.00  0.00     0.293 HD
ENDBRANCH   9  11
TORSDOF 1
ENDMDL
MODEL 8
REMARK VINA RESULT:    -4.925      2.513      3.539
REMARK INTER + INTRA:          -5.069
REMARK INTER:                  -5.069
REMARK INTRA:                   0.000
REMARK UNBOUND:                 0.000
REMARK SMILES Oc1ccc2[nH]ccc2c1
REMARK SMILES IDX 3 1 4 2 5 3 9 4 8 5 7 6 6 7 10 8 2 9 1 11
REMARK H PARENT 6 10 1 12
REMARK Flexibility Score: inf
ROOT
ATOM      1  C   UNL     1      27.087  -0.025  -5.621  1.00  0.00     0.048 A 
ATOM      2  C   UNL     1      26.347  -0.374  -4.476  1.00  0.00     0.030 A 
ATOM      3  C   UNL     1      25.026  -0.780  -4.655  1.00  0.00     0.046 A 
ATOM      4  C   UNL     1      24.454  -0.843  -5.898  1.00  0.00     0.003 A 
ATOM      5  C   UNL     1      23.156  -1.274  -5.732  1.00  0.00     0.028 A 
ATOM      6  C   UNL     1      23.006  -1.457  -4.361  1.00  0.00     0.083 A 
ATOM      7  N   UNL     1      24.150  -1.153  -3.707  1.00  0.00    -0.361 N 
ATOM      8  C   UNL     1      25.158  -0.504  -7.051  1.00  0.00     0.056 A 
ATOM      9  C   UNL     1      26.496  -0.089  -6.906  1.00  0.00     0.116 A 
ATOM     10  H   UNL     1      24.315  -1.202  -2.677  1.00  0.00     0.166 HD
ENDROOT
BRANCH   9  11
ATOM     11  O   UNL     1      27.230   0.257  -8.039  1.00  0.00    -0.508 OA
ATOM     12  H   UNL     1      28.195   0.557  -7.972  1.00  0.00     0.293 HD
ENDBRANCH   9  11
TORSDOF 1
ENDMDL
MODEL 9
REMARK VINA RESULT:    -4.878     11.500     12.594
REMARK INTER + INTRA:          -5.020
REMARK INTER:                  -5.020
REMARK INTRA:                   0.000
REMARK UNBOUND:                 0.000
REMARK SMILES Oc1ccc2[nH]ccc2c1
REMARK SMILES IDX 3 1 4 2 5 3 9 4 8 5 7 6 6 7 10 8 2 9 1 11
REMARK H PARENT 6 10 1 12
REMARK Flexibility Score: inf
ROOT
ATOM      1  C   UNL     1      34.132   0.797  -4.119  1.00  0.00     0.048 A 
ATOM      2  C   UNL     1      33.026   0.986  -4.969  1.00  0.00     0.030 A 
ATOM      3  C   UNL     1      33.252   0.959  -6.345  1.00  0.00     0.046 A 
ATOM      4  C   UNL     1      34.502   0.757  -6.865  1.00  0.00     0.003 A 
ATOM      5  C   UNL     1      34.386   0.786  -8.238  1.00  0.00     0.028 A 
ATOM      6  C   UNL     1      33.035   1.011  -8.484  1.00  0.00     0.083 A 
ATOM      7  N   UNL     1      32.346   1.116  -7.324  1.00  0.00    -0.361 N 
ATOM      8  C   UNL     1      35.617   0.567  -6.052  1.00  0.00     0.056 A 
ATOM      9  C   UNL     1      35.425   0.588  -4.657  1.00  0.00     0.116 A 
ATOM     10  H   UNL     1      31.321   1.284  -7.217  1.00  0.00     0.166 HD
ENDROOT
BRANCH   9  11
ATOM     11  O   UNL     1      36.519   0.402  -3.814  1.00  0.00    -0.508 OA
ATOM     12  H   UNL     1      37.243  -0.273  -4.029  1.00  0.00     0.293 HD
ENDBRANCH   9  11
TORSDOF 1
ENDMDL
