MODEL 1
REMARK VINA RESULT:    -3.345      0.000      0.000
REMARK INTER + INTRA:          -4.035
REMARK INTER:                  -3.932
REMARK INTRA:                  -0.104
REMARK UNBOUND:                -0.104
REMARK SMILES O=C([O-])CCC(=O)[O-]
REMARK SMILES IDX 4 1 2 2 1 3 3 4 5 5 6 6 7 7 8 8
REMARK H PARENT
REMARK Flexibility Score: inf
ROOT
ATOM      1  C   UNL     1      -8.497   5.160 -34.208  1.00  0.00     0.059 C 
ENDROOT
BRANCH   1   2
ATOM      2  C   UNL     1      -8.361   3.709 -34.547  1.00  0.00     0.042 C 
ATOM      3  O   UNL     1      -7.268   3.113 -34.359  1.00  0.00    -0.550 OA
ATOM      4  O   UNL     1      -9.429   3.026 -35.117  1.00  0.00    -0.550 OA
ENDBRANCH   1   2
BRANCH   1   5
ATOM      5  C   UNL     1      -7.953   5.434 -32.806  1.00  0.00     0.059 C 
BRANCH   5   6
ATOM      6  C   UNL     1      -6.942   6.536 -32.843  1.00  0.00     0.042 C 
ATOM      7  O   UNL     1      -6.912   7.401 -31.929  1.00  0.00    -0.550 OA
ATOM      8  O   UNL     1      -6.063   6.637 -33.915  1.00  0.00    -0.550 OA
ENDBRANCH   5   6
ENDBRANCH   1   5
TORSDOF 3
ENDMDL
MODEL 2
REMARK VINA RESULT:    -3.334      0.028      4.046
REMARK INTER + INTRA:          -4.023
REMARK INTER:                  -3.919
REMARK INTRA:                  -0.104
REMARK UNBOUND:                -0.104
REMARK SMILES O=C([O-])CCC(=O)[O-]
REMARK SMILES IDX 4 1 2 2 1 3 3 4 5 5 6 6 7 7 8 8
REMARK H PARENT
REMARK Flexibility Score: inf
ROOT
ATOM      1  C   UNL     1      -7.981   5.431 -32.822  1.00  0.00     0.059 C 
ENDROOT
BRANCH   1   2
ATOM      2  C   UNL     1      -6.955   6.519 -32.835  1.00  0.00     0.042 C 
ATOM      3  O   UNL     1      -6.918   7.367 -31.905  1.00  0.00    -0.550 OA
ATOM      4  O   UNL     1      -6.070   6.628 -33.901  1.00  0.00    -0.550 OA
ENDBRANCH   1   2
BRANCH   1   5
ATOM      5  C   UNL     1      -8.484   5.153 -34.239  1.00  0.00     0.059 C 
BRANCH   5   6
ATOM      6  C   UNL     1      -8.352   3.699 -34.565  1.00  0.00     0.042 C 
ATOM      7  O   UNL     1      -7.257   3.106 -34.385  1.00  0.00    -0.550 OA
ATOM      8  O   UNL     1      -9.426   3.010 -35.113  1.00  0.00    -0.550 OA
ENDBRANCH   5   6
ENDBRANCH   1   5
TORSDOF 3
ENDMDL
MODEL 3
REMARK VINA RESULT:    -3.233     12.129     12.918
REMARK INTER + INTRA:          -3.904
REMARK INTER:                  -3.782
REMARK INTRA:                  -0.122
REMARK UNBOUND:                -0.104
REMARK SMILES O=C([O-])CCC(=O)[O-]
REMARK SMILES IDX 4 1 2 2 1 3 3 4 5 5 6 6 7 7 8 8
REMARK H PARENT
REMARK Flexibility Score: inf
ROOT
ATOM      1  C   UNL     1     -13.988   5.181 -23.276  1.00  0.00     0.059 C 
ENDROOT
BRANCH   1   2
ATOM      2  C   UNL     1     -14.150   3.872 -22.569  1.00  0.00     0.042 C 
ATOM      3  O   UNL     1     -13.139   3.186 -22.265  1.00  0.00    -0.550 OA
ATOM      4  O   UNL     1     -15.421   3.385 -22.290  1.00  0.00    -0.550 OA
ENDBRANCH   1   2
BRANCH   1   5
ATOM      5  C   UNL     1     -14.905   5.245 -24.498  1.00  0.00     0.059 C 
BRANCH   5   6
ATOM      6  C   UNL     1     -15.919   6.333 -24.333  1.00  0.00     0.042 C 
ATOM      7  O   UNL     1     -15.844   7.380 -25.029  1.00  0.00    -0.550 OA
ATOM      8  O   UNL     1     -16.919   6.213 -23.376  1.00  0.00    -0.550 OA
ENDBRANCH   5   6
ENDBRANCH   1   5
TORSDOF 3
ENDMDL
MODEL 4
REMARK VINA RESULT:    -3.214     12.111     13.087
REMARK INTER + INTRA:          -3.881
REMARK INTER:                  -3.760
REMARK INTRA:                  -0.121
REMARK UNBOUND:                -0.104
REMARK SMILES O=C([O-])CCC(=O)[O-]
REMARK SMILES IDX 4 1 2 2 1 3 3 4 5 5 6 6 7 7 8 8
REMARK H PARENT
REMARK Flexibility Score: inf
ROOT
ATOM      1  C   UNL     1     -14.744   5.209 -24.380  1.00  0.00     0.059 C 
ENDROOT
BRANCH   1   2
ATOM      2  C   UNL     1     -15.820   6.240 -24.257  1.00  0.00     0.042 C 
ATOM      3  O   UNL     1     -15.840   7.232 -25.034  1.00  0.00    -0.550 OA
ATOM      4  O   UNL     1     -16.775   6.134 -23.253  1.00  0.00    -0.550 OA
ENDBRANCH   1   2
BRANCH   1   5
ATOM      5  C   UNL     1     -13.951   5.106 -23.076  1.00  0.00     0.059 C 
BRANCH   5   6
ATOM      6  C   UNL     1     -14.120   3.750 -22.467  1.00  0.00     0.042 C 
ATOM      7  O   UNL     1     -13.113   3.037 -22.217  1.00  0.00    -0.550 OA
ATOM      8  O   UNL     1     -15.394   3.252 -22.221  1.00  0.00    -0.550 OA
ENDBRANCH   5   6
ENDBRANCH   1   5
TORSDOF 3
ENDMDL
MODEL 5
REMARK VINA RESULT:    -3.170     13.110     13.847
REMARK INTER + INTRA:          -3.829
REMARK INTER:                  -3.707
REMARK INTRA:                  -0.122
REMARK UNBOUND:                -0.104
REMARK SMILES O=C([O-])CCC(=O)[O-]
REMARK SMILES IDX 4 1 2 2 1 3 3 4 5 5 6 6 7 7 8 8
REMARK H PARENT
REMARK Flexibility Score: inf
ROOT
ATOM      1  C   UNL     1     -10.026   2.092 -21.527  1.00  0.00     0.059 C 
ENDROOT
BRANCH   1   2
ATOM      2  C   UNL     1     -11.442   1.618 -21.430  1.00  0.00     0.042 C 
ATOM      3  O   UNL     1     -11.699   0.479 -20.959  1.00  0.00    -0.550 OA
ATOM      4  O   UNL     1     -12.476   2.414 -21.907  1.00  0.00    -0.550 OA
ENDBRANCH   1   2
BRANCH   1   5
ATOM      5  C   UNL     1      -9.382   2.136 -20.141  1.00  0.00     0.059 C 
BRANCH   5   6
ATOM      6  C   UNL     1      -8.232   1.183 -20.068  1.00  0.00     0.042 C 
ATOM      7  O   UNL     1      -7.052   1.616 -20.002  1.00  0.00    -0.550 OA
ATOM      8  O   UNL     1      -8.459  -0.187 -20.123  1.00  0.00    -0.550 OA
ENDBRANCH   5   6
ENDBRANCH   1   5
TORSDOF 3
ENDMDL
MODEL 6
REMARK VINA RESULT:    -3.152     12.487     13.563
REMARK INTER + INTRA:          -3.808
REMARK INTER:                  -3.740
REMARK INTRA:                  -0.069
REMARK UNBOUND:                -0.104
REMARK SMILES O=C([O-])CCC(=O)[O-]
REMARK SMILES IDX 4 1 2 2 1 3 3 4 5 5 6 6 7 7 8 8
REMARK H PARENT
REMARK Flexibility Score: inf
ROOT
ATOM      1  C   UNL     1      -9.960   2.155 -21.192  1.00  0.00     0.059 C 
ENDROOT
BRANCH   1   2
ATOM      2  C   UNL     1      -9.017   2.087 -20.033  1.00  0.00     0.042 C 
ATOM      3  O   UNL     1      -9.406   2.407 -18.879  1.00  0.00    -0.550 OA
ATOM      4  O   UNL     1      -7.693   1.716 -20.234  1.00  0.00    -0.550 OA
ENDBRANCH   1   2
BRANCH   1   5
ATOM      5  C   UNL     1      -9.391   1.395 -22.390  1.00  0.00     0.059 C 
BRANCH   5   6
ATOM      6  C   UNL     1     -10.370   0.373 -22.874  1.00  0.00     0.042 C 
ATOM      7  O   UNL     1     -11.430   0.155 -22.230  1.00  0.00    -0.550 OA
ATOM      8  O   UNL     1     -10.090  -0.374 -24.012  1.00  0.00    -0.550 OA
ENDBRANCH   5   6
ENDBRANCH   1   5
TORSDOF 3
ENDMDL
MODEL 7
REMARK VINA RESULT:    -3.149     12.961     13.884
REMARK INTER + INTRA:          -3.805
REMARK INTER:                  -3.697
REMARK INTRA:                  -0.108
REMARK UNBOUND:                -0.104
REMARK SMILES O=C([O-])CCC(=O)[O-]
REMARK SMILES IDX 4 1 2 2 1 3 3 4 5 5 6 6 7 7 8 8
REMARK H PARENT
REMARK Flexibility Score: inf
ROOT
ATOM      1  C   UNL     1      -9.099   2.330 -20.198  1.00  0.00     0.059 C 
ENDROOT
BRANCH   1   2
ATOM      2  C   UNL     1      -8.043   1.280 -20.057  1.00  0.00     0.042 C 
ATOM      3  O   UNL     1      -6.834   1.608 -19.935  1.00  0.00    -0.550 OA
ATOM      4  O   UNL     1      -8.389  -0.065 -20.110  1.00  0.00    -0.550 OA
ENDBRANCH   1   2
BRANCH   1   5
ATOM      5  C   UNL     1     -10.487   1.691 -20.243  1.00  0.00     0.059 C 
BRANCH   5   6
ATOM      6  C   UNL     1     -11.014   1.686 -21.643  1.00  0.00     0.042 C 
ATOM      7  O   UNL     1     -11.994   2.412 -21.954  1.00  0.00    -0.550 OA
ATOM      8  O   UNL     1     -10.455   0.840 -22.593  1.00  0.00    -0.550 OA
ENDBRANCH   5   6
ENDBRANCH   1   5
TORSDOF 3
ENDMDL
MODEL 8
REMARK VINA RESULT:    -3.059      1.448      3.883
REMARK INTER + INTRA:          -3.699
REMARK INTER:                  -3.588
REMARK INTRA:                  -0.111
REMARK UNBOUND:                -0.104
REMARK SMILES O=C([O-])CCC(=O)[O-]
REMARK SMILES IDX 4 1 2 2 1 3 3 4 5 5 6 6 7 7 8 8
REMARK H PARENT
REMARK Flexibility Score: inf
ROOT
ATOM      1  C   UNL     1      -6.558   6.209 -34.139  1.00  0.00     0.059 C 
ENDROOT
BRANCH   1   2
ATOM      2  C   UNL     1      -7.164   6.427 -32.789  1.00  0.00     0.042 C 
ATOM      3  O   UNL     1      -7.969   5.585 -32.311  1.00  0.00    -0.550 OA
ATOM      4  O   UNL     1      -6.878   7.586 -32.077  1.00  0.00    -0.550 OA
ENDBRANCH   1   2
BRANCH   1   5
ATOM      5  C   UNL     1      -7.515   5.419 -35.032  1.00  0.00     0.059 C 
BRANCH   5   6
ATOM      6  C   UNL     1      -6.977   4.047 -35.291  1.00  0.00     0.042 C 
ATOM      7  O   UNL     1      -7.226   3.107 -34.491  1.00  0.00    -0.550 OA
ATOM      8  O   UNL     1      -6.158   3.817 -36.389  1.00  0.00    -0.550 OA
ENDBRANCH   5   6
ENDBRANCH   1   5
TORSDOF 3
ENDMDL
MODEL 9
REMARK VINA RESULT:    -3.014      1.547      4.211
REMARK INTER + INTRA:          -3.647
REMARK INTER:                  -3.555
REMARK INTRA:                  -0.092
REMARK UNBOUND:                -0.104
REMARK SMILES O=C([O-])CCC(=O)[O-]
REMARK SMILES IDX 4 1 2 2 1 3 3 4 5 5 6 6 7 7 8 8
REMARK H PARENT
REMARK Flexibility Score: inf
ROOT
ATOM      1  C   UNL     1      -7.981   3.942 -33.844  1.00  0.00     0.059 C 
ENDROOT
BRANCH   1   2
ATOM      2  C   UNL     1      -7.492   5.329 -33.572  1.00  0.00     0.042 C 
ATOM      3  O   UNL     1      -6.871   5.969 -34.462  1.00  0.00    -0.550 OA
ATOM      4  O   UNL     1      -7.677   5.898 -32.318  1.00  0.00    -0.550 OA
ENDBRANCH   1   2
BRANCH   1   5
ATOM      5  C   UNL     1      -7.298   3.368 -35.086  1.00  0.00     0.059 C 
BRANCH   5   6
ATOM      6  C   UNL     1      -8.260   3.306 -36.230  1.00  0.00     0.042 C 
ATOM      7  O   UNL     1      -8.026   3.940 -37.292  1.00  0.00    -0.550 OA
ATOM      8  O   UNL     1      -9.442   2.585 -36.105  1.00  0.00    -0.550 OA
ENDBRANCH   5   6
ENDBRANCH   1   5
TORSDOF 3
ENDMDL
