MODEL 1
REMARK VINA RESULT:    -2.020      0.000      0.000
REMARK INTER + INTRA:          -2.020
REMARK INTER:                  -2.020
REMARK INTRA:                   0.000
REMARK UNBOUND:                 0.000
REMARK SMILES CC(=O)[O-]
REMARK SMILES IDX 1 1 2 2 3 3 4 4
REMARK H PARENT
REMARK Flexibility Score: inf
ROOT
ATOM      1  C   UNL     1       6.403  44.933  52.106  1.00  0.00     0.063 C 
ATOM      2  C   UNL     1       6.133  46.384  52.323  1.00  0.00     0.038 C 
ATOM      3  O   UNL     1       4.956  46.824  52.248  1.00  0.00    -0.550 OA
ATOM      4  O   UNL     1       7.185  47.260  52.555  1.00  0.00    -0.550 OA
ENDROOT
TORSDOF 0
ENDMDL
MODEL 2
REMARK VINA RESULT:    -1.979     16.412     16.742
REMARK INTER + INTRA:          -1.979
REMARK INTER:                  -1.979
REMARK INTRA:                   0.000
REMARK UNBOUND:                 0.000
REMARK SMILES CC(=O)[O-]
REMARK SMILES IDX 1 1 2 2 3 3 4 4
REMARK H PARENT
REMARK Flexibility Score: inf
ROOT
ATOM      1  C   UNL     1      12.403  33.343  43.805  1.00  0.00     0.063 C 
ATOM      2  C   UNL     1      10.967  33.111  43.477  1.00  0.00     0.038 C 
ATOM      3  O   UNL     1      10.067  33.685  44.142  1.00  0.00    -0.550 OA
ATOM      4  O   UNL     1      10.619  32.220  42.470  1.00  0.00    -0.550 OA
ENDROOT
TORSDOF 0
ENDMDL
MODEL 3
REMARK VINA RESULT:    -1.971     17.716     18.115
REMARK INTER + INTRA:          -1.971
REMARK INTER:                  -1.971
REMARK INTRA:                   0.000
REMARK UNBOUND:                 0.000
REMARK SMILES CC(=O)[O-]
REMARK SMILES IDX 1 1 2 2 3 3 4 4
REMARK H PARENT
REMARK Flexibility Score: inf
ROOT
ATOM      1  C   UNL     1      12.680  33.448  43.609  1.00  0.00     0.063 C 
ATOM      2  C   UNL     1      13.043  33.094  42.207  1.00  0.00     0.038 C 
ATOM      3  O   UNL     1      14.250  33.084  41.851  1.00  0.00    -0.550 OA
ATOM      4  O   UNL     1      12.047  32.827  41.277  1.00  0.00    -0.550 OA
ENDROOT
TORSDOF 0
ENDMDL
MODEL 4
REMARK VINA RESULT:    -1.968     16.697     16.965
REMARK INTER + INTRA:          -1.968
REMARK INTER:                  -1.968
REMARK INTRA:                   0.000
REMARK UNBOUND:                 0.000
REMARK SMILES CC(=O)[O-]
REMARK SMILES IDX 1 1 2 2 3 3 4 4
REMARK H PARENT
REMARK Flexibility Score: inf
ROOT
ATOM      1  C   UNL     1      18.087  52.125  41.859  1.00  0.00     0.063 C 
ATOM      2  C   UNL     1      18.257  50.690  41.486  1.00  0.00     0.038 C 
ATOM      3  O   UNL     1      19.298  50.069  41.826  1.00  0.00    -0.550 OA
ATOM      4  O   UNL     1      17.292  50.053  40.718  1.00  0.00    -0.550 OA
ENDROOT
TORSDOF 0
ENDMDL
MODEL 5
REMARK VINA RESULT:    -1.939     16.376     16.745
REMARK INTER + INTRA:          -1.939
REMARK INTER:                  -1.939
REMARK INTRA:                   0.000
REMARK UNBOUND:                 0.000
REMARK SMILES CC(=O)[O-]
REMARK SMILES IDX 1 1 2 2 3 3 4 4
REMARK H PARENT
REMARK Flexibility Score: inf
ROOT
ATOM      1  C   UNL     1      10.412  33.390  44.130  1.00  0.00     0.063 C 
ATOM      2  C   UNL     1      11.682  33.375  43.348  1.00  0.00     0.038 C 
ATOM      3  O   UNL     1      11.670  33.055  42.131  1.00  0.00    -0.550 OA
ATOM      4  O   UNL     1      12.888  33.662  43.975  1.00  0.00    -0.550 OA
ENDROOT
TORSDOF 0
ENDMDL
MODEL 6
REMARK VINA RESULT:    -1.911     18.508     18.938
REMARK INTER + INTRA:          -1.911
REMARK INTER:                  -1.911
REMARK INTRA:                   0.000
REMARK UNBOUND:                 0.000
REMARK SMILES CC(=O)[O-]
REMARK SMILES IDX 1 1 2 2 3 3 4 4
REMARK H PARENT
REMARK Flexibility Score: inf
ROOT
ATOM      1  C   UNL     1      22.476  51.515  41.495  1.00  0.00     0.063 C 
ATOM      2  C   UNL     1      21.062  51.208  41.856  1.00  0.00     0.038 C 
ATOM      3  O   UNL     1      20.200  52.125  41.867  1.00  0.00    -0.550 OA
ATOM      4  O   UNL     1      20.704  49.920  42.234  1.00  0.00    -0.550 OA
ENDROOT
TORSDOF 0
ENDMDL
MODEL 7
REMARK VINA RESULT:    -1.794     17.439     17.762
REMARK INTER + INTRA:          -1.794
REMARK INTER:                  -1.794
REMARK INTRA:                   0.000
REMARK UNBOUND:                 0.000
REMARK SMILES CC(=O)[O-]
REMARK SMILES IDX 1 1 2 2 3 3 4 4
REMARK H PARENT
REMARK Flexibility Score: inf
ROOT
ATOM      1  C   UNL     1      18.290  50.747  41.566  1.00  0.00     0.063 C 
ATOM      2  C   UNL     1      19.728  50.960  41.901  1.00  0.00     0.038 C 
ATOM      3  O   UNL     1      20.211  52.122  41.900  1.00  0.00    -0.550 OA
ATOM      4  O   UNL     1      20.550  49.871  42.162  1.00  0.00    -0.550 OA
ENDROOT
TORSDOF 0
ENDMDL
MODEL 8
REMARK VINA RESULT:    -1.757     12.869     13.096
REMARK INTER + INTRA:          -1.757
REMARK INTER:                  -1.757
REMARK INTRA:                   0.000
REMARK UNBOUND:                 0.000
REMARK SMILES CC(=O)[O-]
REMARK SMILES IDX 1 1 2 2 3 3 4 4
REMARK H PARENT
REMARK Flexibility Score: inf
ROOT
ATOM      1  C   UNL     1       6.064  42.188  40.131  1.00  0.00     0.063 C 
ATOM      2  C   UNL     1       6.038  43.583  39.604  1.00  0.00     0.038 C 
ATOM      3  O   UNL     1       6.058  44.558  40.398  1.00  0.00    -0.550 OA
ATOM      4  O   UNL     1       5.936  43.807  38.237  1.00  0.00    -0.550 OA
ENDROOT
TORSDOF 0
ENDMDL
MODEL 9
REMARK VINA RESULT:    -0.836      1.514      1.825
REMARK INTER + INTRA:          -0.836
REMARK INTER:                  -0.836
REMARK INTRA:                   0.000
REMARK UNBOUND:                 0.000
REMARK SMILES CC(=O)[O-]
REMARK SMILES IDX 1 1 2 2 3 3 4 4
REMARK H PARENT
REMARK Flexibility Score: inf
ROOT
ATOM      1  C   UNL     1       7.172  46.899  52.377  1.00  0.00     0.063 C 
ATOM      2  C   UNL     1       6.075  45.893  52.279  1.00  0.00     0.038 C 
ATOM      3  O   UNL     1       4.875  46.257  52.384  1.00  0.00    -0.550 OA
ATOM      4  O   UNL     1       6.378  44.547  52.125  1.00  0.00    -0.550 OA
ENDROOT
TORSDOF 0
ENDMDL
