MODEL 1
REMARK VINA RESULT:    -3.084      0.000      0.000
REMARK INTER + INTRA:          -3.884
REMARK INTER:                  -3.805
REMARK INTRA:                  -0.079
REMARK UNBOUND:                -0.079
REMARK SMILES CCCCCC(=O)[O-]
REMARK SMILES IDX 4 1 5 2 6 3 7 4 8 5 3 6 2 7 1 8
REMARK H PARENT
REMARK Flexibility Score: inf
ROOT
ATOM      1  C   UNL     1       9.217 -29.366  15.603  1.00  0.00     0.006 C 
ENDROOT
BRANCH   1   2
ATOM      2  C   UNL     1       7.983 -29.776  16.416  1.00  0.00     0.053 C 
BRANCH   2   3
ATOM      3  C   UNL     1       8.277 -29.715  17.882  1.00  0.00     0.041 C 
ATOM      4  O   UNL     1       7.501 -30.264  18.707  1.00  0.00    -0.550 OA
ATOM      5  O   UNL     1       9.435 -29.095  18.333  1.00  0.00    -0.550 OA
ENDBRANCH   2   3
ENDBRANCH   1   2
BRANCH   1   6
ATOM      6  C   UNL     1       9.044 -29.651  14.096  1.00  0.00     0.000 C 
BRANCH   6   7
ATOM      7  C   UNL     1      10.286 -29.304  13.257  1.00  0.00    -0.003 C 
ATOM      8  C   UNL     1      11.433 -28.738  14.091  1.00  0.00     0.004 C 
ENDBRANCH   6   7
ENDBRANCH   1   6
TORSDOF 4
ENDMDL
MODEL 2
REMARK VINA RESULT:    -3.045      2.705      4.490
REMARK INTER + INTRA:          -3.836
REMARK INTER:                  -3.760
REMARK INTRA:                  -0.076
REMARK UNBOUND:                -0.079
REMARK SMILES CCCCCC(=O)[O-]
REMARK SMILES IDX 4 1 5 2 6 3 7 4 8 5 3 6 2 7 1 8
REMARK H PARENT
REMARK Flexibility Score: inf
ROOT
ATOM      1  C   UNL     1       9.214 -29.213  15.987  1.00  0.00     0.006 C 
ENDROOT
BRANCH   1   2
ATOM      2  C   UNL     1       9.229 -29.567  14.495  1.00  0.00     0.053 C 
BRANCH   2   3
ATOM      3  C   UNL     1      10.614 -29.446  13.942  1.00  0.00     0.041 C 
ATOM      4  O   UNL     1      11.417 -28.604  14.423  1.00  0.00    -0.550 OA
ATOM      5  O   UNL     1      11.035 -30.297  12.929  1.00  0.00    -0.550 OA
ENDBRANCH   2   3
ENDBRANCH   1   2
BRANCH   1   6
ATOM      6  C   UNL     1       8.199 -30.066  16.779  1.00  0.00     0.000 C 
BRANCH   6   7
ATOM      7  C   UNL     1       8.016 -29.610  18.236  1.00  0.00    -0.003 C 
ATOM      8  C   UNL     1       9.239 -28.890  18.797  1.00  0.00     0.004 C 
ENDBRANCH   6   7
ENDBRANCH   1   6
TORSDOF 4
ENDMDL
MODEL 3
REMARK VINA RESULT:    -3.031      0.132      1.152
REMARK INTER + INTRA:          -3.819
REMARK INTER:                  -3.740
REMARK INTRA:                  -0.078
REMARK UNBOUND:                -0.079
REMARK SMILES CCCCCC(=O)[O-]
REMARK SMILES IDX 4 1 5 2 6 3 7 4 8 5 3 6 2 7 1 8
REMARK H PARENT
REMARK Flexibility Score: inf
ROOT
ATOM      1  C   UNL     1       9.290 -29.459  15.677  1.00  0.00     0.006 C 
ENDROOT
BRANCH   1   2
ATOM      2  C   UNL     1       8.048 -29.873  16.475  1.00  0.00     0.053 C 
BRANCH   2   3
ATOM      3  C   UNL     1       8.291 -29.712  17.943  1.00  0.00     0.041 C 
ATOM      4  O   UNL     1       9.271 -29.035  18.352  1.00  0.00    -0.550 OA
ATOM      5  O   UNL     1       7.407 -30.267  18.859  1.00  0.00    -0.550 OA
ENDBRANCH   2   3
ENDBRANCH   1   2
BRANCH   1   6
ATOM      6  C   UNL     1       9.075 -29.589  14.154  1.00  0.00     0.000 C 
BRANCH   6   7
ATOM      7  C   UNL     1      10.364 -29.416  13.333  1.00  0.00    -0.003 C 
ATOM      8  C   UNL     1      11.474 -28.705  14.103  1.00  0.00     0.004 C 
ENDBRANCH   6   7
ENDBRANCH   1   6
TORSDOF 4
ENDMDL
MODEL 4
REMARK VINA RESULT:    -3.029      2.843      4.446
REMARK INTER + INTRA:          -3.817
REMARK INTER:                  -3.746
REMARK INTRA:                  -0.071
REMARK UNBOUND:                -0.079
REMARK SMILES CCCCCC(=O)[O-]
REMARK SMILES IDX 4 1 5 2 6 3 7 4 8 5 3 6 2 7 1 8
REMARK H PARENT
REMARK Flexibility Score: inf
ROOT
ATOM      1  C   UNL     1       9.309 -29.257  15.784  1.00  0.00     0.006 C 
ENDROOT
BRANCH   1   2
ATOM      2  C   UNL     1       9.296 -29.545  14.278  1.00  0.00     0.053 C 
BRANCH   2   3
ATOM      3  C   UNL     1      10.688 -29.526  13.729  1.00  0.00     0.041 C 
ATOM      4  O   UNL     1      11.032 -30.354  12.845  1.00  0.00    -0.550 OA
ATOM      5  O   UNL     1      11.592 -28.563  14.159  1.00  0.00    -0.550 OA
ENDBRANCH   2   3
ENDBRANCH   1   2
BRANCH   1   6
ATOM      6  C   UNL     1       8.049 -29.798  16.493  1.00  0.00     0.000 C 
BRANCH   6   7
ATOM      7  C   UNL     1       8.188 -29.877  18.023  1.00  0.00    -0.003 C 
ATOM      8  C   UNL     1       9.193 -28.874  18.585  1.00  0.00     0.004 C 
ENDBRANCH   6   7
ENDBRANCH   1   6
TORSDOF 4
ENDMDL
MODEL 5
REMARK VINA RESULT:    -2.934      1.093      1.935
REMARK INTER + INTRA:          -3.700
REMARK INTER:                  -3.599
REMARK INTRA:                  -0.100
REMARK UNBOUND:                -0.079
REMARK SMILES CCCCCC(=O)[O-]
REMARK SMILES IDX 4 1 5 2 6 3 7 4 8 5 3 6 2 7 1 8
REMARK H PARENT
REMARK Flexibility Score: inf
ROOT
ATOM      1  C   UNL     1       9.223 -29.508  15.595  1.00  0.00     0.006 C 
ENDROOT
BRANCH   1   2
ATOM      2  C   UNL     1       7.977 -29.941  16.376  1.00  0.00     0.053 C 
BRANCH   2   3
ATOM      3  C   UNL     1       8.166 -29.698  17.841  1.00  0.00     0.041 C 
ATOM      4  O   UNL     1       7.251 -29.991  18.654  1.00  0.00    -0.550 OA
ATOM      5  O   UNL     1       9.371 -29.195  18.312  1.00  0.00    -0.550 OA
ENDBRANCH   2   3
ENDBRANCH   1   2
BRANCH   1   6
ATOM      6  C   UNL     1       8.997 -29.543  14.068  1.00  0.00     0.000 C 
BRANCH   6   7
ATOM      7  C   UNL     1       7.546 -29.862  13.668  1.00  0.00    -0.003 C 
ATOM      8  C   UNL     1       7.216 -29.446  12.236  1.00  0.00     0.004 C 
ENDBRANCH   6   7
ENDBRANCH   1   6
TORSDOF 4
ENDMDL
MODEL 6
REMARK VINA RESULT:    -2.903      3.203      3.962
REMARK INTER + INTRA:          -3.661
REMARK INTER:                  -3.494
REMARK INTRA:                  -0.167
REMARK UNBOUND:                -0.079
REMARK SMILES CCCCCC(=O)[O-]
REMARK SMILES IDX 4 1 5 2 6 3 7 4 8 5 3 6 2 7 1 8
REMARK H PARENT
REMARK Flexibility Score: inf
ROOT
ATOM      1  C   UNL     1       6.682 -30.004  16.979  1.00  0.00     0.006 C 
ENDROOT
BRANCH   1   2
ATOM      2  C   UNL     1       7.442 -30.101  18.308  1.00  0.00     0.053 C 
BRANCH   2   3
ATOM      3  C   UNL     1       8.725 -29.334  18.236  1.00  0.00     0.041 C 
ATOM      4  O   UNL     1       9.296 -28.954  19.292  1.00  0.00    -0.550 OA
ATOM      5  O   UNL     1       9.315 -29.081  17.005  1.00  0.00    -0.550 OA
ENDBRANCH   2   3
ENDBRANCH   1   2
BRANCH   1   6
ATOM      6  C   UNL     1       6.325 -31.392  16.408  1.00  0.00     0.000 C 
BRANCH   6   7
ATOM      7  C   UNL     1       7.321 -32.496  16.802  1.00  0.00    -0.003 C 
ATOM      8  C   UNL     1       6.643 -33.825  17.128  1.00  0.00     0.004 C 
ENDBRANCH   6   7
ENDBRANCH   1   6
TORSDOF 4
ENDMDL
MODEL 7
REMARK VINA RESULT:    -2.897      2.544      4.142
REMARK INTER + INTRA:          -3.653
REMARK INTER:                  -3.446
REMARK INTRA:                  -0.207
REMARK UNBOUND:                -0.079
REMARK SMILES CCCCCC(=O)[O-]
REMARK SMILES IDX 4 1 5 2 6 3 7 4 8 5 3 6 2 7 1 8
REMARK H PARENT
REMARK Flexibility Score: inf
ROOT
ATOM      1  C   UNL     1       6.354 -30.519  16.738  1.00  0.00     0.006 C 
ENDROOT
BRANCH   1   2
ATOM      2  C   UNL     1       6.904 -29.901  15.446  1.00  0.00     0.053 C 
BRANCH   2   3
ATOM      3  C   UNL     1       8.376 -30.145  15.334  1.00  0.00     0.041 C 
ATOM      4  O   UNL     1       9.175 -29.175  15.258  1.00  0.00    -0.550 OA
ATOM      5  O   UNL     1       8.870 -31.443  15.364  1.00  0.00    -0.550 OA
ENDBRANCH   2   3
ENDBRANCH   1   2
BRANCH   1   6
ATOM      6  C   UNL     1       6.586 -29.611  17.964  1.00  0.00     0.000 C 
BRANCH   6   7
ATOM      7  C   UNL     1       7.806 -30.015  18.808  1.00  0.00    -0.003 C 
ATOM      8  C   UNL     1       8.914 -28.964  18.800  1.00  0.00     0.004 C 
ENDBRANCH   6   7
ENDBRANCH   1   6
TORSDOF 4
ENDMDL
MODEL 8
REMARK VINA RESULT:    -2.829      2.868      3.685
REMARK INTER + INTRA:          -3.570
REMARK INTER:                  -3.465
REMARK INTRA:                  -0.105
REMARK UNBOUND:                -0.079
REMARK SMILES CCCCCC(=O)[O-]
REMARK SMILES IDX 4 1 5 2 6 3 7 4 8 5 3 6 2 7 1 8
REMARK H PARENT
REMARK Flexibility Score: inf
ROOT
ATOM      1  C   UNL     1       6.885 -29.735  17.874  1.00  0.00     0.006 C 
ENDROOT
BRANCH   1   2
ATOM      2  C   UNL     1       8.338 -29.938  17.425  1.00  0.00     0.053 C 
BRANCH   2   3
ATOM      3  C   UNL     1       9.248 -29.003  18.157  1.00  0.00     0.041 C 
ATOM      4  O   UNL     1       9.984 -28.206  17.518  1.00  0.00    -0.550 OA
ATOM      5  O   UNL     1       9.247 -28.977  19.546  1.00  0.00    -0.550 OA
ENDBRANCH   2   3
ENDBRANCH   1   2
BRANCH   1   6
ATOM      6  C   UNL     1       5.875 -30.091  16.762  1.00  0.00     0.000 C 
BRANCH   6   7
ATOM      7  C   UNL     1       6.505 -30.838  15.574  1.00  0.00    -0.003 C 
ATOM      8  C   UNL     1       6.205 -32.335  15.581  1.00  0.00     0.004 C 
ENDBRANCH   6   7
ENDBRANCH   1   6
TORSDOF 4
ENDMDL
MODEL 9
REMARK VINA RESULT:    -2.720      3.559      4.395
REMARK INTER + INTRA:          -3.436
REMARK INTER:                  -3.300
REMARK INTRA:                  -0.136
REMARK UNBOUND:                -0.079
REMARK SMILES CCCCCC(=O)[O-]
REMARK SMILES IDX 4 1 5 2 6 3 7 4 8 5 3 6 2 7 1 8
REMARK H PARENT
REMARK Flexibility Score: inf
ROOT
ATOM      1  C   UNL     1       6.529 -30.984  16.875  1.00  0.00     0.006 C 
ENDROOT
BRANCH   1   2
ATOM      2  C   UNL     1       7.437 -32.146  16.453  1.00  0.00     0.053 C 
BRANCH   2   3
ATOM      3  C   UNL     1       7.089 -33.386  17.214  1.00  0.00     0.041 C 
ATOM      4  O   UNL     1       7.653 -33.634  18.313  1.00  0.00    -0.550 OA
ATOM      5  O   UNL     1       6.107 -34.244  16.736  1.00  0.00    -0.550 OA
ENDBRANCH   2   3
ENDBRANCH   1   2
BRANCH   1   6
ATOM      6  C   UNL     1       7.148 -30.142  18.011  1.00  0.00     0.000 C 
BRANCH   6   7
ATOM      7  C   UNL     1       8.595 -29.702  17.732  1.00  0.00    -0.003 C 
ATOM      8  C   UNL     1       9.211 -28.909  18.883  1.00  0.00     0.004 C 
ENDBRANCH   6   7
ENDBRANCH   1   6
TORSDOF 4
ENDMDL
