MODEL 1
REMARK VINA RESULT:    -4.341      0.000      0.000
REMARK INTER + INTRA:          -9.727
REMARK INTER:                  -7.640
REMARK INTRA:                  -2.086
REMARK UNBOUND:                -2.086
REMARK SMILES CCCCCCCCCCCCCCC(=O)[O-]
REMARK SMILES IDX 9 1 10 2 11 3 12 4 13 5 14 6 15 7 16 8 17 9 8 10 7 11 6 12
REMARK SMILES IDX 5 13 4 14 3 15 2 16 1 17
REMARK H PARENT
REMARK Flexibility Score: inf
ROOT
ATOM      1  C   UNL     1      19.435 -32.953  20.554  1.00  0.00     0.000 C 
ENDROOT
BRANCH   1   2
ATOM      2  C   UNL     1      18.121 -32.147  20.554  1.00  0.00     0.000 C 
BRANCH   2   3
ATOM      3  C   UNL     1      17.878 -31.297  21.814  1.00  0.00     0.000 C 
BRANCH   3   4
ATOM      4  C   UNL     1      16.605 -30.444  21.722  1.00  0.00     0.000 C 
BRANCH   4   5
ATOM      5  C   UNL     1      16.091 -30.071  23.121  1.00  0.00     0.006 C 
BRANCH   5   6
ATOM      6  C   UNL     1      15.680 -31.303  23.936  1.00  0.00     0.053 C 
BRANCH   6   7
ATOM      7  C   UNL     1      14.203 -31.336  24.185  1.00  0.00     0.041 C 
ATOM      8  O   UNL     1      13.635 -32.416  24.497  1.00  0.00    -0.550 OA
ATOM      9  O   UNL     1      13.458 -30.166  24.104  1.00  0.00    -0.550 OA
ENDBRANCH   6   7
ENDBRANCH   5   6
ENDBRANCH   4   5
ENDBRANCH   3   4
ENDBRANCH   2   3
ENDBRANCH   1   2
BRANCH   1  10
ATOM     10  C   UNL     1      19.389 -34.278  19.770  1.00  0.00     0.000 C 
BRANCH  10  11
ATOM     11  C   UNL     1      18.047 -34.571  19.068  1.00  0.00    -0.000 C 
BRANCH  11  12
ATOM     12  C   UNL     1      17.408 -35.927  19.429  1.00  0.00    -0.000 C 
BRANCH  12  13
ATOM     13  C   UNL     1      16.074 -35.837  20.197  1.00  0.00    -0.000 C 
BRANCH  13  14
ATOM     14  C   UNL     1      16.159 -35.146  21.569  1.00  0.00    -0.000 C 
BRANCH  14  15
ATOM     15  C   UNL     1      15.036 -34.121  21.792  1.00  0.00    -0.000 C 
BRANCH  15  16
ATOM     16  C   UNL     1      14.584 -33.504  20.464  1.00  0.00    -0.003 C 
ATOM     17  C   UNL     1      13.583 -32.376  20.692  1.00  0.00     0.004 C 
ENDBRANCH  15  16
ENDBRANCH  14  15
ENDBRANCH  13  14
ENDBRANCH  12  13
ENDBRANCH  11  12
ENDBRANCH  10  11
ENDBRANCH   1  10
TORSDOF 13
ENDMDL
MODEL 2
REMARK VINA RESULT:    -4.337      1.297      3.378
REMARK INTER + INTRA:          -9.720
REMARK INTER:                  -7.784
REMARK INTRA:                  -1.936
REMARK UNBOUND:                -2.086
REMARK SMILES CCCCCCCCCCCCCCC(=O)[O-]
REMARK SMILES IDX 9 1 10 2 11 3 12 4 13 5 14 6 15 7 16 8 17 9 8 10 7 11 6 12
REMARK SMILES IDX 5 13 4 14 3 15 2 16 1 17
REMARK H PARENT
REMARK Flexibility Score: inf
ROOT
ATOM      1  C   UNL     1      15.660 -35.366  20.616  1.00  0.00     0.000 C 
ENDROOT
BRANCH   1   2
ATOM      2  C   UNL     1      14.875 -34.128  20.141  1.00  0.00     0.000 C 
BRANCH   2   3
ATOM      3  C   UNL     1      14.447 -33.160  21.257  1.00  0.00     0.000 C 
BRANCH   3   4
ATOM      4  C   UNL     1      13.467 -32.083  20.770  1.00  0.00     0.000 C 
BRANCH   4   5
ATOM      5  C   UNL     1      12.701 -31.464  21.949  1.00  0.00     0.006 C 
BRANCH   5   6
ATOM      6  C   UNL     1      13.445 -31.637  23.280  1.00  0.00     0.053 C 
BRANCH   6   7
ATOM      7  C   UNL     1      13.868 -30.320  23.855  1.00  0.00     0.041 C 
ATOM      8  O   UNL     1      13.086 -29.674  24.602  1.00  0.00    -0.550 OA
ATOM      9  O   UNL     1      15.138 -29.823  23.593  1.00  0.00    -0.550 OA
ENDBRANCH   6   7
ENDBRANCH   5   6
ENDBRANCH   4   5
ENDBRANCH   3   4
ENDBRANCH   2   3
ENDBRANCH   1   2
BRANCH   1  10
ATOM     10  C   UNL     1      16.855 -35.764  19.728  1.00  0.00     0.000 C 
BRANCH  10  11
ATOM     11  C   UNL     1      17.659 -34.580  19.154  1.00  0.00    -0.000 C 
BRANCH  11  12
ATOM     12  C   UNL     1      19.068 -34.400  19.753  1.00  0.00    -0.000 C 
BRANCH  12  13
ATOM     13  C   UNL     1      19.324 -33.036  20.424  1.00  0.00    -0.000 C 
BRANCH  13  14
ATOM     14  C   UNL     1      18.063 -32.199  20.699  1.00  0.00    -0.000 C 
BRANCH  14  15
ATOM     15  C   UNL     1      17.851 -31.910  22.193  1.00  0.00    -0.000 C 
BRANCH  15  16
ATOM     16  C   UNL     1      17.595 -33.206  22.972  1.00  0.00    -0.003 C 
ATOM     17  C   UNL     1      16.845 -32.929  24.270  1.00  0.00     0.004 C 
ENDBRANCH  15  16
ENDBRANCH  14  15
ENDBRANCH  13  14
ENDBRANCH  12  13
ENDBRANCH  11  12
ENDBRANCH  10  11
ENDBRANCH   1  10
TORSDOF 13
ENDMDL
MODEL 3
REMARK VINA RESULT:    -4.225      1.498      3.529
REMARK INTER + INTRA:          -9.522
REMARK INTER:                  -7.292
REMARK INTRA:                  -2.231
REMARK UNBOUND:                -2.086
REMARK SMILES CCCCCCCCCCCCCCC(=O)[O-]
REMARK SMILES IDX 9 1 10 2 11 3 12 4 13 5 14 6 15 7 16 8 17 9 8 10 7 11 6 12
REMARK SMILES IDX 5 13 4 14 3 15 2 16 1 17
REMARK H PARENT
REMARK Flexibility Score: inf
ROOT
ATOM      1  C   UNL     1      16.938 -31.233  24.210  1.00  0.00     0.000 C 
ENDROOT
BRANCH   1   2
ATOM      2  C   UNL     1      16.805 -30.410  22.913  1.00  0.00     0.000 C 
BRANCH   2   3
ATOM      3  C   UNL     1      16.231 -31.178  21.710  1.00  0.00     0.000 C 
BRANCH   3   4
ATOM      4  C   UNL     1      14.806 -30.739  21.346  1.00  0.00     0.000 C 
BRANCH   4   5
ATOM      5  C   UNL     1      13.783 -31.816  21.738  1.00  0.00     0.006 C 
BRANCH   5   6
ATOM      6  C   UNL     1      13.257 -31.624  23.167  1.00  0.00     0.053 C 
BRANCH   6   7
ATOM      7  C   UNL     1      12.779 -30.223  23.399  1.00  0.00     0.041 C 
ATOM      8  O   UNL     1      11.763 -29.791  22.792  1.00  0.00    -0.550 OA
ATOM      9  O   UNL     1      13.436 -29.406  24.310  1.00  0.00    -0.550 OA
ENDBRANCH   6   7
ENDBRANCH   5   6
ENDBRANCH   4   5
ENDBRANCH   3   4
ENDBRANCH   2   3
ENDBRANCH   1   2
BRANCH   1  10
ATOM     10  C   UNL     1      17.212 -32.735  24.005  1.00  0.00     0.000 C 
BRANCH  10  11
ATOM     11  C   UNL     1      16.099 -33.673  24.516  1.00  0.00    -0.000 C 
BRANCH  11  12
ATOM     12  C   UNL     1      15.498 -34.607  23.448  1.00  0.00    -0.000 C 
BRANCH  12  13
ATOM     13  C   UNL     1      16.343 -34.768  22.168  1.00  0.00    -0.000 C 
BRANCH  13  14
ATOM     14  C   UNL     1      15.536 -35.024  20.883  1.00  0.00    -0.000 C 
BRANCH  14  15
ATOM     15  C   UNL     1      16.359 -34.798  19.605  1.00  0.00    -0.000 C 
BRANCH  15  16
ATOM     16  C   UNL     1      17.589 -33.928  19.891  1.00  0.00    -0.003 C 
ATOM     17  C   UNL     1      18.871 -34.624  19.448  1.00  0.00     0.004 C 
ENDBRANCH  15  16
ENDBRANCH  14  15
ENDBRANCH  13  14
ENDBRANCH  12  13
ENDBRANCH  11  12
ENDBRANCH  10  11
ENDBRANCH   1  10
TORSDOF 13
ENDMDL
MODEL 4
REMARK VINA RESULT:    -4.222      1.594      3.584
REMARK INTER + INTRA:          -9.517
REMARK INTER:                  -7.915
REMARK INTRA:                  -1.602
REMARK UNBOUND:                -2.086
REMARK SMILES CCCCCCCCCCCCCCC(=O)[O-]
REMARK SMILES IDX 9 1 10 2 11 3 12 4 13 5 14 6 15 7 16 8 17 9 8 10 7 11 6 12
REMARK SMILES IDX 5 13 4 14 3 15 2 16 1 17
REMARK H PARENT
REMARK Flexibility Score: inf
ROOT
ATOM      1  C   UNL     1      14.974 -34.216  20.122  1.00  0.00     0.000 C 
ENDROOT
BRANCH   1   2
ATOM      2  C   UNL     1      14.488 -33.418  21.348  1.00  0.00     0.000 C 
BRANCH   2   3
ATOM      3  C   UNL     1      13.662 -32.162  21.021  1.00  0.00     0.000 C 
BRANCH   3   4
ATOM      4  C   UNL     1      13.987 -30.977  21.941  1.00  0.00     0.000 C 
BRANCH   4   5
ATOM      5  C   UNL     1      13.159 -31.041  23.233  1.00  0.00     0.006 C 
BRANCH   5   6
ATOM      6  C   UNL     1      13.471 -29.875  24.180  1.00  0.00     0.053 C 
BRANCH   6   7
ATOM      7  C   UNL     1      12.315 -28.929  24.295  1.00  0.00     0.041 C 
ATOM      8  O   UNL     1      11.332 -29.030  23.514  1.00  0.00    -0.550 OA
ATOM      9  O   UNL     1      12.309 -27.955  25.286  1.00  0.00    -0.550 OA
ENDBRANCH   6   7
ENDBRANCH   5   6
ENDBRANCH   4   5
ENDBRANCH   3   4
ENDBRANCH   2   3
ENDBRANCH   1   2
BRANCH   1  10
ATOM     10  C   UNL     1      15.783 -35.487  20.448  1.00  0.00     0.000 C 
BRANCH  10  11
ATOM     11  C   UNL     1      17.196 -35.532  19.833  1.00  0.00    -0.000 C 
BRANCH  11  12
ATOM     12  C   UNL     1      17.696 -34.193  19.255  1.00  0.00    -0.000 C 
BRANCH  12  13
ATOM     13  C   UNL     1      18.601 -33.372  20.196  1.00  0.00    -0.000 C 
BRANCH  13  14
ATOM     14  C   UNL     1      17.951 -32.108  20.785  1.00  0.00    -0.000 C 
BRANCH  14  15
ATOM     15  C   UNL     1      18.457 -31.778  22.197  1.00  0.00    -0.000 C 
BRANCH  15  16
ATOM     16  C   UNL     1      17.297 -31.381  23.117  1.00  0.00    -0.003 C 
ATOM     17  C   UNL     1      16.855 -32.555  23.985  1.00  0.00     0.004 C 
ENDBRANCH  15  16
ENDBRANCH  14  15
ENDBRANCH  13  14
ENDBRANCH  12  13
ENDBRANCH  11  12
ENDBRANCH  10  11
ENDBRANCH   1  10
TORSDOF 13
ENDMDL
MODEL 5
REMARK VINA RESULT:    -4.164      1.306      2.255
REMARK INTER + INTRA:          -9.415
REMARK INTER:                  -7.677
REMARK INTRA:                  -1.738
REMARK UNBOUND:                -2.086
REMARK SMILES CCCCCCCCCCCCCCC(=O)[O-]
REMARK SMILES IDX 9 1 10 2 11 3 12 4 13 5 14 6 15 7 16 8 17 9 8 10 7 11 6 12
REMARK SMILES IDX 5 13 4 14 3 15 2 16 1 17
REMARK H PARENT
REMARK Flexibility Score: inf
ROOT
ATOM      1  C   UNL     1      18.031 -32.098  20.551  1.00  0.00     0.000 C 
ENDROOT
BRANCH   1   2
ATOM      2  C   UNL     1      17.477 -30.930  21.391  1.00  0.00     0.000 C 
BRANCH   2   3
ATOM      3  C   UNL     1      16.195 -31.246  22.180  1.00  0.00     0.000 C 
BRANCH   3   4
ATOM      4  C   UNL     1      14.951 -30.560  21.598  1.00  0.00     0.000 C 
BRANCH   4   5
ATOM      5  C   UNL     1      13.684 -31.376  21.893  1.00  0.00     0.006 C 
BRANCH   5   6
ATOM      6  C   UNL     1      13.235 -31.243  23.354  1.00  0.00     0.053 C 
BRANCH   6   7
ATOM      7  C   UNL     1      12.687 -29.880  23.644  1.00  0.00     0.041 C 
ATOM      8  O   UNL     1      13.318 -29.088  24.394  1.00  0.00    -0.550 OA
ATOM      9  O   UNL     1      11.495 -29.471  23.060  1.00  0.00    -0.550 OA
ENDBRANCH   6   7
ENDBRANCH   5   6
ENDBRANCH   4   5
ENDBRANCH   3   4
ENDBRANCH   2   3
ENDBRANCH   1   2
BRANCH   1  10
ATOM     10  C   UNL     1      19.499 -32.470  20.837  1.00  0.00     0.000 C 
BRANCH  10  11
ATOM     11  C   UNL     1      19.919 -33.873  20.355  1.00  0.00    -0.000 C 
BRANCH  11  12
ATOM     12  C   UNL     1      18.941 -34.539  19.367  1.00  0.00    -0.000 C 
BRANCH  12  13
ATOM     13  C   UNL     1      18.498 -35.966  19.748  1.00  0.00    -0.000 C 
BRANCH  13  14
ATOM     14  C   UNL     1      17.016 -36.105  20.139  1.00  0.00    -0.000 C 
BRANCH  14  15
ATOM     15  C   UNL     1      16.720 -35.586  21.554  1.00  0.00    -0.000 C 
BRANCH  15  16
ATOM     16  C   UNL     1      15.440 -34.742  21.573  1.00  0.00    -0.003 C 
ATOM     17  C   UNL     1      15.059 -34.287  20.168  1.00  0.00     0.004 C 
ENDBRANCH  15  16
ENDBRANCH  14  15
ENDBRANCH  13  14
ENDBRANCH  12  13
ENDBRANCH  11  12
ENDBRANCH  10  11
ENDBRANCH   1  10
TORSDOF 13
ENDMDL
MODEL 6
REMARK VINA RESULT:    -4.156      1.516      3.229
REMARK INTER + INTRA:          -9.402
REMARK INTER:                  -7.230
REMARK INTRA:                  -2.172
REMARK UNBOUND:                -2.086
REMARK SMILES CCCCCCCCCCCCCCC(=O)[O-]
REMARK SMILES IDX 9 1 10 2 11 3 12 4 13 5 14 6 15 7 16 8 17 9 8 10 7 11 6 12
REMARK SMILES IDX 5 13 4 14 3 15 2 16 1 17
REMARK H PARENT
REMARK Flexibility Score: inf
ROOT
ATOM      1  C   UNL     1      16.403 -34.764  19.393  1.00  0.00     0.000 C 
ENDROOT
BRANCH   1   2
ATOM      2  C   UNL     1      15.371 -35.009  20.512  1.00  0.00     0.000 C 
BRANCH   2   3
ATOM      3  C   UNL     1      15.043 -33.779  21.377  1.00  0.00     0.000 C 
BRANCH   3   4
ATOM      4  C   UNL     1      15.183 -34.053  22.880  1.00  0.00     0.000 C 
BRANCH   4   5
ATOM      5  C   UNL     1      15.304 -32.740  23.669  1.00  0.00     0.006 C 
BRANCH   5   6
ATOM      6  C   UNL     1      13.983 -32.343  24.340  1.00  0.00     0.053 C 
BRANCH   6   7
ATOM      7  C   UNL     1      13.386 -31.121  23.712  1.00  0.00     0.041 C 
ATOM      8  O   UNL     1      12.776 -31.205  22.614  1.00  0.00    -0.550 OA
ATOM      9  O   UNL     1      13.477 -29.893  24.356  1.00  0.00    -0.550 OA
ENDBRANCH   6   7
ENDBRANCH   5   6
ENDBRANCH   4   5
ENDBRANCH   3   4
ENDBRANCH   2   3
ENDBRANCH   1   2
BRANCH   1  10
ATOM     10  C   UNL     1      17.585 -35.752  19.367  1.00  0.00     0.000 C 
BRANCH  10  11
ATOM     11  C   UNL     1      17.375 -37.038  20.191  1.00  0.00    -0.000 C 
BRANCH  11  12
ATOM     12  C   UNL     1      18.328 -37.202  21.391  1.00  0.00    -0.000 C 
BRANCH  12  13
ATOM     13  C   UNL     1      18.242 -36.087  22.452  1.00  0.00    -0.000 C 
BRANCH  13  14
ATOM     14  C   UNL     1      19.346 -35.018  22.365  1.00  0.00    -0.000 C 
BRANCH  14  15
ATOM     15  C   UNL     1      18.792 -33.585  22.377  1.00  0.00    -0.000 C 
BRANCH  15  16
ATOM     16  C   UNL     1      19.150 -32.847  21.082  1.00  0.00    -0.003 C 
ATOM     17  C   UNL     1      18.133 -31.753  20.773  1.00  0.00     0.004 C 
ENDBRANCH  15  16
ENDBRANCH  14  15
ENDBRANCH  13  14
ENDBRANCH  12  13
ENDBRANCH  11  12
ENDBRANCH  10  11
ENDBRANCH   1  10
TORSDOF 13
ENDMDL
MODEL 7
REMARK VINA RESULT:    -4.121      1.468      3.589
REMARK INTER + INTRA:          -9.339
REMARK INTER:                  -7.634
REMARK INTRA:                  -1.705
REMARK UNBOUND:                -2.086
REMARK SMILES CCCCCCCCCCCCCCC(=O)[O-]
REMARK SMILES IDX 9 1 10 2 11 3 12 4 13 5 14 6 15 7 16 8 17 9 8 10 7 11 6 12
REMARK SMILES IDX 5 13 4 14 3 15 2 16 1 17
REMARK H PARENT
REMARK Flexibility Score: inf
ROOT
ATOM      1  C   UNL     1      15.719 -34.871  21.792  1.00  0.00     0.000 C 
ENDROOT
BRANCH   1   2
ATOM      2  C   UNL     1      14.951 -33.613  22.242  1.00  0.00     0.000 C 
BRANCH   2   3
ATOM      3  C   UNL     1      14.220 -32.859  21.117  1.00  0.00     0.000 C 
BRANCH   3   4
ATOM      4  C   UNL     1      13.302 -31.746  21.642  1.00  0.00     0.000 C 
BRANCH   4   5
ATOM      5  C   UNL     1      13.517 -31.522  23.147  1.00  0.00     0.006 C 
BRANCH   5   6
ATOM      6  C   UNL     1      14.045 -30.115  23.454  1.00  0.00     0.053 C 
BRANCH   6   7
ATOM      7  C   UNL     1      15.499 -29.981  23.119  1.00  0.00     0.041 C 
ATOM      8  O   UNL     1      15.873 -29.179  22.224  1.00  0.00    -0.550 OA
ATOM      9  O   UNL     1      16.444 -30.720  23.820  1.00  0.00    -0.550 OA
ENDBRANCH   6   7
ENDBRANCH   5   6
ENDBRANCH   4   5
ENDBRANCH   3   4
ENDBRANCH   2   3
ENDBRANCH   1   2
BRANCH   1  10
ATOM     10  C   UNL     1      15.986 -34.968  20.278  1.00  0.00     0.000 C 
BRANCH  10  11
ATOM     11  C   UNL     1      16.515 -36.334  19.798  1.00  0.00    -0.000 C 
BRANCH  11  12
ATOM     12  C   UNL     1      18.023 -36.372  19.483  1.00  0.00    -0.000 C 
BRANCH  12  13
ATOM     13  C   UNL     1      18.896 -35.443  20.351  1.00  0.00    -0.000 C 
BRANCH  13  14
ATOM     14  C   UNL     1      19.510 -34.245  19.608  1.00  0.00    -0.000 C 
BRANCH  14  15
ATOM     15  C   UNL     1      19.972 -33.126  20.554  1.00  0.00    -0.000 C 
BRANCH  15  16
ATOM     16  C   UNL     1      18.823 -32.663  21.458  1.00  0.00    -0.003 C 
ATOM     17  C   UNL     1      17.878 -31.727  20.712  1.00  0.00     0.004 C 
ENDBRANCH  15  16
ENDBRANCH  14  15
ENDBRANCH  13  14
ENDBRANCH  12  13
ENDBRANCH  11  12
ENDBRANCH  10  11
ENDBRANCH   1  10
TORSDOF 13
ENDMDL
MODEL 8
REMARK VINA RESULT:    -4.116      2.240      3.730
REMARK INTER + INTRA:          -9.331
REMARK INTER:                  -7.149
REMARK INTRA:                  -2.181
REMARK UNBOUND:                -2.086
REMARK SMILES CCCCCCCCCCCCCCC(=O)[O-]
REMARK SMILES IDX 9 1 10 2 11 3 12 4 13 5 14 6 15 7 16 8 17 9 8 10 7 11 6 12
REMARK SMILES IDX 5 13 4 14 3 15 2 16 1 17
REMARK H PARENT
REMARK Flexibility Score: inf
ROOT
ATOM      1  C   UNL     1      19.277 -36.185  22.101  1.00  0.00     0.000 C 
ENDROOT
BRANCH   1   2
ATOM      2  C   UNL     1      18.675 -35.479  23.331  1.00  0.00     0.000 C 
BRANCH   2   3
ATOM      3  C   UNL     1      17.165 -35.701  23.536  1.00  0.00     0.000 C 
BRANCH   3   4
ATOM      4  C   UNL     1      16.393 -34.392  23.749  1.00  0.00     0.000 C 
BRANCH   4   5
ATOM      5  C   UNL     1      15.367 -34.170  22.627  1.00  0.00     0.006 C 
BRANCH   5   6
ATOM      6  C   UNL     1      14.564 -32.878  22.823  1.00  0.00     0.053 C 
BRANCH   6   7
ATOM      7  C   UNL     1      14.403 -32.124  21.538  1.00  0.00     0.041 C 
ATOM      8  O   UNL     1      15.126 -31.122  21.295  1.00  0.00    -0.550 OA
ATOM      9  O   UNL     1      13.477 -32.550  20.594  1.00  0.00    -0.550 OA
ENDBRANCH   6   7
ENDBRANCH   5   6
ENDBRANCH   4   5
ENDBRANCH   3   4
ENDBRANCH   2   3
ENDBRANCH   1   2
BRANCH   1  10
ATOM     10  C   UNL     1      18.958 -37.688  21.988  1.00  0.00     0.000 C 
BRANCH  10  11
ATOM     11  C   UNL     1      18.076 -38.076  20.785  1.00  0.00    -0.000 C 
BRANCH  11  12
ATOM     12  C   UNL     1      17.889 -36.965  19.733  1.00  0.00    -0.000 C 
BRANCH  12  13
ATOM     13  C   UNL     1      16.543 -36.216  19.805  1.00  0.00    -0.000 C 
BRANCH  13  14
ATOM     14  C   UNL     1      16.584 -34.756  19.321  1.00  0.00    -0.000 C 
BRANCH  14  15
ATOM     15  C   UNL     1      17.985 -34.135  19.414  1.00  0.00    -0.000 C 
BRANCH  15  16
ATOM     16  C   UNL     1      17.992 -32.936  20.370  1.00  0.00    -0.003 C 
ATOM     17  C   UNL     1      19.400 -32.647  20.881  1.00  0.00     0.004 C 
ENDBRANCH  15  16
ENDBRANCH  14  15
ENDBRANCH  13  14
ENDBRANCH  12  13
ENDBRANCH  11  12
ENDBRANCH  10  11
ENDBRANCH   1  10
TORSDOF 13
ENDMDL
MODEL 9
REMARK VINA RESULT:    -4.090      1.986      4.471
REMARK INTER + INTRA:          -9.285
REMARK INTER:                  -7.335
REMARK INTRA:                  -1.950
REMARK UNBOUND:                -2.086
REMARK SMILES CCCCCCCCCCCCCCC(=O)[O-]
REMARK SMILES IDX 9 1 10 2 11 3 12 4 13 5 14 6 15 7 16 8 17 9 8 10 7 11 6 12
REMARK SMILES IDX 5 13 4 14 3 15 2 16 1 17
REMARK H PARENT
REMARK Flexibility Score: inf
ROOT
ATOM      1  C   UNL     1      15.234 -34.235  22.503  1.00  0.00     0.000 C 
ENDROOT
BRANCH   1   2
ATOM      2  C   UNL     1      15.073 -33.491  21.163  1.00  0.00     0.000 C 
BRANCH   2   3
ATOM      3  C   UNL     1      13.841 -32.573  21.071  1.00  0.00     0.000 C 
BRANCH   3   4
ATOM      4  C   UNL     1      14.049 -31.224  21.773  1.00  0.00     0.000 C 
BRANCH   4   5
ATOM      5  C   UNL     1      13.147 -31.103  23.010  1.00  0.00     0.006 C 
BRANCH   5   6
ATOM      6  C   UNL     1      13.653 -30.043  23.996  1.00  0.00     0.053 C 
BRANCH   6   7
ATOM      7  C   UNL     1      12.597 -29.027  24.310  1.00  0.00     0.041 C 
ATOM      8  O   UNL     1      11.522 -29.006  23.655  1.00  0.00    -0.550 OA
ATOM      9  O   UNL     1      12.787 -28.126  25.350  1.00  0.00    -0.550 OA
ENDBRANCH   6   7
ENDBRANCH   5   6
ENDBRANCH   4   5
ENDBRANCH   3   4
ENDBRANCH   2   3
ENDBRANCH   1   2
BRANCH   1  10
ATOM     10  C   UNL     1      16.512 -33.891  23.293  1.00  0.00     0.000 C 
BRANCH  10  11
ATOM     11  C   UNL     1      16.381 -32.688  24.248  1.00  0.00    -0.000 C 
BRANCH  11  12
ATOM     12  C   UNL     1      17.094 -31.405  23.776  1.00  0.00    -0.000 C 
BRANCH  12  13
ATOM     13  C   UNL     1      18.581 -31.581  23.408  1.00  0.00    -0.000 C 
BRANCH  13  14
ATOM     14  C   UNL     1      18.994 -30.967  22.059  1.00  0.00    -0.000 C 
BRANCH  14  15
ATOM     15  C   UNL     1      18.224 -31.563  20.870  1.00  0.00    -0.000 C 
BRANCH  15  16
ATOM     16  C   UNL     1      18.706 -32.986  20.562  1.00  0.00    -0.003 C 
ATOM     17  C   UNL     1      20.227 -33.044  20.466  1.00  0.00     0.004 C 
ENDBRANCH  15  16
ENDBRANCH  14  15
ENDBRANCH  13  14
ENDBRANCH  12  13
ENDBRANCH  11  12
ENDBRANCH  10  11
ENDBRANCH   1  10
TORSDOF 13
ENDMDL
