MODEL 1
REMARK VINA RESULT:    -3.878      0.000      0.000
REMARK INTER + INTRA:          -5.827
REMARK INTER:                  -5.238
REMARK INTRA:                  -0.589
REMARK UNBOUND:                -0.589
REMARK SMILES CCCCCCCC(=O)[O-]
REMARK SMILES IDX 5 1 6 2 7 3 8 4 9 5 10 6 4 7 3 8 2 9 1 10
REMARK H PARENT
REMARK Flexibility Score: inf
ROOT
ATOM      1  C   UNL     1     -37.830  19.477 -31.700  1.00  0.00     0.000 C 
ENDROOT
BRANCH   1   2
ATOM      2  C   UNL     1     -38.065  20.945 -31.324  1.00  0.00     0.006 C 
BRANCH   2   3
ATOM      3  C   UNL     1     -36.902  21.491 -30.491  1.00  0.00     0.053 C 
BRANCH   3   4
ATOM      4  C   UNL     1     -37.415  22.233 -29.297  1.00  0.00     0.041 C 
ATOM      5  O   UNL     1     -36.611  22.757 -28.483  1.00  0.00    -0.550 OA
ATOM      6  O   UNL     1     -38.782  22.302 -29.056  1.00  0.00    -0.550 OA
ENDBRANCH   3   4
ENDBRANCH   2   3
ENDBRANCH   1   2
BRANCH   1   7
ATOM      7  C   UNL     1     -36.894  18.795 -30.694  1.00  0.00     0.000 C 
BRANCH   7   8
ATOM      8  C   UNL     1     -37.673  17.844 -29.775  1.00  0.00    -0.000 C 
BRANCH   8   9
ATOM      9  C   UNL     1     -38.122  18.560 -28.497  1.00  0.00    -0.003 C 
ATOM     10  C   UNL     1     -39.609  18.899 -28.550  1.00  0.00     0.004 C 
ENDBRANCH   8   9
ENDBRANCH   7   8
ENDBRANCH   1   7
TORSDOF 6
ENDMDL
MODEL 2
REMARK VINA RESULT:    -3.791      2.739      4.349
REMARK INTER + INTRA:          -5.709
REMARK INTER:                  -5.108
REMARK INTRA:                  -0.601
REMARK UNBOUND:                -0.589
REMARK SMILES CCCCCCCC(=O)[O-]
REMARK SMILES IDX 5 1 6 2 7 3 8 4 9 5 10 6 4 7 3 8 2 9 1 10
REMARK H PARENT
REMARK Flexibility Score: inf
ROOT
ATOM      1  C   UNL     1     -38.993  18.861 -28.486  1.00  0.00     0.000 C 
ENDROOT
BRANCH   1   2
ATOM      2  C   UNL     1     -37.469  18.774 -28.345  1.00  0.00     0.006 C 
BRANCH   2   3
ATOM      3  C   UNL     1     -36.950  17.417 -28.829  1.00  0.00     0.053 C 
BRANCH   3   4
ATOM      4  C   UNL     1     -36.702  17.446 -30.305  1.00  0.00     0.041 C 
ATOM      5  O   UNL     1     -35.581  17.802 -30.752  1.00  0.00    -0.550 OA
ATOM      6  O   UNL     1     -37.727  17.128 -31.188  1.00  0.00    -0.550 OA
ENDBRANCH   3   4
ENDBRANCH   2   3
ENDBRANCH   1   2
BRANCH   1   7
ATOM      7  C   UNL     1     -39.406  20.148 -29.211  1.00  0.00     0.000 C 
BRANCH   7   8
ATOM      8  C   UNL     1     -38.202  20.800 -29.903  1.00  0.00    -0.000 C 
BRANCH   8   9
ATOM      9  C   UNL     1     -38.330  20.711 -31.428  1.00  0.00    -0.003 C 
ATOM     10  C   UNL     1     -36.973  20.878 -32.105  1.00  0.00     0.004 C 
ENDBRANCH   8   9
ENDBRANCH   7   8
ENDBRANCH   1   7
TORSDOF 6
ENDMDL
MODEL 3
REMARK VINA RESULT:    -3.761      2.863      4.558
REMARK INTER + INTRA:          -5.669
REMARK INTER:                  -5.150
REMARK INTRA:                  -0.519
REMARK UNBOUND:                -0.589
REMARK SMILES CCCCCCCC(=O)[O-]
REMARK SMILES IDX 5 1 6 2 7 3 8 4 9 5 10 6 4 7 3 8 2 9 1 10
REMARK H PARENT
REMARK Flexibility Score: inf
ROOT
ATOM      1  C   UNL     1     -39.269  19.546 -28.885  1.00  0.00     0.000 C 
ENDROOT
BRANCH   1   2
ATOM      2  C   UNL     1     -38.073  18.622 -28.625  1.00  0.00     0.006 C 
BRANCH   2   3
ATOM      3  C   UNL     1     -37.154  18.558 -29.848  1.00  0.00     0.053 C 
BRANCH   3   4
ATOM      4  C   UNL     1     -37.492  17.372 -30.696  1.00  0.00     0.041 C 
ATOM      5  O   UNL     1     -38.396  17.453 -31.567  1.00  0.00    -0.550 OA
ATOM      6  O   UNL     1     -36.841  16.161 -30.489  1.00  0.00    -0.550 OA
ENDBRANCH   3   4
ENDBRANCH   2   3
ENDBRANCH   1   2
BRANCH   1   7
ATOM      7  C   UNL     1     -38.897  20.665 -29.866  1.00  0.00     0.000 C 
BRANCH   7   8
ATOM      8  C   UNL     1     -38.789  22.015 -29.146  1.00  0.00    -0.000 C 
BRANCH   8   9
ATOM      9  C   UNL     1     -37.324  22.377 -28.873  1.00  0.00    -0.003 C 
ATOM     10  C   UNL     1     -36.477  22.233 -30.133  1.00  0.00     0.004 C 
ENDBRANCH   8   9
ENDBRANCH   7   8
ENDBRANCH   1   7
TORSDOF 6
ENDMDL
MODEL 4
REMARK VINA RESULT:    -3.757      2.003      3.454
REMARK INTER + INTRA:          -5.664
REMARK INTER:                  -5.010
REMARK INTRA:                  -0.654
REMARK UNBOUND:                -0.589
REMARK SMILES CCCCCCCC(=O)[O-]
REMARK SMILES IDX 5 1 6 2 7 3 8 4 9 5 10 6 4 7 3 8 2 9 1 10
REMARK H PARENT
REMARK Flexibility Score: inf
ROOT
ATOM      1  C   UNL     1     -37.978  19.261 -31.568  1.00  0.00     0.000 C 
ENDROOT
BRANCH   1   2
ATOM      2  C   UNL     1     -36.744  18.628 -30.914  1.00  0.00     0.006 C 
BRANCH   2   3
ATOM      3  C   UNL     1     -37.151  17.627 -29.828  1.00  0.00     0.053 C 
BRANCH   3   4
ATOM      4  C   UNL     1     -37.420  18.335 -28.538  1.00  0.00     0.041 C 
ATOM      5  O   UNL     1     -36.466  18.667 -27.787  1.00  0.00    -0.550 OA
ATOM      6  O   UNL     1     -38.728  18.584 -28.140  1.00  0.00    -0.550 OA
ENDBRANCH   3   4
ENDBRANCH   2   3
ENDBRANCH   1   2
BRANCH   1   7
ATOM      7  C   UNL     1     -37.992  20.780 -31.359  1.00  0.00     0.000 C 
BRANCH   7   8
ATOM      8  C   UNL     1     -39.074  21.188 -30.351  1.00  0.00    -0.000 C 
BRANCH   8   9
ATOM      9  C   UNL     1     -38.469  21.980 -29.186  1.00  0.00    -0.003 C 
ATOM     10  C   UNL     1     -36.948  22.032 -29.287  1.00  0.00     0.004 C 
ENDBRANCH   8   9
ENDBRANCH   7   8
ENDBRANCH   1   7
TORSDOF 6
ENDMDL
MODEL 5
REMARK VINA RESULT:    -3.752      3.354      4.606
REMARK INTER + INTRA:          -5.657
REMARK INTER:                  -5.379
REMARK INTRA:                  -0.278
REMARK UNBOUND:                -0.589
REMARK SMILES CCCCCCCC(=O)[O-]
REMARK SMILES IDX 5 1 6 2 7 3 8 4 9 5 10 6 4 7 3 8 2 9 1 10
REMARK H PARENT
REMARK Flexibility Score: inf
ROOT
ATOM      1  C   UNL     1     -39.528  19.723 -28.893  1.00  0.00     0.000 C 
ENDROOT
BRANCH   1   2
ATOM      2  C   UNL     1     -38.523  18.594 -28.635  1.00  0.00     0.006 C 
BRANCH   2   3
ATOM      3  C   UNL     1     -37.399  18.612 -29.674  1.00  0.00     0.053 C 
BRANCH   3   4
ATOM      4  C   UNL     1     -37.552  17.471 -30.631  1.00  0.00     0.041 C 
ATOM      5  O   UNL     1     -36.757  16.497 -30.586  1.00  0.00    -0.550 OA
ATOM      6  O   UNL     1     -38.542  17.508 -31.605  1.00  0.00    -0.550 OA
ENDBRANCH   3   4
ENDBRANCH   2   3
ENDBRANCH   1   2
BRANCH   1   7
ATOM      7  C   UNL     1     -38.821  20.982 -29.409  1.00  0.00     0.000 C 
BRANCH   7   8
ATOM      8  C   UNL     1     -39.747  22.203 -29.336  1.00  0.00    -0.000 C 
BRANCH   8   9
ATOM      9  C   UNL     1     -40.801  22.160 -30.448  1.00  0.00    -0.003 C 
ATOM     10  C   UNL     1     -42.088  22.855 -30.014  1.00  0.00     0.004 C 
ENDBRANCH   8   9
ENDBRANCH   7   8
ENDBRANCH   1   7
TORSDOF 6
ENDMDL
MODEL 6
REMARK VINA RESULT:    -3.737      2.707      4.013
REMARK INTER + INTRA:          -5.636
REMARK INTER:                  -5.441
REMARK INTRA:                  -0.195
REMARK UNBOUND:                -0.589
REMARK SMILES CCCCCCCC(=O)[O-]
REMARK SMILES IDX 5 1 6 2 7 3 8 4 9 5 10 6 4 7 3 8 2 9 1 10
REMARK H PARENT
REMARK Flexibility Score: inf
ROOT
ATOM      1  C   UNL     1     -36.184  17.929 -29.899  1.00  0.00     0.000 C 
ENDROOT
BRANCH   1   2
ATOM      2  C   UNL     1     -37.699  18.167 -29.926  1.00  0.00     0.006 C 
BRANCH   2   3
ATOM      3  C   UNL     1     -38.208  18.617 -28.553  1.00  0.00     0.053 C 
BRANCH   3   4
ATOM      4  C   UNL     1     -39.454  19.433 -28.698  1.00  0.00     0.041 C 
ATOM      5  O   UNL     1     -40.566  18.959 -28.349  1.00  0.00    -0.550 OA
ATOM      6  O   UNL     1     -39.393  20.700 -29.265  1.00  0.00    -0.550 OA
ENDBRANCH   3   4
ENDBRANCH   2   3
ENDBRANCH   1   2
BRANCH   1   7
ATOM      7  C   UNL     1     -35.817  16.639 -30.643  1.00  0.00     0.000 C 
BRANCH   7   8
ATOM      8  C   UNL     1     -36.757  15.491 -30.250  1.00  0.00    -0.000 C 
BRANCH   8   9
ATOM      9  C   UNL     1     -36.022  14.146 -30.279  1.00  0.00    -0.003 C 
ATOM     10  C   UNL     1     -36.996  12.983 -30.112  1.00  0.00     0.004 C 
ENDBRANCH   8   9
ENDBRANCH   7   8
ENDBRANCH   1   7
TORSDOF 6
ENDMDL
MODEL 7
REMARK VINA RESULT:    -3.700      1.665      3.074
REMARK INTER + INTRA:          -5.586
REMARK INTER:                  -5.100
REMARK INTRA:                  -0.486
REMARK UNBOUND:                -0.589
REMARK SMILES CCCCCCCC(=O)[O-]
REMARK SMILES IDX 5 1 6 2 7 3 8 4 9 5 10 6 4 7 3 8 2 9 1 10
REMARK H PARENT
REMARK Flexibility Score: inf
ROOT
ATOM      1  C   UNL     1     -37.717  18.481 -28.205  1.00  0.00     0.000 C 
ENDROOT
BRANCH   1   2
ATOM      2  C   UNL     1     -38.774  18.644 -29.303  1.00  0.00     0.006 C 
BRANCH   2   3
ATOM      3  C   UNL     1     -39.622  19.898 -29.066  1.00  0.00     0.053 C 
BRANCH   3   4
ATOM      4  C   UNL     1     -38.980  21.092 -29.701  1.00  0.00     0.041 C 
ATOM      5  O   UNL     1     -38.576  21.035 -30.891  1.00  0.00    -0.550 OA
ATOM      6  O   UNL     1     -38.783  22.251 -28.960  1.00  0.00    -0.550 OA
ENDBRANCH   3   4
ENDBRANCH   2   3
ENDBRANCH   1   2
BRANCH   1   7
ATOM      7  C   UNL     1     -36.306  18.425 -28.804  1.00  0.00     0.000 C 
BRANCH   7   8
ATOM      8  C   UNL     1     -36.361  18.219 -30.323  1.00  0.00    -0.000 C 
BRANCH   8   9
ATOM      9  C   UNL     1     -35.673  16.909 -30.725  1.00  0.00    -0.003 C 
ATOM     10  C   UNL     1     -36.520  15.701 -30.338  1.00  0.00     0.004 C 
ENDBRANCH   8   9
ENDBRANCH   7   8
ENDBRANCH   1   7
TORSDOF 6
ENDMDL
MODEL 8
REMARK VINA RESULT:    -3.699      1.798      2.211
REMARK INTER + INTRA:          -5.585
REMARK INTER:                  -4.979
REMARK INTRA:                  -0.606
REMARK UNBOUND:                -0.589
REMARK SMILES CCCCCCCC(=O)[O-]
REMARK SMILES IDX 5 1 6 2 7 3 8 4 9 5 10 6 4 7 3 8 2 9 1 10
REMARK H PARENT
REMARK Flexibility Score: inf
ROOT
ATOM      1  C   UNL     1     -37.801  19.274 -31.492  1.00  0.00     0.000 C 
ENDROOT
BRANCH   1   2
ATOM      2  C   UNL     1     -37.737  20.798 -31.333  1.00  0.00     0.006 C 
BRANCH   2   3
ATOM      3  C   UNL     1     -38.072  21.214 -29.898  1.00  0.00     0.053 C 
BRANCH   3   4
ATOM      4  C   UNL     1     -39.528  21.007 -29.618  1.00  0.00     0.041 C 
ATOM      5  O   UNL     1     -40.375  21.848 -30.016  1.00  0.00    -0.550 OA
ATOM      6  O   UNL     1     -39.944  19.909 -28.874  1.00  0.00    -0.550 OA
ENDBRANCH   3   4
ENDBRANCH   2   3
ENDBRANCH   1   2
BRANCH   1   7
ATOM      7  C   UNL     1     -36.668  18.593 -30.714  1.00  0.00     0.000 C 
BRANCH   7   8
ATOM      8  C   UNL     1     -37.218  17.509 -29.777  1.00  0.00    -0.000 C 
BRANCH   8   9
ATOM      9  C   UNL     1     -37.095  17.936 -28.311  1.00  0.00    -0.003 C 
ATOM     10  C   UNL     1     -35.837  18.768 -28.083  1.00  0.00     0.004 C 
ENDBRANCH   8   9
ENDBRANCH   7   8
ENDBRANCH   1   7
TORSDOF 6
ENDMDL
MODEL 9
REMARK VINA RESULT:    -3.676      1.434      3.032
REMARK INTER + INTRA:          -5.554
REMARK INTER:                  -4.951
REMARK INTRA:                  -0.603
REMARK UNBOUND:                -0.589
REMARK SMILES CCCCCCCC(=O)[O-]
REMARK SMILES IDX 5 1 6 2 7 3 8 4 9 5 10 6 4 7 3 8 2 9 1 10
REMARK H PARENT
REMARK Flexibility Score: inf
ROOT
ATOM      1  C   UNL     1     -37.635  18.322 -28.515  1.00  0.00     0.000 C 
ENDROOT
BRANCH   1   2
ATOM      2  C   UNL     1     -38.807  18.723 -29.420  1.00  0.00     0.006 C 
BRANCH   2   3
ATOM      3  C   UNL     1     -39.677  19.790 -28.750  1.00  0.00     0.053 C 
BRANCH   3   4
ATOM      4  C   UNL     1     -39.392  21.139 -29.331  1.00  0.00     0.041 C 
ATOM      5  O   UNL     1     -38.338  21.752 -29.020  1.00  0.00    -0.550 OA
ATOM      6  O   UNL     1     -40.315  21.741 -30.176  1.00  0.00    -0.550 OA
ENDBRANCH   3   4
ENDBRANCH   2   3
ENDBRANCH   1   2
BRANCH   1   7
ATOM      7  C   UNL     1     -36.316  18.909 -29.032  1.00  0.00     0.000 C 
BRANCH   7   8
ATOM      8  C   UNL     1     -36.245  18.841 -30.563  1.00  0.00    -0.000 C 
BRANCH   8   9
ATOM      9  C   UNL     1     -35.852  20.199 -31.156  1.00  0.00    -0.003 C 
ATOM     10  C   UNL     1     -36.960  20.750 -32.049  1.00  0.00     0.004 C 
ENDBRANCH   8   9
ENDBRANCH   7   8
ENDBRANCH   1   7
TORSDOF 6
ENDMDL
