MODEL 1
REMARK VINA RESULT:    -5.550      0.000      0.000
REMARK INTER + INTRA:          -6.678
REMARK INTER:                  -6.523
REMARK INTRA:                  -0.155
REMARK UNBOUND:                -0.155
REMARK SMILES COc1ccc(C=CC(=O)[O-])cc1
REMARK SMILES IDX 6 1 5 2 12 3 4 4 13 5 3 6 7 7 8 8 9 9 10 10 11 11 2 12 1 13
REMARK H PARENT
REMARK Flexibility Score: inf
ROOT
ATOM      1  C   UNL     1     -28.416  -7.079  -0.936  1.00  0.00    -0.025 A 
ATOM      2  C   UNL     1     -28.219  -6.265  -2.069  1.00  0.00     0.012 A 
ATOM      3  C   UNL     1     -29.097  -6.544   0.169  1.00  0.00     0.012 A 
ATOM      4  C   UNL     1     -28.672  -4.943  -2.079  1.00  0.00     0.047 A 
ATOM      5  C   UNL     1     -29.549  -5.220   0.158  1.00  0.00     0.047 A 
ATOM      6  C   UNL     1     -29.336  -4.408  -0.970  1.00  0.00     0.118 A 
ENDROOT
BRANCH   1   7
ATOM      7  C   UNL     1     -27.966  -8.491  -0.877  1.00  0.00     0.010 C 
ATOM      8  C   UNL     1     -26.781  -8.915  -1.337  1.00  0.00     0.025 C 
BRANCH   8   9
ATOM      9  C   UNL     1     -26.371 -10.326  -1.247  1.00  0.00     0.064 C 
ATOM     10  O   UNL     1     -26.301 -10.882  -0.120  1.00  0.00    -0.545 OA
ATOM     11  O   UNL     1     -26.057 -11.056  -2.388  1.00  0.00    -0.545 OA
ENDBRANCH   8   9
ENDBRANCH   1   7
BRANCH   6  12
ATOM     12  O   UNL     1     -29.768  -3.074  -1.031  1.00  0.00    -0.497 OA
ATOM     13  C   UNL     1     -30.963  -2.647  -1.676  1.00  0.00     0.278 C 
ENDBRANCH   6  12
TORSDOF 3
ENDMDL
MODEL 2
REMARK VINA RESULT:    -5.540      0.319      1.376
REMARK INTER + INTRA:          -6.667
REMARK INTER:                  -6.501
REMARK INTRA:                  -0.166
REMARK UNBOUND:                -0.155
REMARK SMILES COc1ccc(C=CC(=O)[O-])cc1
REMARK SMILES IDX 6 1 5 2 12 3 4 4 13 5 3 6 7 7 8 8 9 9 10 10 11 11 2 12 1 13
REMARK H PARENT
REMARK Flexibility Score: inf
ROOT
ATOM      1  C   UNL     1     -28.552  -6.960  -0.724  1.00  0.00    -0.025 A 
ATOM      2  C   UNL     1     -29.334  -6.384   0.297  1.00  0.00     0.012 A 
ATOM      3  C   UNL     1     -28.223  -6.180  -1.844  1.00  0.00     0.012 A 
ATOM      4  C   UNL     1     -29.793  -5.069   0.181  1.00  0.00     0.047 A 
ATOM      5  C   UNL     1     -28.684  -4.864  -1.958  1.00  0.00     0.047 A 
ATOM      6  C   UNL     1     -29.477  -4.300  -0.944  1.00  0.00     0.118 A 
ENDROOT
BRANCH   1   7
ATOM      7  C   UNL     1     -28.030  -8.346  -0.646  1.00  0.00     0.010 C 
ATOM      8  C   UNL     1     -26.816  -8.710  -1.083  1.00  0.00     0.025 C 
BRANCH   8   9
ATOM      9  C   UNL     1     -26.334 -10.096  -0.976  1.00  0.00     0.064 C 
ATOM     10  O   UNL     1     -25.895 -10.517   0.126  1.00  0.00    -0.545 OA
ATOM     11  O   UNL     1     -26.353 -10.950  -2.073  1.00  0.00    -0.545 OA
ENDBRANCH   8   9
ENDBRANCH   1   7
BRANCH   6  12
ATOM     12  O   UNL     1     -29.965  -2.986  -1.011  1.00  0.00    -0.497 OA
ATOM     13  C   UNL     1     -31.148  -2.603  -1.706  1.00  0.00     0.278 C 
ENDBRANCH   6  12
TORSDOF 3
ENDMDL
MODEL 3
REMARK VINA RESULT:    -5.336     10.921     12.232
REMARK INTER + INTRA:          -6.427
REMARK INTER:                  -6.271
REMARK INTRA:                  -0.157
REMARK UNBOUND:                -0.155
REMARK SMILES COc1ccc(C=CC(=O)[O-])cc1
REMARK SMILES IDX 6 1 5 2 12 3 4 4 13 5 3 6 7 7 8 8 9 9 10 10 11 11 2 12 1 13
REMARK H PARENT
REMARK Flexibility Score: inf
ROOT
ATOM      1  C   UNL     1     -32.484 -15.511   5.017  1.00  0.00    -0.025 A 
ATOM      2  C   UNL     1     -33.088 -16.303   6.013  1.00  0.00     0.012 A 
ATOM      3  C   UNL     1     -33.279 -15.024   3.967  1.00  0.00     0.012 A 
ATOM      4  C   UNL     1     -34.448 -16.619   5.938  1.00  0.00     0.047 A 
ATOM      5  C   UNL     1     -34.639 -15.342   3.894  1.00  0.00     0.047 A 
ATOM      6  C   UNL     1     -35.234 -16.146   4.882  1.00  0.00     0.118 A 
ENDROOT
BRANCH   1   7
ATOM      7  C   UNL     1     -31.049 -15.136   5.054  1.00  0.00     0.010 C 
ATOM      8  C   UNL     1     -30.065 -15.990   5.370  1.00  0.00     0.025 C 
BRANCH   8   9
ATOM      9  C   UNL     1     -28.652 -15.578   5.382  1.00  0.00     0.064 C 
ATOM     10  O   UNL     1     -28.318 -14.524   5.984  1.00  0.00    -0.545 OA
ATOM     11  O   UNL     1     -27.679 -16.333   4.738  1.00  0.00    -0.545 OA
ENDBRANCH   8   9
ENDBRANCH   1   7
BRANCH   6  12
ATOM     12  O   UNL     1     -36.593 -16.494   4.854  1.00  0.00    -0.497 OA
ATOM     13  C   UNL     1     -37.571 -15.983   5.755  1.00  0.00     0.278 C 
ENDBRANCH   6  12
TORSDOF 3
ENDMDL
MODEL 4
REMARK VINA RESULT:    -5.335     10.897     12.177
REMARK INTER + INTRA:          -6.426
REMARK INTER:                  -6.261
REMARK INTRA:                  -0.165
REMARK UNBOUND:                -0.155
REMARK SMILES COc1ccc(C=CC(=O)[O-])cc1
REMARK SMILES IDX 6 1 5 2 12 3 4 4 13 5 3 6 7 7 8 8 9 9 10 10 11 11 2 12 1 13
REMARK H PARENT
REMARK Flexibility Score: inf
ROOT
ATOM      1  C   UNL     1     -32.520 -15.486   4.968  1.00  0.00    -0.025 A 
ATOM      2  C   UNL     1     -33.373 -15.101   3.915  1.00  0.00     0.012 A 
ATOM      3  C   UNL     1     -33.049 -16.246   6.023  1.00  0.00     0.012 A 
ATOM      4  C   UNL     1     -34.726 -15.450   3.937  1.00  0.00     0.047 A 
ATOM      5  C   UNL     1     -34.404 -16.593   6.043  1.00  0.00     0.047 A 
ATOM      6  C   UNL     1     -35.254 -16.193   4.998  1.00  0.00     0.118 A 
ENDROOT
BRANCH   1   7
ATOM      7  C   UNL     1     -31.074 -15.153   4.989  1.00  0.00     0.010 C 
ATOM      8  C   UNL     1     -30.103 -16.063   5.150  1.00  0.00     0.025 C 
BRANCH   8   9
ATOM      9  C   UNL     1     -28.680 -15.689   5.153  1.00  0.00     0.064 C 
ATOM     10  O   UNL     1     -28.326 -14.594   5.664  1.00  0.00    -0.545 OA
ATOM     11  O   UNL     1     -27.717 -16.525   4.598  1.00  0.00    -0.545 OA
ENDBRANCH   8   9
ENDBRANCH   1   7
BRANCH   6  12
ATOM     12  O   UNL     1     -36.620 -16.514   4.972  1.00  0.00    -0.497 OA
ATOM     13  C   UNL     1     -37.601 -15.919   5.815  1.00  0.00     0.278 C 
ENDBRANCH   6  12
TORSDOF 3
ENDMDL
MODEL 5
REMARK VINA RESULT:    -5.139      1.895      2.304
REMARK INTER + INTRA:          -6.195
REMARK INTER:                  -6.023
REMARK INTRA:                  -0.173
REMARK UNBOUND:                -0.155
REMARK SMILES COc1ccc(C=CC(=O)[O-])cc1
REMARK SMILES IDX 6 1 5 2 12 3 4 4 13 5 3 6 7 7 8 8 9 9 10 10 11 11 2 12 1 13
REMARK H PARENT
REMARK Flexibility Score: inf
ROOT
ATOM      1  C   UNL     1     -28.754  -7.498  -0.175  1.00  0.00    -0.025 A 
ATOM      2  C   UNL     1     -28.211  -6.897  -1.328  1.00  0.00     0.012 A 
ATOM      3  C   UNL     1     -29.518  -6.710   0.701  1.00  0.00     0.012 A 
ATOM      4  C   UNL     1     -28.411  -5.536  -1.578  1.00  0.00     0.047 A 
ATOM      5  C   UNL     1     -29.716  -5.348   0.449  1.00  0.00     0.047 A 
ATOM      6  C   UNL     1     -29.160  -4.751  -0.695  1.00  0.00     0.118 A 
ENDROOT
BRANCH   1   7
ATOM      7  C   UNL     1     -28.582  -8.939   0.133  1.00  0.00     0.010 C 
ATOM      8  C   UNL     1     -29.057  -9.525   1.241  1.00  0.00     0.025 C 
BRANCH   8   9
ATOM      9  C   UNL     1     -28.873 -10.962   1.500  1.00  0.00     0.064 C 
ATOM     10  O   UNL     1     -27.710 -11.426   1.628  1.00  0.00    -0.545 OA
ATOM     11  O   UNL     1     -29.964 -11.817   1.604  1.00  0.00    -0.545 OA
ENDBRANCH   8   9
ENDBRANCH   1   7
BRANCH   6  12
ATOM     12  O   UNL     1     -29.328  -3.390  -0.993  1.00  0.00    -0.497 OA
ATOM     13  C   UNL     1     -30.547  -2.813  -1.450  1.00  0.00     0.278 C 
ENDBRANCH   6  12
TORSDOF 3
ENDMDL
MODEL 6
REMARK VINA RESULT:    -5.097      1.432      6.366
REMARK INTER + INTRA:          -6.147
REMARK INTER:                  -5.979
REMARK INTRA:                  -0.168
REMARK UNBOUND:                -0.155
REMARK SMILES COc1ccc(C=CC(=O)[O-])cc1
REMARK SMILES IDX 6 1 5 2 12 3 4 4 13 5 3 6 7 7 8 8 9 9 10 10 11 11 2 12 1 13
REMARK H PARENT
REMARK Flexibility Score: inf
ROOT
ATOM      1  C   UNL     1     -28.358  -7.781  -0.531  1.00  0.00    -0.025 A 
ATOM      2  C   UNL     1     -27.153  -8.152  -1.159  1.00  0.00     0.012 A 
ATOM      3  C   UNL     1     -28.932  -8.660   0.402  1.00  0.00     0.012 A 
ATOM      4  C   UNL     1     -26.557  -9.384  -0.876  1.00  0.00     0.047 A 
ATOM      5  C   UNL     1     -28.334  -9.893   0.683  1.00  0.00     0.047 A 
ATOM      6  C   UNL     1     -27.140 -10.265   0.041  1.00  0.00     0.118 A 
ENDROOT
BRANCH   1   7
ATOM      7  C   UNL     1     -29.026  -6.481  -0.786  1.00  0.00     0.010 C 
ATOM      8  C   UNL     1     -29.423  -5.645   0.183  1.00  0.00     0.025 C 
BRANCH   8   9
ATOM      9  C   UNL     1     -30.073  -4.359  -0.117  1.00  0.00     0.064 C 
ATOM     10  O   UNL     1     -29.379  -3.396  -0.534  1.00  0.00    -0.545 OA
ATOM     11  O   UNL     1     -31.442  -4.190   0.056  1.00  0.00    -0.545 OA
ENDBRANCH   8   9
ENDBRANCH   1   7
BRANCH   6  12
ATOM     12  O   UNL     1     -26.501 -11.490   0.288  1.00  0.00    -0.497 OA
ATOM     13  C   UNL     1     -25.113 -11.629   0.573  1.00  0.00     0.278 C 
ENDBRANCH   6  12
TORSDOF 3
ENDMDL
MODEL 7
REMARK VINA RESULT:    -5.068      9.884     11.574
REMARK INTER + INTRA:          -6.112
REMARK INTER:                  -5.941
REMARK INTRA:                  -0.172
REMARK UNBOUND:                -0.155
REMARK SMILES COc1ccc(C=CC(=O)[O-])cc1
REMARK SMILES IDX 6 1 5 2 12 3 4 4 13 5 3 6 7 7 8 8 9 9 10 10 11 11 2 12 1 13
REMARK H PARENT
REMARK Flexibility Score: inf
ROOT
ATOM      1  C   UNL     1     -32.527 -15.117   4.512  1.00  0.00    -0.025 A 
ATOM      2  C   UNL     1     -32.766 -15.955   5.619  1.00  0.00     0.012 A 
ATOM      3  C   UNL     1     -33.594 -14.814   3.651  1.00  0.00     0.012 A 
ATOM      4  C   UNL     1     -34.037 -16.492   5.839  1.00  0.00     0.047 A 
ATOM      5  C   UNL     1     -34.865 -15.354   3.873  1.00  0.00     0.047 A 
ATOM      6  C   UNL     1     -35.095 -16.201   4.970  1.00  0.00     0.118 A 
ENDROOT
BRANCH   1   7
ATOM      7  C   UNL     1     -31.200 -14.511   4.239  1.00  0.00     0.010 C 
ATOM      8  C   UNL     1     -30.892 -13.876   3.100  1.00  0.00     0.025 C 
BRANCH   8   9
ATOM      9  C   UNL     1     -29.566 -13.279   2.876  1.00  0.00     0.064 C 
ATOM     10  O   UNL     1     -28.554 -14.024   2.799  1.00  0.00    -0.545 OA
ATOM     11  O   UNL     1     -29.411 -11.903   2.750  1.00  0.00    -0.545 OA
ENDBRANCH   8   9
ENDBRANCH   1   7
BRANCH   6  12
ATOM     12  O   UNL     1     -36.350 -16.768   5.235  1.00  0.00    -0.497 OA
ATOM     13  C   UNL     1     -37.467 -16.045   5.743  1.00  0.00     0.278 C 
ENDBRANCH   6  12
TORSDOF 3
ENDMDL
MODEL 8
REMARK VINA RESULT:    -5.037      1.902      6.363
REMARK INTER + INTRA:          -6.076
REMARK INTER:                  -5.914
REMARK INTRA:                  -0.163
REMARK UNBOUND:                -0.155
REMARK SMILES COc1ccc(C=CC(=O)[O-])cc1
REMARK SMILES IDX 6 1 5 2 12 3 4 4 13 5 3 6 7 7 8 8 9 9 10 10 11 11 2 12 1 13
REMARK H PARENT
REMARK Flexibility Score: inf
ROOT
ATOM      1  C   UNL     1     -27.693  -8.356  -0.797  1.00  0.00    -0.025 A 
ATOM      2  C   UNL     1     -28.651  -8.836   0.118  1.00  0.00     0.012 A 
ATOM      3  C   UNL     1     -26.500  -9.077  -0.968  1.00  0.00     0.012 A 
ATOM      4  C   UNL     1     -28.403  -9.995   0.859  1.00  0.00     0.047 A 
ATOM      5  C   UNL     1     -26.255 -10.236  -0.225  1.00  0.00     0.047 A 
ATOM      6  C   UNL     1     -27.207 -10.702   0.698  1.00  0.00     0.118 A 
ENDROOT
BRANCH   1   7
ATOM      7  C   UNL     1     -27.910  -7.138  -1.617  1.00  0.00     0.010 C 
ATOM      8  C   UNL     1     -28.454  -6.009  -1.143  1.00  0.00     0.025 C 
BRANCH   8   9
ATOM      9  C   UNL     1     -28.640  -4.820  -1.990  1.00  0.00     0.064 C 
ATOM     10  O   UNL     1     -28.180  -4.814  -3.162  1.00  0.00    -0.545 OA
ATOM     11  O   UNL     1     -29.314  -3.700  -1.517  1.00  0.00    -0.545 OA
ENDBRANCH   8   9
ENDBRANCH   1   7
BRANCH   6  12
ATOM     12  O   UNL     1     -27.008 -11.858   1.468  1.00  0.00    -0.497 OA
ATOM     13  C   UNL     1     -27.962 -12.907   1.604  1.00  0.00     0.278 C 
ENDBRANCH   6  12
TORSDOF 3
ENDMDL
MODEL 9
REMARK VINA RESULT:    -5.001      9.812     12.115
REMARK INTER + INTRA:          -6.033
REMARK INTER:                  -5.871
REMARK INTRA:                  -0.162
REMARK UNBOUND:                -0.155
REMARK SMILES COc1ccc(C=CC(=O)[O-])cc1
REMARK SMILES IDX 6 1 5 2 12 3 4 4 13 5 3 6 7 7 8 8 9 9 10 10 11 11 2 12 1 13
REMARK H PARENT
REMARK Flexibility Score: inf
ROOT
ATOM      1  C   UNL     1     -32.478 -15.081   4.666  1.00  0.00    -0.025 A 
ATOM      2  C   UNL     1     -31.753 -16.036   5.405  1.00  0.00     0.012 A 
ATOM      3  C   UNL     1     -31.776 -14.200   3.827  1.00  0.00     0.012 A 
ATOM      4  C   UNL     1     -30.358 -16.085   5.322  1.00  0.00     0.047 A 
ATOM      5  C   UNL     1     -30.380 -14.252   3.746  1.00  0.00     0.047 A 
ATOM      6  C   UNL     1     -29.660 -15.196   4.498  1.00  0.00     0.118 A 
ENDROOT
BRANCH   1   7
ATOM      7  C   UNL     1     -33.958 -14.992   4.708  1.00  0.00     0.010 C 
ATOM      8  C   UNL     1     -34.753 -15.302   3.674  1.00  0.00     0.025 C 
BRANCH   8   9
ATOM      9  C   UNL     1     -36.219 -15.210   3.764  1.00  0.00     0.064 C 
ATOM     10  O   UNL     1     -36.841 -14.435   2.993  1.00  0.00    -0.545 OA
ATOM     11  O   UNL     1     -36.929 -15.965   4.691  1.00  0.00    -0.545 OA
ENDBRANCH   8   9
ENDBRANCH   1   7
BRANCH   6  12
ATOM     12  O   UNL     1     -28.261 -15.288   4.452  1.00  0.00    -0.497 OA
ATOM     13  C   UNL     1     -27.543 -16.492   4.201  1.00  0.00     0.278 C 
ENDBRANCH   6  12
TORSDOF 3
ENDMDL
