MODEL 1
REMARK VINA RESULT:    -3.969      0.000      0.000
REMARK INTER + INTRA:          -5.020
REMARK INTER:                  -4.897
REMARK INTRA:                  -0.122
REMARK UNBOUND:                -0.122
REMARK SMILES CCCCCC(=O)[O-]
REMARK SMILES IDX 4 1 5 2 6 3 7 4 8 5 3 6 2 7 1 8
REMARK H PARENT
REMARK Flexibility Score: inf
ROOT
ATOM      1  C   UNL     1      25.901   7.462   7.329  1.00  0.00     0.006 C 
ENDROOT
BRANCH   1   2
ATOM      2  C   UNL     1      25.353   7.466   5.896  1.00  0.00     0.053 C 
BRANCH   2   3
ATOM      3  C   UNL     1      23.938   7.958   5.843  1.00  0.00     0.041 C 
ATOM      4  O   UNL     1      22.987   7.181   6.122  1.00  0.00    -0.550 OA
ATOM      5  O   UNL     1      23.670   9.263   5.451  1.00  0.00    -0.550 OA
ENDBRANCH   2   3
ENDBRANCH   1   2
BRANCH   1   6
ATOM      6  C   UNL     1      26.937   6.351   7.552  1.00  0.00     0.000 C 
BRANCH   6   7
ATOM      7  C   UNL     1      26.950   5.368   6.375  1.00  0.00    -0.003 C 
ATOM      8  C   UNL     1      27.103   3.929   6.860  1.00  0.00     0.004 C 
ENDBRANCH   6   7
ENDBRANCH   1   6
TORSDOF 4
ENDMDL
MODEL 2
REMARK VINA RESULT:    -3.796      2.557      4.069
REMARK INTER + INTRA:          -4.806
REMARK INTER:                  -4.631
REMARK INTRA:                  -0.175
REMARK UNBOUND:                -0.122
REMARK SMILES CCCCCC(=O)[O-]
REMARK SMILES IDX 4 1 5 2 6 3 7 4 8 5 3 6 2 7 1 8
REMARK H PARENT
REMARK Flexibility Score: inf
ROOT
ATOM      1  C   UNL     1      25.634   6.534   5.688  1.00  0.00     0.006 C 
ENDROOT
BRANCH   1   2
ATOM      2  C   UNL     1      26.796   5.841   6.412  1.00  0.00     0.053 C 
BRANCH   2   3
ATOM      3  C   UNL     1      27.153   6.541   7.689  1.00  0.00     0.041 C 
ATOM      4  O   UNL     1      27.288   5.884   8.754  1.00  0.00    -0.550 OA
ATOM      5  O   UNL     1      27.304   7.922   7.706  1.00  0.00    -0.550 OA
ENDBRANCH   2   3
ENDBRANCH   1   2
BRANCH   1   6
ATOM      6  C   UNL     1      24.333   6.490   6.503  1.00  0.00     0.000 C 
BRANCH   6   7
ATOM      7  C   UNL     1      23.329   7.531   5.992  1.00  0.00    -0.003 C 
ATOM      8  C   UNL     1      24.029   8.834   5.617  1.00  0.00     0.004 C 
ENDBRANCH   6   7
ENDBRANCH   1   6
TORSDOF 4
ENDMDL
MODEL 3
REMARK VINA RESULT:    -3.533      2.555      2.968
REMARK INTER + INTRA:          -4.481
REMARK INTER:                  -4.282
REMARK INTRA:                  -0.199
REMARK UNBOUND:                -0.122
REMARK SMILES CCCCCC(=O)[O-]
REMARK SMILES IDX 4 1 5 2 6 3 7 4 8 5 3 6 2 7 1 8
REMARK H PARENT
REMARK Flexibility Score: inf
ROOT
ATOM      1  C   UNL     1      25.147   6.820   6.885  1.00  0.00     0.006 C 
ENDROOT
BRANCH   1   2
ATOM      2  C   UNL     1      25.579   8.252   7.226  1.00  0.00     0.053 C 
BRANCH   2   3
ATOM      3  C   UNL     1      26.084   8.362   8.633  1.00  0.00     0.041 C 
ATOM      4  O   UNL     1      25.561   9.183   9.430  1.00  0.00    -0.550 OA
ATOM      5  O   UNL     1      27.154   7.582   9.050  1.00  0.00    -0.550 OA
ENDBRANCH   2   3
ENDBRANCH   1   2
BRANCH   1   6
ATOM      6  C   UNL     1      25.937   6.241   5.702  1.00  0.00     0.000 C 
BRANCH   6   7
ATOM      7  C   UNL     1      27.207   5.530   6.185  1.00  0.00    -0.003 C 
ATOM      8  C   UNL     1      26.867   4.305   7.028  1.00  0.00     0.004 C 
ENDBRANCH   6   7
ENDBRANCH   1   6
TORSDOF 4
ENDMDL
MODEL 4
REMARK VINA RESULT:    -3.514      3.312      4.603
REMARK INTER + INTRA:          -4.458
REMARK INTER:                  -4.344
REMARK INTRA:                  -0.114
REMARK UNBOUND:                -0.122
REMARK SMILES CCCCCC(=O)[O-]
REMARK SMILES IDX 4 1 5 2 6 3 7 4 8 5 3 6 2 7 1 8
REMARK H PARENT
REMARK Flexibility Score: inf
ROOT
ATOM      1  C   UNL     1      25.867   6.005   6.324  1.00  0.00     0.006 C 
ENDROOT
BRANCH   1   2
ATOM      2  C   UNL     1      27.232   5.315   6.201  1.00  0.00     0.053 C 
BRANCH   2   3
ATOM      3  C   UNL     1      27.398   4.224   7.215  1.00  0.00     0.041 C 
ATOM      4  O   UNL     1      27.732   4.504   8.396  1.00  0.00    -0.550 OA
ATOM      5  O   UNL     1      27.216   2.898   6.845  1.00  0.00    -0.550 OA
ENDBRANCH   2   3
ENDBRANCH   1   2
BRANCH   1   6
ATOM      6  C   UNL     1      25.986   7.434   6.876  1.00  0.00     0.000 C 
BRANCH   6   7
ATOM      7  C   UNL     1      24.723   8.248   6.571  1.00  0.00    -0.003 C 
ATOM      8  C   UNL     1      23.600   7.351   6.059  1.00  0.00     0.004 C 
ENDBRANCH   6   7
ENDBRANCH   1   6
TORSDOF 4
ENDMDL
MODEL 5
REMARK VINA RESULT:    -3.474      1.408      2.655
REMARK INTER + INTRA:          -4.408
REMARK INTER:                  -4.232
REMARK INTRA:                  -0.176
REMARK UNBOUND:                -0.122
REMARK SMILES CCCCCC(=O)[O-]
REMARK SMILES IDX 4 1 5 2 6 3 7 4 8 5 3 6 2 7 1 8
REMARK H PARENT
REMARK Flexibility Score: inf
ROOT
ATOM      1  C   UNL     1      26.255   6.507   7.246  1.00  0.00     0.006 C 
ENDROOT
BRANCH   1   2
ATOM      2  C   UNL     1      25.586   6.777   5.892  1.00  0.00     0.053 C 
BRANCH   2   3
ATOM      3  C   UNL     1      24.209   7.347   6.055  1.00  0.00     0.041 C 
ATOM      4  O   UNL     1      23.260   6.610   6.432  1.00  0.00    -0.550 OA
ATOM      5  O   UNL     1      23.970   8.682   5.757  1.00  0.00    -0.550 OA
ENDBRANCH   2   3
ENDBRANCH   1   2
BRANCH   1   6
ATOM      6  C   UNL     1      27.031   7.727   7.764  1.00  0.00     0.000 C 
BRANCH   6   7
ATOM      7  C   UNL     1      26.675   8.024   9.226  1.00  0.00    -0.003 C 
ATOM      8  C   UNL     1      25.757   9.237   9.334  1.00  0.00     0.004 C 
ENDBRANCH   6   7
ENDBRANCH   1   6
TORSDOF 4
ENDMDL
MODEL 6
REMARK VINA RESULT:    -3.462     12.860     14.085
REMARK INTER + INTRA:          -4.394
REMARK INTER:                  -4.163
REMARK INTRA:                  -0.232
REMARK UNBOUND:                -0.122
REMARK SMILES CCCCCC(=O)[O-]
REMARK SMILES IDX 4 1 5 2 6 3 7 4 8 5 3 6 2 7 1 8
REMARK H PARENT
REMARK Flexibility Score: inf
ROOT
ATOM      1  C   UNL     1      16.269   1.533  -1.749  1.00  0.00     0.006 C 
ENDROOT
BRANCH   1   2
ATOM      2  C   UNL     1      16.377   2.654  -0.708  1.00  0.00     0.053 C 
BRANCH   2   3
ATOM      3  C   UNL     1      15.285   3.669  -0.866  1.00  0.00     0.041 C 
ATOM      4  O   UNL     1      14.916   4.027  -2.016  1.00  0.00    -0.550 OA
ATOM      5  O   UNL     1      14.700   4.241   0.255  1.00  0.00    -0.550 OA
ENDBRANCH   2   3
ENDBRANCH   1   2
BRANCH   1   6
ATOM      6  C   UNL     1      15.144   0.540  -1.419  1.00  0.00     0.000 C 
BRANCH   6   7
ATOM      7  C   UNL     1      14.236   0.315  -2.634  1.00  0.00    -0.003 C 
ATOM      8  C   UNL     1      12.990   1.192  -2.560  1.00  0.00     0.004 C 
ENDBRANCH   6   7
ENDBRANCH   1   6
TORSDOF 4
ENDMDL
MODEL 7
REMARK VINA RESULT:    -3.459     12.517     13.338
REMARK INTER + INTRA:          -4.390
REMARK INTER:                  -4.253
REMARK INTRA:                  -0.137
REMARK UNBOUND:                -0.122
REMARK SMILES CCCCCC(=O)[O-]
REMARK SMILES IDX 4 1 5 2 6 3 7 4 8 5 3 6 2 7 1 8
REMARK H PARENT
REMARK Flexibility Score: inf
ROOT
ATOM      1  C   UNL     1      15.367   2.986   1.085  1.00  0.00     0.006 C 
ENDROOT
BRANCH   1   2
ATOM      2  C   UNL     1      15.606   4.034  -0.009  1.00  0.00     0.053 C 
BRANCH   2   3
ATOM      3  C   UNL     1      15.366   3.474  -1.379  1.00  0.00     0.041 C 
ATOM      4  O   UNL     1      14.612   4.078  -2.185  1.00  0.00    -0.550 OA
ATOM      5  O   UNL     1      15.949   2.270  -1.749  1.00  0.00    -0.550 OA
ENDBRANCH   2   3
ENDBRANCH   1   2
BRANCH   1   6
ATOM      6  C   UNL     1      14.123   3.301   1.930  1.00  0.00     0.000 C 
BRANCH   6   7
ATOM      7  C   UNL     1      13.590   4.705   1.620  1.00  0.00    -0.003 C 
ATOM      8  C   UNL     1      12.100   4.810   1.929  1.00  0.00     0.004 C 
ENDBRANCH   6   7
ENDBRANCH   1   6
TORSDOF 4
ENDMDL
MODEL 8
REMARK VINA RESULT:    -3.394      2.960      3.986
REMARK INTER + INTRA:          -4.310
REMARK INTER:                  -4.082
REMARK INTRA:                  -0.228
REMARK UNBOUND:                -0.122
REMARK SMILES CCCCCC(=O)[O-]
REMARK SMILES IDX 4 1 5 2 6 3 7 4 8 5 3 6 2 7 1 8
REMARK H PARENT
REMARK Flexibility Score: inf
ROOT
ATOM      1  C   UNL     1      27.706   5.962   6.982  1.00  0.00     0.006 C 
ENDROOT
BRANCH   1   2
ATOM      2  C   UNL     1      27.464   5.796   8.488  1.00  0.00     0.053 C 
BRANCH   2   3
ATOM      3  C   UNL     1      27.392   7.119   9.189  1.00  0.00     0.041 C 
ATOM      4  O   UNL     1      27.397   7.170  10.447  1.00  0.00    -0.550 OA
ATOM      5  O   UNL     1      27.285   8.291   8.453  1.00  0.00    -0.550 OA
ENDBRANCH   2   3
ENDBRANCH   1   2
BRANCH   1   6
ATOM      6  C   UNL     1      26.506   5.493   6.146  1.00  0.00     0.000 C 
BRANCH   6   7
ATOM      7  C   UNL     1      25.656   6.685   5.689  1.00  0.00    -0.003 C 
ATOM      8  C   UNL     1      24.310   6.710   6.408  1.00  0.00     0.004 C 
ENDBRANCH   6   7
ENDBRANCH   1   6
TORSDOF 4
ENDMDL
MODEL 9
REMARK VINA RESULT:    -3.359     11.777     12.574
REMARK INTER + INTRA:          -4.267
REMARK INTER:                  -4.223
REMARK INTRA:                  -0.044
REMARK UNBOUND:                -0.122
REMARK SMILES CCCCCC(=O)[O-]
REMARK SMILES IDX 4 1 5 2 6 3 7 4 8 5 3 6 2 7 1 8
REMARK H PARENT
REMARK Flexibility Score: inf
ROOT
ATOM      1  C   UNL     1      14.980   2.579   0.991  1.00  0.00     0.006 C 
ENDROOT
BRANCH   1   2
ATOM      2  C   UNL     1      15.389   3.765   0.108  1.00  0.00     0.053 C 
BRANCH   2   3
ATOM      3  C   UNL     1      15.352   3.415  -1.349  1.00  0.00     0.041 C 
ATOM      4  O   UNL     1      14.675   4.112  -2.150  1.00  0.00    -0.550 OA
ATOM      5  O   UNL     1      16.036   2.299  -1.813  1.00  0.00    -0.550 OA
ENDBRANCH   2   3
ENDBRANCH   1   2
BRANCH   1   6
ATOM      6  C   UNL     1      15.099   2.900   2.488  1.00  0.00     0.000 C 
BRANCH   6   7
ATOM      7  C   UNL     1      15.041   1.620   3.330  1.00  0.00    -0.003 C 
ATOM      8  C   UNL     1      15.671   1.835   4.704  1.00  0.00     0.004 C 
ENDBRANCH   6   7
ENDBRANCH   1   6
TORSDOF 4
ENDMDL
