MODEL 1
REMARK VINA RESULT:    -4.505      0.000      0.000
REMARK INTER + INTRA:          -6.701
REMARK INTER:                  -6.086
REMARK INTRA:                  -0.615
REMARK UNBOUND:                -0.615
REMARK SMILES C[C@H](O)[C@@H](O)[C@@H](O)[C@@H](O)C=O
REMARK SMILES IDX 4 1 2 2 1 3 3 4 6 6 8 7 10 8 11 9 9 10 7 12 5 14
REMARK H PARENT 3 5 9 11 7 13 5 15
REMARK Flexibility Score: inf
ROOT
ATOM      1  C   UNL     1     -34.279  93.011   5.951  1.00  0.00     0.174 C 
ENDROOT
BRANCH   1   2
ATOM      2  C   UNL     1     -33.342  91.800   5.700  1.00  0.00     0.142 C 
ATOM      3  C   UNL     1     -32.738  91.258   7.002  1.00  0.00     0.041 C 
BRANCH   2   4
ATOM      4  O   UNL     1     -32.327  92.117   4.781  1.00  0.00    -0.391 OA
ATOM      5  H   UNL     1     -31.927  92.982   5.056  1.00  0.00     0.211 HD
ENDBRANCH   2   4
ENDBRANCH   1   2
BRANCH   1   6
ATOM      6  C   UNL     1     -33.760  93.909   7.107  1.00  0.00     0.181 C 
BRANCH   6   7
ATOM      7  C   UNL     1     -34.871  94.834   7.680  1.00  0.00     0.209 C 
BRANCH   7   8
ATOM      8  C   UNL     1     -34.376  96.245   7.873  1.00  0.00     0.258 C 
ATOM      9  O   UNL     1     -33.452  96.481   8.635  1.00  0.00    -0.300 OA
ENDBRANCH   7   8
BRANCH   7  10
ATOM     10  O   UNL     1     -35.371  94.340   8.898  1.00  0.00    -0.383 OA
ATOM     11  H   UNL     1     -35.819  93.473   8.710  1.00  0.00     0.211 HD
ENDBRANCH   7  10
ENDBRANCH   6   7
BRANCH   6  12
ATOM     12  O   UNL     1     -32.662  94.677   6.676  1.00  0.00    -0.387 OA
ATOM     13  H   UNL     1     -32.913  95.634   6.766  1.00  0.00     0.211 HD
ENDBRANCH   6  12
ENDBRANCH   1   6
BRANCH   1  14
ATOM     14  O   UNL     1     -35.574  92.552   6.257  1.00  0.00    -0.388 OA
ATOM     15  H   UNL     1     -36.066  93.310   6.667  1.00  0.00     0.211 HD
ENDBRANCH   1  14
TORSDOF 8
ENDMDL
MODEL 2
REMARK VINA RESULT:    -4.494      1.758      4.161
REMARK INTER + INTRA:          -6.685
REMARK INTER:                  -6.288
REMARK INTRA:                  -0.397
REMARK UNBOUND:                -0.615
REMARK SMILES C[C@H](O)[C@@H](O)[C@@H](O)[C@@H](O)C=O
REMARK SMILES IDX 4 1 2 2 1 3 3 4 6 6 8 7 10 8 11 9 9 10 7 12 5 14
REMARK H PARENT 3 5 9 11 7 13 5 15
REMARK Flexibility Score: inf
ROOT
ATOM      1  C   UNL     1     -34.621  93.078   8.903  1.00  0.00     0.174 C 
ENDROOT
BRANCH   1   2
ATOM      2  C   UNL     1     -34.058  94.431   8.391  1.00  0.00     0.142 C 
ATOM      3  C   UNL     1     -32.785  94.847   9.140  1.00  0.00     0.041 C 
BRANCH   2   4
ATOM      4  O   UNL     1     -35.025  95.449   8.460  1.00  0.00    -0.391 OA
ATOM      5  H   UNL     1     -35.474  95.381   9.342  1.00  0.00     0.211 HD
ENDBRANCH   2   4
ENDBRANCH   1   2
BRANCH   1   6
ATOM      6  C   UNL     1     -35.447  92.348   7.808  1.00  0.00     0.181 C 
BRANCH   6   7
ATOM      7  C   UNL     1     -34.585  91.344   6.991  1.00  0.00     0.209 C 
BRANCH   7   8
ATOM      8  C   UNL     1     -33.684  92.053   6.011  1.00  0.00     0.258 C 
ATOM      9  O   UNL     1     -34.155  92.723   5.107  1.00  0.00    -0.300 OA
ENDBRANCH   7   8
BRANCH   7  10
ATOM     10  O   UNL     1     -35.391  90.418   6.306  1.00  0.00    -0.383 OA
ATOM     11  H   UNL     1     -35.013  90.306   5.394  1.00  0.00     0.211 HD
ENDBRANCH   7  10
ENDBRANCH   6   7
BRANCH   6  12
ATOM     12  O   UNL     1     -36.052  93.283   6.948  1.00  0.00    -0.387 OA
ATOM     13  H   UNL     1     -35.917  92.963   6.017  1.00  0.00     0.211 HD
ENDBRANCH   6  12
ENDBRANCH   1   6
BRANCH   1  14
ATOM     14  O   UNL     1     -35.430  93.300  10.033  1.00  0.00    -0.388 OA
ATOM     15  H   UNL     1     -35.253  92.563  10.673  1.00  0.00     0.211 HD
ENDBRANCH   1  14
TORSDOF 8
ENDMDL
MODEL 3
REMARK VINA RESULT:    -4.491     18.335     19.607
REMARK INTER + INTRA:          -6.681
REMARK INTER:                  -6.015
REMARK INTRA:                  -0.666
REMARK UNBOUND:                -0.615
REMARK SMILES C[C@H](O)[C@@H](O)[C@@H](O)[C@@H](O)C=O
REMARK SMILES IDX 4 1 2 2 1 3 3 4 6 6 8 7 10 8 11 9 9 10 7 12 5 14
REMARK H PARENT 3 5 9 11 7 13 5 15
REMARK Flexibility Score: inf
ROOT
ATOM      1  C   UNL     1     -17.956  96.292  -3.669  1.00  0.00     0.174 C 
ENDROOT
BRANCH   1   2
ATOM      2  C   UNL     1     -18.008  94.865  -3.061  1.00  0.00     0.142 C 
ATOM      3  C   UNL     1     -18.060  93.779  -4.144  1.00  0.00     0.041 C 
BRANCH   2   4
ATOM      4  O   UNL     1     -19.087  94.724  -2.171  1.00  0.00    -0.391 OA
ATOM      5  H   UNL     1     -18.718  94.682  -1.251  1.00  0.00     0.211 HD
ENDBRANCH   2   4
ENDBRANCH   1   2
BRANCH   1   6
ATOM      6  C   UNL     1     -18.855  96.413  -4.930  1.00  0.00     0.181 C 
BRANCH   6   7
ATOM      7  C   UNL     1     -18.519  97.674  -5.775  1.00  0.00     0.209 C 
BRANCH   7   8
ATOM      8  C   UNL     1     -19.762  98.315  -6.338  1.00  0.00     0.258 C 
ATOM      9  O   UNL     1     -20.535  98.917  -5.610  1.00  0.00    -0.300 OA
ENDBRANCH   7   8
BRANCH   7  10
ATOM     10  O   UNL     1     -17.631  97.368  -6.822  1.00  0.00    -0.383 OA
ATOM     11  H   UNL     1     -16.707  97.461  -6.470  1.00  0.00     0.211 HD
ENDBRANCH   7  10
ENDBRANCH   6   7
BRANCH   6  12
ATOM     12  O   UNL     1     -20.214  96.420  -4.564  1.00  0.00    -0.387 OA
ATOM     13  H   UNL     1     -20.268  96.737  -3.624  1.00  0.00     0.211 HD
ENDBRANCH   6  12
ENDBRANCH   1   6
BRANCH   1  14
ATOM     14  O   UNL     1     -16.628  96.615  -4.005  1.00  0.00    -0.388 OA
ATOM     15  H   UNL     1     -16.506  97.583  -3.828  1.00  0.00     0.211 HD
ENDBRANCH   1  14
TORSDOF 8
ENDMDL
MODEL 4
REMARK VINA RESULT:    -4.357      1.627      4.232
REMARK INTER + INTRA:          -6.500
REMARK INTER:                  -5.803
REMARK INTRA:                  -0.697
REMARK UNBOUND:                -0.615
REMARK SMILES C[C@H](O)[C@@H](O)[C@@H](O)[C@@H](O)C=O
REMARK SMILES IDX 4 1 2 2 1 3 3 4 6 6 8 7 10 8 11 9 9 10 7 12 5 14
REMARK H PARENT 3 5 9 11 7 13 5 15
REMARK Flexibility Score: inf
ROOT
ATOM      1  C   UNL     1     -34.757  92.465   7.102  1.00  0.00     0.174 C 
ENDROOT
BRANCH   1   2
ATOM      2  C   UNL     1     -35.324  93.755   7.752  1.00  0.00     0.142 C 
ATOM      3  C   UNL     1     -34.572  95.011   7.294  1.00  0.00     0.041 C 
BRANCH   2   4
ATOM      4  O   UNL     1     -35.326  93.666   9.155  1.00  0.00    -0.391 OA
ATOM      5  H   UNL     1     -36.204  93.993   9.479  1.00  0.00     0.211 HD
ENDBRANCH   2   4
ENDBRANCH   1   2
BRANCH   1   6
ATOM      6  C   UNL     1     -33.210  92.523   6.967  1.00  0.00     0.181 C 
BRANCH   6   7
ATOM      7  C   UNL     1     -32.682  91.596   5.835  1.00  0.00     0.209 C 
BRANCH   7   8
ATOM      8  C   UNL     1     -31.286  91.104   6.124  1.00  0.00     0.258 C 
ATOM      9  O   UNL     1     -30.362  91.893   6.244  1.00  0.00    -0.300 OA
ENDBRANCH   7   8
BRANCH   7  10
ATOM     10  O   UNL     1     -32.704  92.246   4.589  1.00  0.00    -0.383 OA
ATOM     11  H   UNL     1     -33.551  91.996   4.134  1.00  0.00     0.211 HD
ENDBRANCH   7  10
ENDBRANCH   6   7
BRANCH   6  12
ATOM     12  O   UNL     1     -32.599  92.193   8.191  1.00  0.00    -0.387 OA
ATOM     13  H   UNL     1     -31.777  91.675   7.985  1.00  0.00     0.211 HD
ENDBRANCH   6  12
ENDBRANCH   1   6
BRANCH   1  14
ATOM     14  O   UNL     1     -35.333  92.282   5.832  1.00  0.00    -0.388 OA
ATOM     15  H   UNL     1     -34.611  91.983   5.220  1.00  0.00     0.211 HD
ENDBRANCH   1  14
TORSDOF 8
ENDMDL
MODEL 5
REMARK VINA RESULT:    -4.331      1.635      4.353
REMARK INTER + INTRA:          -6.465
REMARK INTER:                  -5.814
REMARK INTRA:                  -0.652
REMARK UNBOUND:                -0.615
REMARK SMILES C[C@H](O)[C@@H](O)[C@@H](O)[C@@H](O)C=O
REMARK SMILES IDX 4 1 2 2 1 3 3 4 6 6 8 7 10 8 11 9 9 10 7 12 5 14
REMARK H PARENT 3 5 9 11 7 13 5 15
REMARK Flexibility Score: inf
ROOT
ATOM      1  C   UNL     1     -33.759  93.280   6.380  1.00  0.00     0.174 C 
ENDROOT
BRANCH   1   2
ATOM      2  C   UNL     1     -34.873  93.758   7.350  1.00  0.00     0.142 C 
ATOM      3  C   UNL     1     -34.542  93.436   8.813  1.00  0.00     0.041 C 
BRANCH   2   4
ATOM      4  O   UNL     1     -36.125  93.224   6.999  1.00  0.00    -0.391 OA
ATOM      5  H   UNL     1     -36.196  93.242   6.010  1.00  0.00     0.211 HD
ENDBRANCH   2   4
ENDBRANCH   1   2
BRANCH   1   6
ATOM      6  C   UNL     1     -33.480  91.759   6.533  1.00  0.00     0.181 C 
BRANCH   6   7
ATOM      7  C   UNL     1     -32.357  91.267   5.575  1.00  0.00     0.209 C 
BRANCH   7   8
ATOM      8  C   UNL     1     -31.035  91.137   6.289  1.00  0.00     0.258 C 
ATOM      9  O   UNL     1     -30.223  92.048   6.262  1.00  0.00    -0.300 OA
ENDBRANCH   7   8
BRANCH   7  10
ATOM     10  O   UNL     1     -32.214  92.125   4.470  1.00  0.00    -0.383 OA
ATOM     11  H   UNL     1     -33.092  92.564   4.314  1.00  0.00     0.211 HD
ENDBRANCH   7  10
ENDBRANCH   6   7
BRANCH   6  12
ATOM     12  O   UNL     1     -34.659  91.021   6.320  1.00  0.00    -0.387 OA
ATOM     13  H   UNL     1     -34.394  90.126   5.980  1.00  0.00     0.211 HD
ENDBRANCH   6  12
ENDBRANCH   1   6
BRANCH   1  14
ATOM     14  O   UNL     1     -32.577  94.002   6.625  1.00  0.00    -0.388 OA
ATOM     15  H   UNL     1     -32.487  94.097   7.608  1.00  0.00     0.211 HD
ENDBRANCH   1  14
TORSDOF 8
ENDMDL
MODEL 6
REMARK VINA RESULT:    -4.310     17.857     19.497
REMARK INTER + INTRA:          -6.437
REMARK INTER:                  -6.009
REMARK INTRA:                  -0.428
REMARK UNBOUND:                -0.615
REMARK SMILES C[C@H](O)[C@@H](O)[C@@H](O)[C@@H](O)C=O
REMARK SMILES IDX 4 1 2 2 1 3 3 4 6 6 8 7 10 8 11 9 9 10 7 12 5 14
REMARK H PARENT 3 5 9 11 7 13 5 15
REMARK Flexibility Score: inf
ROOT
ATOM      1  C   UNL     1     -17.422  95.841  -4.699  1.00  0.00     0.174 C 
ENDROOT
BRANCH   1   2
ATOM      2  C   UNL     1     -17.978  95.933  -6.146  1.00  0.00     0.142 C 
ATOM      3  C   UNL     1     -17.785  94.624  -6.922  1.00  0.00     0.041 C 
BRANCH   2   4
ATOM      4  O   UNL     1     -17.410  97.010  -6.847  1.00  0.00    -0.391 OA
ATOM      5  H   UNL     1     -16.709  97.412  -6.271  1.00  0.00     0.211 HD
ENDBRANCH   2   4
ENDBRANCH   1   2
BRANCH   1   6
ATOM      6  C   UNL     1     -18.564  95.806  -3.647  1.00  0.00     0.181 C 
BRANCH   6   7
ATOM      7  C   UNL     1     -18.587  94.473  -2.845  1.00  0.00     0.209 C 
BRANCH   7   8
ATOM      8  C   UNL     1     -19.302  93.381  -3.601  1.00  0.00     0.258 C 
ATOM      9  O   UNL     1     -20.513  93.259  -3.517  1.00  0.00    -0.300 OA
ENDBRANCH   7   8
BRANCH   7  10
ATOM     10  O   UNL     1     -19.186  94.644  -1.585  1.00  0.00    -0.383 OA
ATOM     11  H   UNL     1     -19.137  95.610  -1.356  1.00  0.00     0.211 HD
ENDBRANCH   7  10
ENDBRANCH   6   7
BRANCH   6  12
ATOM     12  O   UNL     1     -19.809  96.022  -4.268  1.00  0.00    -0.387 OA
ATOM     13  H   UNL     1     -20.511  95.668  -3.660  1.00  0.00     0.211 HD
ENDBRANCH   6  12
ENDBRANCH   1   6
BRANCH   1  14
ATOM     14  O   UNL     1     -16.582  96.941  -4.444  1.00  0.00    -0.388 OA
ATOM     15  H   UNL     1     -16.214  96.825  -3.530  1.00  0.00     0.211 HD
ENDBRANCH   1  14
TORSDOF 8
ENDMDL
MODEL 7
REMARK VINA RESULT:    -4.293     18.772     20.154
REMARK INTER + INTRA:          -6.414
REMARK INTER:                  -5.728
REMARK INTRA:                  -0.687
REMARK UNBOUND:                -0.615
REMARK SMILES C[C@H](O)[C@@H](O)[C@@H](O)[C@@H](O)C=O
REMARK SMILES IDX 4 1 2 2 1 3 3 4 6 6 8 7 10 8 11 9 9 10 7 12 5 14
REMARK H PARENT 3 5 9 11 7 13 5 15
REMARK Flexibility Score: inf
ROOT
ATOM      1  C   UNL     1     -19.740  98.386  -6.464  1.00  0.00     0.174 C 
ENDROOT
BRANCH   1   2
ATOM      2  C   UNL     1     -21.204  98.845  -6.231  1.00  0.00     0.142 C 
ATOM      3  C   UNL     1     -21.772  99.599  -7.441  1.00  0.00     0.041 C 
BRANCH   2   4
ATOM      4  O   UNL     1     -21.321  99.623  -5.066  1.00  0.00    -0.391 OA
ATOM      5  H   UNL     1     -21.795  99.080  -4.385  1.00  0.00     0.211 HD
ENDBRANCH   2   4
ENDBRANCH   1   2
BRANCH   1   6
ATOM      6  C   UNL     1     -19.223  97.499  -5.298  1.00  0.00     0.181 C 
BRANCH   6   7
ATOM      7  C   UNL     1     -18.071  96.553  -5.742  1.00  0.00     0.209 C 
BRANCH   7   8
ATOM      8  C   UNL     1     -17.067  96.342  -4.636  1.00  0.00     0.258 C 
ATOM      9  O   UNL     1     -17.413  96.382  -3.467  1.00  0.00    -0.300 OA
ENDBRANCH   7   8
BRANCH   7  10
ATOM     10  O   UNL     1     -17.417  97.045  -6.885  1.00  0.00    -0.383 OA
ATOM     11  H   UNL     1     -17.892  96.687  -7.681  1.00  0.00     0.211 HD
ENDBRANCH   7  10
ENDBRANCH   6   7
BRANCH   6  12
ATOM     12  O   UNL     1     -20.281  96.752  -4.746  1.00  0.00    -0.387 OA
ATOM     13  H   UNL     1     -19.920  95.860  -4.498  1.00  0.00     0.211 HD
ENDBRANCH   6  12
ENDBRANCH   1   6
BRANCH   1  14
ATOM     14  O   UNL     1     -18.908  99.513  -6.601  1.00  0.00    -0.388 OA
ATOM     15  H   UNL     1     -19.049  99.875  -7.513  1.00  0.00     0.211 HD
ENDBRANCH   1  14
TORSDOF 8
ENDMDL
MODEL 8
REMARK VINA RESULT:    -4.285      1.245      4.237
REMARK INTER + INTRA:          -6.403
REMARK INTER:                  -5.877
REMARK INTRA:                  -0.526
REMARK UNBOUND:                -0.615
REMARK SMILES C[C@H](O)[C@@H](O)[C@@H](O)[C@@H](O)C=O
REMARK SMILES IDX 4 1 2 2 1 3 3 4 6 6 8 7 10 8 11 9 9 10 7 12 5 14
REMARK H PARENT 3 5 9 11 7 13 5 15
REMARK Flexibility Score: inf
ROOT
ATOM      1  C   UNL     1     -34.086  94.770   8.086  1.00  0.00     0.174 C 
ENDROOT
BRANCH   1   2
ATOM      2  C   UNL     1     -34.103  96.284   7.744  1.00  0.00     0.142 C 
ATOM      3  C   UNL     1     -32.936  97.036   8.396  1.00  0.00     0.041 C 
BRANCH   2   4
ATOM      4  O   UNL     1     -35.329  96.876   8.094  1.00  0.00    -0.391 OA
ATOM      5  H   UNL     1     -35.747  97.222   7.264  1.00  0.00     0.211 HD
ENDBRANCH   2   4
ENDBRANCH   1   2
BRANCH   1   6
ATOM      6  C   UNL     1     -33.798  93.900   6.831  1.00  0.00     0.181 C 
BRANCH   6   7
ATOM      7  C   UNL     1     -34.484  92.507   6.909  1.00  0.00     0.209 C 
BRANCH   7   8
ATOM      8  C   UNL     1     -33.610  91.423   6.328  1.00  0.00     0.258 C 
ATOM      9  O   UNL     1     -32.690  90.952   6.978  1.00  0.00    -0.300 OA
ENDBRANCH   7   8
BRANCH   7  10
ATOM     10  O   UNL     1     -35.728  92.511   6.253  1.00  0.00    -0.383 OA
ATOM     11  H   UNL     1     -36.010  93.458   6.149  1.00  0.00     0.211 HD
ENDBRANCH   7  10
ENDBRANCH   6   7
BRANCH   6  12
ATOM     12  O   UNL     1     -32.411  93.751   6.647  1.00  0.00    -0.387 OA
ATOM     13  H   UNL     1     -32.111  94.474   6.034  1.00  0.00     0.211 HD
ENDBRANCH   6  12
ENDBRANCH   1   6
BRANCH   1  14
ATOM     14  O   UNL     1     -35.324  94.396   8.642  1.00  0.00    -0.388 OA
ATOM     15  H   UNL     1     -35.896  94.074   7.899  1.00  0.00     0.211 HD
ENDBRANCH   1  14
TORSDOF 8
ENDMDL
MODEL 9
REMARK VINA RESULT:    -4.281     17.831     19.541
REMARK INTER + INTRA:          -6.398
REMARK INTER:                  -5.752
REMARK INTRA:                  -0.646
REMARK UNBOUND:                -0.615
REMARK SMILES C[C@H](O)[C@@H](O)[C@@H](O)[C@@H](O)C=O
REMARK SMILES IDX 4 1 2 2 1 3 3 4 6 6 8 7 10 8 11 9 9 10 7 12 5 14
REMARK H PARENT 3 5 9 11 7 13 5 15
REMARK Flexibility Score: inf
ROOT
ATOM      1  C   UNL     1     -17.525  96.200  -4.540  1.00  0.00     0.174 C 
ENDROOT
BRANCH   1   2
ATOM      2  C   UNL     1     -17.765  97.358  -5.547  1.00  0.00     0.142 C 
ATOM      3  C   UNL     1     -19.197  97.902  -5.468  1.00  0.00     0.041 C 
BRANCH   2   4
ATOM      4  O   UNL     1     -17.457  96.968  -6.862  1.00  0.00    -0.391 OA
ATOM      5  H   UNL     1     -17.974  96.145  -7.063  1.00  0.00     0.211 HD
ENDBRANCH   2   4
ENDBRANCH   1   2
BRANCH   1   6
ATOM      6  C   UNL     1     -18.794  95.322  -4.362  1.00  0.00     0.181 C 
BRANCH   6   7
ATOM      7  C   UNL     1     -18.682  94.364  -3.142  1.00  0.00     0.209 C 
BRANCH   7   8
ATOM      8  C   UNL     1     -19.607  93.181  -3.276  1.00  0.00     0.258 C 
ATOM      9  O   UNL     1     -19.265  92.193  -3.905  1.00  0.00    -0.300 OA
ENDBRANCH   7   8
BRANCH   7  10
ATOM     10  O   UNL     1     -18.949  95.037  -1.937  1.00  0.00    -0.383 OA
ATOM     11  H   UNL     1     -19.231  94.358  -1.269  1.00  0.00     0.211 HD
ENDBRANCH   7  10
ENDBRANCH   6   7
BRANCH   6  12
ATOM     12  O   UNL     1     -19.049  94.588  -5.536  1.00  0.00    -0.387 OA
ATOM     13  H   UNL     1     -18.506  94.990  -6.264  1.00  0.00     0.211 HD
ENDBRANCH   6  12
ENDBRANCH   1   6
BRANCH   1  14
ATOM     14  O   UNL     1     -17.140  96.729  -3.294  1.00  0.00    -0.388 OA
ATOM     15  H   UNL     1     -17.879  97.313  -2.981  1.00  0.00     0.211 HD
ENDBRANCH   1  14
TORSDOF 8
ENDMDL
