MODEL 1
REMARK VINA RESULT:    -3.414      0.000      0.000
REMARK INTER + INTRA:          -8.716
REMARK INTER:                  -6.608
REMARK INTRA:                  -2.107
REMARK UNBOUND:                -2.107
REMARK SMILES CCCCCCCCCCCCCCCCCC(=O)[O-]
REMARK SMILES IDX 10 1 11 2 12 3 13 4 14 5 15 6 16 7 17 8 18 9 19 10 20 11
REMARK SMILES IDX 9 12 8 13 7 14 6 15 5 16 4 17 3 18 2 19 1 20
REMARK H PARENT
REMARK Flexibility Score: inf
ROOT
ATOM      1  C   UNL     1       8.312  -2.614  20.694  1.00  0.00     0.000 C 
ENDROOT
BRANCH   1   2
ATOM      2  C   UNL     1       9.737  -2.400  20.158  1.00  0.00     0.000 C 
BRANCH   2   3
ATOM      3  C   UNL     1      10.670  -1.763  21.201  1.00  0.00     0.000 C 
BRANCH   3   4
ATOM      4  C   UNL     1      10.617  -2.479  22.563  1.00  0.00     0.000 C 
BRANCH   4   5
ATOM      5  C   UNL     1      10.933  -1.540  23.739  1.00  0.00     0.000 C 
BRANCH   5   6
ATOM      6  C   UNL     1       9.695  -0.768  24.227  1.00  0.00     0.000 C 
BRANCH   6   7
ATOM      7  C   UNL     1       8.418  -1.624  24.197  1.00  0.00     0.006 C 
BRANCH   7   8
ATOM      8  C   UNL     1       7.612  -1.532  25.499  1.00  0.00     0.053 C 
BRANCH   8   9
ATOM      9  C   UNL     1       7.322  -2.901  26.029  1.00  0.00     0.041 C 
ATOM     10  O   UNL     1       8.201  -3.530  26.675  1.00  0.00    -0.550 OA
ATOM     11  O   UNL     1       6.065  -3.464  25.850  1.00  0.00    -0.550 OA
ENDBRANCH   8   9
ENDBRANCH   7   8
ENDBRANCH   6   7
ENDBRANCH   5   6
ENDBRANCH   4   5
ENDBRANCH   3   4
ENDBRANCH   2   3
ENDBRANCH   1   2
BRANCH   1  12
ATOM     12  C   UNL     1       7.250  -1.851  19.884  1.00  0.00     0.000 C 
BRANCH  12  13
ATOM     13  C   UNL     1       6.398  -2.759  18.972  1.00  0.00    -0.000 C 
BRANCH  13  14
ATOM     14  C   UNL     1       6.413  -2.286  17.507  1.00  0.00    -0.000 C 
BRANCH  14  15
ATOM     15  C   UNL     1       7.619  -2.829  16.723  1.00  0.00    -0.000 C 
BRANCH  15  16
ATOM     16  C   UNL     1       8.098  -4.194  17.247  1.00  0.00    -0.000 C 
BRANCH  16  17
ATOM     17  C   UNL     1       9.603  -4.413  17.031  1.00  0.00    -0.000 C 
BRANCH  17  18
ATOM     18  C   UNL     1      10.131  -5.653  17.770  1.00  0.00    -0.000 C 
BRANCH  18  19
ATOM     19  C   UNL     1       9.234  -6.003  18.962  1.00  0.00    -0.003 C 
ATOM     20  C   UNL     1      10.041  -6.087  20.254  1.00  0.00     0.004 C 
ENDBRANCH  18  19
ENDBRANCH  17  18
ENDBRANCH  16  17
ENDBRANCH  15  16
ENDBRANCH  14  15
ENDBRANCH  13  14
ENDBRANCH  12  13
ENDBRANCH   1  12
TORSDOF 16
ENDMDL
MODEL 2
REMARK VINA RESULT:    -3.329      4.360      6.457
REMARK INTER + INTRA:          -8.550
REMARK INTER:                  -5.516
REMARK INTRA:                  -3.034
REMARK UNBOUND:                -2.107
REMARK SMILES CCCCCCCCCCCCCCCCCC(=O)[O-]
REMARK SMILES IDX 10 1 11 2 12 3 13 4 14 5 15 6 16 7 17 8 18 9 19 10 20 11
REMARK SMILES IDX 9 12 8 13 7 14 6 15 5 16 4 17 3 18 2 19 1 20
REMARK H PARENT
REMARK Flexibility Score: inf
ROOT
ATOM      1  C   UNL     1      10.717  -3.299  20.446  1.00  0.00     0.000 C 
ENDROOT
BRANCH   1   2
ATOM      2  C   UNL     1       9.724  -2.156  20.715  1.00  0.00     0.000 C 
BRANCH   2   3
ATOM      3  C   UNL     1       8.265  -2.642  20.766  1.00  0.00     0.000 C 
BRANCH   3   4
ATOM      4  C   UNL     1       7.342  -1.845  19.827  1.00  0.00     0.000 C 
BRANCH   4   5
ATOM      5  C   UNL     1       6.309  -2.736  19.116  1.00  0.00     0.000 C 
BRANCH   5   6
ATOM      6  C   UNL     1       5.629  -2.023  17.934  1.00  0.00     0.000 C 
BRANCH   6   7
ATOM      7  C   UNL     1       6.035  -0.544  17.826  1.00  0.00     0.006 C 
BRANCH   7   8
ATOM      8  C   UNL     1       5.428   0.149  16.599  1.00  0.00     0.053 C 
BRANCH   8   9
ATOM      9  C   UNL     1       5.709  -0.644  15.361  1.00  0.00     0.041 C 
ATOM     10  O   UNL     1       6.888  -0.758  14.936  1.00  0.00    -0.550 OA
ATOM     11  O   UNL     1       4.674  -1.297  14.705  1.00  0.00    -0.550 OA
ENDBRANCH   8   9
ENDBRANCH   7   8
ENDBRANCH   6   7
ENDBRANCH   5   6
ENDBRANCH   4   5
ENDBRANCH   3   4
ENDBRANCH   2   3
ENDBRANCH   1   2
BRANCH   1  12
ATOM     12  C   UNL     1      10.116  -4.688  20.725  1.00  0.00     0.000 C 
BRANCH  12  13
ATOM     13  C   UNL     1      10.731  -5.812  19.865  1.00  0.00    -0.000 C 
BRANCH  13  14
ATOM     14  C   UNL     1       9.672  -6.535  19.014  1.00  0.00    -0.000 C 
BRANCH  14  15
ATOM     15  C   UNL     1       8.613  -5.575  18.447  1.00  0.00    -0.000 C 
BRANCH  15  16
ATOM     16  C   UNL     1       8.842  -5.256  16.959  1.00  0.00    -0.000 C 
BRANCH  16  17
ATOM     17  C   UNL     1       9.860  -4.124  16.748  1.00  0.00    -0.000 C 
BRANCH  17  18
ATOM     18  C   UNL     1       9.220  -2.730  16.841  1.00  0.00    -0.000 C 
BRANCH  18  19
ATOM     19  C   UNL     1      10.293  -1.638  16.892  1.00  0.00    -0.003 C 
ATOM     20  C   UNL     1       9.728  -0.335  17.451  1.00  0.00     0.004 C 
ENDBRANCH  18  19
ENDBRANCH  17  18
ENDBRANCH  16  17
ENDBRANCH  15  16
ENDBRANCH  14  15
ENDBRANCH  13  14
ENDBRANCH  12  13
ENDBRANCH   1  12
TORSDOF 16
ENDMDL
MODEL 3
REMARK VINA RESULT:    -3.227      1.048      3.042
REMARK INTER + INTRA:          -8.354
REMARK INTER:                  -6.347
REMARK INTRA:                  -2.007
REMARK UNBOUND:                -2.107
REMARK SMILES CCCCCCCCCCCCCCCCCC(=O)[O-]
REMARK SMILES IDX 10 1 11 2 12 3 13 4 14 5 15 6 16 7 17 8 18 9 19 10 20 11
REMARK SMILES IDX 9 12 8 13 7 14 6 15 5 16 4 17 3 18 2 19 1 20
REMARK H PARENT
REMARK Flexibility Score: inf
ROOT
ATOM      1  C   UNL     1      11.081  -3.868  19.425  1.00  0.00     0.000 C 
ENDROOT
BRANCH   1   2
ATOM      2  C   UNL     1      10.660  -2.452  19.851  1.00  0.00     0.000 C 
BRANCH   2   3
ATOM      3  C   UNL     1       9.892  -2.441  21.183  1.00  0.00     0.000 C 
BRANCH   3   4
ATOM      4  C   UNL     1      10.580  -1.581  22.258  1.00  0.00     0.000 C 
BRANCH   4   5
ATOM      5  C   UNL     1      10.180  -1.985  23.687  1.00  0.00     0.000 C 
BRANCH   5   6
ATOM      6  C   UNL     1      10.121  -0.783  24.646  1.00  0.00     0.000 C 
BRANCH   6   7
ATOM      7  C   UNL     1       9.006  -0.920  25.694  1.00  0.00     0.006 C 
BRANCH   7   8
ATOM      8  C   UNL     1       7.792  -1.697  25.170  1.00  0.00     0.053 C 
BRANCH   8   9
ATOM      9  C   UNL     1       7.372  -2.736  26.162  1.00  0.00     0.041 C 
ATOM     10  O   UNL     1       8.158  -3.668  26.475  1.00  0.00    -0.550 OA
ATOM     11  O   UNL     1       6.129  -2.649  26.776  1.00  0.00    -0.550 OA
ENDBRANCH   8   9
ENDBRANCH   7   8
ENDBRANCH   6   7
ENDBRANCH   5   6
ENDBRANCH   4   5
ENDBRANCH   3   4
ENDBRANCH   2   3
ENDBRANCH   1   2
BRANCH   1  12
ATOM     12  C   UNL     1      10.605  -4.952  20.408  1.00  0.00     0.000 C 
BRANCH  12  13
ATOM     13  C   UNL     1       9.671  -6.001  19.767  1.00  0.00    -0.000 C 
BRANCH  13  14
ATOM     14  C   UNL     1       9.735  -5.968  18.229  1.00  0.00    -0.000 C 
BRANCH  14  15
ATOM     15  C   UNL     1       8.390  -5.587  17.590  1.00  0.00    -0.000 C 
BRANCH  15  16
ATOM     16  C   UNL     1       8.491  -4.331  16.706  1.00  0.00    -0.000 C 
BRANCH  16  17
ATOM     17  C   UNL     1       7.872  -3.091  17.370  1.00  0.00    -0.000 C 
BRANCH  17  18
ATOM     18  C   UNL     1       7.110  -3.430  18.660  1.00  0.00    -0.000 C 
BRANCH  18  19
ATOM     19  C   UNL     1       6.415  -2.188  19.228  1.00  0.00    -0.003 C 
ATOM     20  C   UNL     1       5.310  -1.700  18.298  1.00  0.00     0.004 C 
ENDBRANCH  18  19
ENDBRANCH  17  18
ENDBRANCH  16  17
ENDBRANCH  15  16
ENDBRANCH  14  15
ENDBRANCH  13  14
ENDBRANCH  12  13
ENDBRANCH   1  12
TORSDOF 16
ENDMDL
MODEL 4
REMARK VINA RESULT:    -3.227      4.821      7.043
REMARK INTER + INTRA:          -8.353
REMARK INTER:                  -6.772
REMARK INTRA:                  -1.581
REMARK UNBOUND:                -2.107
REMARK SMILES CCCCCCCCCCCCCCCCCC(=O)[O-]
REMARK SMILES IDX 10 1 11 2 12 3 13 4 14 5 15 6 16 7 17 8 18 9 19 10 20 11
REMARK SMILES IDX 9 12 8 13 7 14 6 15 5 16 4 17 3 18 2 19 1 20
REMARK H PARENT
REMARK Flexibility Score: inf
ROOT
ATOM      1  C   UNL     1       8.341  -6.338  18.170  1.00  0.00     0.000 C 
ENDROOT
BRANCH   1   2
ATOM      2  C   UNL     1       9.519  -6.359  19.158  1.00  0.00     0.000 C 
BRANCH   2   3
ATOM      3  C   UNL     1       9.676  -5.031  19.917  1.00  0.00     0.000 C 
BRANCH   3   4
ATOM      4  C   UNL     1       9.116  -3.830  19.135  1.00  0.00     0.000 C 
BRANCH   4   5
ATOM      5  C   UNL     1       8.687  -2.673  20.052  1.00  0.00     0.000 C 
BRANCH   5   6
ATOM      6  C   UNL     1       7.168  -2.431  20.025  1.00  0.00     0.000 C 
BRANCH   6   7
ATOM      7  C   UNL     1       6.508  -2.970  18.746  1.00  0.00     0.006 C 
BRANCH   7   8
ATOM      8  C   UNL     1       5.763  -1.884  17.960  1.00  0.00     0.053 C 
BRANCH   8   9
ATOM      9  C   UNL     1       6.043  -2.015  16.496  1.00  0.00     0.041 C 
ATOM     10  O   UNL     1       7.166  -2.422  16.100  1.00  0.00    -0.550 OA
ATOM     11  O   UNL     1       5.047  -1.733  15.570  1.00  0.00    -0.550 OA
ENDBRANCH   8   9
ENDBRANCH   7   8
ENDBRANCH   6   7
ENDBRANCH   5   6
ENDBRANCH   4   5
ENDBRANCH   3   4
ENDBRANCH   2   3
ENDBRANCH   1   2
BRANCH   1  12
ATOM     12  C   UNL     1       8.445  -7.433  17.095  1.00  0.00     0.000 C 
BRANCH  12  13
ATOM     13  C   UNL     1       9.817  -8.139  17.062  1.00  0.00    -0.000 C 
BRANCH  13  14
ATOM     14  C   UNL     1       9.725  -9.603  17.529  1.00  0.00    -0.000 C 
BRANCH  14  15
ATOM     15  C   UNL     1       9.573 -10.588  16.359  1.00  0.00    -0.000 C 
BRANCH  15  16
ATOM     16  C   UNL     1       8.405 -11.569  16.561  1.00  0.00    -0.000 C 
BRANCH  16  17
ATOM     17  C   UNL     1       7.265 -10.965  17.397  1.00  0.00    -0.000 C 
BRANCH  17  18
ATOM     18  C   UNL     1       5.888 -11.158  16.743  1.00  0.00    -0.000 C 
BRANCH  18  19
ATOM     19  C   UNL     1       5.928 -10.779  15.259  1.00  0.00    -0.003 C 
ATOM     20  C   UNL     1       6.045  -9.268  15.078  1.00  0.00     0.004 C 
ENDBRANCH  18  19
ENDBRANCH  17  18
ENDBRANCH  16  17
ENDBRANCH  15  16
ENDBRANCH  14  15
ENDBRANCH  13  14
ENDBRANCH  12  13
ENDBRANCH   1  12
TORSDOF 16
ENDMDL
MODEL 5
REMARK VINA RESULT:    -3.179     10.028     13.062
REMARK INTER + INTRA:          -8.259
REMARK INTER:                  -5.513
REMARK INTRA:                  -2.747
REMARK UNBOUND:                -2.107
REMARK SMILES CCCCCCCCCCCCCCCCCC(=O)[O-]
REMARK SMILES IDX 10 1 11 2 12 3 13 4 14 5 15 6 16 7 17 8 18 9 19 10 20 11
REMARK SMILES IDX 9 12 8 13 7 14 6 15 5 16 4 17 3 18 2 19 1 20
REMARK H PARENT
REMARK Flexibility Score: inf
ROOT
ATOM      1  C   UNL     1       1.234   3.455  15.640  1.00  0.00     0.000 C 
ENDROOT
BRANCH   1   2
ATOM      2  C   UNL     1       2.010   2.137  15.484  1.00  0.00     0.000 C 
BRANCH   2   3
ATOM      3  C   UNL     1       3.503   2.287  15.823  1.00  0.00     0.000 C 
BRANCH   3   4
ATOM      4  C   UNL     1       4.421   1.755  14.708  1.00  0.00     0.000 C 
BRANCH   4   5
ATOM      5  C   UNL     1       3.768   0.629  13.889  1.00  0.00     0.000 C 
BRANCH   5   6
ATOM      6  C   UNL     1       3.766   0.922  12.379  1.00  0.00     0.000 C 
BRANCH   6   7
ATOM      7  C   UNL     1       2.614   0.218  11.644  1.00  0.00     0.006 C 
BRANCH   7   8
ATOM      8  C   UNL     1       1.659  -0.510  12.598  1.00  0.00     0.053 C 
BRANCH   8   9
ATOM      9  C   UNL     1       1.294  -1.852  12.046  1.00  0.00     0.041 C 
ATOM     10  O   UNL     1       0.876  -1.958  10.863  1.00  0.00    -0.550 OA
ATOM     11  O   UNL     1       1.461  -2.991  12.822  1.00  0.00    -0.550 OA
ENDBRANCH   8   9
ENDBRANCH   7   8
ENDBRANCH   6   7
ENDBRANCH   5   6
ENDBRANCH   4   5
ENDBRANCH   3   4
ENDBRANCH   2   3
ENDBRANCH   1   2
BRANCH   1  12
ATOM     12  C   UNL     1       2.090   4.582  16.243  1.00  0.00     0.000 C 
BRANCH  12  13
ATOM     13  C   UNL     1       1.728   5.985  15.712  1.00  0.00    -0.000 C 
BRANCH  13  14
ATOM     14  C   UNL     1       0.217   6.136  15.459  1.00  0.00    -0.000 C 
BRANCH  14  15
ATOM     15  C   UNL     1      -0.104   6.540  14.011  1.00  0.00    -0.000 C 
BRANCH  15  16
ATOM     16  C   UNL     1       1.028   7.353  13.361  1.00  0.00    -0.000 C 
BRANCH  16  17
ATOM     17  C   UNL     1       1.655   6.634  12.155  1.00  0.00    -0.000 C 
BRANCH  17  18
ATOM     18  C   UNL     1       1.009   5.267  11.883  1.00  0.00    -0.000 C 
BRANCH  18  19
ATOM     19  C   UNL     1       2.004   4.130  12.140  1.00  0.00    -0.003 C 
ATOM     20  C   UNL     1       3.354   4.672  12.600  1.00  0.00     0.004 C 
ENDBRANCH  18  19
ENDBRANCH  17  18
ENDBRANCH  16  17
ENDBRANCH  15  16
ENDBRANCH  14  15
ENDBRANCH  13  14
ENDBRANCH  12  13
ENDBRANCH   1  12
TORSDOF 16
ENDMDL
MODEL 6
REMARK VINA RESULT:    -3.142      4.068      6.036
REMARK INTER + INTRA:          -8.187
REMARK INTER:                  -6.283
REMARK INTRA:                  -1.905
REMARK UNBOUND:                -2.107
REMARK SMILES CCCCCCCCCCCCCCCCCC(=O)[O-]
REMARK SMILES IDX 10 1 11 2 12 3 13 4 14 5 15 6 16 7 17 8 18 9 19 10 20 11
REMARK SMILES IDX 9 12 8 13 7 14 6 15 5 16 4 17 3 18 2 19 1 20
REMARK H PARENT
REMARK Flexibility Score: inf
ROOT
ATOM      1  C   UNL     1      11.042  -3.964  21.089  1.00  0.00     0.000 C 
ENDROOT
BRANCH   1   2
ATOM      2  C   UNL     1      10.897  -2.507  20.617  1.00  0.00     0.000 C 
BRANCH   2   3
ATOM      3  C   UNL     1       9.917  -1.701  21.485  1.00  0.00     0.000 C 
BRANCH   3   4
ATOM      4  C   UNL     1       8.447  -2.082  21.230  1.00  0.00     0.000 C 
BRANCH   4   5
ATOM      5  C   UNL     1       7.988  -1.748  19.801  1.00  0.00     0.000 C 
BRANCH   5   6
ATOM      6  C   UNL     1       6.679  -2.462  19.421  1.00  0.00     0.000 C 
BRANCH   6   7
ATOM      7  C   UNL     1       6.509  -2.610  17.900  1.00  0.00     0.006 C 
BRANCH   7   8
ATOM      8  C   UNL     1       5.442  -1.668  17.329  1.00  0.00     0.053 C 
BRANCH   8   9
ATOM      9  C   UNL     1       5.692  -1.420  15.874  1.00  0.00     0.041 C 
ATOM     10  O   UNL     1       6.830  -1.054  15.480  1.00  0.00    -0.550 OA
ATOM     11  O   UNL     1       4.680  -1.641  14.948  1.00  0.00    -0.550 OA
ENDBRANCH   8   9
ENDBRANCH   7   8
ENDBRANCH   6   7
ENDBRANCH   5   6
ENDBRANCH   4   5
ENDBRANCH   3   4
ENDBRANCH   2   3
ENDBRANCH   1   2
BRANCH   1  12
ATOM     12  C   UNL     1      10.734  -4.983  19.978  1.00  0.00     0.000 C 
BRANCH  12  13
ATOM     13  C   UNL     1      10.748  -4.375  18.560  1.00  0.00    -0.000 C 
BRANCH  13  14
ATOM     14  C   UNL     1       9.442  -4.657  17.797  1.00  0.00    -0.000 C 
BRANCH  14  15
ATOM     15  C   UNL     1       8.546  -5.680  18.514  1.00  0.00    -0.000 C 
BRANCH  15  16
ATOM     16  C   UNL     1       8.238  -6.909  17.642  1.00  0.00    -0.000 C 
BRANCH  16  17
ATOM     17  C   UNL     1       9.400  -7.914  17.606  1.00  0.00    -0.000 C 
BRANCH  17  18
ATOM     18  C   UNL     1       8.970  -9.296  17.090  1.00  0.00    -0.000 C 
BRANCH  18  19
ATOM     19  C   UNL     1       7.443  -9.402  17.017  1.00  0.00    -0.003 C 
ATOM     20  C   UNL     1       6.994  -9.983  15.679  1.00  0.00     0.004 C 
ENDBRANCH  18  19
ENDBRANCH  17  18
ENDBRANCH  16  17
ENDBRANCH  15  16
ENDBRANCH  14  15
ENDBRANCH  13  14
ENDBRANCH  12  13
ENDBRANCH   1  12
TORSDOF 16
ENDMDL
MODEL 7
REMARK VINA RESULT:    -3.123      4.931      7.320
REMARK INTER + INTRA:          -8.151
REMARK INTER:                  -5.831
REMARK INTRA:                  -2.320
REMARK UNBOUND:                -2.107
REMARK SMILES CCCCCCCCCCCCCCCCCC(=O)[O-]
REMARK SMILES IDX 10 1 11 2 12 3 13 4 14 5 15 6 16 7 17 8 18 9 19 10 20 11
REMARK SMILES IDX 9 12 8 13 7 14 6 15 5 16 4 17 3 18 2 19 1 20
REMARK H PARENT
REMARK Flexibility Score: inf
ROOT
ATOM      1  C   UNL     1       8.146  -3.043  19.589  1.00  0.00     0.000 C 
ENDROOT
BRANCH   1   2
ATOM      2  C   UNL     1       9.509  -3.646  19.208  1.00  0.00     0.000 C 
BRANCH   2   3
ATOM      3  C   UNL     1       9.971  -4.730  20.196  1.00  0.00     0.000 C 
BRANCH   3   4
ATOM      4  C   UNL     1       9.602  -6.151  19.732  1.00  0.00     0.000 C 
BRANCH   4   5
ATOM      5  C   UNL     1       9.400  -6.245  18.211  1.00  0.00     0.000 C 
BRANCH   5   6
ATOM      6  C   UNL     1       8.022  -6.814  17.832  1.00  0.00     0.000 C 
BRANCH   6   7
ATOM      7  C   UNL     1       8.092  -7.789  16.646  1.00  0.00     0.006 C 
BRANCH   7   8
ATOM      8  C   UNL     1       7.851  -9.245  17.061  1.00  0.00     0.053 C 
BRANCH   8   9
ATOM      9  C   UNL     1       6.633  -9.786  16.380  1.00  0.00     0.041 C 
ATOM     10  O   UNL     1       6.109 -10.859  16.778  1.00  0.00    -0.550 OA
ATOM     11  O   UNL     1       6.049  -9.080  15.336  1.00  0.00    -0.550 OA
ENDBRANCH   8   9
ENDBRANCH   7   8
ENDBRANCH   6   7
ENDBRANCH   5   6
ENDBRANCH   4   5
ENDBRANCH   3   4
ENDBRANCH   2   3
ENDBRANCH   1   2
BRANCH   1  12
ATOM     12  C   UNL     1       7.078  -3.254  18.502  1.00  0.00     0.000 C 
BRANCH  12  13
ATOM     13  C   UNL     1       7.629  -3.153  17.064  1.00  0.00    -0.000 C 
BRANCH  13  14
ATOM     14  C   UNL     1       7.008  -1.978  16.288  1.00  0.00    -0.000 C 
BRANCH  14  15
ATOM     15  C   UNL     1       5.540  -1.728  16.668  1.00  0.00    -0.000 C 
BRANCH  15  16
ATOM     16  C   UNL     1       5.283  -0.275  17.105  1.00  0.00    -0.000 C 
BRANCH  16  17
ATOM     17  C   UNL     1       4.981  -0.155  18.607  1.00  0.00    -0.000 C 
BRANCH  17  18
ATOM     18  C   UNL     1       6.211   0.268  19.425  1.00  0.00    -0.000 C 
BRANCH  18  19
ATOM     19  C   UNL     1       7.258   0.940  18.531  1.00  0.00    -0.003 C 
ATOM     20  C   UNL     1       8.671   0.508  18.915  1.00  0.00     0.004 C 
ENDBRANCH  18  19
ENDBRANCH  17  18
ENDBRANCH  16  17
ENDBRANCH  15  16
ENDBRANCH  14  15
ENDBRANCH  13  14
ENDBRANCH  12  13
ENDBRANCH   1  12
TORSDOF 16
ENDMDL
MODEL 8
REMARK VINA RESULT:    -3.110      4.530      7.271
REMARK INTER + INTRA:          -8.127
REMARK INTER:                  -5.594
REMARK INTRA:                  -2.533
REMARK UNBOUND:                -2.107
REMARK SMILES CCCCCCCCCCCCCCCCCC(=O)[O-]
REMARK SMILES IDX 10 1 11 2 12 3 13 4 14 5 15 6 16 7 17 8 18 9 19 10 20 11
REMARK SMILES IDX 9 12 8 13 7 14 6 15 5 16 4 17 3 18 2 19 1 20
REMARK H PARENT
REMARK Flexibility Score: inf
ROOT
ATOM      1  C   UNL     1      11.006  -2.830  18.060  1.00  0.00     0.000 C 
ENDROOT
BRANCH   1   2
ATOM      2  C   UNL     1      10.977  -4.367  18.071  1.00  0.00     0.000 C 
BRANCH   2   3
ATOM      3  C   UNL     1      10.891  -4.945  19.493  1.00  0.00     0.000 C 
BRANCH   3   4
ATOM      4  C   UNL     1       9.632  -5.803  19.711  1.00  0.00     0.000 C 
BRANCH   4   5
ATOM      5  C   UNL     1       9.415  -6.832  18.588  1.00  0.00     0.000 C 
BRANCH   5   6
ATOM      6  C   UNL     1       8.071  -6.640  17.864  1.00  0.00     0.000 C 
BRANCH   6   7
ATOM      7  C   UNL     1       7.656  -7.879  17.054  1.00  0.00     0.006 C 
BRANCH   7   8
ATOM      8  C   UNL     1       8.825  -8.840  16.800  1.00  0.00     0.053 C 
BRANCH   8   9
ATOM      9  C   UNL     1       8.665  -9.515  15.474  1.00  0.00     0.041 C 
ATOM     10  O   UNL     1       8.664  -8.837  14.414  1.00  0.00    -0.550 OA
ATOM     11  O   UNL     1       8.566 -10.899  15.407  1.00  0.00    -0.550 OA
ENDBRANCH   8   9
ENDBRANCH   7   8
ENDBRANCH   6   7
ENDBRANCH   5   6
ENDBRANCH   4   5
ENDBRANCH   3   4
ENDBRANCH   2   3
ENDBRANCH   1   2
BRANCH   1  12
ATOM     12  C   UNL     1       9.819  -2.217  17.296  1.00  0.00     0.000 C 
BRANCH  12  13
ATOM     13  C   UNL     1       8.720  -3.240  16.939  1.00  0.00    -0.000 C 
BRANCH  13  14
ATOM     14  C   UNL     1       7.311  -2.711  17.265  1.00  0.00    -0.000 C 
BRANCH  14  15
ATOM     15  C   UNL     1       6.811  -3.170  18.644  1.00  0.00    -0.000 C 
BRANCH  15  16
ATOM     16  C   UNL     1       7.121  -2.152  19.754  1.00  0.00    -0.000 C 
BRANCH  16  17
ATOM     17  C   UNL     1       8.140  -2.682  20.775  1.00  0.00    -0.000 C 
BRANCH  17  18
ATOM     18  C   UNL     1       8.944  -1.558  21.446  1.00  0.00    -0.000 C 
BRANCH  18  19
ATOM     19  C   UNL     1      10.426  -1.931  21.551  1.00  0.00    -0.003 C 
ATOM     20  C   UNL     1      10.805  -2.293  22.984  1.00  0.00     0.004 C 
ENDBRANCH  18  19
ENDBRANCH  17  18
ENDBRANCH  16  17
ENDBRANCH  15  16
ENDBRANCH  14  15
ENDBRANCH  13  14
ENDBRANCH  12  13
ENDBRANCH   1  12
TORSDOF 16
ENDMDL
MODEL 9
REMARK VINA RESULT:    -3.067      8.521     11.185
REMARK INTER + INTRA:          -8.043
REMARK INTER:                  -5.629
REMARK INTRA:                  -2.414
REMARK UNBOUND:                -2.107
REMARK SMILES CCCCCCCCCCCCCCCCCC(=O)[O-]
REMARK SMILES IDX 10 1 11 2 12 3 13 4 14 5 15 6 16 7 17 8 18 9 19 10 20 11
REMARK SMILES IDX 9 12 8 13 7 14 6 15 5 16 4 17 3 18 2 19 1 20
REMARK H PARENT
REMARK Flexibility Score: inf
ROOT
ATOM      1  C   UNL     1      -1.902  -0.452  25.593  1.00  0.00     0.000 C 
ENDROOT
BRANCH   1   2
ATOM      2  C   UNL     1      -2.714  -0.569  24.294  1.00  0.00     0.000 C 
BRANCH   2   3
ATOM      3  C   UNL     1      -2.406  -1.862  23.519  1.00  0.00     0.000 C 
BRANCH   3   4
ATOM      4  C   UNL     1      -2.970  -1.845  22.088  1.00  0.00     0.000 C 
BRANCH   4   5
ATOM      5  C   UNL     1      -2.099  -1.032  21.116  1.00  0.00     0.000 C 
BRANCH   5   6
ATOM      6  C   UNL     1      -0.608  -1.398  21.214  1.00  0.00     0.000 C 
BRANCH   6   7
ATOM      7  C   UNL     1       0.301  -0.159  21.267  1.00  0.00     0.006 C 
BRANCH   7   8
ATOM      8  C   UNL     1       1.025   0.103  19.941  1.00  0.00     0.053 C 
BRANCH   8   9
ATOM      9  C   UNL     1       1.270   1.568  19.761  1.00  0.00     0.041 C 
ATOM     10  O   UNL     1       1.461   2.306  20.763  1.00  0.00    -0.550 OA
ATOM     11  O   UNL     1       1.336   2.110  18.484  1.00  0.00    -0.550 OA
ENDBRANCH   8   9
ENDBRANCH   7   8
ENDBRANCH   6   7
ENDBRANCH   5   6
ENDBRANCH   4   5
ENDBRANCH   3   4
ENDBRANCH   2   3
ENDBRANCH   1   2
BRANCH   1  12
ATOM     12  C   UNL     1      -0.439  -0.043  25.347  1.00  0.00     0.000 C 
BRANCH  12  13
ATOM     13  C   UNL     1       0.582  -1.134  25.734  1.00  0.00    -0.000 C 
BRANCH  13  14
ATOM     14  C   UNL     1       1.458  -1.555  24.540  1.00  0.00    -0.000 C 
BRANCH  14  15
ATOM     15  C   UNL     1       1.793  -3.055  24.553  1.00  0.00    -0.000 C 
BRANCH  15  16
ATOM     16  C   UNL     1       0.715  -3.907  23.861  1.00  0.00    -0.000 C 
BRANCH  16  17
ATOM     17  C   UNL     1       0.807  -5.395  24.235  1.00  0.00    -0.000 C 
BRANCH  17  18
ATOM     18  C   UNL     1      -0.310  -5.832  25.196  1.00  0.00    -0.000 C 
BRANCH  18  19
ATOM     19  C   UNL     1      -1.328  -4.705  25.400  1.00  0.00    -0.003 C 
ATOM     20  C   UNL     1      -1.316  -4.205  26.842  1.00  0.00     0.004 C 
ENDBRANCH  18  19
ENDBRANCH  17  18
ENDBRANCH  16  17
ENDBRANCH  15  16
ENDBRANCH  14  15
ENDBRANCH  13  14
ENDBRANCH  12  13
ENDBRANCH   1  12
TORSDOF 16
ENDMDL
