MODEL 1
REMARK VINA RESULT:    -6.984      0.000      0.000
REMARK INTER + INTRA:          -8.664
REMARK INTER:                  -8.413
REMARK INTRA:                  -0.250
REMARK UNBOUND:                -0.250
REMARK SMILES O=c1c(O)c(-c2ccc(O)c(O)c2)oc2cc(O)cc(O)c12
REMARK SMILES IDX 5 1 3 2 2 3 1 4 22 5 20 6 19 7 17 8 16 9 15 10 14 11 6 12
REMARK SMILES IDX 7 13 8 14 9 15 13 16 11 17 10 18 12 20 4 22 21 24 18 26
REMARK H PARENT 10 19 12 21 4 23 21 25 18 27
REMARK Flexibility Score: inf
ROOT
ATOM      1  C   UNL     1      -0.893 -22.556  27.980  1.00  0.00     0.180 A 
ATOM      2  C   UNL     1      -0.218 -21.914  29.036  1.00  0.00     0.208 A 
ATOM      3  C   UNL     1      -0.962 -21.424  30.121  1.00  0.00     0.238 A 
ATOM      4  O   UNL     1      -0.369 -20.838  31.066  1.00  0.00    -0.285 OA
ATOM      5  C   UNL     1      -2.360 -21.603  30.142  1.00  0.00     0.111 A 
ATOM      6  C   UNL     1      -3.184 -21.144  31.200  1.00  0.00     0.134 A 
ATOM      7  C   UNL     1      -4.567 -21.369  31.152  1.00  0.00     0.093 A 
ATOM      8  C   UNL     1      -5.143 -22.043  30.069  1.00  0.00     0.123 A 
ATOM      9  C   UNL     1      -4.336 -22.496  29.024  1.00  0.00     0.094 A 
ATOM     10  C   UNL     1      -2.955 -22.281  29.052  1.00  0.00     0.146 A 
ATOM     11  O   UNL     1      -2.211 -22.719  28.043  1.00  0.00    -0.452 OA
ENDROOT
BRANCH   1  12
ATOM     12  C   UNL     1      -0.181 -23.081  26.794  1.00  0.00     0.025 A 
ATOM     13  C   UNL     1       0.044 -24.459  26.624  1.00  0.00     0.016 A 
ATOM     14  C   UNL     1       0.739 -24.929  25.509  1.00  0.00     0.051 A 
ATOM     15  C   UNL     1       1.232 -24.032  24.552  1.00  0.00     0.157 A 
ATOM     16  C   UNL     1       0.333 -22.185  25.843  1.00  0.00     0.062 A 
ATOM     17  C   UNL     1       1.030 -22.653  24.723  1.00  0.00     0.158 A 
BRANCH  15  18
ATOM     18  O   UNL     1       1.924 -24.505  23.438  1.00  0.00    -0.504 OA
ATOM     19  H   UNL     1       2.492 -25.343  23.483  1.00  0.00     0.293 HD
ENDBRANCH  15  18
BRANCH  17  20
ATOM     20  O   UNL     1       1.514 -21.733  23.793  1.00  0.00    -0.504 OA
ATOM     21  H   UNL     1       0.953 -20.960  23.459  1.00  0.00     0.293 HD
ENDBRANCH  17  20
ENDBRANCH   1  12
BRANCH   2  22
ATOM     22  O   UNL     1       1.175 -21.793  29.014  1.00  0.00    -0.502 OA
ATOM     23  H   UNL     1       1.786 -22.587  28.866  1.00  0.00     0.293 HD
ENDBRANCH   2  22
BRANCH   6  24
ATOM     24  O   UNL     1      -2.638 -20.470  32.293  1.00  0.00    -0.507 OA
ATOM     25  H   UNL     1      -1.656 -20.547  32.530  1.00  0.00     0.293 HD
ENDBRANCH   6  24
BRANCH   8  26
ATOM     26  O   UNL     1      -6.517 -22.267  30.022  1.00  0.00    -0.508 OA
ATOM     27  H   UNL     1      -7.166 -21.692  30.545  1.00  0.00     0.293 HD
ENDBRANCH   8  26
TORSDOF 6
ENDMDL
MODEL 2
REMARK VINA RESULT:    -6.943      8.352     10.834
REMARK INTER + INTRA:          -8.614
REMARK INTER:                  -8.295
REMARK INTRA:                  -0.319
REMARK UNBOUND:                -0.250
REMARK SMILES O=c1c(O)c(-c2ccc(O)c(O)c2)oc2cc(O)cc(O)c12
REMARK SMILES IDX 5 1 3 2 2 3 1 4 22 5 20 6 19 7 17 8 16 9 15 10 14 11 6 12
REMARK SMILES IDX 7 13 8 14 9 15 13 16 11 17 10 18 12 20 4 22 21 24 18 26
REMARK H PARENT 10 19 12 21 4 23 21 25 18 27
REMARK Flexibility Score: inf
ROOT
ATOM      1  C   UNL     1       7.909 -25.366  28.531  1.00  0.00     0.180 A 
ATOM      2  C   UNL     1       7.850 -23.961  28.449  1.00  0.00     0.208 A 
ATOM      3  C   UNL     1       7.137 -23.372  27.393  1.00  0.00     0.238 A 
ATOM      4  O   UNL     1       7.087 -22.116  27.303  1.00  0.00    -0.285 OA
ATOM      5  C   UNL     1       6.479 -24.193  26.454  1.00  0.00     0.111 A 
ATOM      6  C   UNL     1       5.736 -23.679  25.363  1.00  0.00     0.134 A 
ATOM      7  C   UNL     1       5.102 -24.562  24.477  1.00  0.00     0.093 A 
ATOM      8  C   UNL     1       5.197 -25.946  24.659  1.00  0.00     0.123 A 
ATOM      9  C   UNL     1       5.930 -26.457  25.731  1.00  0.00     0.094 A 
ATOM     10  C   UNL     1       6.570 -25.595  26.626  1.00  0.00     0.146 A 
ATOM     11  O   UNL     1       7.265 -26.107  27.635  1.00  0.00    -0.452 OA
ENDROOT
BRANCH   1  12
ATOM     12  C   UNL     1       8.658 -26.061  29.603  1.00  0.00     0.025 A 
ATOM     13  C   UNL     1       8.028 -26.464  30.793  1.00  0.00     0.016 A 
ATOM     14  C   UNL     1       8.759 -27.097  31.800  1.00  0.00     0.051 A 
ATOM     15  C   UNL     1      10.132 -27.326  31.641  1.00  0.00     0.157 A 
ATOM     16  C   UNL     1      10.038 -26.274  29.456  1.00  0.00     0.062 A 
ATOM     17  C   UNL     1      10.774 -26.909  30.463  1.00  0.00     0.158 A 
BRANCH  15  18
ATOM     18  O   UNL     1      10.859 -27.960  32.647  1.00  0.00    -0.504 OA
ATOM     19  H   UNL     1      11.536 -28.683  32.436  1.00  0.00     0.293 HD
ENDBRANCH  15  18
BRANCH  17  20
ATOM     20  O   UNL     1      12.141 -27.115  30.276  1.00  0.00    -0.504 OA
ATOM     21  H   UNL     1      12.500 -27.919  29.778  1.00  0.00     0.293 HD
ENDBRANCH  17  20
ENDBRANCH   1  12
BRANCH   2  22
ATOM     22  O   UNL     1       8.470 -23.170  29.420  1.00  0.00    -0.502 OA
ATOM     23  H   UNL     1       9.189 -23.531  30.036  1.00  0.00     0.293 HD
ENDBRANCH   2  22
BRANCH   6  24
ATOM     24  O   UNL     1       5.621 -22.304  25.157  1.00  0.00    -0.507 OA
ATOM     25  H   UNL     1       6.389 -21.671  25.348  1.00  0.00     0.293 HD
ENDBRANCH   6  24
BRANCH   8  26
ATOM     26  O   UNL     1       4.567 -26.823  23.779  1.00  0.00    -0.508 OA
ATOM     27  H   UNL     1       3.561 -26.937  23.773  1.00  0.00     0.293 HD
ENDBRANCH   8  26
TORSDOF 6
ENDMDL
MODEL 3
REMARK VINA RESULT:    -6.856      1.541      7.117
REMARK INTER + INTRA:          -8.509
REMARK INTER:                  -8.200
REMARK INTRA:                  -0.310
REMARK UNBOUND:                -0.250
REMARK SMILES O=c1c(O)c(-c2ccc(O)c(O)c2)oc2cc(O)cc(O)c12
REMARK SMILES IDX 5 1 3 2 2 3 1 4 22 5 20 6 19 7 17 8 16 9 15 10 14 11 6 12
REMARK SMILES IDX 7 13 8 14 9 15 13 16 11 17 10 18 12 20 4 22 21 24 18 26
REMARK H PARENT 10 19 12 21 4 23 21 25 18 27
REMARK Flexibility Score: inf
ROOT
ATOM      1  C   UNL     1      -1.379 -23.139  28.066  1.00  0.00     0.180 A 
ATOM      2  C   UNL     1      -1.253 -24.542  28.065  1.00  0.00     0.208 A 
ATOM      3  C   UNL     1      -0.437 -25.150  27.098  1.00  0.00     0.238 A 
ATOM      4  O   UNL     1      -0.326 -26.406  27.081  1.00  0.00    -0.285 OA
ATOM      5  C   UNL     1       0.255 -24.348  26.167  1.00  0.00     0.111 A 
ATOM      6  C   UNL     1       1.101 -24.881  25.164  1.00  0.00     0.134 A 
ATOM      7  C   UNL     1       1.762 -24.016  24.280  1.00  0.00     0.093 A 
ATOM      8  C   UNL     1       1.594 -22.630  24.379  1.00  0.00     0.123 A 
ATOM      9  C   UNL     1       0.760 -22.100  25.365  1.00  0.00     0.094 A 
ATOM     10  C   UNL     1       0.091 -22.945  26.255  1.00  0.00     0.146 A 
ATOM     11  O   UNL     1      -0.700 -22.415  27.181  1.00  0.00    -0.452 OA
ENDROOT
BRANCH   1  12
ATOM     12  C   UNL     1      -2.236 -22.426  29.040  1.00  0.00     0.025 A 
ATOM     13  C   UNL     1      -1.707 -21.895  30.229  1.00  0.00     0.016 A 
ATOM     14  C   UNL     1      -2.539 -21.247  31.144  1.00  0.00     0.051 A 
ATOM     15  C   UNL     1      -3.912 -21.131  30.894  1.00  0.00     0.157 A 
ATOM     16  C   UNL     1      -3.616 -22.325  28.803  1.00  0.00     0.062 A 
ATOM     17  C   UNL     1      -4.453 -21.676  29.718  1.00  0.00     0.158 A 
BRANCH  15  18
ATOM     18  O   UNL     1      -4.740 -20.482  31.809  1.00  0.00    -0.504 OA
ATOM     19  H   UNL     1      -4.413 -19.690  32.351  1.00  0.00     0.293 HD
ENDBRANCH  15  18
BRANCH  17  20
ATOM     20  O   UNL     1      -5.817 -21.585  29.442  1.00  0.00    -0.504 OA
ATOM     21  H   UNL     1      -6.477 -21.205  30.109  1.00  0.00     0.293 HD
ENDBRANCH  17  20
ENDBRANCH   1  12
BRANCH   2  22
ATOM     22  O   UNL     1      -1.910 -25.310  29.029  1.00  0.00    -0.502 OA
ATOM     23  H   UNL     1      -2.774 -25.803  28.835  1.00  0.00     0.293 HD
ENDBRANCH   2  22
BRANCH   6  24
ATOM     24  O   UNL     1       1.290 -26.258  25.041  1.00  0.00    -0.507 OA
ATOM     25  H   UNL     1       1.408 -26.701  24.138  1.00  0.00     0.293 HD
ENDBRANCH   6  24
BRANCH   8  26
ATOM     26  O   UNL     1       2.250 -21.771  23.502  1.00  0.00    -0.508 OA
ATOM     27  H   UNL     1       2.576 -22.085  22.595  1.00  0.00     0.293 HD
ENDBRANCH   8  26
TORSDOF 6
ENDMDL
MODEL 4
REMARK VINA RESULT:    -6.848      8.342     11.039
REMARK INTER + INTRA:          -8.500
REMARK INTER:                  -8.228
REMARK INTRA:                  -0.272
REMARK UNBOUND:                -0.250
REMARK SMILES O=c1c(O)c(-c2ccc(O)c(O)c2)oc2cc(O)cc(O)c12
REMARK SMILES IDX 5 1 3 2 2 3 1 4 22 5 20 6 19 7 17 8 16 9 15 10 14 11 6 12
REMARK SMILES IDX 7 13 8 14 9 15 13 16 11 17 10 18 12 20 4 22 21 24 18 26
REMARK H PARENT 10 19 12 21 4 23 21 25 18 27
REMARK Flexibility Score: inf
ROOT
ATOM      1  C   UNL     1       7.265 -26.228  28.346  1.00  0.00     0.180 A 
ATOM      2  C   UNL     1       6.536 -26.763  29.426  1.00  0.00     0.208 A 
ATOM      3  C   UNL     1       7.222 -27.130  30.593  1.00  0.00     0.238 A 
ATOM      4  O   UNL     1       6.581 -27.621  31.562  1.00  0.00    -0.285 OA
ATOM      5  C   UNL     1       8.617 -26.936  30.671  1.00  0.00     0.111 A 
ATOM      6  C   UNL     1       9.383 -27.275  31.813  1.00  0.00     0.134 A 
ATOM      7  C   UNL     1      10.766 -27.043  31.816  1.00  0.00     0.093 A 
ATOM      8  C   UNL     1      11.397 -26.480  30.701  1.00  0.00     0.123 A 
ATOM      9  C   UNL     1      10.647 -26.145  29.573  1.00  0.00     0.094 A 
ATOM     10  C   UNL     1       9.267 -26.370  29.549  1.00  0.00     0.146 A 
ATOM     11  O   UNL     1       8.577 -26.047  28.461  1.00  0.00    -0.452 OA
ENDROOT
BRANCH   1  12
ATOM     12  C   UNL     1       6.615 -25.836  27.075  1.00  0.00     0.025 A 
ATOM     13  C   UNL     1       6.342 -24.489  26.777  1.00  0.00     0.016 A 
ATOM     14  C   UNL     1       5.708 -24.145  25.581  1.00  0.00     0.051 A 
ATOM     15  C   UNL     1       5.324 -25.139  24.672  1.00  0.00     0.157 A 
ATOM     16  C   UNL     1       6.211 -26.830  26.170  1.00  0.00     0.062 A 
ATOM     17  C   UNL     1       5.575 -26.489  24.970  1.00  0.00     0.158 A 
BRANCH  15  18
ATOM     18  O   UNL     1       4.692 -24.793  23.479  1.00  0.00    -0.504 OA
ATOM     19  H   UNL     1       4.727 -25.396  22.666  1.00  0.00     0.293 HD
ENDBRANCH  15  18
BRANCH  17  20
ATOM     20  O   UNL     1       5.199 -27.503  24.090  1.00  0.00    -0.504 OA
ATOM     21  H   UNL     1       5.317 -28.483  24.317  1.00  0.00     0.293 HD
ENDBRANCH  17  20
ENDBRANCH   1  12
BRANCH   2  22
ATOM     22  O   UNL     1       5.147 -26.899  29.342  1.00  0.00    -0.502 OA
ATOM     23  H   UNL     1       4.696 -27.403  28.588  1.00  0.00     0.293 HD
ENDBRANCH   2  22
BRANCH   6  24
ATOM     24  O   UNL     1       8.782 -27.837  32.940  1.00  0.00    -0.507 OA
ATOM     25  H   UNL     1       9.164 -28.658  33.394  1.00  0.00     0.293 HD
ENDBRANCH   6  24
BRANCH   8  26
ATOM     26  O   UNL     1      12.771 -26.248  30.704  1.00  0.00    -0.508 OA
ATOM     27  H   UNL     1      13.174 -25.445  30.236  1.00  0.00     0.293 HD
ENDBRANCH   8  26
TORSDOF 6
ENDMDL
MODEL 5
REMARK VINA RESULT:    -6.733      5.349      7.519
REMARK INTER + INTRA:          -8.361
REMARK INTER:                  -8.033
REMARK INTRA:                  -0.328
REMARK UNBOUND:                -0.250
REMARK SMILES O=c1c(O)c(-c2ccc(O)c(O)c2)oc2cc(O)cc(O)c12
REMARK SMILES IDX 5 1 3 2 2 3 1 4 22 5 20 6 19 7 17 8 16 9 15 10 14 11 6 12
REMARK SMILES IDX 7 13 8 14 9 15 13 16 11 17 10 18 12 20 4 22 21 24 18 26
REMARK H PARENT 10 19 12 21 4 23 21 25 18 27
REMARK Flexibility Score: inf
ROOT
ATOM      1  C   UNL     1       3.354 -22.974  26.164  1.00  0.00     0.180 A 
ATOM      2  C   UNL     1       4.489 -23.594  25.607  1.00  0.00     0.208 A 
ATOM      3  C   UNL     1       4.348 -24.855  25.006  1.00  0.00     0.238 A 
ATOM      4  O   UNL     1       5.359 -25.425  24.514  1.00  0.00    -0.285 OA
ATOM      5  C   UNL     1       3.077 -25.462  24.953  1.00  0.00     0.111 A 
ATOM      6  C   UNL     1       2.847 -26.729  24.362  1.00  0.00     0.134 A 
ATOM      7  C   UNL     1       1.550 -27.261  24.340  1.00  0.00     0.093 A 
ATOM      8  C   UNL     1       0.479 -26.554  24.897  1.00  0.00     0.123 A 
ATOM      9  C   UNL     1       0.700 -25.306  25.482  1.00  0.00     0.094 A 
ATOM     10  C   UNL     1       1.986 -24.757  25.515  1.00  0.00     0.146 A 
ATOM     11  O   UNL     1       2.169 -23.571  26.082  1.00  0.00    -0.452 OA
ENDROOT
BRANCH   1  12
ATOM     12  C   UNL     1       3.426 -21.654  26.831  1.00  0.00     0.025 A 
ATOM     13  C   UNL     1       3.792 -21.537  28.183  1.00  0.00     0.016 A 
ATOM     14  C   UNL     1       3.830 -20.284  28.798  1.00  0.00     0.051 A 
ATOM     15  C   UNL     1       3.491 -19.131  28.078  1.00  0.00     0.157 A 
ATOM     16  C   UNL     1       3.068 -20.498  26.119  1.00  0.00     0.062 A 
ATOM     17  C   UNL     1       3.105 -19.241  26.732  1.00  0.00     0.158 A 
BRANCH  15  18
ATOM     18  O   UNL     1       3.532 -17.881  28.694  1.00  0.00    -0.504 OA
ATOM     19  H   UNL     1       4.054 -17.728  29.549  1.00  0.00     0.293 HD
ENDBRANCH  15  18
BRANCH  17  20
ATOM     20  O   UNL     1       2.754 -18.114  25.988  1.00  0.00    -0.504 OA
ATOM     21  H   UNL     1       2.830 -18.090  24.979  1.00  0.00     0.293 HD
ENDBRANCH  17  20
ENDBRANCH   1  12
BRANCH   2  22
ATOM     22  O   UNL     1       5.729 -22.949  25.629  1.00  0.00    -0.502 OA
ATOM     23  H   UNL     1       6.598 -23.448  25.780  1.00  0.00     0.293 HD
ENDBRANCH   2  22
BRANCH   6  24
ATOM     24  O   UNL     1       3.895 -27.458  23.797  1.00  0.00    -0.507 OA
ATOM     25  H   UNL     1       3.878 -27.748  22.826  1.00  0.00     0.293 HD
ENDBRANCH   6  24
BRANCH   8  26
ATOM     26  O   UNL     1      -0.809 -27.083  24.876  1.00  0.00    -0.508 OA
ATOM     27  H   UNL     1      -1.254 -27.431  25.717  1.00  0.00     0.293 HD
ENDBRANCH   8  26
TORSDOF 6
ENDMDL
MODEL 6
REMARK VINA RESULT:    -6.648      6.264      8.080
REMARK INTER + INTRA:          -8.259
REMARK INTER:                  -7.940
REMARK INTRA:                  -0.319
REMARK UNBOUND:                -0.250
REMARK SMILES O=c1c(O)c(-c2ccc(O)c(O)c2)oc2cc(O)cc(O)c12
REMARK SMILES IDX 5 1 3 2 2 3 1 4 22 5 20 6 19 7 17 8 16 9 15 10 14 11 6 12
REMARK SMILES IDX 7 13 8 14 9 15 13 16 11 17 10 18 12 20 4 22 21 24 18 26
REMARK H PARENT 10 19 12 21 4 23 21 25 18 27
REMARK Flexibility Score: inf
ROOT
ATOM      1  C   UNL     1       3.436 -25.945  25.563  1.00  0.00     0.180 A 
ATOM      2  C   UNL     1       3.826 -27.021  24.742  1.00  0.00     0.208 A 
ATOM      3  C   UNL     1       3.797 -28.322  25.267  1.00  0.00     0.238 A 
ATOM      4  O   UNL     1       4.155 -29.291  24.545  1.00  0.00    -0.285 OA
ATOM      5  C   UNL     1       3.360 -28.528  26.592  1.00  0.00     0.111 A 
ATOM      6  C   UNL     1       3.296 -29.807  27.197  1.00  0.00     0.134 A 
ATOM      7  C   UNL     1       2.840 -29.930  28.517  1.00  0.00     0.093 A 
ATOM      8  C   UNL     1       2.448 -28.801  29.244  1.00  0.00     0.123 A 
ATOM      9  C   UNL     1       2.510 -27.538  28.653  1.00  0.00     0.094 A 
ATOM     10  C   UNL     1       2.962 -27.393  27.338  1.00  0.00     0.146 A 
ATOM     11  O   UNL     1       3.016 -26.180  26.802  1.00  0.00    -0.452 OA
ENDROOT
BRANCH   1  12
ATOM     12  C   UNL     1       3.459 -24.543  25.087  1.00  0.00     0.025 A 
ATOM     13  C   UNL     1       4.646 -23.791  25.080  1.00  0.00     0.016 A 
ATOM     14  C   UNL     1       4.639 -22.463  24.650  1.00  0.00     0.051 A 
ATOM     15  C   UNL     1       3.445 -21.861  24.232  1.00  0.00     0.157 A 
ATOM     16  C   UNL     1       2.261 -23.929  24.687  1.00  0.00     0.062 A 
ATOM     17  C   UNL     1       2.249 -22.599  24.255  1.00  0.00     0.158 A 
BRANCH  15  18
ATOM     18  O   UNL     1       3.441 -20.535  23.801  1.00  0.00    -0.504 OA
ATOM     19  H   UNL     1       4.270 -19.956  23.861  1.00  0.00     0.293 HD
ENDBRANCH  15  18
BRANCH  17  20
ATOM     20  O   UNL     1       1.042 -22.027  23.853  1.00  0.00    -0.504 OA
ATOM     21  H   UNL     1       0.317 -22.566  23.397  1.00  0.00     0.293 HD
ENDBRANCH  17  20
ENDBRANCH   1  12
BRANCH   2  22
ATOM     22  O   UNL     1       4.209 -26.795  23.417  1.00  0.00    -0.502 OA
ATOM     23  H   UNL     1       3.538 -26.597  22.684  1.00  0.00     0.293 HD
ENDBRANCH   2  22
BRANCH   6  24
ATOM     24  O   UNL     1       3.679 -30.952  26.496  1.00  0.00    -0.507 OA
ATOM     25  H   UNL     1       3.210 -31.840  26.630  1.00  0.00     0.293 HD
ENDBRANCH   6  24
BRANCH   8  26
ATOM     26  O   UNL     1       1.994 -28.923  30.556  1.00  0.00    -0.508 OA
ATOM     27  H   UNL     1       2.568 -29.341  31.278  1.00  0.00     0.293 HD
ENDBRANCH   8  26
TORSDOF 6
ENDMDL
MODEL 7
REMARK VINA RESULT:    -6.326      1.459      6.852
REMARK INTER + INTRA:          -7.870
REMARK INTER:                  -7.643
REMARK INTRA:                  -0.227
REMARK UNBOUND:                -0.250
REMARK SMILES O=c1c(O)c(-c2ccc(O)c(O)c2)oc2cc(O)cc(O)c12
REMARK SMILES IDX 5 1 3 2 2 3 1 4 22 5 20 6 19 7 17 8 16 9 15 10 14 11 6 12
REMARK SMILES IDX 7 13 8 14 9 15 13 16 11 17 10 18 12 20 4 22 21 24 18 26
REMARK H PARENT 10 19 12 21 4 23 21 25 18 27
REMARK Flexibility Score: inf
ROOT
ATOM      1  C   UNL     1      -0.690 -22.369  27.913  1.00  0.00     0.180 A 
ATOM      2  C   UNL     1       0.172 -21.461  27.270  1.00  0.00     0.208 A 
ATOM      3  C   UNL     1       0.985 -21.922  26.223  1.00  0.00     0.238 A 
ATOM      4  O   UNL     1       1.770 -21.120  25.647  1.00  0.00    -0.285 OA
ATOM      5  C   UNL     1       0.907 -23.271  25.823  1.00  0.00     0.111 A 
ATOM      6  C   UNL     1       1.689 -23.815  24.774  1.00  0.00     0.134 A 
ATOM      7  C   UNL     1       1.546 -25.167  24.429  1.00  0.00     0.093 A 
ATOM      8  C   UNL     1       0.639 -25.985  25.112  1.00  0.00     0.123 A 
ATOM      9  C   UNL     1      -0.132 -25.455  26.147  1.00  0.00     0.094 A 
ATOM     10  C   UNL     1      -0.005 -24.110  26.507  1.00  0.00     0.146 A 
ATOM     11  O   UNL     1      -0.747 -23.631  27.499  1.00  0.00    -0.452 OA
ENDROOT
BRANCH   1  12
ATOM     12  C   UNL     1      -1.564 -21.964  29.038  1.00  0.00     0.025 A 
ATOM     13  C   UNL     1      -1.029 -21.606  30.288  1.00  0.00     0.016 A 
ATOM     14  C   UNL     1      -1.874 -21.251  31.341  1.00  0.00     0.051 A 
ATOM     15  C   UNL     1      -3.264 -21.259  31.168  1.00  0.00     0.157 A 
ATOM     16  C   UNL     1      -2.958 -21.991  28.875  1.00  0.00     0.062 A 
ATOM     17  C   UNL     1      -3.808 -21.635  29.929  1.00  0.00     0.158 A 
BRANCH  15  18
ATOM     18  O   UNL     1      -4.104 -20.902  32.221  1.00  0.00    -0.504 OA
ATOM     19  H   UNL     1      -4.133 -21.437  33.082  1.00  0.00     0.293 HD
ENDBRANCH  15  18
BRANCH  17  20
ATOM     20  O   UNL     1      -5.187 -21.661  29.725  1.00  0.00    -0.504 OA
ATOM     21  H   UNL     1      -5.757 -20.827  29.793  1.00  0.00     0.293 HD
ENDBRANCH  17  20
ENDBRANCH   1  12
BRANCH   2  22
ATOM     22  O   UNL     1       0.195 -20.117  27.652  1.00  0.00    -0.502 OA
ATOM     23  H   UNL     1      -0.597 -19.664  28.092  1.00  0.00     0.293 HD
ENDBRANCH   2  22
BRANCH   6  24
ATOM     24  O   UNL     1       2.600 -23.024  24.073  1.00  0.00    -0.507 OA
ATOM     25  H   UNL     1       3.188 -22.346  24.544  1.00  0.00     0.293 HD
ENDBRANCH   6  24
BRANCH   8  26
ATOM     26  O   UNL     1       0.496 -27.328  24.770  1.00  0.00    -0.508 OA
ATOM     27  H   UNL     1      -0.413 -27.773  24.737  1.00  0.00     0.293 HD
ENDBRANCH   8  26
TORSDOF 6
ENDMDL
MODEL 8
REMARK VINA RESULT:    -6.322      8.403     10.880
REMARK INTER + INTRA:          -7.866
REMARK INTER:                  -7.660
REMARK INTRA:                  -0.206
REMARK UNBOUND:                -0.250
REMARK SMILES O=c1c(O)c(-c2ccc(O)c(O)c2)oc2cc(O)cc(O)c12
REMARK SMILES IDX 5 1 3 2 2 3 1 4 22 5 20 6 19 7 17 8 16 9 15 10 14 11 6 12
REMARK SMILES IDX 7 13 8 14 9 15 13 16 11 17 10 18 12 20 4 22 21 24 18 26
REMARK H PARENT 10 19 12 21 4 23 21 25 18 27
REMARK Flexibility Score: inf
ROOT
ATOM      1  C   UNL     1       7.227 -26.417  28.334  1.00  0.00     0.180 A 
ATOM      2  C   UNL     1       6.382 -27.358  27.714  1.00  0.00     0.208 A 
ATOM      3  C   UNL     1       5.635 -26.966  26.593  1.00  0.00     0.238 A 
ATOM      4  O   UNL     1       4.867 -27.797  26.037  1.00  0.00    -0.285 OA
ATOM      5  C   UNL     1       5.759 -25.651  26.099  1.00  0.00     0.111 A 
ATOM      6  C   UNL     1       5.045 -25.176  24.972  1.00  0.00     0.134 A 
ATOM      7  C   UNL     1       5.231 -23.856  24.536  1.00  0.00     0.093 A 
ATOM      8  C   UNL     1       6.116 -23.003  25.204  1.00  0.00     0.123 A 
ATOM      9  C   UNL     1       6.821 -23.465  26.316  1.00  0.00     0.094 A 
ATOM     10  C   UNL     1       6.649 -24.777  26.768  1.00  0.00     0.146 A 
ATOM     11  O   UNL     1       7.329 -25.190  27.831  1.00  0.00    -0.452 OA
ENDROOT
BRANCH   1  12
ATOM     12  C   UNL     1       8.032 -26.749  29.531  1.00  0.00     0.025 A 
ATOM     13  C   UNL     1       7.423 -27.047  30.763  1.00  0.00     0.016 A 
ATOM     14  C   UNL     1       8.204 -27.334  31.885  1.00  0.00     0.051 A 
ATOM     15  C   UNL     1       9.602 -27.315  31.799  1.00  0.00     0.157 A 
ATOM     16  C   UNL     1       9.433 -26.711  29.455  1.00  0.00     0.062 A 
ATOM     17  C   UNL     1      10.219 -26.999  30.577  1.00  0.00     0.158 A 
BRANCH  15  18
ATOM     18  O   UNL     1      10.378 -27.604  32.920  1.00  0.00    -0.504 OA
ATOM     19  H   UNL     1      11.198 -28.197  32.859  1.00  0.00     0.293 HD
ENDBRANCH  15  18
BRANCH  17  20
ATOM     20  O   UNL     1      11.608 -26.964  30.459  1.00  0.00    -0.504 OA
ATOM     21  H   UNL     1      12.136 -26.108  30.571  1.00  0.00     0.293 HD
ENDBRANCH  17  20
ENDBRANCH   1  12
BRANCH   2  22
ATOM     22  O   UNL     1       6.314 -28.669  28.194  1.00  0.00    -0.502 OA
ATOM     23  H   UNL     1       5.746 -28.926  28.993  1.00  0.00     0.293 HD
ENDBRANCH   2  22
BRANCH   6  24
ATOM     24  O   UNL     1       4.157 -26.004  24.284  1.00  0.00    -0.507 OA
ATOM     25  H   UNL     1       3.812 -25.766  23.361  1.00  0.00     0.293 HD
ENDBRANCH   6  24
BRANCH   8  26
ATOM     26  O   UNL     1       6.302 -21.692  24.771  1.00  0.00    -0.508 OA
ATOM     27  H   UNL     1       6.993 -21.086  25.196  1.00  0.00     0.293 HD
ENDBRANCH   8  26
TORSDOF 6
ENDMDL
MODEL 9
REMARK VINA RESULT:    -6.282      1.845      2.355
REMARK INTER + INTRA:          -7.818
REMARK INTER:                  -7.496
REMARK INTRA:                  -0.322
REMARK UNBOUND:                -0.250
REMARK SMILES O=c1c(O)c(-c2ccc(O)c(O)c2)oc2cc(O)cc(O)c12
REMARK SMILES IDX 5 1 3 2 2 3 1 4 22 5 20 6 19 7 17 8 16 9 15 10 14 11 6 12
REMARK SMILES IDX 7 13 8 14 9 15 13 16 11 17 10 18 12 20 4 22 21 24 18 26
REMARK H PARENT 10 19 12 21 4 23 21 25 18 27
REMARK Flexibility Score: inf
ROOT
ATOM      1  C   UNL     1      -1.550 -22.060  29.141  1.00  0.00     0.180 A 
ATOM      2  C   UNL     1      -1.733 -21.014  30.067  1.00  0.00     0.208 A 
ATOM      3  C   UNL     1      -3.004 -20.818  30.627  1.00  0.00     0.238 A 
ATOM      4  O   UNL     1      -3.182 -19.878  31.448  1.00  0.00    -0.285 OA
ATOM      5  C   UNL     1      -4.063 -21.678  30.271  1.00  0.00     0.111 A 
ATOM      6  C   UNL     1      -5.374 -21.551  30.793  1.00  0.00     0.134 A 
ATOM      7  C   UNL     1      -6.370 -22.454  30.396  1.00  0.00     0.093 A 
ATOM      8  C   UNL     1      -6.084 -23.480  29.489  1.00  0.00     0.123 A 
ATOM      9  C   UNL     1      -4.794 -23.609  28.970  1.00  0.00     0.094 A 
ATOM     10  C   UNL     1      -3.786 -22.718  29.352  1.00  0.00     0.146 A 
ATOM     11  O   UNL     1      -2.569 -22.860  28.840  1.00  0.00    -0.452 OA
ENDROOT
BRANCH   1  12
ATOM     12  C   UNL     1      -0.245 -22.319  28.492  1.00  0.00     0.025 A 
ATOM     13  C   UNL     1       0.732 -23.121  29.107  1.00  0.00     0.016 A 
ATOM     14  C   UNL     1       1.965 -23.332  28.487  1.00  0.00     0.051 A 
ATOM     15  C   UNL     1       2.248 -22.735  27.252  1.00  0.00     0.157 A 
ATOM     16  C   UNL     1       0.050 -21.706  27.264  1.00  0.00     0.062 A 
ATOM     17  C   UNL     1       1.285 -21.916  26.639  1.00  0.00     0.158 A 
BRANCH  15  18
ATOM     18  O   UNL     1       3.479 -22.949  26.634  1.00  0.00    -0.504 OA
ATOM     19  H   UNL     1       4.333 -22.541  26.998  1.00  0.00     0.293 HD
ENDBRANCH  15  18
BRANCH  17  20
ATOM     20  O   UNL     1       1.537 -21.301  25.413  1.00  0.00    -0.504 OA
ATOM     21  H   UNL     1       1.388 -20.310  25.267  1.00  0.00     0.293 HD
ENDBRANCH  17  20
ENDBRANCH   1  12
BRANCH   2  22
ATOM     22  O   UNL     1      -0.656 -20.206  30.440  1.00  0.00    -0.502 OA
ATOM     23  H   UNL     1      -0.493 -19.295  30.028  1.00  0.00     0.293 HD
ENDBRANCH   2  22
BRANCH   6  24
ATOM     24  O   UNL     1      -5.690 -20.540  31.701  1.00  0.00    -0.507 OA
ATOM     25  H   UNL     1      -5.157 -20.402  32.551  1.00  0.00     0.293 HD
ENDBRANCH   6  24
BRANCH   8  26
ATOM     26  O   UNL     1      -7.073 -24.377  29.095  1.00  0.00    -0.508 OA
ATOM     27  H   UNL     1      -6.850 -25.326  28.818  1.00  0.00     0.293 HD
ENDBRANCH   8  26
TORSDOF 6
ENDMDL
