MODEL 1
REMARK VINA RESULT:    -1.963      0.000      0.000
REMARK INTER + INTRA:          -1.963
REMARK INTER:                  -1.963
REMARK INTRA:                   0.000
REMARK UNBOUND:                 0.000
REMARK SMILES CC(=O)[O-]
REMARK SMILES IDX 1 1 2 2 3 3 4 4
REMARK H PARENT
REMARK Flexibility Score: inf
ROOT
ATOM      1  C   UNL     1      45.233  18.848  77.715  1.00  0.00     0.063 C 
ATOM      2  C   UNL     1      45.605  17.951  76.584  1.00  0.00     0.038 C 
ATOM      3  O   UNL     1      45.889  18.438  75.458  1.00  0.00    -0.550 OA
ATOM      4  O   UNL     1      45.587  16.573  76.753  1.00  0.00    -0.550 OA
ENDROOT
TORSDOF 0
ENDMDL
MODEL 2
REMARK VINA RESULT:    -1.947      1.359      2.156
REMARK INTER + INTRA:          -1.947
REMARK INTER:                  -1.947
REMARK INTRA:                   0.000
REMARK UNBOUND:                 0.000
REMARK SMILES CC(=O)[O-]
REMARK SMILES IDX 1 1 2 2 3 3 4 4
REMARK H PARENT
REMARK Flexibility Score: inf
ROOT
ATOM      1  C   UNL     1      45.686  16.565  76.624  1.00  0.00     0.063 C 
ATOM      2  C   UNL     1      45.600  18.053  76.642  1.00  0.00     0.038 C 
ATOM      3  O   UNL     1      45.135  18.647  77.650  1.00  0.00    -0.550 OA
ATOM      4  O   UNL     1      45.982  18.786  75.526  1.00  0.00    -0.550 OA
ENDROOT
TORSDOF 0
ENDMDL
MODEL 3
REMARK VINA RESULT:    -1.906      9.129      9.250
REMARK INTER + INTRA:          -1.906
REMARK INTER:                  -1.906
REMARK INTRA:                   0.000
REMARK UNBOUND:                 0.000
REMARK SMILES CC(=O)[O-]
REMARK SMILES IDX 1 1 2 2 3 3 4 4
REMARK H PARENT
REMARK Flexibility Score: inf
ROOT
ATOM      1  C   UNL     1      53.236  19.226  72.875  1.00  0.00     0.063 C 
ATOM      2  C   UNL     1      54.237  18.742  73.867  1.00  0.00     0.038 C 
ATOM      3  O   UNL     1      54.667  19.518  74.761  1.00  0.00    -0.550 OA
ATOM      4  O   UNL     1      54.740  17.451  73.778  1.00  0.00    -0.550 OA
ENDROOT
TORSDOF 0
ENDMDL
MODEL 4
REMARK VINA RESULT:    -1.902     13.311     13.647
REMARK INTER + INTRA:          -1.902
REMARK INTER:                  -1.902
REMARK INTRA:                   0.000
REMARK UNBOUND:                 0.000
REMARK SMILES CC(=O)[O-]
REMARK SMILES IDX 1 1 2 2 3 3 4 4
REMARK H PARENT
REMARK Flexibility Score: inf
ROOT
ATOM      1  C   UNL     1      55.755  17.368  84.521  1.00  0.00     0.063 C 
ATOM      2  C   UNL     1      55.389  16.894  85.885  1.00  0.00     0.038 C 
ATOM      3  O   UNL     1      55.948  15.875  86.371  1.00  0.00    -0.550 OA
ATOM      4  O   UNL     1      54.393  17.541  86.605  1.00  0.00    -0.550 OA
ENDROOT
TORSDOF 0
ENDMDL
MODEL 5
REMARK VINA RESULT:    -1.828      1.365      1.971
REMARK INTER + INTRA:          -1.828
REMARK INTER:                  -1.828
REMARK INTRA:                   0.000
REMARK UNBOUND:                 0.000
REMARK SMILES CC(=O)[O-]
REMARK SMILES IDX 1 1 2 2 3 3 4 4
REMARK H PARENT
REMARK Flexibility Score: inf
ROOT
ATOM      1  C   UNL     1      45.930  18.731  75.354  1.00  0.00     0.063 C 
ATOM      2  C   UNL     1      45.566  17.937  76.561  1.00  0.00     0.038 C 
ATOM      3  O   UNL     1      45.571  16.679  76.515  1.00  0.00    -0.550 OA
ATOM      4  O   UNL     1      45.166  18.581  77.725  1.00  0.00    -0.550 OA
ENDROOT
TORSDOF 0
ENDMDL
MODEL 6
REMARK VINA RESULT:    -1.803      8.500      8.871
REMARK INTER + INTRA:          -1.803
REMARK INTER:                  -1.803
REMARK INTRA:                   0.000
REMARK UNBOUND:                 0.000
REMARK SMILES CC(=O)[O-]
REMARK SMILES IDX 1 1 2 2 3 3 4 4
REMARK H PARENT
REMARK Flexibility Score: inf
ROOT
ATOM      1  C   UNL     1      39.107  19.446  80.007  1.00  0.00     0.063 C 
ATOM      2  C   UNL     1      37.800  18.948  80.522  1.00  0.00     0.038 C 
ATOM      3  O   UNL     1      37.235  19.533  81.483  1.00  0.00    -0.550 OA
ATOM      4  O   UNL     1      37.226  17.805  79.979  1.00  0.00    -0.550 OA
ENDROOT
TORSDOF 0
ENDMDL
MODEL 7
REMARK VINA RESULT:    -1.800      9.762     10.206
REMARK INTER + INTRA:          -1.800
REMARK INTER:                  -1.800
REMARK INTRA:                   0.000
REMARK UNBOUND:                 0.000
REMARK SMILES CC(=O)[O-]
REMARK SMILES IDX 1 1 2 2 3 3 4 4
REMARK H PARENT
REMARK Flexibility Score: inf
ROOT
ATOM      1  C   UNL     1      55.444  16.872  72.875  1.00  0.00     0.063 C 
ATOM      2  C   UNL     1      55.065  18.086  73.652  1.00  0.00     0.038 C 
ATOM      3  O   UNL     1      53.875  18.499  73.639  1.00  0.00    -0.550 OA
ATOM      4  O   UNL     1      56.032  18.799  74.348  1.00  0.00    -0.550 OA
ENDROOT
TORSDOF 0
ENDMDL
MODEL 8
REMARK VINA RESULT:    -1.795     20.411     20.832
REMARK INTER + INTRA:          -1.795
REMARK INTER:                  -1.795
REMARK INTRA:                   0.000
REMARK UNBOUND:                 0.000
REMARK SMILES CC(=O)[O-]
REMARK SMILES IDX 1 1 2 2 3 3 4 4
REMARK H PARENT
REMARK Flexibility Score: inf
ROOT
ATOM      1  C   UNL     1      45.073  31.609  91.217  1.00  0.00     0.063 C 
ATOM      2  C   UNL     1      44.001  31.479  92.244  1.00  0.00     0.038 C 
ATOM      3  O   UNL     1      43.287  30.443  92.285  1.00  0.00    -0.550 OA
ATOM      4  O   UNL     1      43.750  32.523  93.125  1.00  0.00    -0.550 OA
ENDROOT
TORSDOF 0
ENDMDL
MODEL 9
REMARK VINA RESULT:    -1.769      8.463      8.866
REMARK INTER + INTRA:          -1.769
REMARK INTER:                  -1.769
REMARK INTRA:                   0.000
REMARK UNBOUND:                 0.000
REMARK SMILES CC(=O)[O-]
REMARK SMILES IDX 1 1 2 2 3 3 4 4
REMARK H PARENT
REMARK Flexibility Score: inf
ROOT
ATOM      1  C   UNL     1      36.953  19.849  81.172  1.00  0.00     0.063 C 
ATOM      2  C   UNL     1      37.743  18.882  80.358  1.00  0.00     0.038 C 
ATOM      3  O   UNL     1      37.232  17.787  80.004  1.00  0.00    -0.550 OA
ATOM      4  O   UNL     1      39.064  19.162  80.031  1.00  0.00    -0.550 OA
ENDROOT
TORSDOF 0
ENDMDL
