MODEL 1
REMARK VINA RESULT:    -2.819      0.000      0.000
REMARK INTER + INTRA:         -13.237
REMARK INTER:                  -7.103
REMARK INTRA:                  -6.134
REMARK UNBOUND:                -6.134
REMARK SMILES CCCCCCCCCCCCCCCCCCCCCCCCCCCC(=O)[O-]
REMARK SMILES IDX 15 1 16 2 17 3 18 4 19 5 20 6 21 7 22 8 23 9 24 10 25 11
REMARK SMILES IDX 26 12 27 13 28 14 29 15 30 16 14 17 13 18 12 19 11 20 10 21
REMARK SMILES IDX 9 22 8 23 7 24 6 25 5 26 4 27 3 28 2 29 1 30
REMARK H PARENT
REMARK Flexibility Score: inf
ROOT
ATOM      1  C   UNL     1     -98.918 -45.082 -12.375  1.00  0.00     0.000 C 
ENDROOT
BRANCH   1   2
ATOM      2  C   UNL     1     -97.962 -46.158 -11.833  1.00  0.00     0.000 C 
BRANCH   2   3
ATOM      3  C   UNL     1     -98.695 -47.278 -11.078  1.00  0.00     0.000 C 
BRANCH   3   4
ATOM      4  C   UNL     1     -99.717 -46.692 -10.090  1.00  0.00     0.000 C 
BRANCH   4   5
ATOM      5  C   UNL     1    -101.131 -47.281 -10.281  1.00  0.00     0.000 C 
BRANCH   5   6
ATOM      6  C   UNL     1    -102.267 -46.255 -10.094  1.00  0.00     0.000 C 
BRANCH   6   7
ATOM      7  C   UNL     1    -101.815 -44.828  -9.725  1.00  0.00     0.000 C 
BRANCH   7   8
ATOM      8  C   UNL     1    -101.995 -43.800 -10.857  1.00  0.00     0.000 C 
BRANCH   8   9
ATOM      9  C   UNL     1    -102.997 -44.269 -11.934  1.00  0.00     0.000 C 
BRANCH   9  10
ATOM     10  C   UNL     1    -102.336 -44.477 -13.310  1.00  0.00     0.000 C 
BRANCH  10  11
ATOM     11  C   UNL     1    -102.740 -45.786 -14.019  1.00  0.00     0.000 C 
BRANCH  11  12
ATOM     12  C   UNL     1    -101.745 -46.958 -13.879  1.00  0.00     0.006 C 
BRANCH  12  13
ATOM     13  C   UNL     1    -102.406 -48.345 -13.827  1.00  0.00     0.053 C 
BRANCH  13  14
ATOM     14  C   UNL     1    -101.418 -49.450 -13.607  1.00  0.00     0.041 C 
ATOM     15  O   UNL     1    -101.799 -50.650 -13.578  1.00  0.00    -0.550 OA
ATOM     16  O   UNL     1    -100.069 -49.155 -13.445  1.00  0.00    -0.550 OA
ENDBRANCH  13  14
ENDBRANCH  12  13
ENDBRANCH  11  12
ENDBRANCH  10  11
ENDBRANCH   9  10
ENDBRANCH   8   9
ENDBRANCH   7   8
ENDBRANCH   6   7
ENDBRANCH   5   6
ENDBRANCH   4   5
ENDBRANCH   3   4
ENDBRANCH   2   3
ENDBRANCH   1   2
BRANCH   1  17
ATOM     17  C   UNL     1     -98.506 -43.660 -11.962  1.00  0.00     0.000 C 
BRANCH  17  18
ATOM     18  C   UNL     1     -97.077 -43.649 -11.397  1.00  0.00     0.000 C 
BRANCH  18  19
ATOM     19  C   UNL     1     -96.997 -43.060  -9.979  1.00  0.00     0.000 C 
BRANCH  19  20
ATOM     20  C   UNL     1     -98.280 -43.210  -9.136  1.00  0.00     0.000 C 
BRANCH  20  21
ATOM     21  C   UNL     1     -98.207 -44.253  -8.006  1.00  0.00     0.000 C 
BRANCH  21  22
ATOM     22  C   UNL     1     -96.816 -44.899  -7.876  1.00  0.00    -0.000 C 
BRANCH  22  23
ATOM     23  C   UNL     1     -96.871 -46.437  -7.915  1.00  0.00    -0.000 C 
BRANCH  23  24
ATOM     24  C   UNL     1     -95.666 -47.049  -8.653  1.00  0.00    -0.000 C 
BRANCH  24  25
ATOM     25  C   UNL     1     -94.768 -45.987  -9.307  1.00  0.00    -0.000 C 
BRANCH  25  26
ATOM     26  C   UNL     1     -94.462 -46.295 -10.784  1.00  0.00    -0.000 C 
BRANCH  26  27
ATOM     27  C   UNL     1     -94.385 -47.805 -11.068  1.00  0.00    -0.000 C 
BRANCH  27  28
ATOM     28  C   UNL     1     -94.795 -48.159 -12.506  1.00  0.00    -0.000 C 
BRANCH  28  29
ATOM     29  C   UNL     1     -95.864 -49.257 -12.512  1.00  0.00    -0.003 C 
ATOM     30  C   UNL     1     -96.029 -49.874 -11.128  1.00  0.00     0.004 C 
ENDBRANCH  28  29
ENDBRANCH  27  28
ENDBRANCH  26  27
ENDBRANCH  25  26
ENDBRANCH  24  25
ENDBRANCH  23  24
ENDBRANCH  22  23
ENDBRANCH  21  22
ENDBRANCH  20  21
ENDBRANCH  19  20
ENDBRANCH  18  19
ENDBRANCH  17  18
ENDBRANCH   1  17
TORSDOF 26
ENDMDL
MODEL 2
REMARK VINA RESULT:    -2.815      1.953      6.268
REMARK INTER + INTRA:         -13.227
REMARK INTER:                  -7.349
REMARK INTRA:                  -5.879
REMARK UNBOUND:                -6.134
REMARK SMILES CCCCCCCCCCCCCCCCCCCCCCCCCCCC(=O)[O-]
REMARK SMILES IDX 15 1 16 2 17 3 18 4 19 5 20 6 21 7 22 8 23 9 24 10 25 11
REMARK SMILES IDX 26 12 27 13 28 14 29 15 30 16 14 17 13 18 12 19 11 20 10 21
REMARK SMILES IDX 9 22 8 23 7 24 6 25 5 26 4 27 3 28 2 29 1 30
REMARK H PARENT
REMARK Flexibility Score: inf
ROOT
ATOM      1  C   UNL     1     -98.763 -43.327 -11.550  1.00  0.00     0.000 C 
ENDROOT
BRANCH   1   2
ATOM      2  C   UNL     1     -97.268 -43.432 -11.206  1.00  0.00     0.000 C 
BRANCH   2   3
ATOM      3  C   UNL     1     -96.944 -42.915  -9.796  1.00  0.00     0.000 C 
BRANCH   3   4
ATOM      4  C   UNL     1     -98.005 -43.382  -8.786  1.00  0.00     0.000 C 
BRANCH   4   5
ATOM      5  C   UNL     1     -97.544 -44.603  -7.963  1.00  0.00     0.000 C 
BRANCH   5   6
ATOM      6  C   UNL     1     -97.852 -45.959  -8.631  1.00  0.00     0.000 C 
BRANCH   6   7
ATOM      7  C   UNL     1     -96.636 -46.883  -8.843  1.00  0.00     0.000 C 
BRANCH   7   8
ATOM      8  C   UNL     1     -95.294 -46.261  -8.419  1.00  0.00     0.000 C 
BRANCH   8   9
ATOM      9  C   UNL     1     -94.381 -45.934  -9.621  1.00  0.00     0.000 C 
BRANCH   9  10
ATOM     10  C   UNL     1     -95.023 -46.305 -10.971  1.00  0.00     0.000 C 
BRANCH  10  11
ATOM     11  C   UNL     1     -94.015 -46.739 -12.056  1.00  0.00     0.000 C 
BRANCH  11  12
ATOM     12  C   UNL     1     -93.928 -48.258 -12.319  1.00  0.00     0.006 C 
BRANCH  12  13
ATOM     13  C   UNL     1     -95.270 -48.913 -12.685  1.00  0.00     0.053 C 
BRANCH  13  14
ATOM     14  C   UNL     1     -95.506 -50.200 -11.956  1.00  0.00     0.041 C 
ATOM     15  O   UNL     1     -96.672 -50.545 -11.630  1.00  0.00    -0.550 OA
ATOM     16  O   UNL     1     -94.434 -51.029 -11.644  1.00  0.00    -0.550 OA
ENDBRANCH  13  14
ENDBRANCH  12  13
ENDBRANCH  11  12
ENDBRANCH  10  11
ENDBRANCH   9  10
ENDBRANCH   8   9
ENDBRANCH   7   8
ENDBRANCH   6   7
ENDBRANCH   5   6
ENDBRANCH   4   5
ENDBRANCH   3   4
ENDBRANCH   2   3
ENDBRANCH   1   2
BRANCH   1  17
ATOM     17  C   UNL     1     -99.301 -44.580 -12.258  1.00  0.00     0.000 C 
BRANCH  17  18
ATOM     18  C   UNL     1     -98.216 -45.666 -12.339  1.00  0.00     0.000 C 
BRANCH  18  19
ATOM     19  C   UNL     1     -98.739 -47.065 -11.974  1.00  0.00     0.000 C 
BRANCH  19  20
ATOM     20  C   UNL     1     -98.714 -48.092 -13.124  1.00  0.00     0.000 C 
BRANCH  20  21
ATOM     21  C   UNL     1    -100.072 -48.737 -13.460  1.00  0.00     0.000 C 
BRANCH  21  22
ATOM     22  C   UNL     1    -101.189 -47.701 -13.678  1.00  0.00    -0.000 C 
BRANCH  22  23
ATOM     23  C   UNL     1    -102.292 -47.785 -12.607  1.00  0.00    -0.000 C 
BRANCH  23  24
ATOM     24  C   UNL     1    -102.450 -46.470 -11.822  1.00  0.00    -0.000 C 
BRANCH  24  25
ATOM     25  C   UNL     1    -102.039 -46.606 -10.346  1.00  0.00    -0.000 C 
BRANCH  25  26
ATOM     26  C   UNL     1    -101.962 -48.072  -9.884  1.00  0.00    -0.000 C 
BRANCH  26  27
ATOM     27  C   UNL     1    -100.648 -48.394  -9.153  1.00  0.00    -0.000 C 
BRANCH  27  28
ATOM     28  C   UNL     1     -99.930 -49.620  -9.736  1.00  0.00    -0.000 C 
BRANCH  28  29
ATOM     29  C   UNL     1    -100.937 -50.596 -10.357  1.00  0.00    -0.003 C 
ATOM     30  C   UNL     1    -100.236 -51.629 -11.233  1.00  0.00     0.004 C 
ENDBRANCH  28  29
ENDBRANCH  27  28
ENDBRANCH  26  27
ENDBRANCH  25  26
ENDBRANCH  24  25
ENDBRANCH  23  24
ENDBRANCH  22  23
ENDBRANCH  21  22
ENDBRANCH  20  21
ENDBRANCH  19  20
ENDBRANCH  18  19
ENDBRANCH  17  18
ENDBRANCH   1  17
TORSDOF 26
ENDMDL
MODEL 3
REMARK VINA RESULT:    -2.732      1.740      3.581
REMARK INTER + INTRA:         -13.019
REMARK INTER:                  -8.146
REMARK INTRA:                  -4.873
REMARK UNBOUND:                -6.134
REMARK SMILES CCCCCCCCCCCCCCCCCCCCCCCCCCCC(=O)[O-]
REMARK SMILES IDX 15 1 16 2 17 3 18 4 19 5 20 6 21 7 22 8 23 9 24 10 25 11
REMARK SMILES IDX 26 12 27 13 28 14 29 15 30 16 14 17 13 18 12 19 11 20 10 21
REMARK SMILES IDX 9 22 8 23 7 24 6 25 5 26 4 27 3 28 2 29 1 30
REMARK H PARENT
REMARK Flexibility Score: inf
ROOT
ATOM      1  C   UNL     1     -96.980 -43.001 -10.242  1.00  0.00     0.000 C 
ENDROOT
BRANCH   1   2
ATOM      2  C   UNL     1     -97.420 -43.462 -11.641  1.00  0.00     0.000 C 
BRANCH   2   3
ATOM      3  C   UNL     1     -98.920 -43.242 -11.895  1.00  0.00     0.000 C 
BRANCH   3   4
ATOM      4  C   UNL     1     -99.583 -44.534 -12.398  1.00  0.00     0.000 C 
BRANCH   4   5
ATOM      5  C   UNL     1     -99.950 -45.498 -11.250  1.00  0.00     0.000 C 
BRANCH   5   6
ATOM      6  C   UNL     1     -99.035 -46.737 -11.157  1.00  0.00     0.000 C 
BRANCH   6   7
ATOM      7  C   UNL     1     -98.376 -47.172 -12.481  1.00  0.00     0.000 C 
BRANCH   7   8
ATOM      8  C   UNL     1     -98.964 -48.463 -13.080  1.00  0.00     0.000 C 
BRANCH   8   9
ATOM      9  C   UNL     1    -100.305 -48.226 -13.809  1.00  0.00     0.000 C 
BRANCH   9  10
ATOM     10  C   UNL     1    -101.503 -48.844 -13.064  1.00  0.00     0.000 C 
BRANCH  10  11
ATOM     11  C   UNL     1    -102.682 -49.242 -13.976  1.00  0.00     0.000 C 
BRANCH  11  12
ATOM     12  C   UNL     1    -103.273 -50.647 -13.729  1.00  0.00     0.006 C 
BRANCH  12  13
ATOM     13  C   UNL     1    -102.572 -51.773 -14.509  1.00  0.00     0.053 C 
BRANCH  13  14
ATOM     14  C   UNL     1    -101.815 -52.710 -13.619  1.00  0.00     0.041 C 
ATOM     15  O   UNL     1    -101.618 -53.904 -13.969  1.00  0.00    -0.550 OA
ATOM     16  O   UNL     1    -101.313 -52.262 -12.402  1.00  0.00    -0.550 OA
ENDBRANCH  13  14
ENDBRANCH  12  13
ENDBRANCH  11  12
ENDBRANCH  10  11
ENDBRANCH   9  10
ENDBRANCH   8   9
ENDBRANCH   7   8
ENDBRANCH   6   7
ENDBRANCH   5   6
ENDBRANCH   4   5
ENDBRANCH   3   4
ENDBRANCH   2   3
ENDBRANCH   1   2
BRANCH   1  17
ATOM     17  C   UNL     1     -98.138 -42.978  -9.231  1.00  0.00     0.000 C 
BRANCH  17  18
ATOM     18  C   UNL     1     -98.040 -44.169  -8.265  1.00  0.00     0.000 C 
BRANCH  18  19
ATOM     19  C   UNL     1     -96.630 -44.782  -8.209  1.00  0.00     0.000 C 
BRANCH  19  20
ATOM     20  C   UNL     1     -96.572 -46.306  -8.434  1.00  0.00     0.000 C 
BRANCH  20  21
ATOM     21  C   UNL     1     -95.159 -46.888  -8.632  1.00  0.00     0.000 C 
BRANCH  21  22
ATOM     22  C   UNL     1     -94.396 -46.228  -9.794  1.00  0.00    -0.000 C 
BRANCH  22  23
ATOM     23  C   UNL     1     -95.231 -46.157 -11.085  1.00  0.00    -0.000 C 
BRANCH  23  24
ATOM     24  C   UNL     1     -94.486 -46.740 -12.300  1.00  0.00    -0.000 C 
BRANCH  24  25
ATOM     25  C   UNL     1     -93.441 -47.798 -11.904  1.00  0.00    -0.000 C 
BRANCH  25  26
ATOM     26  C   UNL     1     -93.815 -49.211 -12.386  1.00  0.00    -0.000 C 
BRANCH  26  27
ATOM     27  C   UNL     1     -95.316 -49.356 -12.686  1.00  0.00    -0.000 C 
BRANCH  27  28
ATOM     28  C   UNL     1     -96.003 -50.395 -11.787  1.00  0.00    -0.000 C 
BRANCH  28  29
ATOM     29  C   UNL     1     -96.353 -49.788 -10.423  1.00  0.00    -0.003 C 
ATOM     30  C   UNL     1     -97.800 -50.080 -10.044  1.00  0.00     0.004 C 
ENDBRANCH  28  29
ENDBRANCH  27  28
ENDBRANCH  26  27
ENDBRANCH  25  26
ENDBRANCH  24  25
ENDBRANCH  23  24
ENDBRANCH  22  23
ENDBRANCH  21  22
ENDBRANCH  20  21
ENDBRANCH  19  20
ENDBRANCH  18  19
ENDBRANCH  17  18
ENDBRANCH   1  17
TORSDOF 26
ENDMDL
MODEL 4
REMARK VINA RESULT:    -2.680      1.680      6.815
REMARK INTER + INTRA:         -12.888
REMARK INTER:                  -7.009
REMARK INTRA:                  -5.880
REMARK UNBOUND:                -6.134
REMARK SMILES CCCCCCCCCCCCCCCCCCCCCCCCCCCC(=O)[O-]
REMARK SMILES IDX 15 1 16 2 17 3 18 4 19 5 20 6 21 7 22 8 23 9 24 10 25 11
REMARK SMILES IDX 26 12 27 13 28 14 29 15 30 16 14 17 13 18 12 19 11 20 10 21
REMARK SMILES IDX 9 22 8 23 7 24 6 25 5 26 4 27 3 28 2 29 1 30
REMARK H PARENT
REMARK Flexibility Score: inf
ROOT
ATOM      1  C   UNL     1     -98.878 -43.567 -11.453  1.00  0.00     0.000 C 
ENDROOT
BRANCH   1   2
ATOM      2  C   UNL     1     -97.366 -43.350 -11.275  1.00  0.00     0.000 C 
BRANCH   2   3
ATOM      3  C   UNL     1     -96.986 -42.973  -9.834  1.00  0.00     0.000 C 
BRANCH   3   4
ATOM      4  C   UNL     1     -98.115 -43.340  -8.858  1.00  0.00     0.000 C 
BRANCH   4   5
ATOM      5  C   UNL     1     -97.747 -44.531  -7.948  1.00  0.00     0.000 C 
BRANCH   5   6
ATOM      6  C   UNL     1     -98.044 -45.910  -8.573  1.00  0.00     0.000 C 
BRANCH   6   7
ATOM      7  C   UNL     1     -96.805 -46.764  -8.908  1.00  0.00     0.000 C 
BRANCH   7   8
ATOM      8  C   UNL     1     -95.474 -46.150  -8.439  1.00  0.00     0.000 C 
BRANCH   8   9
ATOM      9  C   UNL     1     -94.386 -46.174  -9.535  1.00  0.00     0.000 C 
BRANCH   9  10
ATOM     10  C   UNL     1     -94.977 -46.179 -10.957  1.00  0.00     0.000 C 
BRANCH  10  11
ATOM     11  C   UNL     1     -93.974 -46.575 -12.062  1.00  0.00     0.000 C 
BRANCH  11  12
ATOM     12  C   UNL     1     -93.792 -48.091 -12.286  1.00  0.00     0.006 C 
BRANCH  12  13
ATOM     13  C   UNL     1     -95.086 -48.836 -12.653  1.00  0.00     0.053 C 
BRANCH  13  14
ATOM     14  C   UNL     1     -95.483 -49.851 -11.625  1.00  0.00     0.041 C 
ATOM     15  O   UNL     1     -96.130 -50.879 -11.959  1.00  0.00    -0.550 OA
ATOM     16  O   UNL     1     -95.126 -49.669 -10.293  1.00  0.00    -0.550 OA
ENDBRANCH  13  14
ENDBRANCH  12  13
ENDBRANCH  11  12
ENDBRANCH  10  11
ENDBRANCH   9  10
ENDBRANCH   8   9
ENDBRANCH   7   8
ENDBRANCH   6   7
ENDBRANCH   5   6
ENDBRANCH   4   5
ENDBRANCH   3   4
ENDBRANCH   2   3
ENDBRANCH   1   2
BRANCH   1  17
ATOM     17  C   UNL     1     -99.206 -44.810 -12.294  1.00  0.00     0.000 C 
BRANCH  17  18
ATOM     18  C   UNL     1     -98.018 -45.786 -12.308  1.00  0.00     0.000 C 
BRANCH  18  19
ATOM     19  C   UNL     1     -98.453 -47.261 -12.341  1.00  0.00     0.000 C 
BRANCH  19  20
ATOM     20  C   UNL     1     -99.724 -47.585 -11.530  1.00  0.00     0.000 C 
BRANCH  20  21
ATOM     21  C   UNL     1    -100.519 -48.812 -12.014  1.00  0.00     0.000 C 
BRANCH  21  22
ATOM     22  C   UNL     1    -100.873 -48.743 -13.510  1.00  0.00    -0.000 C 
BRANCH  22  23
ATOM     23  C   UNL     1    -102.265 -48.134 -13.761  1.00  0.00    -0.000 C 
BRANCH  23  24
ATOM     24  C   UNL     1    -102.190 -46.666 -14.218  1.00  0.00    -0.000 C 
BRANCH  24  25
ATOM     25  C   UNL     1    -102.735 -45.687 -13.164  1.00  0.00    -0.000 C 
BRANCH  25  26
ATOM     26  C   UNL     1    -103.735 -46.350 -12.199  1.00  0.00    -0.000 C 
BRANCH  26  27
ATOM     27  C   UNL     1    -103.310 -46.221 -10.727  1.00  0.00    -0.000 C 
BRANCH  27  28
ATOM     28  C   UNL     1    -102.367 -45.032 -10.484  1.00  0.00    -0.000 C 
BRANCH  28  29
ATOM     29  C   UNL     1    -101.497 -45.272  -9.244  1.00  0.00    -0.003 C 
ATOM     30  C   UNL     1    -101.672 -44.154  -8.223  1.00  0.00     0.004 C 
ENDBRANCH  28  29
ENDBRANCH  27  28
ENDBRANCH  26  27
ENDBRANCH  25  26
ENDBRANCH  24  25
ENDBRANCH  23  24
ENDBRANCH  22  23
ENDBRANCH  21  22
ENDBRANCH  20  21
ENDBRANCH  19  20
ENDBRANCH  18  19
ENDBRANCH  17  18
ENDBRANCH   1  17
TORSDOF 26
ENDMDL
MODEL 5
REMARK VINA RESULT:    -2.675      2.212      5.867
REMARK INTER + INTRA:         -12.874
REMARK INTER:                  -7.347
REMARK INTRA:                  -5.528
REMARK UNBOUND:                -6.134
REMARK SMILES CCCCCCCCCCCCCCCCCCCCCCCCCCCC(=O)[O-]
REMARK SMILES IDX 15 1 16 2 17 3 18 4 19 5 20 6 21 7 22 8 23 9 24 10 25 11
REMARK SMILES IDX 26 12 27 13 28 14 29 15 30 16 14 17 13 18 12 19 11 20 10 21
REMARK SMILES IDX 9 22 8 23 7 24 6 25 5 26 4 27 3 28 2 29 1 30
REMARK H PARENT
REMARK Flexibility Score: inf
ROOT
ATOM      1  C   UNL     1     -96.388 -46.520  -9.394  1.00  0.00     0.000 C 
ENDROOT
BRANCH   1   2
ATOM      2  C   UNL     1     -95.053 -46.215 -10.095  1.00  0.00     0.000 C 
BRANCH   2   3
ATOM      3  C   UNL     1     -95.173 -46.213 -11.627  1.00  0.00     0.000 C 
BRANCH   3   4
ATOM      4  C   UNL     1     -93.920 -46.825 -12.273  1.00  0.00     0.000 C 
BRANCH   4   5
ATOM      5  C   UNL     1     -93.939 -48.368 -12.257  1.00  0.00     0.000 C 
BRANCH   5   6
ATOM      6  C   UNL     1     -95.219 -48.985 -12.857  1.00  0.00     0.000 C 
BRANCH   6   7
ATOM      7  C   UNL     1     -95.817 -50.166 -12.067  1.00  0.00     0.000 C 
BRANCH   7   8
ATOM      8  C   UNL     1     -95.546 -50.110 -10.553  1.00  0.00     0.000 C 
BRANCH   8   9
ATOM      9  C   UNL     1     -96.722 -50.657  -9.715  1.00  0.00     0.000 C 
BRANCH   9  10
ATOM     10  C   UNL     1     -98.015 -49.844  -9.904  1.00  0.00     0.000 C 
BRANCH  10  11
ATOM     11  C   UNL     1     -99.187 -50.644 -10.511  1.00  0.00     0.000 C 
BRANCH  11  12
ATOM     12  C   UNL     1     -98.806 -51.982 -11.180  1.00  0.00     0.006 C 
BRANCH  12  13
ATOM     13  C   UNL     1     -99.960 -52.661 -11.937  1.00  0.00     0.053 C 
BRANCH  13  14
ATOM     14  C   UNL     1     -99.489 -53.730 -12.875  1.00  0.00     0.041 C 
ATOM     15  O   UNL     1     -98.258 -53.899 -13.083  1.00  0.00    -0.550 OA
ATOM     16  O   UNL     1    -100.411 -54.551 -13.514  1.00  0.00    -0.550 OA
ENDBRANCH  13  14
ENDBRANCH  12  13
ENDBRANCH  11  12
ENDBRANCH  10  11
ENDBRANCH   9  10
ENDBRANCH   8   9
ENDBRANCH   7   8
ENDBRANCH   6   7
ENDBRANCH   5   6
ENDBRANCH   4   5
ENDBRANCH   3   4
ENDBRANCH   2   3
ENDBRANCH   1   2
BRANCH   1  17
ATOM     17  C   UNL     1     -96.867 -45.368  -8.498  1.00  0.00     0.000 C 
BRANCH  17  18
ATOM     18  C   UNL     1     -96.364 -44.018  -9.034  1.00  0.00     0.000 C 
BRANCH  18  19
ATOM     19  C   UNL     1     -97.457 -42.935  -9.052  1.00  0.00     0.000 C 
BRANCH  19  20
ATOM     20  C   UNL     1     -98.362 -42.942 -10.300  1.00  0.00     0.000 C 
BRANCH  20  21
ATOM     21  C   UNL     1     -97.724 -43.530 -11.572  1.00  0.00     0.000 C 
BRANCH  21  22
ATOM     22  C   UNL     1     -98.598 -44.610 -12.235  1.00  0.00    -0.000 C 
BRANCH  22  23
ATOM     23  C   UNL     1     -99.487 -45.355 -11.224  1.00  0.00    -0.000 C 
BRANCH  23  24
ATOM     24  C   UNL     1     -99.513 -46.875 -11.472  1.00  0.00    -0.000 C 
BRANCH  24  25
ATOM     25  C   UNL     1     -98.447 -47.330 -12.482  1.00  0.00    -0.000 C 
BRANCH  25  26
ATOM     26  C   UNL     1     -98.971 -48.398 -13.458  1.00  0.00    -0.000 C 
BRANCH  26  27
ATOM     27  C   UNL     1    -100.490 -48.306 -13.675  1.00  0.00    -0.000 C 
BRANCH  27  28
ATOM     28  C   UNL     1    -101.194 -49.664 -13.529  1.00  0.00    -0.000 C 
BRANCH  28  29
ATOM     29  C   UNL     1    -102.621 -49.483 -13.000  1.00  0.00    -0.003 C 
ATOM     30  C   UNL     1    -102.763 -50.052 -11.592  1.00  0.00     0.004 C 
ENDBRANCH  28  29
ENDBRANCH  27  28
ENDBRANCH  26  27
ENDBRANCH  25  26
ENDBRANCH  24  25
ENDBRANCH  23  24
ENDBRANCH  22  23
ENDBRANCH  21  22
ENDBRANCH  20  21
ENDBRANCH  19  20
ENDBRANCH  18  19
ENDBRANCH  17  18
ENDBRANCH   1  17
TORSDOF 26
ENDMDL
MODEL 6
REMARK VINA RESULT:    -2.634      1.946      3.099
REMARK INTER + INTRA:         -12.771
REMARK INTER:                  -7.283
REMARK INTRA:                  -5.488
REMARK UNBOUND:                -6.134
REMARK SMILES CCCCCCCCCCCCCCCCCCCCCCCCCCCC(=O)[O-]
REMARK SMILES IDX 15 1 16 2 17 3 18 4 19 5 20 6 21 7 22 8 23 9 24 10 25 11
REMARK SMILES IDX 26 12 27 13 28 14 29 15 30 16 14 17 13 18 12 19 11 20 10 21
REMARK SMILES IDX 9 22 8 23 7 24 6 25 5 26 4 27 3 28 2 29 1 30
REMARK H PARENT
REMARK Flexibility Score: inf
ROOT
ATOM      1  C   UNL     1     -99.124 -44.994 -12.304  1.00  0.00     0.000 C 
ENDROOT
BRANCH   1   2
ATOM      2  C   UNL     1     -97.929 -45.961 -12.250  1.00  0.00     0.000 C 
BRANCH   2   3
ATOM      3  C   UNL     1     -98.336 -47.388 -11.852  1.00  0.00     0.000 C 
BRANCH   3   4
ATOM      4  C   UNL     1     -97.974 -47.670 -10.384  1.00  0.00     0.000 C 
BRANCH   4   5
ATOM      5  C   UNL     1     -99.218 -47.909  -9.503  1.00  0.00     0.000 C 
BRANCH   5   6
ATOM      6  C   UNL     1    -100.324 -48.733 -10.193  1.00  0.00     0.000 C 
BRANCH   6   7
ATOM      7  C   UNL     1    -100.026 -50.237 -10.352  1.00  0.00     0.000 C 
BRANCH   7   8
ATOM      8  C   UNL     1     -99.741 -50.671 -11.801  1.00  0.00     0.000 C 
BRANCH   8   9
ATOM      9  C   UNL     1    -100.983 -51.262 -12.502  1.00  0.00     0.000 C 
BRANCH   9  10
ATOM     10  C   UNL     1    -101.763 -50.212 -13.315  1.00  0.00     0.000 C 
BRANCH  10  11
ATOM     11  C   UNL     1    -100.904 -49.033 -13.820  1.00  0.00     0.000 C 
BRANCH  11  12
ATOM     12  C   UNL     1    -101.477 -47.625 -13.548  1.00  0.00     0.006 C 
BRANCH  12  13
ATOM     13  C   UNL     1    -102.856 -47.624 -12.868  1.00  0.00     0.053 C 
BRANCH  13  14
ATOM     14  C   UNL     1    -103.972 -47.319 -13.821  1.00  0.00     0.041 C 
ATOM     15  O   UNL     1    -104.946 -46.609 -13.456  1.00  0.00    -0.550 OA
ATOM     16  O   UNL     1    -103.931 -47.811 -15.121  1.00  0.00    -0.550 OA
ENDBRANCH  13  14
ENDBRANCH  12  13
ENDBRANCH  11  12
ENDBRANCH  10  11
ENDBRANCH   9  10
ENDBRANCH   8   9
ENDBRANCH   7   8
ENDBRANCH   6   7
ENDBRANCH   5   6
ENDBRANCH   4   5
ENDBRANCH   3   4
ENDBRANCH   2   3
ENDBRANCH   1   2
BRANCH   1  17
ATOM     17  C   UNL     1     -98.802 -43.615 -11.709  1.00  0.00     0.000 C 
BRANCH  17  18
ATOM     18  C   UNL     1     -97.293 -43.473 -11.451  1.00  0.00     0.000 C 
BRANCH  18  19
ATOM     19  C   UNL     1     -96.969 -43.032 -10.013  1.00  0.00     0.000 C 
BRANCH  19  20
ATOM     20  C   UNL     1     -97.779 -43.747  -8.913  1.00  0.00     0.000 C 
BRANCH  20  21
ATOM     21  C   UNL     1     -97.099 -44.982  -8.293  1.00  0.00     0.000 C 
BRANCH  21  22
ATOM     22  C   UNL     1     -95.620 -45.119  -8.699  1.00  0.00    -0.000 C 
BRANCH  22  23
ATOM     23  C   UNL     1     -95.073 -46.539  -8.472  1.00  0.00    -0.000 C 
BRANCH  23  24
ATOM     24  C   UNL     1     -94.395 -47.116  -9.729  1.00  0.00    -0.000 C 
BRANCH  24  25
ATOM     25  C   UNL     1     -94.512 -46.184 -10.947  1.00  0.00    -0.000 C 
BRANCH  25  26
ATOM     26  C   UNL     1     -94.413 -46.939 -12.284  1.00  0.00    -0.000 C 
BRANCH  26  27
ATOM     27  C   UNL     1     -94.257 -48.457 -12.096  1.00  0.00    -0.000 C 
BRANCH  27  28
ATOM     28  C   UNL     1     -95.426 -49.252 -12.699  1.00  0.00    -0.000 C 
BRANCH  28  29
ATOM     29  C   UNL     1     -95.546 -50.629 -12.036  1.00  0.00    -0.003 C 
ATOM     30  C   UNL     1     -95.861 -50.500 -10.549  1.00  0.00     0.004 C 
ENDBRANCH  28  29
ENDBRANCH  27  28
ENDBRANCH  26  27
ENDBRANCH  25  26
ENDBRANCH  24  25
ENDBRANCH  23  24
ENDBRANCH  22  23
ENDBRANCH  21  22
ENDBRANCH  20  21
ENDBRANCH  19  20
ENDBRANCH  18  19
ENDBRANCH  17  18
ENDBRANCH   1  17
TORSDOF 26
ENDMDL
MODEL 7
REMARK VINA RESULT:    -2.619      2.105      6.522
REMARK INTER + INTRA:         -12.734
REMARK INTER:                  -6.893
REMARK INTRA:                  -5.842
REMARK UNBOUND:                -6.134
REMARK SMILES CCCCCCCCCCCCCCCCCCCCCCCCCCCC(=O)[O-]
REMARK SMILES IDX 15 1 16 2 17 3 18 4 19 5 20 6 21 7 22 8 23 9 24 10 25 11
REMARK SMILES IDX 26 12 27 13 28 14 29 15 30 16 14 17 13 18 12 19 11 20 10 21
REMARK SMILES IDX 9 22 8 23 7 24 6 25 5 26 4 27 3 28 2 29 1 30
REMARK H PARENT
REMARK Flexibility Score: inf
ROOT
ATOM      1  C   UNL     1     -96.235 -50.482 -11.024  1.00  0.00     0.000 C 
ENDROOT
BRANCH   1   2
ATOM      2  C   UNL     1     -95.553 -49.787 -12.215  1.00  0.00     0.000 C 
BRANCH   2   3
ATOM      3  C   UNL     1     -94.499 -48.758 -11.779  1.00  0.00     0.000 C 
BRANCH   3   4
ATOM      4  C   UNL     1     -94.819 -47.370 -12.358  1.00  0.00     0.000 C 
BRANCH   4   5
ATOM      5  C   UNL     1     -94.827 -46.266 -11.281  1.00  0.00     0.000 C 
BRANCH   5   6
ATOM      6  C   UNL     1     -94.388 -46.751  -9.884  1.00  0.00     0.000 C 
BRANCH   6   7
ATOM      7  C   UNL     1     -95.344 -46.393  -8.729  1.00  0.00     0.000 C 
BRANCH   7   8
ATOM      8  C   UNL     1     -95.727 -44.903  -8.670  1.00  0.00     0.000 C 
BRANCH   8   9
ATOM      9  C   UNL     1     -97.254 -44.681  -8.616  1.00  0.00     0.000 C 
BRANCH   9  10
ATOM     10  C   UNL     1     -97.702 -43.440  -9.411  1.00  0.00     0.000 C 
BRANCH  10  11
ATOM     11  C   UNL     1     -97.064 -43.318 -10.812  1.00  0.00     0.000 C 
BRANCH  11  12
ATOM     12  C   UNL     1     -97.989 -43.664 -11.999  1.00  0.00     0.006 C 
BRANCH  12  13
ATOM     13  C   UNL     1     -99.348 -42.945 -11.971  1.00  0.00     0.053 C 
BRANCH  13  14
ATOM     14  C   UNL     1    -100.507 -43.893 -12.030  1.00  0.00     0.041 C 
ATOM     15  O   UNL     1    -101.247 -43.934 -13.049  1.00  0.00    -0.550 OA
ATOM     16  O   UNL     1    -100.764 -44.745 -10.962  1.00  0.00    -0.550 OA
ENDBRANCH  13  14
ENDBRANCH  12  13
ENDBRANCH  11  12
ENDBRANCH  10  11
ENDBRANCH   9  10
ENDBRANCH   8   9
ENDBRANCH   7   8
ENDBRANCH   6   7
ENDBRANCH   5   6
ENDBRANCH   4   5
ENDBRANCH   3   4
ENDBRANCH   2   3
ENDBRANCH   1   2
BRANCH   1  17
ATOM     17  C   UNL     1     -96.822 -49.487 -10.012  1.00  0.00     0.000 C 
BRANCH  17  18
ATOM     18  C   UNL     1     -98.206 -48.999 -10.469  1.00  0.00     0.000 C 
BRANCH  18  19
ATOM     19  C   UNL     1     -98.234 -47.497 -10.801  1.00  0.00     0.000 C 
BRANCH  19  20
ATOM     20  C   UNL     1     -98.551 -47.161 -12.272  1.00  0.00     0.000 C 
BRANCH  20  21
ATOM     21  C   UNL     1     -98.688 -48.374 -13.211  1.00  0.00     0.000 C 
BRANCH  21  22
ATOM     22  C   UNL     1    -100.085 -48.485 -13.846  1.00  0.00    -0.000 C 
BRANCH  22  23
ATOM     23  C   UNL     1    -101.053 -47.401 -13.340  1.00  0.00    -0.000 C 
BRANCH  23  24
ATOM     24  C   UNL     1    -102.226 -47.989 -12.535  1.00  0.00    -0.000 C 
BRANCH  24  25
ATOM     25  C   UNL     1    -101.794 -48.519 -11.157  1.00  0.00    -0.000 C 
BRANCH  25  26
ATOM     26  C   UNL     1    -102.354 -49.921 -10.858  1.00  0.00    -0.000 C 
BRANCH  26  27
ATOM     27  C   UNL     1    -101.258 -50.998 -10.808  1.00  0.00    -0.000 C 
BRANCH  27  28
ATOM     28  C   UNL     1    -100.842 -51.486 -12.205  1.00  0.00    -0.000 C 
BRANCH  28  29
ATOM     29  C   UNL     1    -102.019 -52.162 -12.918  1.00  0.00    -0.003 C 
ATOM     30  C   UNL     1    -102.279 -51.526 -14.279  1.00  0.00     0.004 C 
ENDBRANCH  28  29
ENDBRANCH  27  28
ENDBRANCH  26  27
ENDBRANCH  25  26
ENDBRANCH  24  25
ENDBRANCH  23  24
ENDBRANCH  22  23
ENDBRANCH  21  22
ENDBRANCH  20  21
ENDBRANCH  19  20
ENDBRANCH  18  19
ENDBRANCH  17  18
ENDBRANCH   1  17
TORSDOF 26
ENDMDL
MODEL 8
REMARK VINA RESULT:    -2.613      1.624      2.351
REMARK INTER + INTRA:         -12.719
REMARK INTER:                  -7.502
REMARK INTRA:                  -5.217
REMARK UNBOUND:                -6.134
REMARK SMILES CCCCCCCCCCCCCCCCCCCCCCCCCCCC(=O)[O-]
REMARK SMILES IDX 15 1 16 2 17 3 18 4 19 5 20 6 21 7 22 8 23 9 24 10 25 11
REMARK SMILES IDX 26 12 27 13 28 14 29 15 30 16 14 17 13 18 12 19 11 20 10 21
REMARK SMILES IDX 9 22 8 23 7 24 6 25 5 26 4 27 3 28 2 29 1 30
REMARK H PARENT
REMARK Flexibility Score: inf
ROOT
ATOM      1  C   UNL     1     -99.222 -45.034 -12.384  1.00  0.00     0.000 C 
ENDROOT
BRANCH   1   2
ATOM      2  C   UNL     1     -98.135 -46.073 -12.061  1.00  0.00     0.000 C 
BRANCH   2   3
ATOM      3  C   UNL     1     -98.440 -47.456 -12.655  1.00  0.00     0.000 C 
BRANCH   3   4
ATOM      4  C   UNL     1     -98.371 -48.544 -11.571  1.00  0.00     0.000 C 
BRANCH   4   5
ATOM      5  C   UNL     1     -97.983 -47.978 -10.188  1.00  0.00     0.000 C 
BRANCH   5   6
ATOM      6  C   UNL     1     -98.982 -48.327  -9.066  1.00  0.00     0.000 C 
BRANCH   6   7
ATOM      7  C   UNL     1    -100.253 -49.072  -9.521  1.00  0.00     0.000 C 
BRANCH   7   8
ATOM      8  C   UNL     1    -101.559 -48.298  -9.266  1.00  0.00     0.000 C 
BRANCH   8   9
ATOM      9  C   UNL     1    -101.527 -46.866  -9.844  1.00  0.00     0.000 C 
BRANCH   9  10
ATOM     10  C   UNL     1    -102.073 -46.794 -11.283  1.00  0.00     0.000 C 
BRANCH  10  11
ATOM     11  C   UNL     1    -102.444 -48.163 -11.891  1.00  0.00     0.000 C 
BRANCH  11  12
ATOM     12  C   UNL     1    -101.856 -48.454 -13.289  1.00  0.00     0.006 C 
BRANCH  12  13
ATOM     13  C   UNL     1    -101.407 -49.911 -13.495  1.00  0.00     0.053 C 
BRANCH  13  14
ATOM     14  C   UNL     1    -102.435 -50.739 -14.204  1.00  0.00     0.041 C 
ATOM     15  O   UNL     1    -102.206 -51.949 -14.471  1.00  0.00    -0.550 OA
ATOM     16  O   UNL     1    -103.655 -50.177 -14.562  1.00  0.00    -0.550 OA
ENDBRANCH  13  14
ENDBRANCH  12  13
ENDBRANCH  11  12
ENDBRANCH  10  11
ENDBRANCH   9  10
ENDBRANCH   8   9
ENDBRANCH   7   8
ENDBRANCH   6   7
ENDBRANCH   5   6
ENDBRANCH   4   5
ENDBRANCH   3   4
ENDBRANCH   2   3
ENDBRANCH   1   2
BRANCH   1  17
ATOM     17  C   UNL     1     -98.818 -43.606 -11.986  1.00  0.00     0.000 C 
BRANCH  17  18
ATOM     18  C   UNL     1     -97.332 -43.550 -11.597  1.00  0.00     0.000 C 
BRANCH  18  19
ATOM     19  C   UNL     1     -97.108 -43.070 -10.153  1.00  0.00     0.000 C 
BRANCH  19  20
ATOM     20  C   UNL     1     -97.934 -43.813  -9.083  1.00  0.00     0.000 C 
BRANCH  20  21
ATOM     21  C   UNL     1     -97.159 -44.863  -8.264  1.00  0.00     0.000 C 
BRANCH  21  22
ATOM     22  C   UNL     1     -95.681 -44.975  -8.681  1.00  0.00    -0.000 C 
BRANCH  22  23
ATOM     23  C   UNL     1     -95.113 -46.390  -8.471  1.00  0.00    -0.000 C 
BRANCH  23  24
ATOM     24  C   UNL     1     -94.343 -46.903  -9.702  1.00  0.00    -0.000 C 
BRANCH  24  25
ATOM     25  C   UNL     1     -94.806 -46.241 -11.010  1.00  0.00    -0.000 C 
BRANCH  25  26
ATOM     26  C   UNL     1     -94.237 -46.935 -12.261  1.00  0.00    -0.000 C 
BRANCH  26  27
ATOM     27  C   UNL     1     -93.269 -48.079 -11.913  1.00  0.00    -0.000 C 
BRANCH  27  28
ATOM     28  C   UNL     1     -93.729 -49.435 -12.470  1.00  0.00    -0.000 C 
BRANCH  28  29
ATOM     29  C   UNL     1     -95.095 -49.825 -11.894  1.00  0.00    -0.003 C 
ATOM     30  C   UNL     1     -95.336 -51.326 -12.014  1.00  0.00     0.004 C 
ENDBRANCH  28  29
ENDBRANCH  27  28
ENDBRANCH  26  27
ENDBRANCH  25  26
ENDBRANCH  24  25
ENDBRANCH  23  24
ENDBRANCH  22  23
ENDBRANCH  21  22
ENDBRANCH  20  21
ENDBRANCH  19  20
ENDBRANCH  18  19
ENDBRANCH  17  18
ENDBRANCH   1  17
TORSDOF 26
ENDMDL
MODEL 9
REMARK VINA RESULT:    -2.596      1.550      6.303
REMARK INTER + INTRA:         -12.676
REMARK INTER:                  -7.021
REMARK INTRA:                  -5.656
REMARK UNBOUND:                -6.134
REMARK SMILES CCCCCCCCCCCCCCCCCCCCCCCCCCCC(=O)[O-]
REMARK SMILES IDX 15 1 16 2 17 3 18 4 19 5 20 6 21 7 22 8 23 9 24 10 25 11
REMARK SMILES IDX 26 12 27 13 28 14 29 15 30 16 14 17 13 18 12 19 11 20 10 21
REMARK SMILES IDX 9 22 8 23 7 24 6 25 5 26 4 27 3 28 2 29 1 30
REMARK H PARENT
REMARK Flexibility Score: inf
ROOT
ATOM      1  C   UNL     1     -98.495 -45.502 -12.361  1.00  0.00     0.000 C 
ENDROOT
BRANCH   1   2
ATOM      2  C   UNL     1     -97.408 -44.491 -11.959  1.00  0.00     0.000 C 
BRANCH   2   3
ATOM      3  C   UNL     1     -97.946 -43.363 -11.064  1.00  0.00     0.000 C 
BRANCH   3   4
ATOM      4  C   UNL     1     -97.039 -43.157  -9.840  1.00  0.00     0.000 C 
BRANCH   4   5
ATOM      5  C   UNL     1     -97.623 -43.786  -8.557  1.00  0.00     0.000 C 
BRANCH   5   6
ATOM      6  C   UNL     1     -96.790 -44.958  -8.000  1.00  0.00     0.000 C 
BRANCH   6   7
ATOM      7  C   UNL     1     -95.477 -45.253  -8.752  1.00  0.00     0.000 C 
BRANCH   7   8
ATOM      8  C   UNL     1     -95.250 -46.745  -9.057  1.00  0.00     0.000 C 
BRANCH   8   9
ATOM      9  C   UNL     1     -94.096 -46.981 -10.055  1.00  0.00     0.000 C 
BRANCH   9  10
ATOM     10  C   UNL     1     -94.486 -46.643 -11.506  1.00  0.00     0.000 C 
BRANCH  10  11
ATOM     11  C   UNL     1     -94.639 -47.872 -12.427  1.00  0.00     0.000 C 
BRANCH  11  12
ATOM     12  C   UNL     1     -94.277 -49.232 -11.792  1.00  0.00     0.006 C 
BRANCH  12  13
ATOM     13  C   UNL     1     -95.301 -50.347 -12.060  1.00  0.00     0.053 C 
BRANCH  13  14
ATOM     14  C   UNL     1     -96.471 -50.297 -11.126  1.00  0.00     0.041 C 
ATOM     15  O   UNL     1     -96.301 -50.056  -9.902  1.00  0.00    -0.550 OA
ATOM     16  O   UNL     1     -97.758 -50.506 -11.611  1.00  0.00    -0.550 OA
ENDBRANCH  13  14
ENDBRANCH  12  13
ENDBRANCH  11  12
ENDBRANCH  10  11
ENDBRANCH   9  10
ENDBRANCH   8   9
ENDBRANCH   7   8
ENDBRANCH   6   7
ENDBRANCH   5   6
ENDBRANCH   4   5
ENDBRANCH   3   4
ENDBRANCH   2   3
ENDBRANCH   1   2
BRANCH   1  17
ATOM     17  C   UNL     1     -98.133 -46.946 -11.983  1.00  0.00     0.000 C 
BRANCH  17  18
ATOM     18  C   UNL     1     -98.358 -47.188 -10.482  1.00  0.00     0.000 C 
BRANCH  18  19
ATOM     19  C   UNL     1     -99.846 -47.284 -10.106  1.00  0.00     0.000 C 
BRANCH  19  20
ATOM     20  C   UNL     1    -100.321 -46.259  -9.056  1.00  0.00     0.000 C 
BRANCH  20  21
ATOM     21  C   UNL     1    -101.022 -45.011  -9.626  1.00  0.00     0.000 C 
BRANCH  21  22
ATOM     22  C   UNL     1    -102.090 -45.352 -10.680  1.00  0.00    -0.000 C 
BRANCH  22  23
ATOM     23  C   UNL     1    -101.934 -44.527 -11.970  1.00  0.00    -0.000 C 
BRANCH  23  24
ATOM     24  C   UNL     1    -101.969 -45.403 -13.236  1.00  0.00    -0.000 C 
BRANCH  24  25
ATOM     25  C   UNL     1    -102.066 -46.904 -12.917  1.00  0.00    -0.000 C 
BRANCH  25  26
ATOM     26  C   UNL     1    -101.373 -47.782 -13.974  1.00  0.00    -0.000 C 
BRANCH  26  27
ATOM     27  C   UNL     1    -100.679 -49.009 -13.361  1.00  0.00    -0.000 C 
BRANCH  27  28
ATOM     28  C   UNL     1    -101.674 -50.095 -12.922  1.00  0.00    -0.000 C 
BRANCH  28  29
ATOM     29  C   UNL     1    -102.264 -50.816 -14.139  1.00  0.00    -0.003 C 
ATOM     30  C   UNL     1    -102.675 -52.242 -13.789  1.00  0.00     0.004 C 
ENDBRANCH  28  29
ENDBRANCH  27  28
ENDBRANCH  26  27
ENDBRANCH  25  26
ENDBRANCH  24  25
ENDBRANCH  23  24
ENDBRANCH  22  23
ENDBRANCH  21  22
ENDBRANCH  20  21
ENDBRANCH  19  20
ENDBRANCH  18  19
ENDBRANCH  17  18
ENDBRANCH   1  17
TORSDOF 26
ENDMDL
