MODEL 1
REMARK VINA RESULT:    -4.275      0.000      0.000
REMARK INTER + INTRA:          -4.400
REMARK INTER:                  -4.400
REMARK INTRA:                   0.000
REMARK UNBOUND:                 0.000
REMARK SMILES Cc1ccccc1O
REMARK SMILES IDX 1 1 2 2 3 3 4 4 5 5 6 6 7 7 8 8
REMARK H PARENT 8 9
REMARK Flexibility Score: inf
ROOT
ATOM      1  C   UNL     1       3.684  10.104   7.599  1.00  0.00     0.048 C 
ATOM      2  C   UNL     1       4.895  10.508   6.805  1.00  0.00    -0.009 A 
ATOM      3  C   UNL     1       4.741  10.936   5.474  1.00  0.00     0.007 A 
ATOM      4  C   UNL     1       5.855  11.314   4.719  1.00  0.00     0.001 A 
ATOM      5  C   UNL     1       7.130  11.270   5.282  1.00  0.00     0.004 A 
ATOM      6  C   UNL     1       7.297  10.847   6.603  1.00  0.00     0.046 A 
ATOM      7  C   UNL     1       6.190  10.465   7.371  1.00  0.00     0.118 A 
ENDROOT
BRANCH   7   8
ATOM      8  O   UNL     1       6.409  10.049   8.686  1.00  0.00    -0.508 OA
ATOM      9  H   UNL     1       6.525   9.078   8.946  1.00  0.00     0.293 HD
ENDBRANCH   7   8
TORSDOF 1
ENDMDL
MODEL 2
REMARK VINA RESULT:    -4.256     17.063     18.004
REMARK INTER + INTRA:          -4.380
REMARK INTER:                  -4.380
REMARK INTRA:                   0.000
REMARK UNBOUND:                 0.000
REMARK SMILES Cc1ccccc1O
REMARK SMILES IDX 1 1 2 2 3 3 4 4 5 5 6 6 7 7 8 8
REMARK H PARENT 8 9
REMARK Flexibility Score: inf
ROOT
ATOM      1  C   UNL     1      -7.136  10.028  -6.509  1.00  0.00     0.048 C 
ATOM      2  C   UNL     1      -5.833  10.549  -7.050  1.00  0.00    -0.009 A 
ATOM      3  C   UNL     1      -5.076  11.453  -6.284  1.00  0.00     0.007 A 
ATOM      4  C   UNL     1      -3.863  11.948  -6.769  1.00  0.00     0.001 A 
ATOM      5  C   UNL     1      -3.393  11.547  -8.020  1.00  0.00     0.004 A 
ATOM      6  C   UNL     1      -4.135  10.650  -8.790  1.00  0.00     0.046 A 
ATOM      7  C   UNL     1      -5.353  10.145  -8.317  1.00  0.00     0.118 A 
ENDROOT
BRANCH   7   8
ATOM      8  O   UNL     1      -6.057   9.250  -9.125  1.00  0.00    -0.508 OA
ATOM      9  H   UNL     1      -5.925   9.189 -10.126  1.00  0.00     0.293 HD
ENDBRANCH   7   8
TORSDOF 1
ENDMDL
MODEL 3
REMARK VINA RESULT:    -4.254      2.597      3.631
REMARK INTER + INTRA:          -4.379
REMARK INTER:                  -4.379
REMARK INTRA:                   0.000
REMARK UNBOUND:                 0.000
REMARK SMILES Cc1ccccc1O
REMARK SMILES IDX 1 1 2 2 3 3 4 4 5 5 6 6 7 7 8 8
REMARK H PARENT 8 9
REMARK Flexibility Score: inf
ROOT
ATOM      1  C   UNL     1       1.885  11.700   9.646  1.00  0.00     0.048 C 
ATOM      2  C   UNL     1       3.146  11.209   8.989  1.00  0.00    -0.009 A 
ATOM      3  C   UNL     1       4.394  11.560   9.533  1.00  0.00     0.007 A 
ATOM      4  C   UNL     1       5.576  11.114   8.937  1.00  0.00     0.001 A 
ATOM      5  C   UNL     1       5.526  10.315   7.795  1.00  0.00     0.004 A 
ATOM      6  C   UNL     1       4.293   9.959   7.245  1.00  0.00     0.046 A 
ATOM      7  C   UNL     1       3.100  10.398   7.831  1.00  0.00     0.118 A 
ENDROOT
BRANCH   7   8
ATOM      8  O   UNL     1       1.893  10.015   7.244  1.00  0.00    -0.508 OA
ATOM      9  H   UNL     1       1.799   9.192   6.663  1.00  0.00     0.293 HD
ENDBRANCH   7   8
TORSDOF 1
ENDMDL
MODEL 4
REMARK VINA RESULT:    -4.195      0.527      2.480
REMARK INTER + INTRA:          -4.317
REMARK INTER:                  -4.317
REMARK INTRA:                   0.000
REMARK UNBOUND:                 0.000
REMARK SMILES Cc1ccccc1O
REMARK SMILES IDX 1 1 2 2 3 3 4 4 5 5 6 6 7 7 8 8
REMARK H PARENT 8 9
REMARK Flexibility Score: inf
ROOT
ATOM      1  C   UNL     1       8.634  10.897   7.006  1.00  0.00     0.048 C 
ATOM      2  C   UNL     1       7.203  10.872   6.544  1.00  0.00    -0.009 A 
ATOM      3  C   UNL     1       6.890  11.281   5.235  1.00  0.00     0.007 A 
ATOM      4  C   UNL     1       5.566  11.265   4.787  1.00  0.00     0.001 A 
ATOM      5  C   UNL     1       4.544  10.842   5.637  1.00  0.00     0.004 A 
ATOM      6  C   UNL     1       4.842  10.433   6.939  1.00  0.00     0.046 A 
ATOM      7  C   UNL     1       6.164  10.443   7.402  1.00  0.00     0.118 A 
ENDROOT
BRANCH   7   8
ATOM      8  O   UNL     1       6.410  10.025   8.711  1.00  0.00    -0.508 OA
ATOM      9  H   UNL     1       6.478   9.051   8.975  1.00  0.00     0.293 HD
ENDBRANCH   7   8
TORSDOF 1
ENDMDL
MODEL 5
REMARK VINA RESULT:    -4.174      2.000      2.589
REMARK INTER + INTRA:          -4.296
REMARK INTER:                  -4.296
REMARK INTRA:                   0.000
REMARK UNBOUND:                 0.000
REMARK SMILES Cc1ccccc1O
REMARK SMILES IDX 1 1 2 2 3 3 4 4 5 5 6 6 7 7 8 8
REMARK H PARENT 8 9
REMARK Flexibility Score: inf
ROOT
ATOM      1  C   UNL     1       3.765   8.691   8.480  1.00  0.00     0.048 C 
ATOM      2  C   UNL     1       4.479  10.009   8.357  1.00  0.00    -0.009 A 
ATOM      3  C   UNL     1       4.960  10.422   7.102  1.00  0.00     0.007 A 
ATOM      4  C   UNL     1       5.626  11.643   6.967  1.00  0.00     0.001 A 
ATOM      5  C   UNL     1       5.819  12.462   8.079  1.00  0.00     0.004 A 
ATOM      6  C   UNL     1       5.346  12.063   9.331  1.00  0.00     0.046 A 
ATOM      7  C   UNL     1       4.677  10.843   9.482  1.00  0.00     0.118 A 
ENDROOT
BRANCH   7   8
ATOM      8  O   UNL     1       4.223  10.489  10.754  1.00  0.00    -0.508 OA
ATOM      9  H   UNL     1       3.429   9.881  10.907  1.00  0.00     0.293 HD
ENDBRANCH   7   8
TORSDOF 1
ENDMDL
MODEL 6
REMARK VINA RESULT:    -4.173      1.951      3.226
REMARK INTER + INTRA:          -4.295
REMARK INTER:                  -4.295
REMARK INTRA:                   0.000
REMARK UNBOUND:                 0.000
REMARK SMILES Cc1ccccc1O
REMARK SMILES IDX 1 1 2 2 3 3 4 4 5 5 6 6 7 7 8 8
REMARK H PARENT 8 9
REMARK Flexibility Score: inf
ROOT
ATOM      1  C   UNL     1       6.217  12.363   9.329  1.00  0.00     0.048 C 
ATOM      2  C   UNL     1       5.299  11.391   8.641  1.00  0.00    -0.009 A 
ATOM      3  C   UNL     1       5.292  11.320   7.236  1.00  0.00     0.007 A 
ATOM      4  C   UNL     1       4.447  10.423   6.577  1.00  0.00     0.001 A 
ATOM      5  C   UNL     1       3.602   9.590   7.311  1.00  0.00     0.004 A 
ATOM      6  C   UNL     1       3.599   9.651   8.706  1.00  0.00     0.046 A 
ATOM      7  C   UNL     1       4.441  10.544   9.380  1.00  0.00     0.118 A 
ENDROOT
BRANCH   7   8
ATOM      8  O   UNL     1       4.402  10.567  10.775  1.00  0.00    -0.508 OA
ATOM      9  H   UNL     1       3.898   9.882  11.324  1.00  0.00     0.293 HD
ENDBRANCH   7   8
TORSDOF 1
ENDMDL
MODEL 7
REMARK VINA RESULT:    -4.143     16.858     17.934
REMARK INTER + INTRA:          -4.264
REMARK INTER:                  -4.264
REMARK INTRA:                   0.000
REMARK UNBOUND:                 0.000
REMARK SMILES Cc1ccccc1O
REMARK SMILES IDX 1 1 2 2 3 3 4 4 5 5 6 6 7 7 8 8
REMARK H PARENT 8 9
REMARK Flexibility Score: inf
ROOT
ATOM      1  C   UNL     1      -4.735  12.364  -5.720  1.00  0.00     0.048 C 
ATOM      2  C   UNL     1      -4.888  11.463  -6.915  1.00  0.00    -0.009 A 
ATOM      3  C   UNL     1      -5.908  10.495  -6.927  1.00  0.00     0.007 A 
ATOM      4  C   UNL     1      -6.067   9.648  -8.028  1.00  0.00     0.001 A 
ATOM      5  C   UNL     1      -5.212   9.759  -9.125  1.00  0.00     0.004 A 
ATOM      6  C   UNL     1      -4.195  10.716  -9.125  1.00  0.00     0.046 A 
ATOM      7  C   UNL     1      -4.024  11.571  -8.029  1.00  0.00     0.118 A 
ENDROOT
BRANCH   7   8
ATOM      8  O   UNL     1      -2.994  12.512  -8.078  1.00  0.00    -0.508 OA
ATOM      9  H   UNL     1      -2.027  12.262  -8.244  1.00  0.00     0.293 HD
ENDBRANCH   7   8
TORSDOF 1
ENDMDL
MODEL 8
REMARK VINA RESULT:    -4.130      1.581      2.236
REMARK INTER + INTRA:          -4.250
REMARK INTER:                  -4.250
REMARK INTRA:                   0.000
REMARK UNBOUND:                 0.000
REMARK SMILES Cc1ccccc1O
REMARK SMILES IDX 1 1 2 2 3 3 4 4 5 5 6 6 7 7 8 8
REMARK H PARENT 8 9
REMARK Flexibility Score: inf
ROOT
ATOM      1  C   UNL     1       5.878  11.403   8.718  1.00  0.00     0.048 C 
ATOM      2  C   UNL     1       5.851  11.606   7.228  1.00  0.00    -0.009 A 
ATOM      3  C   UNL     1       6.478  12.734   6.671  1.00  0.00     0.007 A 
ATOM      4  C   UNL     1       6.465  12.941   5.289  1.00  0.00     0.001 A 
ATOM      5  C   UNL     1       5.827  12.026   4.450  1.00  0.00     0.004 A 
ATOM      6  C   UNL     1       5.201  10.901   4.991  1.00  0.00     0.046 A 
ATOM      7  C   UNL     1       5.207  10.681   6.374  1.00  0.00     0.118 A 
ENDROOT
BRANCH   7   8
ATOM      8  O   UNL     1       4.567   9.541   6.866  1.00  0.00    -0.508 OA
ATOM      9  H   UNL     1       4.056   8.898   6.276  1.00  0.00     0.293 HD
ENDBRANCH   7   8
TORSDOF 1
ENDMDL
MODEL 9
REMARK VINA RESULT:    -4.128     16.783     17.656
REMARK INTER + INTRA:          -4.249
REMARK INTER:                  -4.249
REMARK INTRA:                   0.000
REMARK UNBOUND:                 0.000
REMARK SMILES Cc1ccccc1O
REMARK SMILES IDX 1 1 2 2 3 3 4 4 5 5 6 6 7 7 8 8
REMARK H PARENT 8 9
REMARK Flexibility Score: inf
ROOT
ATOM      1  C   UNL     1      -7.131  10.656  -6.467  1.00  0.00     0.048 C 
ATOM      2  C   UNL     1      -5.822  10.789  -7.197  1.00  0.00    -0.009 A 
ATOM      3  C   UNL     1      -5.647  10.139  -8.431  1.00  0.00     0.007 A 
ATOM      4  C   UNL     1      -4.439  10.250  -9.125  1.00  0.00     0.001 A 
ATOM      5  C   UNL     1      -3.396  11.009  -8.595  1.00  0.00     0.004 A 
ATOM      6  C   UNL     1      -3.556  11.660  -7.370  1.00  0.00     0.046 A 
ATOM      7  C   UNL     1      -4.762  11.558  -6.664  1.00  0.00     0.118 A 
ENDROOT
BRANCH   7   8
ATOM      8  O   UNL     1      -4.873  12.228  -5.444  1.00  0.00    -0.508 OA
ATOM      9  H   UNL     1      -4.402  11.922  -4.602  1.00  0.00     0.293 HD
ENDBRANCH   7   8
TORSDOF 1
ENDMDL
