MODEL 1
REMARK VINA RESULT:    -4.320      0.000      0.000
REMARK INTER + INTRA:          -5.279
REMARK INTER:                  -6.593
REMARK INTRA:                   1.314
REMARK UNBOUND:                 1.314
REMARK SMILES CC1=CCC[C@H](C)C(=O)C[C@H](C(C)C)C(=O)C1
REMARK SMILES IDX 8 1 9 2 6 3 7 4 5 5 4 6 3 7 2 8 1 9 10 11 11 12 15 13 16 14
REMARK SMILES IDX 17 15 12 17 13 18 14 19
REMARK H PARENT
REMARK Flexibility Score: 70.00
ROOT
ATOM      1  C   UNL     1      81.978   4.526  29.765  1.00  0.00     0.136 C 
ATOM      2  O   UNL     1      82.250   5.489  30.467  1.00  0.00    -0.299 OA
ENDROOT
BRANCH   1   3
ATOM      3  C   UNL     1      82.039   3.131  30.354  1.00  0.00     0.053 C 
ATOM      4  C   UNL     1      80.952   2.985  31.424  1.00  0.00     0.016 C 
BRANCH   3   5
ATOM      5  C   UNL     1      81.876   2.030  29.277  1.00  0.00     0.015 C 
BRANCH   5   6
ATOM      6  C   UNL     1      82.738   2.243  28.022  1.00  0.00     0.028 C 
BRANCH   6   7
ATOM      7  C   UNL     1      84.183   2.498  28.378  1.00  0.00    -0.028 C 
ATOM      8  C   UNL     1      84.941   3.506  27.887  1.00  0.00    -0.070 CG0
ATOM      9  C   UNL     1      86.366   3.619  28.364  1.00  0.00     0.039 C 
ATOM     10  G   UNL     1      84.415   4.525  26.891  1.00  0.00     0.000 G0
ENDBRANCH   6   7
ENDBRANCH   5   6
ENDBRANCH   3   5
ENDBRANCH   1   3
BRANCH   1  11
ATOM     11  C   UNL     1      81.637   4.751  28.308  1.00  0.00     0.087 C 
BRANCH  11  12
ATOM     12  C   UNL     1      82.332   6.000  27.709  1.00  0.00     0.066 C 
BRANCH  12  13
ATOM     13  C   UNL     1      83.831   5.781  27.546  1.00  0.00     0.140 C 
ATOM     14  O   UNL     1      84.610   6.607  28.000  1.00  0.00    -0.299 OA
BRANCH  13  15
ATOM     15  C   UNL     1      84.404   4.541  26.898  1.00  0.00     0.106 CG0
ATOM     16  G   UNL     1      84.943   3.522  27.888  1.00  0.00     0.000 G0
ENDBRANCH  13  15
ENDBRANCH  12  13
BRANCH  12  17
ATOM     17  C   UNL     1      81.699   6.495  26.373  1.00  0.00    -0.006 C 
ATOM     18  C   UNL     1      81.555   5.402  25.300  1.00  0.00     0.008 C 
ATOM     19  C   UNL     1      80.346   7.187  26.602  1.00  0.00     0.008 C 
ENDBRANCH  12  17
ENDBRANCH  11  12
ENDBRANCH   1  11
TORSDOF 1
ENDMDL
MODEL 2
REMARK VINA RESULT:    -3.672      1.803      3.795
REMARK INTER + INTRA:          -4.290
REMARK INTER:                  -5.385
REMARK INTRA:                   1.095
REMARK UNBOUND:                 1.314
REMARK SMILES CC1=CCC[C@H](C)C(=O)C[C@H](C(C)C)C(=O)C1
REMARK SMILES IDX 8 1 9 2 6 3 7 4 5 5 4 6 3 7 2 8 1 9 10 11 11 12 15 13 16 14
REMARK SMILES IDX 17 15 12 17 13 18 14 19
REMARK H PARENT
REMARK Flexibility Score: 70.00
ROOT
ATOM      1  C   UNL     1      82.536   2.841  28.884  1.00  0.00     0.136 C 
ATOM      2  O   UNL     1      83.170   2.015  29.524  1.00  0.00    -0.299 OA
ENDROOT
BRANCH   1   3
ATOM      3  C   UNL     1      81.589   3.778  29.605  1.00  0.00     0.053 C 
ATOM      4  C   UNL     1      80.871   3.013  30.721  1.00  0.00     0.016 C 
BRANCH   3   5
ATOM      5  C   UNL     1      82.317   5.013  30.191  1.00  0.00     0.015 C 
BRANCH   5   6
ATOM      6  C   UNL     1      82.238   6.271  29.309  1.00  0.00     0.028 C 
BRANCH   6   7
ATOM      7  C   UNL     1      81.343   6.053  28.112  1.00  0.00    -0.028 C 
ATOM      8  C   UNL     1      81.769   5.922  26.835  1.00  0.00    -0.070 CG0
ATOM      9  C   UNL     1      80.735   5.695  25.762  1.00  0.00     0.039 C 
ATOM     10  G   UNL     1      83.236   5.982  26.443  1.00  0.00     0.000 G0
ENDBRANCH   6   7
ENDBRANCH   5   6
ENDBRANCH   3   5
ENDBRANCH   1   3
BRANCH   1  11
ATOM     11  C   UNL     1      82.678   2.871  27.378  1.00  0.00     0.087 C 
BRANCH  11  12
ATOM     12  C   UNL     1      84.022   3.481  26.907  1.00  0.00     0.066 C 
BRANCH  12  13
ATOM     13  C   UNL     1      83.802   4.652  25.957  1.00  0.00     0.140 C 
ATOM     14  O   UNL     1      84.033   4.508  24.765  1.00  0.00    -0.299 OA
BRANCH  13  15
ATOM     15  C   UNL     1      83.241   5.978  26.421  1.00  0.00     0.106 CG0
ATOM     16  G   UNL     1      81.780   5.918  26.836  1.00  0.00     0.000 G0
ENDBRANCH  13  15
ENDBRANCH  12  13
BRANCH  12  17
ATOM     17  C   UNL     1      84.974   3.890  28.073  1.00  0.00    -0.006 C 
ATOM     18  C   UNL     1      86.222   3.000  28.210  1.00  0.00     0.008 C 
ATOM     19  C   UNL     1      85.390   5.367  27.982  1.00  0.00     0.008 C 
ENDBRANCH  12  17
ENDBRANCH  11  12
ENDBRANCH   1  11
TORSDOF 1
ENDMDL
MODEL 3
REMARK VINA RESULT:    -3.655     12.234     14.052
REMARK INTER + INTRA:          -4.264
REMARK INTER:                  -4.283
REMARK INTRA:                   0.019
REMARK UNBOUND:                 1.314
REMARK SMILES CC1=CCC[C@H](C)C(=O)C[C@H](C(C)C)C(=O)C1
REMARK SMILES IDX 8 1 9 2 6 3 7 4 5 5 4 6 3 7 2 8 1 9 10 11 11 12 15 13 16 14
REMARK SMILES IDX 17 15 12 17 13 18 14 19
REMARK H PARENT
REMARK Flexibility Score: 70.00
ROOT
ATOM      1  C   UNL     1      84.626  -8.840  29.125  1.00  0.00     0.136 C 
ATOM      2  O   UNL     1      85.756  -9.218  29.400  1.00  0.00    -0.299 OA
ENDROOT
BRANCH   1   3
ATOM      3  C   UNL     1      84.401  -7.404  28.698  1.00  0.00     0.053 C 
ATOM      4  C   UNL     1      85.460  -6.509  29.351  1.00  0.00     0.016 C 
BRANCH   3   5
ATOM      5  C   UNL     1      84.439  -7.236  27.158  1.00  0.00     0.015 C 
BRANCH   5   6
ATOM      6  C   UNL     1      84.154  -8.529  26.375  1.00  0.00     0.028 C 
BRANCH   6   7
ATOM      7  C   UNL     1      82.866  -8.431  25.594  1.00  0.00    -0.028 C 
ATOM      8  C   UNL     1      81.725  -9.098  25.886  1.00  0.00    -0.070 CG0
ATOM      9  C   UNL     1      80.525  -8.871  25.004  1.00  0.00     0.039 C 
ATOM     10  G   UNL     1      81.603 -10.050  27.064  1.00  0.00     0.000 G0
ENDBRANCH   6   7
ENDBRANCH   5   6
ENDBRANCH   3   5
ENDBRANCH   1   3
BRANCH   1  11
ATOM     11  C   UNL     1      83.472  -9.809  29.269  1.00  0.00     0.087 C 
BRANCH  11  12
ATOM     12  C   UNL     1      82.108  -9.101  29.472  1.00  0.00     0.066 C 
BRANCH  12  13
ATOM     13  C   UNL     1      81.131  -9.439  28.353  1.00  0.00     0.140 C 
ATOM     14  O   UNL     1      79.953  -9.135  28.474  1.00  0.00    -0.299 OA
BRANCH  13  15
ATOM     15  C   UNL     1      81.573 -10.079  27.056  1.00  0.00     0.106 CG0
ATOM     16  G   UNL     1      81.727  -9.099  25.905  1.00  0.00     0.000 G0
ENDBRANCH  13  15
ENDBRANCH  12  13
BRANCH  12  17
ATOM     17  C   UNL     1      81.461  -9.366  30.866  1.00  0.00    -0.006 C 
ATOM     18  C   UNL     1      82.444  -9.885  31.930  1.00  0.00     0.008 C 
ATOM     19  C   UNL     1      80.719  -8.128  31.397  1.00  0.00     0.008 C 
ENDBRANCH  12  17
ENDBRANCH  11  12
ENDBRANCH   1  11
TORSDOF 1
ENDMDL
MODEL 4
REMARK VINA RESULT:    -3.629      1.498      3.967
REMARK INTER + INTRA:          -4.225
REMARK INTER:                  -4.494
REMARK INTRA:                   0.269
REMARK UNBOUND:                 1.314
REMARK SMILES CC1=CCC[C@H](C)C(=O)C[C@H](C(C)C)C(=O)C1
REMARK SMILES IDX 8 1 9 2 6 3 7 4 5 5 4 6 3 7 2 8 1 9 10 11 11 12 15 13 16 14
REMARK SMILES IDX 17 15 12 17 13 18 14 19
REMARK H PARENT
REMARK Flexibility Score: 70.00
ROOT
ATOM      1  C   UNL     1      81.914   6.047  28.593  1.00  0.00     0.136 C 
ATOM      2  O   UNL     1      81.610   7.112  29.111  1.00  0.00    -0.299 OA
ENDROOT
BRANCH   1   3
ATOM      3  C   UNL     1      81.501   5.767  27.162  1.00  0.00     0.053 C 
ATOM      4  C   UNL     1      80.229   6.560  26.838  1.00  0.00     0.016 C 
BRANCH   3   5
ATOM      5  C   UNL     1      82.618   6.118  26.149  1.00  0.00     0.015 C 
BRANCH   5   6
ATOM      6  C   UNL     1      83.362   4.897  25.583  1.00  0.00     0.028 C 
BRANCH   6   7
ATOM      7  C   UNL     1      84.465   4.441  26.508  1.00  0.00    -0.028 C 
ATOM      8  C   UNL     1      84.372   3.414  27.384  1.00  0.00    -0.070 CG0
ATOM      9  C   UNL     1      85.580   3.087  28.224  1.00  0.00     0.039 C 
ATOM     10  G   UNL     1      83.115   2.577  27.546  1.00  0.00     0.000 G0
ENDBRANCH   6   7
ENDBRANCH   5   6
ENDBRANCH   3   5
ENDBRANCH   1   3
BRANCH   1  11
ATOM     11  C   UNL     1      82.653   5.014  29.415  1.00  0.00     0.087 C 
BRANCH  11  12
ATOM     12  C   UNL     1      81.852   3.700  29.599  1.00  0.00     0.066 C 
BRANCH  12  13
ATOM     13  C   UNL     1      82.562   2.518  28.952  1.00  0.00     0.140 C 
ATOM     14  O   UNL     1      82.654   1.465  29.566  1.00  0.00    -0.299 OA
BRANCH  13  15
ATOM     15  C   UNL     1      83.104   2.571  27.541  1.00  0.00     0.106 CG0
ATOM     16  G   UNL     1      84.362   3.411  27.395  1.00  0.00     0.000 G0
ENDBRANCH  13  15
ENDBRANCH  12  13
BRANCH  12  17
ATOM     17  C   UNL     1      81.493   3.381  31.083  1.00  0.00    -0.006 C 
ATOM     18  C   UNL     1      81.726   4.551  32.055  1.00  0.00     0.008 C 
ATOM     19  C   UNL     1      80.054   2.860  31.224  1.00  0.00     0.008 C 
ENDBRANCH  12  17
ENDBRANCH  11  12
ENDBRANCH   1  11
TORSDOF 1
ENDMDL
MODEL 5
REMARK VINA RESULT:    -3.603      1.781      4.580
REMARK INTER + INTRA:          -4.185
REMARK INTER:                  -4.654
REMARK INTRA:                   0.469
REMARK UNBOUND:                 1.314
REMARK SMILES CC1=CCC[C@H](C)C(=O)C[C@H](C(C)C)C(=O)C1
REMARK SMILES IDX 8 1 9 2 6 3 7 4 5 5 4 6 3 7 2 8 1 9 10 11 11 12 15 13 16 14
REMARK SMILES IDX 17 15 12 17 13 18 14 19
REMARK H PARENT
REMARK Flexibility Score: 70.00
ROOT
ATOM      1  C   UNL     1      84.398   3.103  28.420  1.00  0.00     0.136 C 
ATOM      2  O   UNL     1      85.207   2.248  28.754  1.00  0.00    -0.299 OA
ENDROOT
BRANCH   1   3
ATOM      3  C   UNL     1      84.889   4.388  27.786  1.00  0.00     0.053 C 
ATOM      4  C   UNL     1      86.401   4.516  28.003  1.00  0.00     0.016 C 
BRANCH   3   5
ATOM      5  C   UNL     1      84.562   4.459  26.273  1.00  0.00     0.015 C 
BRANCH   5   6
ATOM      6  C   UNL     1      83.072   4.276  25.940  1.00  0.00     0.028 C 
BRANCH   6   7
ATOM      7  C   UNL     1      82.353   5.602  25.869  1.00  0.00    -0.028 C 
ATOM      8  C   UNL     1      81.420   6.031  26.750  1.00  0.00    -0.070 CG0
ATOM      9  C   UNL     1      80.813   7.393  26.533  1.00  0.00     0.039 C 
ATOM     10  G   UNL     1      80.973   5.208  27.946  1.00  0.00     0.000 G0
ENDBRANCH   6   7
ENDBRANCH   5   6
ENDBRANCH   3   5
ENDBRANCH   1   3
BRANCH   1  11
ATOM     11  C   UNL     1      82.929   2.872  28.698  1.00  0.00     0.087 C 
BRANCH  11  12
ATOM     12  C   UNL     1      82.352   3.848  29.755  1.00  0.00     0.066 C 
BRANCH  12  13
ATOM     13  C   UNL     1      81.910   5.161  29.122  1.00  0.00     0.140 C 
ATOM     14  O   UNL     1      82.388   6.212  29.525  1.00  0.00    -0.299 OA
BRANCH  13  15
ATOM     15  C   UNL     1      80.946   5.217  27.958  1.00  0.00     0.106 CG0
ATOM     16  G   UNL     1      81.447   6.036  26.781  1.00  0.00     0.000 G0
ENDBRANCH  13  15
ENDBRANCH  12  13
BRANCH  12  17
ATOM     17  C   UNL     1      81.203   3.239  30.617  1.00  0.00    -0.006 C 
ATOM     18  C   UNL     1      81.159   1.700  30.613  1.00  0.00     0.008 C 
ATOM     19  C   UNL     1      81.236   3.759  32.063  1.00  0.00     0.008 C 
ENDBRANCH  12  17
ENDBRANCH  11  12
ENDBRANCH   1  11
TORSDOF 1
ENDMDL
MODEL 6
REMARK VINA RESULT:    -3.385      1.619      3.738
REMARK INTER + INTRA:          -3.853
REMARK INTER:                  -6.350
REMARK INTRA:                   2.497
REMARK UNBOUND:                 1.314
REMARK SMILES CC1=CCC[C@H](C)C(=O)C[C@H](C(C)C)C(=O)C1
REMARK SMILES IDX 8 1 9 2 6 3 7 4 5 5 4 6 3 7 2 8 1 9 10 11 11 12 15 13 16 14
REMARK SMILES IDX 17 15 12 17 13 18 14 19
REMARK H PARENT
REMARK Flexibility Score: 70.00
ROOT
ATOM      1  C   UNL     1      84.520   4.402  26.715  1.00  0.00     0.136 C 
ATOM      2  O   UNL     1      84.633   4.303  25.501  1.00  0.00    -0.299 OA
ENDROOT
BRANCH   1   3
ATOM      3  C   UNL     1      85.121   3.338  27.611  1.00  0.00     0.053 C 
ATOM      4  C   UNL     1      86.473   3.825  28.141  1.00  0.00     0.016 C 
BRANCH   3   5
ATOM      5  C   UNL     1      84.189   2.969  28.792  1.00  0.00     0.015 C 
BRANCH   5   6
ATOM      6  C   UNL     1      82.908   2.226  28.377  1.00  0.00     0.028 C 
BRANCH   6   7
ATOM      7  C   UNL     1      81.885   2.221  29.487  1.00  0.00    -0.028 C 
ATOM      8  C   UNL     1      81.660   3.243  30.345  1.00  0.00    -0.070 CG0
ATOM      9  C   UNL     1      80.586   3.071  31.388  1.00  0.00     0.039 C 
ATOM     10  G   UNL     1      82.433   4.550  30.292  1.00  0.00     0.000 G0
ENDBRANCH   6   7
ENDBRANCH   5   6
ENDBRANCH   3   5
ENDBRANCH   1   3
BRANCH   1  11
ATOM     11  C   UNL     1      83.735   5.562  27.287  1.00  0.00     0.087 C 
BRANCH  11  12
ATOM     12  C   UNL     1      82.297   5.170  27.712  1.00  0.00     0.066 C 
BRANCH  12  13
ATOM     13  C   UNL     1      82.039   5.495  29.178  1.00  0.00     0.140 C 
ATOM     14  O   UNL     1      81.442   6.521  29.468  1.00  0.00    -0.299 OA
BRANCH  13  15
ATOM     15  C   UNL     1      82.434   4.558  30.298  1.00  0.00     0.106 CG0
ATOM     16  G   UNL     1      81.648   3.258  30.320  1.00  0.00     0.000 G0
ENDBRANCH  13  15
ENDBRANCH  12  13
BRANCH  12  17
ATOM     17  C   UNL     1      81.182   5.782  26.808  1.00  0.00    -0.006 C 
ATOM     18  C   UNL     1      81.117   7.319  26.841  1.00  0.00     0.008 C 
ATOM     19  C   UNL     1      81.290   5.292  25.355  1.00  0.00     0.008 C 
ENDBRANCH  12  17
ENDBRANCH  11  12
ENDBRANCH   1  11
TORSDOF 1
ENDMDL
MODEL 7
REMARK VINA RESULT:    -2.795      1.504      3.826
REMARK INTER + INTRA:          -2.952
REMARK INTER:                  -3.705
REMARK INTRA:                   0.753
REMARK UNBOUND:                 1.314
REMARK SMILES CC1=CCC[C@H](C)C(=O)C[C@H](C(C)C)C(=O)C1
REMARK SMILES IDX 8 1 9 2 6 3 7 4 5 5 4 6 3 7 2 8 1 9 10 11 11 12 15 13 16 14
REMARK SMILES IDX 17 15 12 17 13 18 14 19
REMARK H PARENT
REMARK Flexibility Score: 70.00
ROOT
ATOM      1  C   UNL     1      81.860   6.019  28.929  1.00  0.00     0.136 C 
ATOM      2  O   UNL     1      82.270   7.053  29.438  1.00  0.00    -0.299 OA
ENDROOT
BRANCH   1   3
ATOM      3  C   UNL     1      80.730   6.079  27.921  1.00  0.00     0.053 C 
ATOM      4  C   UNL     1      80.464   7.540  27.544  1.00  0.00     0.016 C 
BRANCH   3   5
ATOM      5  C   UNL     1      81.034   5.249  26.649  1.00  0.00     0.015 C 
BRANCH   5   6
ATOM      6  C   UNL     1      81.586   6.074  25.474  1.00  0.00     0.028 C 
BRANCH   6   7
ATOM      7  C   UNL     1      82.636   5.309  24.705  1.00  0.00    -0.028 C 
ATOM      8  C   UNL     1      83.863   4.984  25.173  1.00  0.00    -0.070 CG0
ATOM      9  C   UNL     1      84.783   4.203  24.271  1.00  0.00     0.039 C 
ATOM     10  G   UNL     1      84.342   5.360  26.566  1.00  0.00     0.000 G0
ENDBRANCH   6   7
ENDBRANCH   5   6
ENDBRANCH   3   5
ENDBRANCH   1   3
BRANCH   1  11
ATOM     11  C   UNL     1      82.460   4.699  29.362  1.00  0.00     0.087 C 
BRANCH  11  12
ATOM     12  C   UNL     1      82.892   3.809  28.168  1.00  0.00     0.066 C 
BRANCH  12  13
ATOM     13  C   UNL     1      84.235   4.251  27.599  1.00  0.00     0.140 C 
ATOM     14  O   UNL     1      85.252   3.665  27.940  1.00  0.00    -0.299 OA
BRANCH  13  15
ATOM     15  C   UNL     1      84.357   5.350  26.568  1.00  0.00     0.106 CG0
ATOM     16  G   UNL     1      83.852   4.961  25.188  1.00  0.00     0.000 G0
ENDBRANCH  13  15
ENDBRANCH  12  13
BRANCH  12  17
ATOM     17  C   UNL     1      82.906   2.283  28.490  1.00  0.00    -0.006 C 
ATOM     18  C   UNL     1      82.127   1.899  29.761  1.00  0.00     0.008 C 
ATOM     19  C   UNL     1      82.414   1.443  27.300  1.00  0.00     0.008 C 
ENDBRANCH  12  17
ENDBRANCH  11  12
ENDBRANCH   1  11
TORSDOF 1
ENDMDL
MODEL 8
REMARK VINA RESULT:    -2.444      1.193      2.079
REMARK INTER + INTRA:          -2.416
REMARK INTER:                  -4.179
REMARK INTRA:                   1.762
REMARK UNBOUND:                 1.314
REMARK SMILES CC1=CCC[C@H](C)C(=O)C[C@H](C(C)C)C(=O)C1
REMARK SMILES IDX 8 1 9 2 6 3 7 4 5 5 4 6 3 7 2 8 1 9 10 11 11 12 15 13 16 14
REMARK SMILES IDX 17 15 12 17 13 18 14 19
REMARK H PARENT
REMARK Flexibility Score: 70.00
ROOT
ATOM      1  C   UNL     1      82.226   3.784  29.086  1.00  0.00     0.136 C 
ATOM      2  O   UNL     1      82.269   4.390  30.147  1.00  0.00    -0.299 OA
ENDROOT
BRANCH   1   3
ATOM      3  C   UNL     1      82.913   2.439  28.965  1.00  0.00     0.053 C 
ATOM      4  C   UNL     1      82.531   1.793  27.628  1.00  0.00     0.016 C 
BRANCH   3   5
ATOM      5  C   UNL     1      84.454   2.554  29.078  1.00  0.00     0.015 C 
BRANCH   5   6
ATOM      6  C   UNL     1      85.051   3.764  28.341  1.00  0.00     0.028 C 
BRANCH   6   7
ATOM      7  C   UNL     1      84.765   3.709  26.859  1.00  0.00    -0.028 C 
ATOM      8  C   UNL     1      84.393   4.763  26.097  1.00  0.00    -0.070 CG0
ATOM      9  C   UNL     1      84.160   4.528  24.627  1.00  0.00     0.039 C 
ATOM     10  G   UNL     1      84.214   6.164  26.657  1.00  0.00     0.000 G0
ENDBRANCH   6   7
ENDBRANCH   5   6
ENDBRANCH   3   5
ENDBRANCH   1   3
BRANCH   1  11
ATOM     11  C   UNL     1      81.527   4.421  27.904  1.00  0.00     0.087 C 
BRANCH  11  12
ATOM     12  C   UNL     1      81.803   5.941  27.785  1.00  0.00     0.066 C 
BRANCH  12  13
ATOM     13  C   UNL     1      83.293   6.247  27.864  1.00  0.00     0.140 C 
ATOM     14  O   UNL     1      83.794   6.513  28.948  1.00  0.00    -0.299 OA
BRANCH  13  15
ATOM     15  C   UNL     1      84.203   6.170  26.658  1.00  0.00     0.106 CG0
ATOM     16  G   UNL     1      84.371   4.766  26.102  1.00  0.00     0.000 G0
ENDBRANCH  13  15
ENDBRANCH  12  13
BRANCH  12  17
ATOM     17  C   UNL     1      81.172   6.601  26.520  1.00  0.00    -0.006 C 
ATOM     18  C   UNL     1      80.750   5.599  25.430  1.00  0.00     0.008 C 
ATOM     19  C   UNL     1      79.989   7.513  26.880  1.00  0.00     0.008 C 
ENDBRANCH  12  17
ENDBRANCH  11  12
ENDBRANCH   1  11
TORSDOF 1
ENDMDL
MODEL 9
REMARK VINA RESULT:    -2.085      2.214      4.256
REMARK INTER + INTRA:          -1.868
REMARK INTER:                  -2.847
REMARK INTRA:                   0.978
REMARK UNBOUND:                 1.314
REMARK SMILES CC1=CCC[C@H](C)C(=O)C[C@H](C(C)C)C(=O)C1
REMARK SMILES IDX 8 1 9 2 6 3 7 4 5 5 4 6 3 7 2 8 1 9 10 11 11 12 15 13 16 14
REMARK SMILES IDX 17 15 12 17 13 18 14 19
REMARK H PARENT
REMARK Flexibility Score: 70.00
ROOT
ATOM      1  C   UNL     1      80.939   5.716  26.237  1.00  0.00     0.136 C 
ATOM      2  O   UNL     1      79.877   5.884  25.655  1.00  0.00    -0.299 OA
ENDROOT
BRANCH   1   3
ATOM      3  C   UNL     1      81.416   6.752  27.235  1.00  0.00     0.053 C 
ATOM      4  C   UNL     1      80.780   8.106  26.903  1.00  0.00     0.016 C 
BRANCH   3   5
ATOM      5  C   UNL     1      81.088   6.355  28.696  1.00  0.00     0.015 C 
BRANCH   5   6
ATOM      6  C   UNL     1      82.175   5.506  29.378  1.00  0.00     0.028 C 
BRANCH   6   7
ATOM      7  C   UNL     1      81.574   4.380  30.185  1.00  0.00    -0.028 C 
ATOM      8  C   UNL     1      81.906   3.074  30.067  1.00  0.00    -0.070 CG0
ATOM      9  C   UNL     1      81.213   2.082  30.966  1.00  0.00     0.039 C 
ATOM     10  G   UNL     1      82.948   2.572  29.082  1.00  0.00     0.000 G0
ENDBRANCH   6   7
ENDBRANCH   5   6
ENDBRANCH   3   5
ENDBRANCH   1   3
BRANCH   1  11
ATOM     11  C   UNL     1      81.774   4.499  25.905  1.00  0.00     0.087 C 
BRANCH  11  12
ATOM     12  C   UNL     1      82.851   4.192  26.976  1.00  0.00     0.066 C 
BRANCH  12  13
ATOM     13  C   UNL     1      82.626   2.830  27.621  1.00  0.00     0.140 C 
ATOM     14  O   UNL     1      82.219   1.903  26.935  1.00  0.00    -0.299 OA
BRANCH  13  15
ATOM     15  C   UNL     1      82.952   2.554  29.072  1.00  0.00     0.106 CG0
ATOM     16  G   UNL     1      81.914   3.082  30.048  1.00  0.00     0.000 G0
ENDBRANCH  13  15
ENDBRANCH  12  13
BRANCH  12  17
ATOM     17  C   UNL     1      84.316   4.319  26.456  1.00  0.00    -0.006 C 
ATOM     18  C   UNL     1      84.445   5.048  25.106  1.00  0.00     0.008 C 
ATOM     19  C   UNL     1      85.238   4.974  27.496  1.00  0.00     0.008 C 
ENDBRANCH  12  17
ENDBRANCH  11  12
ENDBRANCH   1  11
TORSDOF 1
ENDMDL
