MODEL 1
REMARK VINA RESULT:    -2.680      0.000      0.000
REMARK INTER + INTRA:          -5.693
REMARK INTER:                  -4.716
REMARK INTRA:                  -0.977
REMARK UNBOUND:                -0.977
REMARK SMILES CCCCCCCCCCCCCCC(=O)[O-]
REMARK SMILES IDX 9 1 10 2 11 3 12 4 13 5 14 6 15 7 16 8 17 9 8 10 7 11 6 12
REMARK SMILES IDX 5 13 4 14 3 15 2 16 1 17
REMARK H PARENT
REMARK Flexibility Score: inf
ROOT
ATOM      1  C   UNL     1      18.305  66.125  16.135  1.00  0.00     0.000 C 
ENDROOT
BRANCH   1   2
ATOM      2  C   UNL     1      18.891  65.752  14.764  1.00  0.00     0.000 C 
BRANCH   2   3
ATOM      3  C   UNL     1      20.386  65.399  14.833  1.00  0.00     0.000 C 
BRANCH   3   4
ATOM      4  C   UNL     1      21.041  65.858  16.148  1.00  0.00     0.000 C 
BRANCH   4   5
ATOM      5  C   UNL     1      22.433  65.240  16.360  1.00  0.00     0.006 C 
BRANCH   5   6
ATOM      6  C   UNL     1      23.564  66.125  15.821  1.00  0.00     0.053 C 
BRANCH   6   7
ATOM      7  C   UNL     1      24.885  65.443  15.989  1.00  0.00     0.041 C 
ATOM      8  O   UNL     1      25.701  65.848  16.858  1.00  0.00    -0.550 OA
ATOM      9  O   UNL     1      25.194  64.328  15.221  1.00  0.00    -0.550 OA
ENDBRANCH   6   7
ENDBRANCH   5   6
ENDBRANCH   4   5
ENDBRANCH   3   4
ENDBRANCH   2   3
ENDBRANCH   1   2
BRANCH   1  10
ATOM     10  C   UNL     1      16.821  65.750  16.217  1.00  0.00     0.000 C 
BRANCH  10  11
ATOM     11  C   UNL     1      16.514  64.996  17.517  1.00  0.00    -0.000 C 
BRANCH  11  12
ATOM     12  C   UNL     1      15.115  64.369  17.472  1.00  0.00    -0.000 C 
BRANCH  12  13
ATOM     13  C   UNL     1      14.048  65.423  17.147  1.00  0.00    -0.000 C 
BRANCH  13  14
ATOM     14  C   UNL     1      13.158  65.028  15.958  1.00  0.00    -0.000 C 
BRANCH  14  15
ATOM     15  C   UNL     1      13.585  65.674  14.623  1.00  0.00    -0.000 C 
BRANCH  15  16
ATOM     16  C   UNL     1      14.268  64.671  13.683  1.00  0.00    -0.003 C 
ATOM     17  C   UNL     1      15.279  65.365  12.775  1.00  0.00     0.004 C 
ENDBRANCH  15  16
ENDBRANCH  14  15
ENDBRANCH  13  14
ENDBRANCH  12  13
ENDBRANCH  11  12
ENDBRANCH  10  11
ENDBRANCH   1  10
TORSDOF 13
ENDMDL
MODEL 2
REMARK VINA RESULT:    -2.635      9.868     12.883
REMARK INTER + INTRA:          -5.615
REMARK INTER:                  -4.678
REMARK INTRA:                  -0.937
REMARK UNBOUND:                -0.977
REMARK SMILES CCCCCCCCCCCCCCC(=O)[O-]
REMARK SMILES IDX 9 1 10 2 11 3 12 4 13 5 14 6 15 7 16 8 17 9 8 10 7 11 6 12
REMARK SMILES IDX 5 13 4 14 3 15 2 16 1 17
REMARK H PARENT
REMARK Flexibility Score: inf
ROOT
ATOM      1  C   UNL     1      28.511  65.174  19.011  1.00  0.00     0.000 C 
ENDROOT
BRANCH   1   2
ATOM      2  C   UNL     1      29.448  65.977  19.927  1.00  0.00     0.000 C 
BRANCH   2   3
ATOM      3  C   UNL     1      30.864  66.122  19.348  1.00  0.00     0.000 C 
BRANCH   3   4
ATOM      4  C   UNL     1      31.471  64.772  18.927  1.00  0.00     0.000 C 
BRANCH   4   5
ATOM      5  C   UNL     1      32.006  63.968  20.123  1.00  0.00     0.006 C 
BRANCH   5   6
ATOM      6  C   UNL     1      32.252  62.492  19.784  1.00  0.00     0.053 C 
BRANCH   6   7
ATOM      7  C   UNL     1      32.606  61.725  21.020  1.00  0.00     0.041 C 
ATOM      8  O   UNL     1      33.119  62.315  22.006  1.00  0.00    -0.550 OA
ATOM      9  O   UNL     1      32.322  60.368  21.100  1.00  0.00    -0.550 OA
ENDBRANCH   6   7
ENDBRANCH   5   6
ENDBRANCH   4   5
ENDBRANCH   3   4
ENDBRANCH   2   3
ENDBRANCH   1   2
BRANCH   1  10
ATOM     10  C   UNL     1      27.321  66.029  18.558  1.00  0.00     0.000 C 
BRANCH  10  11
ATOM     11  C   UNL     1      26.810  65.577  17.184  1.00  0.00    -0.000 C 
BRANCH  11  12
ATOM     12  C   UNL     1      27.858  64.720  16.462  1.00  0.00    -0.000 C 
BRANCH  12  13
ATOM     13  C   UNL     1      29.002  65.588  15.922  1.00  0.00    -0.000 C 
BRANCH  13  14
ATOM     14  C   UNL     1      30.344  64.841  15.862  1.00  0.00    -0.000 C 
BRANCH  14  15
ATOM     15  C   UNL     1      30.354  63.663  14.865  1.00  0.00    -0.000 C 
BRANCH  15  16
ATOM     16  C   UNL     1      31.777  63.188  14.539  1.00  0.00    -0.003 C 
ATOM     17  C   UNL     1      32.602  63.005  15.809  1.00  0.00     0.004 C 
ENDBRANCH  15  16
ENDBRANCH  14  15
ENDBRANCH  13  14
ENDBRANCH  12  13
ENDBRANCH  11  12
ENDBRANCH  10  11
ENDBRANCH   1  10
TORSDOF 13
ENDMDL
MODEL 3
REMARK VINA RESULT:    -2.607     10.211     13.815
REMARK INTER + INTRA:          -5.564
REMARK INTER:                  -4.400
REMARK INTRA:                  -1.165
REMARK UNBOUND:                -0.977
REMARK SMILES CCCCCCCCCCCCCCC(=O)[O-]
REMARK SMILES IDX 9 1 10 2 11 3 12 4 13 5 14 6 15 7 16 8 17 9 8 10 7 11 6 12
REMARK SMILES IDX 5 13 4 14 3 15 2 16 1 17
REMARK H PARENT
REMARK Flexibility Score: inf
ROOT
ATOM      1  C   UNL     1      28.975  66.022  19.083  1.00  0.00     0.000 C 
ENDROOT
BRANCH   1   2
ATOM      2  C   UNL     1      27.615  65.524  18.568  1.00  0.00     0.000 C 
BRANCH   2   3
ATOM      3  C   UNL     1      27.611  65.272  17.051  1.00  0.00     0.000 C 
BRANCH   3   4
ATOM      4  C   UNL     1      28.858  65.843  16.353  1.00  0.00     0.000 C 
BRANCH   4   5
ATOM      5  C   UNL     1      29.699  64.756  15.666  1.00  0.00     0.006 C 
BRANCH   5   6
ATOM      6  C   UNL     1      31.066  64.552  16.332  1.00  0.00     0.053 C 
BRANCH   6   7
ATOM      7  C   UNL     1      31.754  63.355  15.755  1.00  0.00     0.041 C 
ATOM      8  O   UNL     1      31.652  63.097  14.528  1.00  0.00    -0.550 OA
ATOM      9  O   UNL     1      32.550  62.554  16.564  1.00  0.00    -0.550 OA
ENDBRANCH   6   7
ENDBRANCH   5   6
ENDBRANCH   4   5
ENDBRANCH   3   4
ENDBRANCH   2   3
ENDBRANCH   1   2
BRANCH   1  10
ATOM     10  C   UNL     1      28.977  66.125  20.613  1.00  0.00     0.000 C 
BRANCH  10  11
ATOM     11  C   UNL     1      30.336  65.711  21.191  1.00  0.00    -0.000 C 
BRANCH  11  12
ATOM     12  C   UNL     1      31.327  65.367  20.072  1.00  0.00    -0.000 C 
BRANCH  12  13
ATOM     13  C   UNL     1      31.410  63.849  19.857  1.00  0.00    -0.000 C 
BRANCH  13  14
ATOM     14  C   UNL     1      32.699  63.233  20.424  1.00  0.00    -0.000 C 
BRANCH  14  15
ATOM     15  C   UNL     1      32.487  61.858  21.091  1.00  0.00    -0.000 C 
BRANCH  15  16
ATOM     16  C   UNL     1      33.038  61.816  22.524  1.00  0.00    -0.003 C 
ATOM     17  C   UNL     1      33.124  63.217  23.123  1.00  0.00     0.004 C 
ENDBRANCH  15  16
ENDBRANCH  14  15
ENDBRANCH  13  14
ENDBRANCH  12  13
ENDBRANCH  11  12
ENDBRANCH  10  11
ENDBRANCH   1  10
TORSDOF 13
ENDMDL
MODEL 4
REMARK VINA RESULT:    -2.421      5.216     12.182
REMARK INTER + INTRA:          -5.237
REMARK INTER:                  -4.557
REMARK INTRA:                  -0.681
REMARK UNBOUND:                -0.977
REMARK SMILES CCCCCCCCCCCCCCC(=O)[O-]
REMARK SMILES IDX 9 1 10 2 11 3 12 4 13 5 14 6 15 7 16 8 17 9 8 10 7 11 6 12
REMARK SMILES IDX 5 13 4 14 3 15 2 16 1 17
REMARK H PARENT
REMARK Flexibility Score: inf
ROOT
ATOM      1  C   UNL     1      26.956  65.681  18.326  1.00  0.00     0.000 C 
ENDROOT
BRANCH   1   2
ATOM      2  C   UNL     1      26.578  65.519  16.846  1.00  0.00     0.000 C 
BRANCH   2   3
ATOM      3  C   UNL     1      25.186  66.085  16.523  1.00  0.00     0.000 C 
BRANCH   3   4
ATOM      4  C   UNL     1      24.252  65.035  15.894  1.00  0.00     0.000 C 
BRANCH   4   5
ATOM      5  C   UNL     1      22.850  65.039  16.524  1.00  0.00     0.006 C 
BRANCH   5   6
ATOM      6  C   UNL     1      21.938  66.125  15.938  1.00  0.00     0.053 C 
BRANCH   6   7
ATOM      7  C   UNL     1      20.609  65.545  15.569  1.00  0.00     0.041 C 
ATOM      8  O   UNL     1      19.881  65.019  16.449  1.00  0.00    -0.550 OA
ATOM      9  O   UNL     1      20.153  65.633  14.259  1.00  0.00    -0.550 OA
ENDBRANCH   6   7
ENDBRANCH   5   6
ENDBRANCH   4   5
ENDBRANCH   3   4
ENDBRANCH   2   3
ENDBRANCH   1   2
BRANCH   1  10
ATOM     10  C   UNL     1      28.470  65.533  18.525  1.00  0.00     0.000 C 
BRANCH  10  11
ATOM     11  C   UNL     1      29.187  65.365  17.180  1.00  0.00    -0.000 C 
BRANCH  11  12
ATOM     12  C   UNL     1      30.708  65.476  17.350  1.00  0.00    -0.000 C 
BRANCH  12  13
ATOM     13  C   UNL     1      31.223  64.462  18.380  1.00  0.00    -0.000 C 
BRANCH  13  14
ATOM     14  C   UNL     1      32.643  63.962  18.071  1.00  0.00    -0.000 C 
BRANCH  14  15
ATOM     15  C   UNL     1      32.698  62.917  16.936  1.00  0.00    -0.000 C 
BRANCH  15  16
ATOM     16  C   UNL     1      33.111  63.539  15.594  1.00  0.00    -0.003 C 
ATOM     17  C   UNL     1      32.109  63.197  14.496  1.00  0.00     0.004 C 
ENDBRANCH  15  16
ENDBRANCH  14  15
ENDBRANCH  13  14
ENDBRANCH  12  13
ENDBRANCH  11  12
ENDBRANCH  10  11
ENDBRANCH   1  10
TORSDOF 13
ENDMDL
MODEL 5
REMARK VINA RESULT:    -2.235      5.558     12.371
REMARK INTER + INTRA:          -4.910
REMARK INTER:                  -4.569
REMARK INTRA:                  -0.341
REMARK UNBOUND:                -0.977
REMARK SMILES CCCCCCCCCCCCCCC(=O)[O-]
REMARK SMILES IDX 9 1 10 2 11 3 12 4 13 5 14 6 15 7 16 8 17 9 8 10 7 11 6 12
REMARK SMILES IDX 5 13 4 14 3 15 2 16 1 17
REMARK H PARENT
REMARK Flexibility Score: inf
ROOT
ATOM      1  C   UNL     1      26.881  65.982  17.218  1.00  0.00     0.000 C 
ENDROOT
BRANCH   1   2
ATOM      2  C   UNL     1      25.923  65.504  16.116  1.00  0.00     0.000 C 
BRANCH   2   3
ATOM      3  C   UNL     1      24.466  65.924  16.372  1.00  0.00     0.000 C 
BRANCH   3   4
ATOM      4  C   UNL     1      23.459  64.821  16.001  1.00  0.00     0.000 C 
BRANCH   4   5
ATOM      5  C   UNL     1      22.045  65.113  16.528  1.00  0.00     0.006 C 
BRANCH   5   6
ATOM      6  C   UNL     1      21.260  66.073  15.624  1.00  0.00     0.053 C 
BRANCH   6   7
ATOM      7  C   UNL     1      19.917  65.501  15.297  1.00  0.00     0.041 C 
ATOM      8  O   UNL     1      19.701  65.001  14.163  1.00  0.00    -0.550 OA
ATOM      9  O   UNL     1      18.919  65.475  16.264  1.00  0.00    -0.550 OA
ENDBRANCH   6   7
ENDBRANCH   5   6
ENDBRANCH   4   5
ENDBRANCH   3   4
ENDBRANCH   2   3
ENDBRANCH   1   2
BRANCH   1  10
ATOM     10  C   UNL     1      28.314  66.104  16.684  1.00  0.00     0.000 C 
BRANCH  10  11
ATOM     11  C   UNL     1      29.237  65.073  17.344  1.00  0.00    -0.000 C 
BRANCH  11  12
ATOM     12  C   UNL     1      30.636  65.658  17.579  1.00  0.00    -0.000 C 
BRANCH  12  13
ATOM     13  C   UNL     1      31.115  65.380  19.011  1.00  0.00    -0.000 C 
BRANCH  13  14
ATOM     14  C   UNL     1      31.280  63.880  19.307  1.00  0.00    -0.000 C 
BRANCH  14  15
ATOM     15  C   UNL     1      32.053  63.588  20.610  1.00  0.00    -0.000 C 
BRANCH  15  16
ATOM     16  C   UNL     1      33.028  62.412  20.456  1.00  0.00    -0.003 C 
ATOM     17  C   UNL     1      32.375  61.096  20.867  1.00  0.00     0.004 C 
ENDBRANCH  15  16
ENDBRANCH  14  15
ENDBRANCH  13  14
ENDBRANCH  12  13
ENDBRANCH  11  12
ENDBRANCH  10  11
ENDBRANCH   1  10
TORSDOF 13
ENDMDL
MODEL 6
REMARK VINA RESULT:    -2.219     11.405     14.109
REMARK INTER + INTRA:          -4.882
REMARK INTER:                  -3.644
REMARK INTRA:                  -1.239
REMARK UNBOUND:                -0.977
REMARK SMILES CCCCCCCCCCCCCCC(=O)[O-]
REMARK SMILES IDX 9 1 10 2 11 3 12 4 13 5 14 6 15 7 16 8 17 9 8 10 7 11 6 12
REMARK SMILES IDX 5 13 4 14 3 15 2 16 1 17
REMARK H PARENT
REMARK Flexibility Score: inf
ROOT
ATOM      1  C   UNL     1      29.884  65.174  18.060  1.00  0.00     0.000 C 
ENDROOT
BRANCH   1   2
ATOM      2  C   UNL     1      30.246  65.993  19.309  1.00  0.00     0.000 C 
BRANCH   2   3
ATOM      3  C   UNL     1      30.684  65.113  20.491  1.00  0.00     0.000 C 
BRANCH   3   4
ATOM      4  C   UNL     1      31.243  65.936  21.665  1.00  0.00     0.000 C 
BRANCH   4   5
ATOM      5  C   UNL     1      32.579  65.383  22.189  1.00  0.00     0.006 C 
BRANCH   5   6
ATOM      6  C   UNL     1      32.942  64.025  21.575  1.00  0.00     0.053 C 
BRANCH   6   7
ATOM      7  C   UNL     1      33.029  62.978  22.640  1.00  0.00     0.041 C 
ATOM      8  O   UNL     1      32.971  63.303  23.854  1.00  0.00    -0.550 OA
ATOM      9  O   UNL     1      33.125  61.637  22.289  1.00  0.00    -0.550 OA
ENDBRANCH   6   7
ENDBRANCH   5   6
ENDBRANCH   4   5
ENDBRANCH   3   4
ENDBRANCH   2   3
ENDBRANCH   1   2
BRANCH   1  10
ATOM     10  C   UNL     1      29.553  66.093  16.878  1.00  0.00     0.000 C 
BRANCH  10  11
ATOM     11  C   UNL     1      28.701  65.362  15.834  1.00  0.00    -0.000 C 
BRANCH  11  12
ATOM     12  C   UNL     1      29.255  63.958  15.557  1.00  0.00    -0.000 C 
BRANCH  12  13
ATOM     13  C   UNL     1      30.394  64.009  14.529  1.00  0.00    -0.000 C 
BRANCH  13  14
ATOM     14  C   UNL     1      31.579  63.104  14.903  1.00  0.00    -0.000 C 
BRANCH  14  15
ATOM     15  C   UNL     1      32.400  63.624  16.102  1.00  0.00    -0.000 C 
BRANCH  15  16
ATOM     16  C   UNL     1      33.125  62.492  16.844  1.00  0.00    -0.003 C 
ATOM     17  C   UNL     1      32.825  62.533  18.339  1.00  0.00     0.004 C 
ENDBRANCH  15  16
ENDBRANCH  14  15
ENDBRANCH  13  14
ENDBRANCH  12  13
ENDBRANCH  11  12
ENDBRANCH  10  11
ENDBRANCH   1  10
TORSDOF 13
ENDMDL
MODEL 7
REMARK VINA RESULT:    -2.070      4.447      9.675
REMARK INTER + INTRA:          -4.620
REMARK INTER:                  -4.468
REMARK INTRA:                  -0.152
REMARK UNBOUND:                -0.977
REMARK SMILES CCCCCCCCCCCCCCC(=O)[O-]
REMARK SMILES IDX 9 1 10 2 11 3 12 4 13 5 14 6 15 7 16 8 17 9 8 10 7 11 6 12
REMARK SMILES IDX 5 13 4 14 3 15 2 16 1 17
REMARK H PARENT
REMARK Flexibility Score: inf
ROOT
ATOM      1  C   UNL     1      19.795  65.004  16.282  1.00  0.00     0.000 C 
ENDROOT
BRANCH   1   2
ATOM      2  C   UNL     1      18.631  65.997  16.429  1.00  0.00     0.000 C 
BRANCH   2   3
ATOM      3  C   UNL     1      17.590  65.863  15.306  1.00  0.00     0.000 C 
BRANCH   3   4
ATOM      4  C   UNL     1      16.147  65.828  15.840  1.00  0.00     0.000 C 
BRANCH   4   5
ATOM      5  C   UNL     1      16.031  65.079  17.177  1.00  0.00     0.006 C 
BRANCH   5   6
ATOM      6  C   UNL     1      14.613  64.559  17.446  1.00  0.00     0.053 C 
BRANCH   6   7
ATOM      7  C   UNL     1      13.723  64.843  16.277  1.00  0.00     0.041 C 
ATOM      8  O   UNL     1      13.556  63.975  15.382  1.00  0.00    -0.550 OA
ATOM      9  O   UNL     1      13.038  66.049  16.202  1.00  0.00    -0.550 OA
ENDBRANCH   6   7
ENDBRANCH   5   6
ENDBRANCH   4   5
ENDBRANCH   3   4
ENDBRANCH   2   3
ENDBRANCH   1   2
BRANCH   1  10
ATOM     10  C   UNL     1      20.803  65.492  15.235  1.00  0.00     0.000 C 
BRANCH  10  11
ATOM     11  C   UNL     1      22.030  66.125  15.905  1.00  0.00    -0.000 C 
BRANCH  11  12
ATOM     12  C   UNL     1      23.196  65.131  15.969  1.00  0.00    -0.000 C 
BRANCH  12  13
ATOM     13  C   UNL     1      24.476  65.815  16.468  1.00  0.00    -0.000 C 
BRANCH  13  14
ATOM     14  C   UNL     1      25.742  64.984  16.203  1.00  0.00    -0.000 C 
BRANCH  14  15
ATOM     15  C   UNL     1      27.025  65.607  16.791  1.00  0.00    -0.000 C 
BRANCH  15  16
ATOM     16  C   UNL     1      28.298  64.974  16.210  1.00  0.00    -0.003 C 
ATOM     17  C   UNL     1      29.551  65.608  16.806  1.00  0.00     0.004 C 
ENDBRANCH  15  16
ENDBRANCH  14  15
ENDBRANCH  13  14
ENDBRANCH  12  13
ENDBRANCH  11  12
ENDBRANCH  10  11
ENDBRANCH   1  10
TORSDOF 13
ENDMDL
MODEL 8
REMARK VINA RESULT:    -1.877      4.382     10.131
REMARK INTER + INTRA:          -4.281
REMARK INTER:                  -3.879
REMARK INTRA:                  -0.402
REMARK UNBOUND:                -0.977
REMARK SMILES CCCCCCCCCCCCCCC(=O)[O-]
REMARK SMILES IDX 9 1 10 2 11 3 12 4 13 5 14 6 15 7 16 8 17 9 8 10 7 11 6 12
REMARK SMILES IDX 5 13 4 14 3 15 2 16 1 17
REMARK H PARENT
REMARK Flexibility Score: inf
ROOT
ATOM      1  C   UNL     1      21.929  65.279  16.202  1.00  0.00     0.000 C 
ENDROOT
BRANCH   1   2
ATOM      2  C   UNL     1      20.804  66.125  15.584  1.00  0.00     0.000 C 
BRANCH   2   3
ATOM      3  C   UNL     1      19.405  65.555  15.871  1.00  0.00     0.000 C 
BRANCH   3   4
ATOM      4  C   UNL     1      18.368  65.975  14.815  1.00  0.00     0.000 C 
BRANCH   4   5
ATOM      5  C   UNL     1      16.938  66.015  15.377  1.00  0.00     0.006 C 
BRANCH   5   6
ATOM      6  C   UNL     1      16.828  65.377  16.769  1.00  0.00     0.053 C 
BRANCH   6   7
ATOM      7  C   UNL     1      15.408  65.009  17.063  1.00  0.00     0.041 C 
ATOM      8  O   UNL     1      15.078  64.631  18.217  1.00  0.00    -0.550 OA
ATOM      9  O   UNL     1      14.439  65.132  16.075  1.00  0.00    -0.550 OA
ENDBRANCH   6   7
ENDBRANCH   5   6
ENDBRANCH   4   5
ENDBRANCH   3   4
ENDBRANCH   2   3
ENDBRANCH   1   2
BRANCH   1  10
ATOM     10  C   UNL     1      23.192  66.121  16.418  1.00  0.00     0.000 C 
BRANCH  10  11
ATOM     11  C   UNL     1      24.446  65.355  15.978  1.00  0.00    -0.000 C 
BRANCH  11  12
ATOM     12  C   UNL     1      25.720  66.115  16.366  1.00  0.00    -0.000 C 
BRANCH  12  13
ATOM     13  C   UNL     1      26.461  65.401  17.505  1.00  0.00    -0.000 C 
BRANCH  13  14
ATOM     14  C   UNL     1      27.988  65.416  17.328  1.00  0.00    -0.000 C 
BRANCH  14  15
ATOM     15  C   UNL     1      28.470  64.712  16.042  1.00  0.00    -0.000 C 
BRANCH  15  16
ATOM     16  C   UNL     1      30.000  64.599  15.980  1.00  0.00    -0.003 C 
ATOM     17  C   UNL     1      30.447  63.834  14.738  1.00  0.00     0.004 C 
ENDBRANCH  15  16
ENDBRANCH  14  15
ENDBRANCH  13  14
ENDBRANCH  12  13
ENDBRANCH  11  12
ENDBRANCH  10  11
ENDBRANCH   1  10
TORSDOF 13
ENDMDL
