MODEL 1
REMARK VINA RESULT:    -4.114      0.000      0.000
REMARK INTER + INTRA:         -10.000
REMARK INTER:                  -7.482
REMARK INTRA:                  -2.519
REMARK UNBOUND:                -2.519
REMARK SMILES CCCCCCCCCCCCCCCC(=O)[O-]
REMARK SMILES IDX 9 1 10 2 11 3 12 4 13 5 14 6 15 7 16 8 17 9 18 10 8 11 7 12
REMARK SMILES IDX 6 13 5 14 4 15 3 16 2 17 1 18
REMARK H PARENT
REMARK Flexibility Score: inf
ROOT
ATOM      1  C   UNL     1     -40.274  20.057 -30.335  1.00  0.00     0.000 C 
ENDROOT
BRANCH   1   2
ATOM      2  C   UNL     1     -39.806  18.595 -30.276  1.00  0.00     0.000 C 
BRANCH   2   3
ATOM      3  C   UNL     1     -38.336  18.506 -29.848  1.00  0.00     0.000 C 
BRANCH   3   4
ATOM      4  C   UNL     1     -37.638  19.867 -29.998  1.00  0.00     0.000 C 
BRANCH   4   5
ATOM      5  C   UNL     1     -36.762  20.221 -28.785  1.00  0.00     0.000 C 
BRANCH   5   6
ATOM      6  C   UNL     1     -37.437  21.233 -27.843  1.00  0.00     0.006 C 
BRANCH   6   7
ATOM      7  C   UNL     1     -37.760  20.623 -26.473  1.00  0.00     0.053 C 
BRANCH   7   8
ATOM      8  C   UNL     1     -36.782  21.059 -25.425  1.00  0.00     0.041 C 
ATOM      9  O   UNL     1     -35.915  21.932 -25.689  1.00  0.00    -0.550 OA
ATOM     10  O   UNL     1     -36.848  20.521 -24.145  1.00  0.00    -0.550 OA
ENDBRANCH   7   8
ENDBRANCH   6   7
ENDBRANCH   5   6
ENDBRANCH   4   5
ENDBRANCH   3   4
ENDBRANCH   2   3
ENDBRANCH   1   2
BRANCH   1  11
ATOM     11  C   UNL     1     -41.306  20.392 -29.247  1.00  0.00     0.000 C 
BRANCH  11  12
ATOM     12  C   UNL     1     -40.955  21.674 -28.473  1.00  0.00    -0.000 C 
BRANCH  12  13
ATOM     13  C   UNL     1     -40.833  22.901 -29.389  1.00  0.00    -0.000 C 
BRANCH  13  14
ATOM     14  C   UNL     1     -39.878  23.969 -28.827  1.00  0.00    -0.000 C 
BRANCH  14  15
ATOM     15  C   UNL     1     -38.681  24.232 -29.766  1.00  0.00    -0.000 C 
BRANCH  15  16
ATOM     16  C   UNL     1     -38.669  23.334 -31.014  1.00  0.00    -0.000 C 
BRANCH  16  17
ATOM     17  C   UNL     1     -37.282  23.230 -31.662  1.00  0.00    -0.003 C 
ATOM     18  C   UNL     1     -36.178  23.478 -30.637  1.00  0.00     0.004 C 
ENDBRANCH  16  17
ENDBRANCH  15  16
ENDBRANCH  14  15
ENDBRANCH  13  14
ENDBRANCH  12  13
ENDBRANCH  11  12
ENDBRANCH   1  11
TORSDOF 14
ENDMDL
MODEL 2
REMARK VINA RESULT:    -3.970      2.656      4.194
REMARK INTER + INTRA:          -9.738
REMARK INTER:                  -7.512
REMARK INTRA:                  -2.226
REMARK UNBOUND:                -2.519
REMARK SMILES CCCCCCCCCCCCCCCC(=O)[O-]
REMARK SMILES IDX 9 1 10 2 11 3 12 4 13 5 14 6 15 7 16 8 17 9 18 10 8 11 7 12
REMARK SMILES IDX 6 13 5 14 4 15 3 16 2 17 1 18
REMARK H PARENT
REMARK Flexibility Score: inf
ROOT
ATOM      1  C   UNL     1     -37.492  20.296 -27.681  1.00  0.00     0.000 C 
ENDROOT
BRANCH   1   2
ATOM      2  C   UNL     1     -36.823  20.196 -29.061  1.00  0.00     0.000 C 
BRANCH   2   3
ATOM      3  C   UNL     1     -37.458  19.080 -29.899  1.00  0.00     0.000 C 
BRANCH   3   4
ATOM      4  C   UNL     1     -38.928  18.868 -29.508  1.00  0.00     0.000 C 
BRANCH   4   5
ATOM      5  C   UNL     1     -39.907  19.368 -30.582  1.00  0.00     0.000 C 
BRANCH   5   6
ATOM      6  C   UNL     1     -40.522  20.735 -30.233  1.00  0.00     0.006 C 
BRANCH   6   7
ATOM      7  C   UNL     1     -40.735  20.904 -28.723  1.00  0.00     0.053 C 
BRANCH   7   8
ATOM      8  C   UNL     1     -41.984  21.674 -28.420  1.00  0.00     0.041 C 
ATOM      9  O   UNL     1     -42.883  21.168 -27.698  1.00  0.00    -0.550 OA
ATOM     10  O   UNL     1     -42.142  22.964 -28.911  1.00  0.00    -0.550 OA
ENDBRANCH   7   8
ENDBRANCH   6   7
ENDBRANCH   5   6
ENDBRANCH   4   5
ENDBRANCH   3   4
ENDBRANCH   2   3
ENDBRANCH   1   2
BRANCH   1  11
ATOM     11  C   UNL     1     -36.840  21.359 -26.783  1.00  0.00     0.000 C 
BRANCH  11  12
ATOM     12  C   UNL     1     -36.275  22.544 -27.585  1.00  0.00    -0.000 C 
BRANCH  12  13
ATOM     13  C   UNL     1     -36.630  23.902 -26.959  1.00  0.00    -0.000 C 
BRANCH  13  14
ATOM     14  C   UNL     1     -37.442  24.799 -27.909  1.00  0.00    -0.000 C 
BRANCH  14  15
ATOM     15  C   UNL     1     -38.731  24.108 -28.403  1.00  0.00    -0.000 C 
BRANCH  15  16
ATOM     16  C   UNL     1     -38.950  24.224 -29.920  1.00  0.00    -0.000 C 
BRANCH  16  17
ATOM     17  C   UNL     1     -37.942  23.401 -30.734  1.00  0.00    -0.003 C 
ATOM     18  C   UNL     1     -38.444  23.170 -32.157  1.00  0.00     0.004 C 
ENDBRANCH  16  17
ENDBRANCH  15  16
ENDBRANCH  14  15
ENDBRANCH  13  14
ENDBRANCH  12  13
ENDBRANCH  11  12
ENDBRANCH   1  11
TORSDOF 14
ENDMDL
MODEL 3
REMARK VINA RESULT:    -3.874     15.276     17.135
REMARK INTER + INTRA:          -9.563
REMARK INTER:                  -7.389
REMARK INTRA:                  -2.173
REMARK UNBOUND:                -2.519
REMARK SMILES CCCCCCCCCCCCCCCC(=O)[O-]
REMARK SMILES IDX 9 1 10 2 11 3 12 4 13 5 14 6 15 7 16 8 17 9 18 10 8 11 7 12
REMARK SMILES IDX 6 13 5 14 4 15 3 16 2 17 1 18
REMARK H PARENT
REMARK Flexibility Score: inf
ROOT
ATOM      1  C   UNL     1     -49.022  10.046 -29.309  1.00  0.00     0.000 C 
ENDROOT
BRANCH   1   2
ATOM      2  C   UNL     1     -50.310  10.798 -28.939  1.00  0.00     0.000 C 
BRANCH   2   3
ATOM      3  C   UNL     1     -50.062  12.310 -28.875  1.00  0.00     0.000 C 
BRANCH   3   4
ATOM      4  C   UNL     1     -51.355  13.064 -28.529  1.00  0.00     0.000 C 
BRANCH   4   5
ATOM      5  C   UNL     1     -51.736  14.108 -29.590  1.00  0.00     0.000 C 
BRANCH   5   6
ATOM      6  C   UNL     1     -53.175  14.626 -29.422  1.00  0.00     0.006 C 
BRANCH   6   7
ATOM      7  C   UNL     1     -53.776  15.107 -30.749  1.00  0.00     0.053 C 
BRANCH   7   8
ATOM      8  C   UNL     1     -53.215  16.433 -31.166  1.00  0.00     0.041 C 
ATOM      9  O   UNL     1     -52.229  16.488 -31.947  1.00  0.00    -0.550 OA
ATOM     10  O   UNL     1     -53.802  17.609 -30.716  1.00  0.00    -0.550 OA
ENDBRANCH   7   8
ENDBRANCH   6   7
ENDBRANCH   5   6
ENDBRANCH   4   5
ENDBRANCH   3   4
ENDBRANCH   2   3
ENDBRANCH   1   2
BRANCH   1  11
ATOM     11  C   UNL     1     -48.708  10.113 -30.812  1.00  0.00     0.000 C 
BRANCH  11  12
ATOM     12  C   UNL     1     -49.376   8.978 -31.607  1.00  0.00    -0.000 C 
BRANCH  12  13
ATOM     13  C   UNL     1     -50.117   9.488 -32.853  1.00  0.00    -0.000 C 
BRANCH  13  14
ATOM     14  C   UNL     1     -51.610   9.752 -32.588  1.00  0.00    -0.000 C 
BRANCH  14  15
ATOM     15  C   UNL     1     -51.880  11.220 -32.192  1.00  0.00    -0.000 C 
BRANCH  15  16
ATOM     16  C   UNL     1     -53.286  11.452 -31.614  1.00  0.00    -0.000 C 
BRANCH  16  17
ATOM     17  C   UNL     1     -53.639  10.471 -30.489  1.00  0.00    -0.003 C 
ATOM     18  C   UNL     1     -54.469  11.155 -29.405  1.00  0.00     0.004 C 
ENDBRANCH  16  17
ENDBRANCH  15  16
ENDBRANCH  14  15
ENDBRANCH  13  14
ENDBRANCH  12  13
ENDBRANCH  11  12
ENDBRANCH   1  11
TORSDOF 14
ENDMDL
MODEL 4
REMARK VINA RESULT:    -3.870      2.215      5.092
REMARK INTER + INTRA:          -9.555
REMARK INTER:                  -7.843
REMARK INTRA:                  -1.713
REMARK UNBOUND:                -2.519
REMARK SMILES CCCCCCCCCCCCCCCC(=O)[O-]
REMARK SMILES IDX 9 1 10 2 11 3 12 4 13 5 14 6 15 7 16 8 17 9 18 10 8 11 7 12
REMARK SMILES IDX 6 13 5 14 4 15 3 16 2 17 1 18
REMARK H PARENT
REMARK Flexibility Score: inf
ROOT
ATOM      1  C   UNL     1     -41.094  19.860 -29.767  1.00  0.00     0.000 C 
ENDROOT
BRANCH   1   2
ATOM      2  C   UNL     1     -40.804  20.720 -28.526  1.00  0.00     0.000 C 
BRANCH   2   3
ATOM      3  C   UNL     1     -41.827  21.854 -28.393  1.00  0.00     0.000 C 
BRANCH   3   4
ATOM      4  C   UNL     1     -41.449  23.042 -29.291  1.00  0.00     0.000 C 
BRANCH   4   5
ATOM      5  C   UNL     1     -40.657  24.124 -28.542  1.00  0.00     0.000 C 
BRANCH   5   6
ATOM      6  C   UNL     1     -39.134  23.940 -28.673  1.00  0.00     0.006 C 
BRANCH   6   7
ATOM      7  C   UNL     1     -38.621  24.340 -30.062  1.00  0.00     0.053 C 
BRANCH   7   8
ATOM      8  C   UNL     1     -38.049  23.170 -30.803  1.00  0.00     0.041 C 
ATOM      9  O   UNL     1     -36.810  22.949 -30.780  1.00  0.00    -0.550 OA
ATOM     10  O   UNL     1     -38.889  22.307 -31.494  1.00  0.00    -0.550 OA
ENDBRANCH   7   8
ENDBRANCH   6   7
ENDBRANCH   5   6
ENDBRANCH   4   5
ENDBRANCH   3   4
ENDBRANCH   2   3
ENDBRANCH   1   2
BRANCH   1  11
ATOM     11  C   UNL     1     -39.836  19.165 -30.313  1.00  0.00     0.000 C 
BRANCH  11  12
ATOM     12  C   UNL     1     -38.729  19.029 -29.253  1.00  0.00    -0.000 C 
BRANCH  12  13
ATOM     13  C   UNL     1     -37.386  19.605 -29.727  1.00  0.00    -0.000 C 
BRANCH  13  14
ATOM     14  C   UNL     1     -36.518  20.117 -28.565  1.00  0.00    -0.000 C 
BRANCH  14  15
ATOM     15  C   UNL     1     -37.263  21.150 -27.692  1.00  0.00    -0.000 C 
BRANCH  15  16
ATOM     16  C   UNL     1     -37.517  20.671 -26.253  1.00  0.00    -0.000 C 
BRANCH  16  17
ATOM     17  C   UNL     1     -36.423  21.115 -25.274  1.00  0.00    -0.003 C 
ATOM     18  C   UNL     1     -36.735  20.651 -23.854  1.00  0.00     0.004 C 
ENDBRANCH  16  17
ENDBRANCH  15  16
ENDBRANCH  14  15
ENDBRANCH  13  14
ENDBRANCH  12  13
ENDBRANCH  11  12
ENDBRANCH   1  11
TORSDOF 14
ENDMDL
MODEL 5
REMARK VINA RESULT:    -3.852      2.873      5.546
REMARK INTER + INTRA:          -9.524
REMARK INTER:                  -7.154
REMARK INTRA:                  -2.369
REMARK UNBOUND:                -2.519
REMARK SMILES CCCCCCCCCCCCCCCC(=O)[O-]
REMARK SMILES IDX 9 1 10 2 11 3 12 4 13 5 14 6 15 7 16 8 17 9 18 10 8 11 7 12
REMARK SMILES IDX 6 13 5 14 4 15 3 16 2 17 1 18
REMARK H PARENT
REMARK Flexibility Score: inf
ROOT
ATOM      1  C   UNL     1     -37.475  23.795 -28.165  1.00  0.00     0.000 C 
ENDROOT
BRANCH   1   2
ATOM      2  C   UNL     1     -37.153  23.685 -29.663  1.00  0.00     0.000 C 
BRANCH   2   3
ATOM      3  C   UNL     1     -38.394  23.974 -30.515  1.00  0.00     0.000 C 
BRANCH   3   4
ATOM      4  C   UNL     1     -38.850  22.714 -31.266  1.00  0.00     0.000 C 
BRANCH   4   5
ATOM      5  C   UNL     1     -40.273  22.277 -30.884  1.00  0.00     0.000 C 
BRANCH   5   6
ATOM      6  C   UNL     1     -40.430  22.025 -29.373  1.00  0.00     0.006 C 
BRANCH   6   7
ATOM      7  C   UNL     1     -41.861  22.290 -28.888  1.00  0.00     0.053 C 
BRANCH   7   8
ATOM      8  C   UNL     1     -42.215  23.744 -28.966  1.00  0.00     0.041 C 
ATOM      9  O   UNL     1     -41.494  24.605 -28.398  1.00  0.00    -0.550 OA
ATOM     10  O   UNL     1     -43.328  24.150 -29.693  1.00  0.00    -0.550 OA
ENDBRANCH   7   8
ENDBRANCH   6   7
ENDBRANCH   5   6
ENDBRANCH   4   5
ENDBRANCH   3   4
ENDBRANCH   2   3
ENDBRANCH   1   2
BRANCH   1  11
ATOM     11  C   UNL     1     -36.470  23.034 -27.286  1.00  0.00     0.000 C 
BRANCH  11  12
ATOM     12  C   UNL     1     -36.551  21.510 -27.479  1.00  0.00    -0.000 C 
BRANCH  12  13
ATOM     13  C   UNL     1     -37.863  20.916 -26.944  1.00  0.00    -0.000 C 
BRANCH  13  14
ATOM     14  C   UNL     1     -38.403  19.777 -27.827  1.00  0.00    -0.000 C 
BRANCH  14  15
ATOM     15  C   UNL     1     -37.572  19.597 -29.116  1.00  0.00    -0.000 C 
BRANCH  15  16
ATOM     16  C   UNL     1     -38.372  18.997 -30.284  1.00  0.00    -0.000 C 
BRANCH  16  17
ATOM     17  C   UNL     1     -39.741  18.456 -29.855  1.00  0.00    -0.003 C 
ATOM     18  C   UNL     1     -40.790  18.692 -30.939  1.00  0.00     0.004 C 
ENDBRANCH  16  17
ENDBRANCH  15  16
ENDBRANCH  14  15
ENDBRANCH  13  14
ENDBRANCH  12  13
ENDBRANCH  11  12
ENDBRANCH   1  11
TORSDOF 14
ENDMDL
MODEL 6
REMARK VINA RESULT:    -3.829      2.927      4.149
REMARK INTER + INTRA:          -9.481
REMARK INTER:                  -6.941
REMARK INTRA:                  -2.540
REMARK UNBOUND:                -2.519
REMARK SMILES CCCCCCCCCCCCCCCC(=O)[O-]
REMARK SMILES IDX 9 1 10 2 11 3 12 4 13 5 14 6 15 7 16 8 17 9 18 10 8 11 7 12
REMARK SMILES IDX 6 13 5 14 4 15 3 16 2 17 1 18
REMARK H PARENT
REMARK Flexibility Score: inf
ROOT
ATOM      1  C   UNL     1     -39.465  19.534 -28.881  1.00  0.00     0.000 C 
ENDROOT
BRANCH   1   2
ATOM      2  C   UNL     1     -39.003  20.371 -27.678  1.00  0.00     0.000 C 
BRANCH   2   3
ATOM      3  C   UNL     1     -37.588  20.919 -27.901  1.00  0.00     0.000 C 
BRANCH   3   4
ATOM      4  C   UNL     1     -36.820  20.057 -28.915  1.00  0.00     0.000 C 
BRANCH   4   5
ATOM      5  C   UNL     1     -36.016  20.898 -29.919  1.00  0.00     0.000 C 
BRANCH   5   6
ATOM      6  C   UNL     1     -36.864  21.998 -30.583  1.00  0.00     0.006 C 
BRANCH   6   7
ATOM      7  C   UNL     1     -36.002  23.008 -31.351  1.00  0.00     0.053 C 
BRANCH   7   8
ATOM      8  C   UNL     1     -36.834  24.077 -31.992  1.00  0.00     0.041 C 
ATOM      9  O   UNL     1     -37.650  23.784 -32.905  1.00  0.00    -0.550 OA
ATOM     10  O   UNL     1     -36.730  25.392 -31.559  1.00  0.00    -0.550 OA
ENDBRANCH   7   8
ENDBRANCH   6   7
ENDBRANCH   5   6
ENDBRANCH   4   5
ENDBRANCH   3   4
ENDBRANCH   2   3
ENDBRANCH   1   2
BRANCH   1  11
ATOM     11  C   UNL     1     -40.597  20.209 -29.672  1.00  0.00     0.000 C 
BRANCH  11  12
ATOM     12  C   UNL     1     -40.087  20.947 -30.922  1.00  0.00    -0.000 C 
BRANCH  12  13
ATOM     13  C   UNL     1     -40.347  22.460 -30.860  1.00  0.00    -0.000 C 
BRANCH  13  14
ATOM     14  C   UNL     1     -41.262  22.857 -29.688  1.00  0.00    -0.000 C 
BRANCH  14  15
ATOM     15  C   UNL     1     -40.502  23.637 -28.594  1.00  0.00    -0.000 C 
BRANCH  15  16
ATOM     16  C   UNL     1     -39.216  24.312 -29.100  1.00  0.00    -0.000 C 
BRANCH  16  17
ATOM     17  C   UNL     1     -38.435  25.020 -27.986  1.00  0.00    -0.003 C 
ATOM     18  C   UNL     1     -36.981  24.556 -27.954  1.00  0.00     0.004 C 
ENDBRANCH  16  17
ENDBRANCH  15  16
ENDBRANCH  14  15
ENDBRANCH  13  14
ENDBRANCH  12  13
ENDBRANCH  11  12
ENDBRANCH   1  11
TORSDOF 14
ENDMDL
MODEL 7
REMARK VINA RESULT:    -3.824     15.396     17.217
REMARK INTER + INTRA:          -9.473
REMARK INTER:                  -7.072
REMARK INTRA:                  -2.401
REMARK UNBOUND:                -2.519
REMARK SMILES CCCCCCCCCCCCCCCC(=O)[O-]
REMARK SMILES IDX 9 1 10 2 11 3 12 4 13 5 14 6 15 7 16 8 17 9 18 10 8 11 7 12
REMARK SMILES IDX 6 13 5 14 4 15 3 16 2 17 1 18
REMARK H PARENT
REMARK Flexibility Score: inf
ROOT
ATOM      1  C   UNL     1     -54.455  10.303 -29.644  1.00  0.00     0.000 C 
ENDROOT
BRANCH   1   2
ATOM      2  C   UNL     1     -52.981  10.043 -29.994  1.00  0.00     0.000 C 
BRANCH   2   3
ATOM      3  C   UNL     1     -52.855   9.345 -31.353  1.00  0.00     0.000 C 
BRANCH   3   4
ATOM      4  C   UNL     1     -52.538  10.358 -32.463  1.00  0.00     0.000 C 
BRANCH   4   5
ATOM      5  C   UNL     1     -51.052  10.750 -32.503  1.00  0.00     0.000 C 
BRANCH   5   6
ATOM      6  C   UNL     1     -50.116   9.540 -32.336  1.00  0.00     0.006 C 
BRANCH   6   7
ATOM      7  C   UNL     1     -48.949   9.839 -31.386  1.00  0.00     0.053 C 
BRANCH   7   8
ATOM      8  C   UNL     1     -49.068   9.079 -30.100  1.00  0.00     0.041 C 
ATOM      9  O   UNL     1     -49.827   8.077 -30.023  1.00  0.00    -0.550 OA
ATOM     10  O   UNL     1     -48.318   9.459 -28.995  1.00  0.00    -0.550 OA
ENDBRANCH   7   8
ENDBRANCH   6   7
ENDBRANCH   5   6
ENDBRANCH   4   5
ENDBRANCH   3   4
ENDBRANCH   2   3
ENDBRANCH   1   2
BRANCH   1  11
ATOM     11  C   UNL     1     -54.743  11.785 -29.357  1.00  0.00     0.000 C 
BRANCH  11  12
ATOM     12  C   UNL     1     -55.362  12.512 -30.563  1.00  0.00    -0.000 C 
BRANCH  12  13
ATOM     13  C   UNL     1     -54.323  13.303 -31.372  1.00  0.00    -0.000 C 
BRANCH  13  14
ATOM     14  C   UNL     1     -54.011  14.677 -30.754  1.00  0.00    -0.000 C 
BRANCH  14  15
ATOM     15  C   UNL     1     -52.496  14.976 -30.733  1.00  0.00    -0.000 C 
BRANCH  15  16
ATOM     16  C   UNL     1     -51.629  13.740 -30.443  1.00  0.00    -0.000 C 
BRANCH  16  17
ATOM     17  C   UNL     1     -51.321  13.563 -28.951  1.00  0.00    -0.003 C 
ATOM     18  C   UNL     1     -50.499  12.300 -28.705  1.00  0.00     0.004 C 
ENDBRANCH  16  17
ENDBRANCH  15  16
ENDBRANCH  14  15
ENDBRANCH  13  14
ENDBRANCH  12  13
ENDBRANCH  11  12
ENDBRANCH   1  11
TORSDOF 14
ENDMDL
MODEL 8
REMARK VINA RESULT:    -3.764     15.101     17.190
REMARK INTER + INTRA:          -9.363
REMARK INTER:                  -6.913
REMARK INTRA:                  -2.450
REMARK UNBOUND:                -2.519
REMARK SMILES CCCCCCCCCCCCCCCC(=O)[O-]
REMARK SMILES IDX 9 1 10 2 11 3 12 4 13 5 14 6 15 7 16 8 17 9 18 10 8 11 7 12
REMARK SMILES IDX 6 13 5 14 4 15 3 16 2 17 1 18
REMARK H PARENT
REMARK Flexibility Score: inf
ROOT
ATOM      1  C   UNL     1     -53.563  15.503 -29.794  1.00  0.00     0.000 C 
ENDROOT
BRANCH   1   2
ATOM      2  C   UNL     1     -53.058  14.772 -31.048  1.00  0.00     0.000 C 
BRANCH   2   3
ATOM      3  C   UNL     1     -51.880  13.851 -30.709  1.00  0.00     0.000 C 
BRANCH   3   4
ATOM      4  C   UNL     1     -51.280  14.208 -29.340  1.00  0.00     0.000 C 
BRANCH   4   5
ATOM      5  C   UNL     1     -50.991  12.970 -28.477  1.00  0.00     0.000 C 
BRANCH   5   6
ATOM      6  C   UNL     1     -49.935  12.043 -29.105  1.00  0.00     0.006 C 
BRANCH   6   7
ATOM      7  C   UNL     1     -50.435  10.598 -29.229  1.00  0.00     0.053 C 
BRANCH   7   8
ATOM      8  C   UNL     1     -49.386   9.693 -29.800  1.00  0.00     0.041 C 
ATOM      9  O   UNL     1     -48.634  10.097 -30.725  1.00  0.00    -0.550 OA
ATOM     10  O   UNL     1     -49.219   8.412 -29.287  1.00  0.00    -0.550 OA
ENDBRANCH   7   8
ENDBRANCH   6   7
ENDBRANCH   5   6
ENDBRANCH   4   5
ENDBRANCH   3   4
ENDBRANCH   2   3
ENDBRANCH   1   2
BRANCH   1  11
ATOM     11  C   UNL     1     -55.054  15.247 -29.520  1.00  0.00     0.000 C 
BRANCH  11  12
ATOM     12  C   UNL     1     -55.292  14.506 -28.193  1.00  0.00    -0.000 C 
BRANCH  12  13
ATOM     13  C   UNL     1     -54.632  13.119 -28.165  1.00  0.00    -0.000 C 
BRANCH  13  14
ATOM     14  C   UNL     1     -55.202  12.170 -29.233  1.00  0.00    -0.000 C 
BRANCH  14  15
ATOM     15  C   UNL     1     -54.172  11.109 -29.679  1.00  0.00    -0.000 C 
BRANCH  15  16
ATOM     16  C   UNL     1     -54.026  10.997 -31.205  1.00  0.00    -0.000 C 
BRANCH  16  17
ATOM     17  C   UNL     1     -53.007   9.932 -31.631  1.00  0.00    -0.003 C 
ATOM     18  C   UNL     1     -51.960  10.519 -32.573  1.00  0.00     0.004 C 
ENDBRANCH  16  17
ENDBRANCH  15  16
ENDBRANCH  14  15
ENDBRANCH  13  14
ENDBRANCH  12  13
ENDBRANCH  11  12
ENDBRANCH   1  11
TORSDOF 14
ENDMDL
MODEL 9
REMARK VINA RESULT:    -3.755     15.352     17.358
REMARK INTER + INTRA:          -9.348
REMARK INTER:                  -6.819
REMARK INTRA:                  -2.528
REMARK UNBOUND:                -2.519
REMARK SMILES CCCCCCCCCCCCCCCC(=O)[O-]
REMARK SMILES IDX 9 1 10 2 11 3 12 4 13 5 14 6 15 7 16 8 17 9 18 10 8 11 7 12
REMARK SMILES IDX 6 13 5 14 4 15 3 16 2 17 1 18
REMARK H PARENT
REMARK Flexibility Score: inf
ROOT
ATOM      1  C   UNL     1     -55.708  13.244 -29.158  1.00  0.00     0.000 C 
ENDROOT
BRANCH   1   2
ATOM      2  C   UNL     1     -54.904  11.968 -29.453  1.00  0.00     0.000 C 
BRANCH   2   3
ATOM      3  C   UNL     1     -54.994  11.594 -30.937  1.00  0.00     0.000 C 
BRANCH   3   4
ATOM      4  C   UNL     1     -54.307  10.246 -31.206  1.00  0.00     0.000 C 
BRANCH   4   5
ATOM      5  C   UNL     1     -52.839  10.227 -30.754  1.00  0.00     0.000 C 
BRANCH   5   6
ATOM      6  C   UNL     1     -51.888   9.719 -31.852  1.00  0.00     0.006 C 
BRANCH   6   7
ATOM      7  C   UNL     1     -50.601  10.551 -31.933  1.00  0.00     0.053 C 
BRANCH   7   8
ATOM      8  C   UNL     1     -49.496   9.948 -31.121  1.00  0.00     0.041 C 
ATOM      9  O   UNL     1     -49.006  10.579 -30.148  1.00  0.00    -0.550 OA
ATOM     10  O   UNL     1     -49.026   8.676 -31.422  1.00  0.00    -0.550 OA
ENDBRANCH   7   8
ENDBRANCH   6   7
ENDBRANCH   5   6
ENDBRANCH   4   5
ENDBRANCH   3   4
ENDBRANCH   2   3
ENDBRANCH   1   2
BRANCH   1  11
ATOM     11  C   UNL     1     -55.035  14.137 -28.103  1.00  0.00     0.000 C 
BRANCH  11  12
ATOM     12  C   UNL     1     -54.975  15.614 -28.529  1.00  0.00    -0.000 C 
BRANCH  12  13
ATOM     13  C   UNL     1     -54.881  15.785 -30.053  1.00  0.00    -0.000 C 
BRANCH  13  14
ATOM     14  C   UNL     1     -53.427  15.844 -30.554  1.00  0.00    -0.000 C 
BRANCH  14  15
ATOM     15  C   UNL     1     -53.071  14.638 -31.450  1.00  0.00    -0.000 C 
BRANCH  15  16
ATOM     16  C   UNL     1     -51.918  13.782 -30.899  1.00  0.00    -0.000 C 
BRANCH  16  17
ATOM     17  C   UNL     1     -51.535  14.151 -29.460  1.00  0.00    -0.003 C 
ATOM     18  C   UNL     1     -51.456  12.909 -28.577  1.00  0.00     0.004 C 
ENDBRANCH  16  17
ENDBRANCH  15  16
ENDBRANCH  14  15
ENDBRANCH  13  14
ENDBRANCH  12  13
ENDBRANCH  11  12
ENDBRANCH   1  11
TORSDOF 14
ENDMDL
