MODEL 1
REMARK VINA RESULT:    -3.672      0.000      0.000
REMARK INTER + INTRA:          -5.150
REMARK INTER:                  -4.960
REMARK INTRA:                  -0.190
REMARK UNBOUND:                -0.190
REMARK SMILES C=C1CCC=C(C)CC[C@@H]2[C@@H]1CC2(C)C
REMARK SMILES IDX 11 1 12 2 13 3 10 4 14 5 15 6 9 7 8 8 6 9 7 10 5 11 2 13
REMARK SMILES IDX 1 14 3 15 4 16
REMARK H PARENT
REMARK Flexibility Score: 70.00
ROOT
ATOM      1  C   UNL     1      13.489  16.646  35.790  1.00  0.00     0.018 C 
ATOM      2  C   UNL     1      14.866  16.230  35.258  1.00  0.00     0.015 C 
ATOM      3  C   UNL     1      15.152  15.491  36.579  1.00  0.00    -0.031 C 
ATOM      4  C   UNL     1      13.824  16.046  37.161  1.00  0.00     0.002 C 
ATOM      5  C   UNL     1      15.224  13.962  36.381  1.00  0.00     0.011 C 
ATOM      6  C   UNL     1      16.401  16.009  37.314  1.00  0.00     0.011 C 
ENDROOT
BRANCH   4   7
ATOM      7  C   UNL     1      12.784  15.031  37.681  1.00  0.00     0.009 C 
BRANCH   7   8
ATOM      8  C   UNL     1      12.044  15.550  38.930  1.00  0.00     0.030 C 
BRANCH   8   9
ATOM      9  C   UNL     1      10.695  16.159  38.581  1.00  0.00    -0.077 C 
ATOM     10  C   UNL     1       9.467  15.308  38.784  1.00  0.00     0.039 C 
ATOM     11  C   UNL     1      10.519  17.406  38.080  1.00  0.00    -0.028 CG0
ATOM     12  G   UNL     1      11.595  18.417  37.758  1.00  0.00     0.000 G0
ENDBRANCH   8   9
ENDBRANCH   7   8
ENDBRANCH   4   7
BRANCH   1  13
ATOM     13  C   UNL     1      13.179  18.136  35.817  1.00  0.00    -0.074 C 
ATOM     14  C   UNL     1      14.120  19.070  35.585  1.00  0.00     0.008 C 
BRANCH  13  15
ATOM     15  C   UNL     1      11.792  18.570  36.230  1.00  0.00     0.035 C 
BRANCH  15  16
ATOM     16  C   UNL     1      11.586  18.426  37.746  1.00  0.00     0.032 CG0
ATOM     17  G   UNL     1      10.525  17.400  38.069  1.00  0.00     0.000 G0
ENDBRANCH  15  16
ENDBRANCH  13  15
ENDBRANCH   1  13
TORSDOF 0
ENDMDL
MODEL 2
REMARK VINA RESULT:    -3.466     14.608     16.102
REMARK INTER + INTRA:          -4.871
REMARK INTER:                  -4.556
REMARK INTRA:                  -0.314
REMARK UNBOUND:                -0.190
REMARK SMILES C=C1CCC=C(C)CC[C@@H]2[C@@H]1CC2(C)C
REMARK SMILES IDX 11 1 12 2 13 3 10 4 14 5 15 6 9 7 8 8 6 9 7 10 5 11 2 13
REMARK SMILES IDX 1 14 3 15 4 16
REMARK H PARENT
REMARK Flexibility Score: 70.00
ROOT
ATOM      1  C   UNL     1       6.646  19.464  24.244  1.00  0.00     0.018 C 
ATOM      2  C   UNL     1       7.917  19.587  25.093  1.00  0.00     0.015 C 
ATOM      3  C   UNL     1       7.734  21.116  25.142  1.00  0.00    -0.031 C 
ATOM      4  C   UNL     1       6.539  20.992  24.158  1.00  0.00     0.002 C 
ATOM      5  C   UNL     1       7.397  21.611  26.564  1.00  0.00     0.011 C 
ATOM      6  C   UNL     1       8.925  21.896  24.556  1.00  0.00     0.011 C 
ENDROOT
BRANCH   4   7
ATOM      7  C   UNL     1       5.175  21.559  24.603  1.00  0.00     0.009 C 
BRANCH   7   8
ATOM      8  C   UNL     1       4.264  21.884  23.402  1.00  0.00     0.030 C 
BRANCH   8   9
ATOM      9  C   UNL     1       3.248  20.783  23.144  1.00  0.00    -0.077 C 
ATOM     10  C   UNL     1       1.914  20.881  23.841  1.00  0.00     0.039 C 
ATOM     11  C   UNL     1       3.462  19.707  22.349  1.00  0.00    -0.028 CG0
ATOM     12  G   UNL     1       4.724  19.377  21.586  1.00  0.00     0.000 G0
ENDBRANCH   8   9
ENDBRANCH   7   8
ENDBRANCH   4   7
BRANCH   1  13
ATOM     13  C   UNL     1       6.778  18.768  22.897  1.00  0.00    -0.074 C 
ATOM     14  C   UNL     1       7.949  18.696  22.237  1.00  0.00     0.008 C 
BRANCH  13  15
ATOM     15  C   UNL     1       5.524  18.245  22.236  1.00  0.00     0.035 C 
BRANCH  15  16
ATOM     16  C   UNL     1       4.722  19.377  21.575  1.00  0.00     0.032 CG0
ATOM     17  G   UNL     1       3.475  19.709  22.360  1.00  0.00     0.000 G0
ENDBRANCH  15  16
ENDBRANCH  13  15
ENDBRANCH   1  13
TORSDOF 0
ENDMDL
MODEL 3
REMARK VINA RESULT:    -3.303     11.430     13.489
REMARK INTER + INTRA:          -4.651
REMARK INTER:                  -4.755
REMARK INTRA:                   0.103
REMARK UNBOUND:                -0.190
REMARK SMILES C=C1CCC=C(C)CC[C@@H]2[C@@H]1CC2(C)C
REMARK SMILES IDX 11 1 12 2 13 3 10 4 14 5 15 6 9 7 8 8 6 9 7 10 5 11 2 13
REMARK SMILES IDX 1 14 3 15 4 16
REMARK H PARENT
REMARK Flexibility Score: 70.00
ROOT
ATOM      1  C   UNL     1      10.869  19.197  26.244  1.00  0.00     0.018 C 
ATOM      2  C   UNL     1       9.526  19.450  26.941  1.00  0.00     0.015 C 
ATOM      3  C   UNL     1       8.995  20.133  25.666  1.00  0.00    -0.031 C 
ATOM      4  C   UNL     1      10.404  20.007  25.027  1.00  0.00     0.002 C 
ATOM      5  C   UNL     1       7.869  19.314  25.000  1.00  0.00     0.011 C 
ATOM      6  C   UNL     1       8.556  21.591  25.888  1.00  0.00     0.011 C 
ENDROOT
BRANCH   4   7
ATOM      7  C   UNL     1      10.524  19.259  23.683  1.00  0.00     0.009 C 
BRANCH   7   8
ATOM      8  C   UNL     1      11.988  18.922  23.338  1.00  0.00     0.030 C 
BRANCH   8   9
ATOM      9  C   UNL     1      12.799  20.166  23.015  1.00  0.00    -0.077 C 
ATOM     10  C   UNL     1      12.681  20.741  21.626  1.00  0.00     0.039 C 
ATOM     11  C   UNL     1      13.639  20.785  23.880  1.00  0.00    -0.028 CG0
ATOM     12  G   UNL     1      13.947  20.372  25.301  1.00  0.00     0.000 G0
ENDBRANCH   8   9
ENDBRANCH   7   8
ENDBRANCH   4   7
BRANCH   1  13
ATOM     13  C   UNL     1      12.115  19.747  26.924  1.00  0.00    -0.074 C 
ATOM     14  C   UNL     1      12.520  19.321  28.134  1.00  0.00     0.008 C 
BRANCH  13  15
ATOM     15  C   UNL     1      12.847  20.888  26.258  1.00  0.00     0.035 C 
BRANCH  15  16
ATOM     16  C   UNL     1      13.934  20.376  25.299  1.00  0.00     0.032 CG0
ATOM     17  G   UNL     1      13.659  20.790  23.872  1.00  0.00     0.000 G0
ENDBRANCH  15  16
ENDBRANCH  13  15
ENDBRANCH   1  13
TORSDOF 0
ENDMDL
MODEL 4
REMARK VINA RESULT:    -3.281     11.971     13.591
REMARK INTER + INTRA:          -4.621
REMARK INTER:                  -4.341
REMARK INTRA:                  -0.280
REMARK UNBOUND:                -0.190
REMARK SMILES C=C1CCC=C(C)CC[C@@H]2[C@@H]1CC2(C)C
REMARK SMILES IDX 11 1 12 2 13 3 10 4 14 5 15 6 9 7 8 8 6 9 7 10 5 11 2 13
REMARK SMILES IDX 1 14 3 15 4 16
REMARK H PARENT
REMARK Flexibility Score: 70.00
ROOT
ATOM      1  C   UNL     1       9.412  20.151  23.634  1.00  0.00     0.018 C 
ATOM      2  C   UNL     1       8.766  19.852  22.275  1.00  0.00     0.015 C 
ATOM      3  C   UNL     1       7.593  19.153  22.989  1.00  0.00    -0.031 C 
ATOM      4  C   UNL     1       8.331  19.327  24.344  1.00  0.00     0.002 C 
ATOM      5  C   UNL     1       6.272  19.934  22.827  1.00  0.00     0.011 C 
ATOM      6  C   UNL     1       7.415  17.681  22.579  1.00  0.00     0.011 C 
ENDROOT
BRANCH   4   7
ATOM      7  C   UNL     1       7.598  20.081  25.474  1.00  0.00     0.009 C 
BRANCH   7   8
ATOM      8  C   UNL     1       8.259  19.849  26.847  1.00  0.00     0.030 C 
BRANCH   8   9
ATOM      9  C   UNL     1       9.179  20.995  27.237  1.00  0.00    -0.077 C 
ATOM     10  C   UNL     1       8.561  22.190  27.918  1.00  0.00     0.039 C 
ATOM     11  C   UNL     1      10.512  21.030  26.997  1.00  0.00    -0.028 CG0
ATOM     12  G   UNL     1      11.338  19.974  26.299  1.00  0.00     0.000 G0
ENDBRANCH   8   9
ENDBRANCH   7   8
ENDBRANCH   4   7
BRANCH   1  13
ATOM     13  C   UNL     1      10.830  19.644  23.851  1.00  0.00    -0.074 C 
ATOM     14  C   UNL     1      11.294  18.528  23.259  1.00  0.00     0.008 C 
BRANCH  13  15
ATOM     15  C   UNL     1      11.700  20.363  24.856  1.00  0.00     0.035 C 
BRANCH  15  16
ATOM     16  C   UNL     1      11.341  19.966  26.297  1.00  0.00     0.032 CG0
ATOM     17  G   UNL     1      10.528  21.038  26.984  1.00  0.00     0.000 G0
ENDBRANCH  15  16
ENDBRANCH  13  15
ENDBRANCH   1  13
TORSDOF 0
ENDMDL
MODEL 5
REMARK VINA RESULT:    -3.256     12.699     14.525
REMARK INTER + INTRA:          -4.587
REMARK INTER:                  -4.343
REMARK INTRA:                  -0.245
REMARK UNBOUND:                -0.190
REMARK SMILES C=C1CCC=C(C)CC[C@@H]2[C@@H]1CC2(C)C
REMARK SMILES IDX 11 1 12 2 13 3 10 4 14 5 15 6 9 7 8 8 6 9 7 10 5 11 2 13
REMARK SMILES IDX 1 14 3 15 4 16
REMARK H PARENT
REMARK Flexibility Score: 70.00
ROOT
ATOM      1  C   UNL     1      10.130  21.159  24.903  1.00  0.00     0.018 C 
ATOM      2  C   UNL     1       9.285  21.171  26.183  1.00  0.00     0.015 C 
ATOM      3  C   UNL     1       9.325  19.631  26.221  1.00  0.00    -0.031 C 
ATOM      4  C   UNL     1      10.046  19.629  24.846  1.00  0.00     0.002 C 
ATOM      5  C   UNL     1      10.140  19.104  27.420  1.00  0.00     0.011 C 
ATOM      6  C   UNL     1       7.931  18.981  26.177  1.00  0.00     0.011 C 
ENDROOT
BRANCH   4   7
ATOM      7  C   UNL     1      11.414  18.922  24.750  1.00  0.00     0.009 C 
BRANCH   7   8
ATOM      8  C   UNL     1      11.861  18.724  23.288  1.00  0.00     0.030 C 
BRANCH   8   9
ATOM      9  C   UNL     1      12.827  19.807  22.836  1.00  0.00    -0.077 C 
ATOM     10  C   UNL     1      14.285  19.638  23.185  1.00  0.00     0.039 C 
ATOM     11  C   UNL     1      12.470  20.926  22.161  1.00  0.00    -0.028 CG0
ATOM     12  G   UNL     1      11.075  21.327  21.740  1.00  0.00     0.000 G0
ENDBRANCH   8   9
ENDBRANCH   7   8
ENDBRANCH   4   7
BRANCH   1  13
ATOM     13  C   UNL     1       9.550  21.864  23.686  1.00  0.00    -0.074 C 
ATOM     14  C   UNL     1       8.227  21.904  23.441  1.00  0.00     0.008 C 
BRANCH  13  15
ATOM     15  C   UNL     1      10.508  22.437  22.668  1.00  0.00     0.035 C 
BRANCH  15  16
ATOM     16  C   UNL     1      11.073  21.342  21.749  1.00  0.00     0.032 CG0
ATOM     17  G   UNL     1      12.467  20.932  22.162  1.00  0.00     0.000 G0
ENDBRANCH  15  16
ENDBRANCH  13  15
ENDBRANCH   1  13
TORSDOF 0
ENDMDL
MODEL 6
REMARK VINA RESULT:    -3.175     11.189     13.044
REMARK INTER + INTRA:          -4.479
REMARK INTER:                  -4.209
REMARK INTRA:                  -0.270
REMARK UNBOUND:                -0.190
REMARK SMILES C=C1CCC=C(C)CC[C@@H]2[C@@H]1CC2(C)C
REMARK SMILES IDX 11 1 12 2 13 3 10 4 14 5 15 6 9 7 8 8 6 9 7 10 5 11 2 13
REMARK SMILES IDX 1 14 3 15 4 16
REMARK H PARENT
REMARK Flexibility Score: 70.00
ROOT
ATOM      1  C   UNL     1      10.058  21.154  24.836  1.00  0.00     0.018 C 
ATOM      2  C   UNL     1       8.640  21.360  24.290  1.00  0.00     0.015 C 
ATOM      3  C   UNL     1       8.218  20.000  24.878  1.00  0.00    -0.031 C 
ATOM      4  C   UNL     1       9.692  19.736  25.290  1.00  0.00     0.002 C 
ATOM      5  C   UNL     1       7.205  20.159  26.031  1.00  0.00     0.011 C 
ATOM      6  C   UNL     1       7.697  19.010  23.821  1.00  0.00     0.011 C 
ENDROOT
BRANCH   4   7
ATOM      7  C   UNL     1       9.985  19.450  26.778  1.00  0.00     0.009 C 
BRANCH   7   8
ATOM      8  C   UNL     1      11.382  18.832  26.983  1.00  0.00     0.030 C 
BRANCH   8   9
ATOM      9  C   UNL     1      12.410  19.872  27.398  1.00  0.00    -0.077 C 
ATOM     10  C   UNL     1      12.527  20.198  28.866  1.00  0.00     0.039 C 
ATOM     11  C   UNL     1      13.215  20.546  26.541  1.00  0.00    -0.028 CG0
ATOM     12  G   UNL     1      13.249  20.418  25.036  1.00  0.00     0.000 G0
ENDBRANCH   8   9
ENDBRANCH   7   8
ENDBRANCH   4   7
BRANCH   1  13
ATOM     13  C   UNL     1      11.201  21.215  23.832  1.00  0.00    -0.074 C 
ATOM     14  C   UNL     1      11.049  20.849  22.547  1.00  0.00     0.008 C 
BRANCH  13  15
ATOM     15  C   UNL     1      12.574  21.594  24.336  1.00  0.00     0.035 C 
BRANCH  15  16
ATOM     16  C   UNL     1      13.262  20.411  25.037  1.00  0.00     0.032 CG0
ATOM     17  G   UNL     1      13.215  20.553  26.541  1.00  0.00     0.000 G0
ENDBRANCH  15  16
ENDBRANCH  13  15
ENDBRANCH   1  13
TORSDOF 0
ENDMDL
MODEL 7
REMARK VINA RESULT:    -3.130      1.493      3.396
REMARK INTER + INTRA:          -4.418
REMARK INTER:                  -4.511
REMARK INTRA:                   0.094
REMARK UNBOUND:                -0.190
REMARK SMILES C=C1CCC=C(C)CC[C@@H]2[C@@H]1CC2(C)C
REMARK SMILES IDX 11 1 12 2 13 3 10 4 14 5 15 6 9 7 8 8 6 9 7 10 5 11 2 13
REMARK SMILES IDX 1 14 3 15 4 16
REMARK H PARENT
REMARK Flexibility Score: 70.00
ROOT
ATOM      1  C   UNL     1      14.134  16.132  36.829  1.00  0.00     0.018 C 
ATOM      2  C   UNL     1      14.464  16.653  35.425  1.00  0.00     0.015 C 
ATOM      3  C   UNL     1      13.426  17.778  35.600  1.00  0.00    -0.031 C 
ATOM      4  C   UNL     1      12.995  17.152  36.954  1.00  0.00     0.002 C 
ATOM      5  C   UNL     1      14.091  19.169  35.673  1.00  0.00     0.011 C 
ATOM      6  C   UNL     1      12.312  17.756  34.538  1.00  0.00     0.011 C 
ENDROOT
BRANCH   4   7
ATOM      7  C   UNL     1      13.070  18.037  38.215  1.00  0.00     0.009 C 
BRANCH   7   8
ATOM      8  C   UNL     1      12.562  17.300  39.470  1.00  0.00     0.030 C 
BRANCH   8   9
ATOM      9  C   UNL     1      11.148  16.772  39.287  1.00  0.00    -0.077 C 
ATOM     10  C   UNL     1      10.004  17.712  39.574  1.00  0.00     0.039 C 
ATOM     11  C   UNL     1      10.840  15.508  38.907  1.00  0.00    -0.028 CG0
ATOM     12  G   UNL     1      11.809  14.388  38.606  1.00  0.00     0.000 G0
ENDBRANCH   8   9
ENDBRANCH   7   8
ENDBRANCH   4   7
BRANCH   1  13
ATOM     13  C   UNL     1      13.692  14.681  36.943  1.00  0.00    -0.074 C 
ATOM     14  C   UNL     1      14.549  13.654  36.797  1.00  0.00     0.008 C 
BRANCH  13  15
ATOM     15  C   UNL     1      12.218  14.395  37.111  1.00  0.00     0.035 C 
BRANCH  15  16
ATOM     16  C   UNL     1      11.810  14.396  38.594  1.00  0.00     0.032 CG0
ATOM     17  G   UNL     1      10.822  15.497  38.899  1.00  0.00     0.000 G0
ENDBRANCH  15  16
ENDBRANCH  13  15
ENDBRANCH   1  13
TORSDOF 0
ENDMDL
MODEL 8
REMARK VINA RESULT:    -3.113     13.227     14.620
REMARK INTER + INTRA:          -4.394
REMARK INTER:                  -4.456
REMARK INTRA:                   0.062
REMARK UNBOUND:                -0.190
REMARK SMILES C=C1CCC=C(C)CC[C@@H]2[C@@H]1CC2(C)C
REMARK SMILES IDX 11 1 12 2 13 3 10 4 14 5 15 6 9 7 8 8 6 9 7 10 5 11 2 13
REMARK SMILES IDX 1 14 3 15 4 16
REMARK H PARENT
REMARK Flexibility Score: 70.00
ROOT
ATOM      1  C   UNL     1       7.786  18.963  23.426  1.00  0.00     0.018 C 
ATOM      2  C   UNL     1       8.928  18.701  22.436  1.00  0.00     0.015 C 
ATOM      3  C   UNL     1       9.832  19.669  23.225  1.00  0.00    -0.031 C 
ATOM      4  C   UNL     1       8.624  20.040  24.126  1.00  0.00     0.002 C 
ATOM      5  C   UNL     1      10.998  18.933  23.916  1.00  0.00     0.011 C 
ATOM      6  C   UNL     1      10.348  20.849  22.383  1.00  0.00     0.011 C 
ENDROOT
BRANCH   4   7
ATOM      7  C   UNL     1       8.771  19.839  25.649  1.00  0.00     0.009 C 
BRANCH   7   8
ATOM      8  C   UNL     1       7.475  20.192  26.407  1.00  0.00     0.030 C 
BRANCH   8   9
ATOM      9  C   UNL     1       7.061  21.637  26.185  1.00  0.00    -0.077 C 
ATOM     10  C   UNL     1       7.688  22.691  27.064  1.00  0.00     0.039 C 
ATOM     11  C   UNL     1       6.150  22.047  25.269  1.00  0.00    -0.028 CG0
ATOM     12  G   UNL     1       5.369  21.176  24.313  1.00  0.00     0.000 G0
ENDBRANCH   8   9
ENDBRANCH   7   8
ENDBRANCH   4   7
BRANCH   1  13
ATOM     13  C   UNL     1       6.473  19.468  22.847  1.00  0.00    -0.074 C 
ATOM     14  C   UNL     1       5.658  18.683  22.120  1.00  0.00     0.008 C 
BRANCH  13  15
ATOM     15  C   UNL     1       6.138  20.933  23.007  1.00  0.00     0.035 C 
BRANCH  15  16
ATOM     16  C   UNL     1       5.361  21.195  24.307  1.00  0.00     0.032 CG0
ATOM     17  G   UNL     1       6.151  22.053  25.266  1.00  0.00     0.000 G0
ENDBRANCH  15  16
ENDBRANCH  13  15
ENDBRANCH   1  13
TORSDOF 0
ENDMDL
MODEL 9
REMARK VINA RESULT:    -3.104     11.615     13.275
REMARK INTER + INTRA:          -4.382
REMARK INTER:                  -4.063
REMARK INTRA:                  -0.319
REMARK UNBOUND:                -0.190
REMARK SMILES C=C1CCC=C(C)CC[C@@H]2[C@@H]1CC2(C)C
REMARK SMILES IDX 11 1 12 2 13 3 10 4 14 5 15 6 9 7 8 8 6 9 7 10 5 11 2 13
REMARK SMILES IDX 1 14 3 15 4 16
REMARK H PARENT
REMARK Flexibility Score: 70.00
ROOT
ATOM      1  C   UNL     1      13.678  21.094  24.876  1.00  0.00     0.018 C 
ATOM      2  C   UNL     1      15.134  21.492  24.604  1.00  0.00     0.015 C 
ATOM      3  C   UNL     1      15.247  20.359  23.565  1.00  0.00    -0.031 C 
ATOM      4  C   UNL     1      13.826  19.873  23.960  1.00  0.00     0.002 C 
ATOM      5  C   UNL     1      15.406  20.906  22.131  1.00  0.00     0.011 C 
ATOM      6  C   UNL     1      16.351  19.337  23.889  1.00  0.00     0.011 C 
ENDROOT
BRANCH   4   7
ATOM      7  C   UNL     1      12.760  19.780  22.849  1.00  0.00     0.009 C 
BRANCH   7   8
ATOM      8  C   UNL     1      11.659  18.755  23.188  1.00  0.00     0.030 C 
BRANCH   8   9
ATOM      9  C   UNL     1      10.414  19.421  23.749  1.00  0.00    -0.077 C 
ATOM     10  C   UNL     1       9.334  19.826  22.777  1.00  0.00     0.039 C 
ATOM     11  C   UNL     1      10.212  19.698  25.060  1.00  0.00    -0.028 CG0
ATOM     12  G   UNL     1      11.161  19.424  26.204  1.00  0.00     0.000 G0
ENDBRANCH   8   9
ENDBRANCH   7   8
ENDBRANCH   4   7
BRANCH   1  13
ATOM     13  C   UNL     1      13.311  20.758  26.314  1.00  0.00    -0.074 C 
ATOM     14  C   UNL     1      14.231  20.388  27.224  1.00  0.00     0.008 C 
BRANCH  13  15
ATOM     15  C   UNL     1      11.848  20.731  26.691  1.00  0.00     0.035 C 
BRANCH  15  16
ATOM     16  C   UNL     1      11.166  19.440  26.211  1.00  0.00     0.032 CG0
ATOM     17  G   UNL     1      10.219  19.703  25.063  1.00  0.00     0.000 G0
ENDBRANCH  15  16
ENDBRANCH  13  15
ENDBRANCH   1  13
TORSDOF 0
ENDMDL
