MODEL 1
REMARK VINA RESULT:    -5.432      0.000      0.000
REMARK INTER + INTRA:         -10.331
REMARK INTER:                  -9.560
REMARK INTRA:                  -0.771
REMARK UNBOUND:                -0.771
REMARK SMILES CCCCCCC=CCCCCCCCC(=O)[O-]
REMARK SMILES IDX 10 1 11 2 12 3 13 4 14 5 15 6 16 7 17 8 18 9 9 10 8 11 7 12
REMARK SMILES IDX 6 13 5 14 4 15 3 16 2 17 1 18
REMARK H PARENT
REMARK Flexibility Score: inf
ROOT
ATOM      1  C   UNL     1      82.607  59.218  10.682  1.00  0.00     0.004 C 
ENDROOT
BRANCH   1   2
ATOM      2  C   UNL     1      83.912  59.920  11.106  1.00  0.00     0.000 C 
BRANCH   2   3
ATOM      3  C   UNL     1      84.935  59.032  11.841  1.00  0.00     0.000 C 
BRANCH   3   4
ATOM      4  C   UNL     1      85.857  59.774  12.825  1.00  0.00     0.000 C 
BRANCH   4   5
ATOM      5  C   UNL     1      85.146  60.165  14.131  1.00  0.00     0.006 C 
BRANCH   5   6
ATOM      6  C   UNL     1      85.343  61.648  14.472  1.00  0.00     0.053 C 
BRANCH   6   7
ATOM      7  C   UNL     1      85.345  61.878  15.953  1.00  0.00     0.041 C 
ATOM      8  O   UNL     1      85.312  60.902  16.747  1.00  0.00    -0.550 OA
ATOM      9  O   UNL     1      85.343  63.174  16.454  1.00  0.00    -0.550 OA
ENDBRANCH   6   7
ENDBRANCH   5   6
ENDBRANCH   4   5
ENDBRANCH   3   4
ENDBRANCH   2   3
ENDBRANCH   1   2
BRANCH   1  10
ATOM     10  C   UNL     1      81.408  60.172  10.511  1.00  0.00     0.027 C 
BRANCH  10  11
ATOM     11  C   UNL     1      80.115  59.413  10.380  1.00  0.00    -0.031 C 
ATOM     12  C   UNL     1      80.047  58.086  10.544  1.00  0.00    -0.031 C 
BRANCH  12  13
ATOM     13  C   UNL     1      78.720  57.375  10.490  1.00  0.00     0.027 C 
BRANCH  13  14
ATOM     14  C   UNL     1      78.867  55.858  10.666  1.00  0.00     0.004 C 
BRANCH  14  15
ATOM     15  C   UNL     1      78.753  55.111   9.325  1.00  0.00     0.000 C 
BRANCH  15  16
ATOM     16  C   UNL     1      77.744  55.764   8.368  1.00  0.00    -0.000 C 
BRANCH  16  17
ATOM     17  C   UNL     1      78.311  55.958   6.954  1.00  0.00    -0.003 C 
ATOM     18  C   UNL     1      77.754  57.224   6.308  1.00  0.00     0.004 C 
ENDBRANCH  16  17
ENDBRANCH  15  16
ENDBRANCH  14  15
ENDBRANCH  13  14
ENDBRANCH  12  13
ENDBRANCH  10  11
ENDBRANCH   1  10
TORSDOF 13
ENDMDL
MODEL 2
REMARK VINA RESULT:    -5.424      1.407      1.915
REMARK INTER + INTRA:         -10.317
REMARK INTER:                  -9.735
REMARK INTRA:                  -0.582
REMARK UNBOUND:                -0.771
REMARK SMILES CCCCCCC=CCCCCCCCC(=O)[O-]
REMARK SMILES IDX 10 1 11 2 12 3 13 4 14 5 15 6 16 7 17 8 18 9 9 10 8 11 7 12
REMARK SMILES IDX 6 13 5 14 4 15 3 16 2 17 1 18
REMARK H PARENT
REMARK Flexibility Score: inf
ROOT
ATOM      1  C   UNL     1      83.368  59.796  11.605  1.00  0.00     0.004 C 
ENDROOT
BRANCH   1   2
ATOM      2  C   UNL     1      84.789  60.269  11.969  1.00  0.00     0.000 C 
BRANCH   2   3
ATOM      3  C   UNL     1      85.353  59.721  13.294  1.00  0.00     0.000 C 
BRANCH   3   4
ATOM      4  C   UNL     1      84.694  60.279  14.567  1.00  0.00     0.000 C 
BRANCH   4   5
ATOM      5  C   UNL     1      85.470  61.460  15.173  1.00  0.00     0.006 C 
BRANCH   5   6
ATOM      6  C   UNL     1      84.583  62.334  16.069  1.00  0.00     0.053 C 
BRANCH   6   7
ATOM      7  C   UNL     1      84.978  63.778  15.999  1.00  0.00     0.041 C 
ATOM      8  O   UNL     1      85.336  64.285  14.904  1.00  0.00    -0.550 OA
ATOM      9  O   UNL     1      84.989  64.552  17.152  1.00  0.00    -0.550 OA
ENDBRANCH   6   7
ENDBRANCH   5   6
ENDBRANCH   4   5
ENDBRANCH   3   4
ENDBRANCH   2   3
ENDBRANCH   1   2
BRANCH   1  10
ATOM     10  C   UNL     1      82.673  60.662  10.536  1.00  0.00     0.027 C 
BRANCH  10  11
ATOM     11  C   UNL     1      81.231  60.269  10.361  1.00  0.00    -0.031 C 
ATOM     12  C   UNL     1      80.833  58.990  10.378  1.00  0.00    -0.031 C 
BRANCH  12  13
ATOM     13  C   UNL     1      79.370  58.643  10.285  1.00  0.00     0.027 C 
BRANCH  13  14
ATOM     14  C   UNL     1      79.118  57.141  10.472  1.00  0.00     0.004 C 
BRANCH  14  15
ATOM     15  C   UNL     1      77.775  56.704   9.859  1.00  0.00     0.000 C 
BRANCH  15  16
ATOM     16  C   UNL     1      77.878  56.418   8.353  1.00  0.00    -0.000 C 
BRANCH  16  17
ATOM     17  C   UNL     1      78.025  54.921   8.044  1.00  0.00    -0.003 C 
ATOM     18  C   UNL     1      79.473  54.569   7.714  1.00  0.00     0.004 C 
ENDBRANCH  16  17
ENDBRANCH  15  16
ENDBRANCH  14  15
ENDBRANCH  13  14
ENDBRANCH  12  13
ENDBRANCH  10  11
ENDBRANCH   1  10
TORSDOF 13
ENDMDL
MODEL 3
REMARK VINA RESULT:    -5.297      5.459      9.532
REMARK INTER + INTRA:         -10.094
REMARK INTER:                  -9.419
REMARK INTRA:                  -0.676
REMARK UNBOUND:                -0.771
REMARK SMILES CCCCCCC=CCCCCCCCC(=O)[O-]
REMARK SMILES IDX 10 1 11 2 12 3 13 4 14 5 15 6 16 7 17 8 18 9 9 10 8 11 7 12
REMARK SMILES IDX 6 13 5 14 4 15 3 16 2 17 1 18
REMARK H PARENT
REMARK Flexibility Score: inf
ROOT
ATOM      1  C   UNL     1      79.161  57.421  10.771  1.00  0.00     0.004 C 
ENDROOT
BRANCH   1   2
ATOM      2  C   UNL     1      78.325  56.298  10.125  1.00  0.00     0.000 C 
BRANCH   2   3
ATOM      3  C   UNL     1      77.606  56.676   8.815  1.00  0.00     0.000 C 
BRANCH   3   4
ATOM      4  C   UNL     1      78.004  55.842   7.585  1.00  0.00     0.000 C 
BRANCH   4   5
ATOM      5  C   UNL     1      78.071  54.334   7.882  1.00  0.00     0.006 C 
BRANCH   5   6
ATOM      6  C   UNL     1      79.501  53.789   7.776  1.00  0.00     0.053 C 
BRANCH   6   7
ATOM      7  C   UNL     1      79.512  52.320   7.479  1.00  0.00     0.041 C 
ATOM      8  O   UNL     1      79.209  51.490   8.375  1.00  0.00    -0.550 OA
ATOM      9  O   UNL     1      79.894  51.868   6.222  1.00  0.00    -0.550 OA
ENDBRANCH   6   7
ENDBRANCH   5   6
ENDBRANCH   4   5
ENDBRANCH   3   4
ENDBRANCH   2   3
ENDBRANCH   1   2
BRANCH   1  10
ATOM     10  C   UNL     1      79.263  58.699   9.916  1.00  0.00     0.027 C 
BRANCH  10  11
ATOM     11  C   UNL     1      80.311  59.637  10.451  1.00  0.00    -0.031 C 
ATOM     12  C   UNL     1      81.526  59.213  10.823  1.00  0.00    -0.031 C 
BRANCH  12  13
ATOM     13  C   UNL     1      82.575  60.195  11.272  1.00  0.00     0.027 C 
BRANCH  13  14
ATOM     14  C   UNL     1      83.501  60.620  10.124  1.00  0.00     0.004 C 
BRANCH  14  15
ATOM     15  C   UNL     1      83.358  62.117   9.796  1.00  0.00     0.000 C 
BRANCH  15  16
ATOM     16  C   UNL     1      84.665  62.897  10.009  1.00  0.00    -0.000 C 
BRANCH  16  17
ATOM     17  C   UNL     1      85.286  63.381   8.690  1.00  0.00    -0.003 C 
ATOM     18  C   UNL     1      86.810  63.350   8.757  1.00  0.00     0.004 C 
ENDBRANCH  16  17
ENDBRANCH  15  16
ENDBRANCH  14  15
ENDBRANCH  13  14
ENDBRANCH  12  13
ENDBRANCH  10  11
ENDBRANCH   1  10
TORSDOF 13
ENDMDL
MODEL 4
REMARK VINA RESULT:    -5.258      4.351      9.390
REMARK INTER + INTRA:         -10.025
REMARK INTER:                  -9.279
REMARK INTRA:                  -0.746
REMARK UNBOUND:                -0.771
REMARK SMILES CCCCCCC=CCCCCCCCC(=O)[O-]
REMARK SMILES IDX 10 1 11 2 12 3 13 4 14 5 15 6 16 7 17 8 18 9 9 10 8 11 7 12
REMARK SMILES IDX 6 13 5 14 4 15 3 16 2 17 1 18
REMARK H PARENT
REMARK Flexibility Score: inf
ROOT
ATOM      1  C   UNL     1      82.199  59.104  10.473  1.00  0.00     0.004 C 
ENDROOT
BRANCH   1   2
ATOM      2  C   UNL     1      80.820  59.790  10.406  1.00  0.00     0.000 C 
BRANCH   2   3
ATOM      3  C   UNL     1      79.616  58.845  10.226  1.00  0.00     0.000 C 
BRANCH   3   4
ATOM      4  C   UNL     1      79.757  57.469  10.899  1.00  0.00     0.000 C 
BRANCH   4   5
ATOM      5  C   UNL     1      78.581  56.529  10.588  1.00  0.00     0.006 C 
BRANCH   5   6
ATOM      6  C   UNL     1      78.093  56.675   9.140  1.00  0.00     0.053 C 
BRANCH   6   7
ATOM      7  C   UNL     1      78.416  55.462   8.323  1.00  0.00     0.041 C 
ATOM      8  O   UNL     1      79.520  54.875   8.467  1.00  0.00    -0.550 OA
ATOM      9  O   UNL     1      77.512  55.003   7.374  1.00  0.00    -0.550 OA
ENDBRANCH   6   7
ENDBRANCH   5   6
ENDBRANCH   4   5
ENDBRANCH   3   4
ENDBRANCH   2   3
ENDBRANCH   1   2
BRANCH   1  10
ATOM     10  C   UNL     1      83.385  60.051  10.203  1.00  0.00     0.027 C 
BRANCH  10  11
ATOM     11  C   UNL     1      83.987  60.559  11.485  1.00  0.00    -0.031 C 
ATOM     12  C   UNL     1      84.633  59.753  12.338  1.00  0.00    -0.031 C 
BRANCH  12  13
ATOM     13  C   UNL     1      85.296  60.315  13.568  1.00  0.00     0.027 C 
BRANCH  13  14
ATOM     14  C   UNL     1      84.472  60.064  14.838  1.00  0.00     0.004 C 
BRANCH  14  15
ATOM     15  C   UNL     1      84.640  61.198  15.865  1.00  0.00     0.000 C 
BRANCH  15  16
ATOM     16  C   UNL     1      85.887  62.056  15.600  1.00  0.00    -0.000 C 
BRANCH  16  17
ATOM     17  C   UNL     1      85.540  63.508  15.241  1.00  0.00    -0.003 C 
ATOM     18  C   UNL     1      84.867  64.217  16.413  1.00  0.00     0.004 C 
ENDBRANCH  16  17
ENDBRANCH  15  16
ENDBRANCH  14  15
ENDBRANCH  13  14
ENDBRANCH  12  13
ENDBRANCH  10  11
ENDBRANCH   1  10
TORSDOF 13
ENDMDL
MODEL 5
REMARK VINA RESULT:    -5.239      3.351      5.860
REMARK INTER + INTRA:          -9.991
REMARK INTER:                  -8.327
REMARK INTRA:                  -1.663
REMARK UNBOUND:                -0.771
REMARK SMILES CCCCCCC=CCCCCCCCC(=O)[O-]
REMARK SMILES IDX 10 1 11 2 12 3 13 4 14 5 15 6 16 7 17 8 18 9 9 10 8 11 7 12
REMARK SMILES IDX 6 13 5 14 4 15 3 16 2 17 1 18
REMARK H PARENT
REMARK Flexibility Score: inf
ROOT
ATOM      1  C   UNL     1      77.823  56.928   8.535  1.00  0.00     0.004 C 
ENDROOT
BRANCH   1   2
ATOM      2  C   UNL     1      78.355  56.676   9.960  1.00  0.00     0.000 C 
BRANCH   2   3
ATOM      3  C   UNL     1      79.624  57.460  10.344  1.00  0.00     0.000 C 
BRANCH   3   4
ATOM      4  C   UNL     1      79.515  58.989  10.209  1.00  0.00     0.000 C 
BRANCH   4   5
ATOM      5  C   UNL     1      80.829  59.713  10.544  1.00  0.00     0.006 C 
BRANCH   5   6
ATOM      6  C   UNL     1      82.010  58.740  10.661  1.00  0.00     0.053 C 
BRANCH   6   7
ATOM      7  C   UNL     1      83.303  59.391  10.272  1.00  0.00     0.041 C 
ATOM      8  O   UNL     1      84.130  58.777   9.549  1.00  0.00    -0.550 OA
ATOM      9  O   UNL     1      83.609  60.662  10.741  1.00  0.00    -0.550 OA
ENDBRANCH   6   7
ENDBRANCH   5   6
ENDBRANCH   4   5
ENDBRANCH   3   4
ENDBRANCH   2   3
ENDBRANCH   1   2
BRANCH   1  10
ATOM     10  C   UNL     1      77.756  55.663   7.657  1.00  0.00     0.027 C 
BRANCH  10  11
ATOM     11  C   UNL     1      79.045  54.886   7.713  1.00  0.00    -0.031 C 
ATOM     12  C   UNL     1      79.075  53.571   7.963  1.00  0.00    -0.031 C 
BRANCH  12  13
ATOM     13  C   UNL     1      80.376  52.814   7.925  1.00  0.00     0.027 C 
BRANCH  13  14
ATOM     14  C   UNL     1      80.525  51.855   9.113  1.00  0.00     0.004 C 
BRANCH  14  15
ATOM     15  C   UNL     1      81.485  52.409  10.181  1.00  0.00     0.000 C 
BRANCH  15  16
ATOM     16  C   UNL     1      81.099  53.821  10.649  1.00  0.00    -0.000 C 
BRANCH  16  17
ATOM     17  C   UNL     1      82.305  54.769  10.726  1.00  0.00    -0.003 C 
ATOM     18  C   UNL     1      82.643  55.339   9.351  1.00  0.00     0.004 C 
ENDBRANCH  16  17
ENDBRANCH  15  16
ENDBRANCH  14  15
ENDBRANCH  13  14
ENDBRANCH  12  13
ENDBRANCH  10  11
ENDBRANCH   1  10
TORSDOF 13
ENDMDL
MODEL 6
REMARK VINA RESULT:    -5.232      3.112      4.092
REMARK INTER + INTRA:          -9.979
REMARK INTER:                  -8.503
REMARK INTRA:                  -1.476
REMARK UNBOUND:                -0.771
REMARK SMILES CCCCCCC=CCCCCCCCC(=O)[O-]
REMARK SMILES IDX 10 1 11 2 12 3 13 4 14 5 15 6 16 7 17 8 18 9 9 10 8 11 7 12
REMARK SMILES IDX 6 13 5 14 4 15 3 16 2 17 1 18
REMARK H PARENT
REMARK Flexibility Score: inf
ROOT
ATOM      1  C   UNL     1      84.051  55.805   9.894  1.00  0.00     0.004 C 
ENDROOT
BRANCH   1   2
ATOM      2  C   UNL     1      84.354  57.095   9.105  1.00  0.00     0.000 C 
BRANCH   2   3
ATOM      3  C   UNL     1      84.205  58.409   9.897  1.00  0.00     0.000 C 
BRANCH   3   4
ATOM      4  C   UNL     1      82.798  58.679  10.458  1.00  0.00     0.000 C 
BRANCH   4   5
ATOM      5  C   UNL     1      82.695  60.029  11.186  1.00  0.00     0.006 C 
BRANCH   5   6
ATOM      6  C   UNL     1      82.388  61.183  10.222  1.00  0.00     0.053 C 
BRANCH   6   7
ATOM      7  C   UNL     1      83.566  62.095  10.059  1.00  0.00     0.041 C 
ATOM      8  O   UNL     1      83.486  63.108   9.317  1.00  0.00    -0.550 OA
ATOM      9  O   UNL     1      84.765  61.802  10.698  1.00  0.00    -0.550 OA
ENDBRANCH   6   7
ENDBRANCH   5   6
ENDBRANCH   4   5
ENDBRANCH   3   4
ENDBRANCH   2   3
ENDBRANCH   1   2
BRANCH   1  10
ATOM     10  C   UNL     1      83.076  54.848   9.181  1.00  0.00     0.027 C 
BRANCH  10  11
ATOM     11  C   UNL     1      81.646  55.147   9.544  1.00  0.00    -0.031 C 
ATOM     12  C   UNL     1      81.253  55.313  10.814  1.00  0.00    -0.031 C 
BRANCH  12  13
ATOM     13  C   UNL     1      79.831  55.695  11.130  1.00  0.00     0.027 C 
BRANCH  13  14
ATOM     14  C   UNL     1      79.495  57.117  10.660  1.00  0.00     0.004 C 
BRANCH  14  15
ATOM     15  C   UNL     1      78.605  57.110   9.403  1.00  0.00     0.000 C 
BRANCH  15  16
ATOM     16  C   UNL     1      78.071  55.710   9.064  1.00  0.00    -0.000 C 
BRANCH  16  17
ATOM     17  C   UNL     1      77.798  55.529   7.564  1.00  0.00    -0.003 C 
ATOM     18  C   UNL     1      77.813  56.871   6.838  1.00  0.00     0.004 C 
ENDBRANCH  16  17
ENDBRANCH  15  16
ENDBRANCH  14  15
ENDBRANCH  13  14
ENDBRANCH  12  13
ENDBRANCH  10  11
ENDBRANCH   1  10
TORSDOF 13
ENDMDL
MODEL 7
REMARK VINA RESULT:    -5.177      3.457      4.138
REMARK INTER + INTRA:          -9.882
REMARK INTER:                  -8.989
REMARK INTRA:                  -0.893
REMARK UNBOUND:                -0.771
REMARK SMILES CCCCCCC=CCCCCCCCC(=O)[O-]
REMARK SMILES IDX 10 1 11 2 12 3 13 4 14 5 15 6 16 7 17 8 18 9 9 10 8 11 7 12
REMARK SMILES IDX 6 13 5 14 4 15 3 16 2 17 1 18
REMARK H PARENT
REMARK Flexibility Score: inf
ROOT
ATOM      1  C   UNL     1      81.911  59.061  10.643  1.00  0.00     0.004 C 
ENDROOT
BRANCH   1   2
ATOM      2  C   UNL     1      82.823  59.846  11.606  1.00  0.00     0.000 C 
BRANCH   2   3
ATOM      3  C   UNL     1      84.128  60.387  10.992  1.00  0.00     0.000 C 
BRANCH   3   4
ATOM      4  C   UNL     1      84.423  59.914   9.558  1.00  0.00     0.000 C 
BRANCH   4   5
ATOM      5  C   UNL     1      85.287  58.643   9.514  1.00  0.00     0.006 C 
BRANCH   5   6
ATOM      6  C   UNL     1      86.500  58.738  10.450  1.00  0.00     0.053 C 
BRANCH   6   7
ATOM      7  C   UNL     1      87.246  57.440  10.519  1.00  0.00     0.041 C 
ATOM      8  O   UNL     1      86.634  56.368  10.765  1.00  0.00    -0.550 OA
ATOM      9  O   UNL     1      88.625  57.423  10.350  1.00  0.00    -0.550 OA
ENDBRANCH   6   7
ENDBRANCH   5   6
ENDBRANCH   4   5
ENDBRANCH   3   4
ENDBRANCH   2   3
ENDBRANCH   1   2
BRANCH   1  10
ATOM     10  C   UNL     1      80.560  59.747  10.359  1.00  0.00     0.027 C 
BRANCH  10  11
ATOM     11  C   UNL     1      79.450  58.741  10.217  1.00  0.00    -0.031 C 
ATOM     12  C   UNL     1      79.640  57.433  10.437  1.00  0.00    -0.031 C 
BRANCH  12  13
ATOM     13  C   UNL     1      78.484  56.470  10.368  1.00  0.00     0.027 C 
BRANCH  13  14
ATOM     14  C   UNL     1      77.573  56.744   9.164  1.00  0.00     0.004 C 
BRANCH  14  15
ATOM     15  C   UNL     1      78.113  56.096   7.876  1.00  0.00     0.000 C 
BRANCH  15  16
ATOM     16  C   UNL     1      78.006  54.563   7.896  1.00  0.00    -0.000 C 
BRANCH  16  17
ATOM     17  C   UNL     1      79.376  53.873   7.826  1.00  0.00    -0.003 C 
ATOM     18  C   UNL     1      79.260  52.389   8.161  1.00  0.00     0.004 C 
ENDBRANCH  16  17
ENDBRANCH  15  16
ENDBRANCH  14  15
ENDBRANCH  13  14
ENDBRANCH  12  13
ENDBRANCH  10  11
ENDBRANCH   1  10
TORSDOF 13
ENDMDL
MODEL 8
REMARK VINA RESULT:    -5.153      3.498      5.333
REMARK INTER + INTRA:          -9.840
REMARK INTER:                  -8.288
REMARK INTRA:                  -1.552
REMARK UNBOUND:                -0.771
REMARK SMILES CCCCCCC=CCCCCCCCC(=O)[O-]
REMARK SMILES IDX 10 1 11 2 12 3 13 4 14 5 15 6 16 7 17 8 18 9 9 10 8 11 7 12
REMARK SMILES IDX 6 13 5 14 4 15 3 16 2 17 1 18
REMARK H PARENT
REMARK Flexibility Score: inf
ROOT
ATOM      1  C   UNL     1      78.713  56.777  10.606  1.00  0.00     0.004 C 
ENDROOT
BRANCH   1   2
ATOM      2  C   UNL     1      79.959  57.682  10.664  1.00  0.00     0.000 C 
BRANCH   2   3
ATOM      3  C   UNL     1      79.747  59.135  10.196  1.00  0.00     0.000 C 
BRANCH   3   4
ATOM      4  C   UNL     1      80.979  60.049  10.318  1.00  0.00     0.000 C 
BRANCH   4   5
ATOM      5  C   UNL     1      82.211  59.319  10.877  1.00  0.00     0.006 C 
BRANCH   5   6
ATOM      6  C   UNL     1      83.516  59.829  10.253  1.00  0.00     0.053 C 
BRANCH   6   7
ATOM      7  C   UNL     1      84.494  58.716  10.028  1.00  0.00     0.041 C 
ATOM      8  O   UNL     1      85.718  58.968   9.879  1.00  0.00    -0.550 OA
ATOM      9  O   UNL     1      84.045  57.404   9.946  1.00  0.00    -0.550 OA
ENDBRANCH   6   7
ENDBRANCH   5   6
ENDBRANCH   4   5
ENDBRANCH   3   4
ENDBRANCH   2   3
ENDBRANCH   1   2
BRANCH   1  10
ATOM     10  C   UNL     1      77.756  57.099   9.442  1.00  0.00     0.027 C 
BRANCH  10  11
ATOM     11  C   UNL     1      77.936  56.136   8.299  1.00  0.00    -0.031 C 
ATOM     12  C   UNL     1      78.153  54.829   8.495  1.00  0.00    -0.031 C 
BRANCH  12  13
ATOM     13  C   UNL     1      78.242  53.884   7.325  1.00  0.00     0.027 C 
BRANCH  13  14
ATOM     14  C   UNL     1      79.196  52.713   7.597  1.00  0.00     0.004 C 
BRANCH  14  15
ATOM     15  C   UNL     1      80.109  52.986   8.806  1.00  0.00     0.000 C 
BRANCH  15  16
ATOM     16  C   UNL     1      81.465  53.583   8.400  1.00  0.00    -0.000 C 
BRANCH  16  17
ATOM     17  C   UNL     1      81.807  54.860   9.181  1.00  0.00    -0.003 C 
ATOM     18  C   UNL     1      81.979  54.564  10.668  1.00  0.00     0.004 C 
ENDBRANCH  16  17
ENDBRANCH  15  16
ENDBRANCH  14  15
ENDBRANCH  13  14
ENDBRANCH  12  13
ENDBRANCH  10  11
ENDBRANCH   1  10
TORSDOF 13
ENDMDL
MODEL 9
REMARK VINA RESULT:    -5.129      4.869      8.763
REMARK INTER + INTRA:          -9.798
REMARK INTER:                  -8.539
REMARK INTRA:                  -1.259
REMARK UNBOUND:                -0.771
REMARK SMILES CCCCCCC=CCCCCCCCC(=O)[O-]
REMARK SMILES IDX 10 1 11 2 12 3 13 4 14 5 15 6 16 7 17 8 18 9 9 10 8 11 7 12
REMARK SMILES IDX 6 13 5 14 4 15 3 16 2 17 1 18
REMARK H PARENT
REMARK Flexibility Score: inf
ROOT
ATOM      1  C   UNL     1      82.093  59.004  10.756  1.00  0.00     0.004 C 
ENDROOT
BRANCH   1   2
ATOM      2  C   UNL     1      80.842  59.859  10.469  1.00  0.00     0.000 C 
BRANCH   2   3
ATOM      3  C   UNL     1      79.542  59.072  10.218  1.00  0.00     0.000 C 
BRANCH   3   4
ATOM      4  C   UNL     1      79.650  57.549  10.412  1.00  0.00     0.000 C 
BRANCH   4   5
ATOM      5  C   UNL     1      78.324  56.817  10.145  1.00  0.00     0.006 C 
BRANCH   5   6
ATOM      6  C   UNL     1      78.035  56.677   8.645  1.00  0.00     0.053 C 
BRANCH   6   7
ATOM      7  C   UNL     1      78.449  55.333   8.126  1.00  0.00     0.041 C 
ATOM      8  O   UNL     1      77.603  54.574   7.587  1.00  0.00    -0.550 OA
ATOM      9  O   UNL     1      79.762  54.906   8.274  1.00  0.00    -0.550 OA
ENDBRANCH   6   7
ENDBRANCH   5   6
ENDBRANCH   4   5
ENDBRANCH   3   4
ENDBRANCH   2   3
ENDBRANCH   1   2
BRANCH   1  10
ATOM     10  C   UNL     1      83.295  59.808  11.287  1.00  0.00     0.027 C 
BRANCH  10  11
ATOM     11  C   UNL     1      84.538  59.534  10.484  1.00  0.00    -0.031 C 
ATOM     12  C   UNL     1      84.491  59.181   9.193  1.00  0.00    -0.031 C 
BRANCH  12  13
ATOM     13  C   UNL     1      85.759  58.999   8.402  1.00  0.00     0.027 C 
BRANCH  13  14
ATOM     14  C   UNL     1      86.741  60.160   8.607  1.00  0.00     0.004 C 
BRANCH  14  15
ATOM     15  C   UNL     1      86.275  61.440   7.888  1.00  0.00     0.000 C 
BRANCH  15  16
ATOM     16  C   UNL     1      86.628  62.717   8.666  1.00  0.00    -0.000 C 
BRANCH  16  17
ATOM     17  C   UNL     1      85.463  63.226   9.526  1.00  0.00    -0.003 C 
ATOM     18  C   UNL     1      84.120  62.882   8.890  1.00  0.00     0.004 C 
ENDBRANCH  16  17
ENDBRANCH  15  16
ENDBRANCH  14  15
ENDBRANCH  13  14
ENDBRANCH  12  13
ENDBRANCH  10  11
ENDBRANCH   1  10
TORSDOF 13
ENDMDL
