MODEL 1
REMARK VINA RESULT:    -4.039      0.000      0.000
REMARK INTER + INTRA:          -5.869
REMARK INTER:                  -6.164
REMARK INTRA:                   0.295
REMARK UNBOUND:                 0.295
REMARK SMILES CC1=CCC[C@H](C)C(=O)C[C@H](C(C)C)C(=O)C1
REMARK SMILES IDX 8 1 9 2 6 3 7 4 5 5 4 6 3 7 2 8 1 9 10 11 11 12 15 13 16 14
REMARK SMILES IDX 17 15 12 17 13 18 14 19
REMARK H PARENT
REMARK Flexibility Score: 70.00
ROOT
ATOM      1  C   UNL     1     -10.523  19.873   6.440  1.00  0.00     0.136 C 
ATOM      2  O   UNL     1     -11.169  20.910   6.411  1.00  0.00    -0.299 OA
ENDROOT
BRANCH   1   3
ATOM      3  C   UNL     1     -10.723  18.859   5.328  1.00  0.00     0.053 C 
ATOM      4  C   UNL     1     -12.166  18.888   4.807  1.00  0.00     0.016 C 
BRANCH   3   5
ATOM      5  C   UNL     1      -9.714  19.070   4.183  1.00  0.00     0.015 C 
BRANCH   5   6
ATOM      6  C   UNL     1      -8.765  20.249   4.464  1.00  0.00     0.028 C 
BRANCH   6   7
ATOM      7  C   UNL     1      -7.328  19.853   4.247  1.00  0.00    -0.028 C 
ATOM      8  C   UNL     1      -6.462  19.526   5.235  1.00  0.00    -0.070 CG0
ATOM      9  C   UNL     1      -5.043  19.194   4.853  1.00  0.00     0.039 C 
ATOM     10  G   UNL     1      -6.862  19.473   6.702  1.00  0.00     0.000 G0
ENDBRANCH   6   7
ENDBRANCH   5   6
ENDBRANCH   3   5
ENDBRANCH   1   3
BRANCH   1  11
ATOM     11  C   UNL     1      -9.531  19.666   7.564  1.00  0.00     0.087 C 
BRANCH  11  12
ATOM     12  C   UNL     1      -8.988  18.211   7.608  1.00  0.00     0.066 C 
BRANCH  12  13
ATOM     13  C   UNL     1      -7.558  18.194   7.092  1.00  0.00     0.140 C 
ATOM     14  O   UNL     1      -7.007  17.121   6.883  1.00  0.00    -0.299 OA
BRANCH  13  15
ATOM     15  C   UNL     1      -6.850  19.474   6.723  1.00  0.00     0.106 CG0
ATOM     16  G   UNL     1      -6.444  19.505   5.257  1.00  0.00     0.000 G0
ENDBRANCH  13  15
ENDBRANCH  12  13
BRANCH  12  17
ATOM     17  C   UNL     1      -9.061  17.586   9.042  1.00  0.00    -0.006 C 
ATOM     18  C   UNL     1      -9.959  18.407   9.990  1.00  0.00     0.008 C 
ATOM     19  C   UNL     1      -9.592  16.139   8.999  1.00  0.00     0.008 C 
ENDBRANCH  12  17
ENDBRANCH  11  12
ENDBRANCH   1  11
TORSDOF 1
ENDMDL
MODEL 2
REMARK VINA RESULT:    -3.989      2.636      5.163
REMARK INTER + INTRA:          -5.793
REMARK INTER:                  -5.595
REMARK INTRA:                  -0.198
REMARK UNBOUND:                 0.295
REMARK SMILES CC1=CCC[C@H](C)C(=O)C[C@H](C(C)C)C(=O)C1
REMARK SMILES IDX 8 1 9 2 6 3 7 4 5 5 4 6 3 7 2 8 1 9 10 11 11 12 15 13 16 14
REMARK SMILES IDX 17 15 12 17 13 18 14 19
REMARK H PARENT
REMARK Flexibility Score: 70.00
ROOT
ATOM      1  C   UNL     1      -9.637  16.594   5.733  1.00  0.00     0.136 C 
ATOM      2  O   UNL     1     -10.377  16.855   4.796  1.00  0.00    -0.299 OA
ENDROOT
BRANCH   1   3
ATOM      3  C   UNL     1      -9.408  15.138   6.099  1.00  0.00     0.053 C 
ATOM      4  C   UNL     1      -7.913  14.840   6.266  1.00  0.00     0.016 C 
BRANCH   3   5
ATOM      5  C   UNL     1     -10.199  14.742   7.359  1.00  0.00     0.015 C 
BRANCH   5   6
ATOM      6  C   UNL     1      -9.281  14.568   8.583  1.00  0.00     0.028 C 
BRANCH   6   7
ATOM      7  C   UNL     1      -9.858  15.246   9.797  1.00  0.00    -0.028 C 
ATOM      8  C   UNL     1      -9.576  16.516  10.175  1.00  0.00    -0.070 CG0
ATOM      9  C   UNL     1     -10.205  17.033  11.443  1.00  0.00     0.039 C 
ATOM     10  G   UNL     1      -8.665  17.435   9.375  1.00  0.00     0.000 G0
ENDBRANCH   6   7
ENDBRANCH   5   6
ENDBRANCH   3   5
ENDBRANCH   1   3
BRANCH   1  11
ATOM     11  C   UNL     1      -8.960  17.734   6.463  1.00  0.00     0.087 C 
BRANCH  11  12
ATOM     12  C   UNL     1      -9.954  18.541   7.344  1.00  0.00     0.066 C 
BRANCH  12  13
ATOM     13  C   UNL     1      -9.423  18.605   8.768  1.00  0.00     0.140 C 
ATOM     14  O   UNL     1      -9.697  19.571   9.469  1.00  0.00    -0.299 OA
BRANCH  13  15
ATOM     15  C   UNL     1      -8.664  17.447   9.367  1.00  0.00     0.106 CG0
ATOM     16  G   UNL     1      -9.568  16.515  10.160  1.00  0.00     0.000 G0
ENDBRANCH  13  15
ENDBRANCH  12  13
BRANCH  12  17
ATOM     17  C   UNL     1     -10.213  19.982   6.790  1.00  0.00    -0.006 C 
ATOM     18  C   UNL     1      -9.165  20.400   5.739  1.00  0.00     0.008 C 
ATOM     19  C   UNL     1     -11.614  20.098   6.155  1.00  0.00     0.008 C 
ENDBRANCH  12  17
ENDBRANCH  11  12
ENDBRANCH   1  11
TORSDOF 1
ENDMDL
MODEL 3
REMARK VINA RESULT:    -3.987      1.474      1.829
REMARK INTER + INTRA:          -5.789
REMARK INTER:                  -5.717
REMARK INTRA:                  -0.072
REMARK UNBOUND:                 0.295
REMARK SMILES CC1=CCC[C@H](C)C(=O)C[C@H](C(C)C)C(=O)C1
REMARK SMILES IDX 8 1 9 2 6 3 7 4 5 5 4 6 3 7 2 8 1 9 10 11 11 12 15 13 16 14
REMARK SMILES IDX 17 15 12 17 13 18 14 19
REMARK H PARENT
REMARK Flexibility Score: 70.00
ROOT
ATOM      1  C   UNL     1      -9.916  19.313   7.739  1.00  0.00     0.136 C 
ATOM      2  O   UNL     1      -9.678  20.428   8.178  1.00  0.00    -0.299 OA
ENDROOT
BRANCH   1   3
ATOM      3  C   UNL     1     -10.469  19.186   6.330  1.00  0.00     0.053 C 
ATOM      4  C   UNL     1     -11.826  19.890   6.206  1.00  0.00     0.016 C 
BRANCH   3   5
ATOM      5  C   UNL     1      -9.471  19.714   5.283  1.00  0.00     0.015 C 
BRANCH   5   6
ATOM      6  C   UNL     1      -8.308  18.731   5.051  1.00  0.00     0.028 C 
BRANCH   6   7
ATOM      7  C   UNL     1      -6.989  19.353   5.426  1.00  0.00    -0.028 C 
ATOM      8  C   UNL     1      -6.090  18.798   6.273  1.00  0.00    -0.070 CG0
ATOM      9  C   UNL     1      -4.832  19.570   6.577  1.00  0.00     0.039 C 
ATOM     10  G   UNL     1      -6.293  17.435   6.919  1.00  0.00     0.000 G0
ENDBRANCH   6   7
ENDBRANCH   5   6
ENDBRANCH   3   5
ENDBRANCH   1   3
BRANCH   1  11
ATOM     11  C   UNL     1      -9.616  18.111   8.608  1.00  0.00     0.087 C 
BRANCH  11  12
ATOM     12  C   UNL     1      -8.706  17.077   7.888  1.00  0.00     0.066 C 
BRANCH  12  13
ATOM     13  C   UNL     1      -7.249  17.469   8.085  1.00  0.00     0.140 C 
ATOM     14  O   UNL     1      -6.843  17.725   9.212  1.00  0.00    -0.299 OA
BRANCH  13  15
ATOM     15  C   UNL     1      -6.273  17.434   6.936  1.00  0.00     0.106 CG0
ATOM     16  G   UNL     1      -6.103  18.798   6.284  1.00  0.00     0.000 G0
ENDBRANCH  13  15
ENDBRANCH  12  13
BRANCH  12  17
ATOM     17  C   UNL     1      -8.951  15.613   8.385  1.00  0.00    -0.006 C 
ATOM     18  C   UNL     1      -9.714  15.571   9.724  1.00  0.00     0.008 C 
ATOM     19  C   UNL     1      -9.745  14.792   7.347  1.00  0.00     0.008 C 
ENDBRANCH  12  17
ENDBRANCH  11  12
ENDBRANCH   1  11
TORSDOF 1
ENDMDL
MODEL 4
REMARK VINA RESULT:    -3.973      2.893      3.882
REMARK INTER + INTRA:          -5.768
REMARK INTER:                  -5.628
REMARK INTRA:                  -0.140
REMARK UNBOUND:                 0.295
REMARK SMILES CC1=CCC[C@H](C)C(=O)C[C@H](C(C)C)C(=O)C1
REMARK SMILES IDX 8 1 9 2 6 3 7 4 5 5 4 6 3 7 2 8 1 9 10 11 11 12 15 13 16 14
REMARK SMILES IDX 17 15 12 17 13 18 14 19
REMARK H PARENT
REMARK Flexibility Score: 70.00
ROOT
ATOM      1  C   UNL     1      -9.736  18.960   8.366  1.00  0.00     0.136 C 
ATOM      2  O   UNL     1      -9.896  19.679   9.342  1.00  0.00    -0.299 OA
ENDROOT
BRANCH   1   3
ATOM      3  C   UNL     1     -10.353  19.379   7.044  1.00  0.00     0.053 C 
ATOM      4  C   UNL     1     -10.360  20.907   6.897  1.00  0.00     0.016 C 
BRANCH   3   5
ATOM      5  C   UNL     1      -9.642  18.710   5.852  1.00  0.00     0.015 C 
BRANCH   5   6
ATOM      6  C   UNL     1     -10.489  17.579   5.241  1.00  0.00     0.028 C 
BRANCH   6   7
ATOM      7  C   UNL     1      -9.675  16.323   5.070  1.00  0.00    -0.028 C 
ATOM      8  C   UNL     1      -9.650  15.297   5.953  1.00  0.00    -0.070 CG0
ATOM      9  C   UNL     1      -8.748  14.127   5.655  1.00  0.00     0.039 C 
ATOM     10  G   UNL     1     -10.493  15.273   7.220  1.00  0.00     0.000 G0
ENDBRANCH   6   7
ENDBRANCH   5   6
ENDBRANCH   3   5
ENDBRANCH   1   3
BRANCH   1  11
ATOM     11  C   UNL     1      -8.904  17.705   8.516  1.00  0.00     0.087 C 
BRANCH  11  12
ATOM     12  C   UNL     1      -9.644  16.601   9.320  1.00  0.00     0.066 C 
BRANCH  12  13
ATOM     13  C   UNL     1      -9.691  15.325   8.494  1.00  0.00     0.140 C 
ATOM     14  O   UNL     1      -9.138  14.317   8.913  1.00  0.00    -0.299 OA
BRANCH  13  15
ATOM     15  C   UNL     1     -10.506  15.251   7.226  1.00  0.00     0.106 CG0
ATOM     16  G   UNL     1      -9.634  15.288   5.980  1.00  0.00     0.000 G0
ENDBRANCH  13  15
ENDBRANCH  12  13
BRANCH  12  17
ATOM     17  C   UNL     1      -8.984  16.328  10.713  1.00  0.00    -0.006 C 
ATOM     18  C   UNL     1      -7.756  17.227  10.963  1.00  0.00     0.008 C 
ATOM     19  C   UNL     1      -9.988  16.544  11.864  1.00  0.00     0.008 C 
ENDBRANCH  12  17
ENDBRANCH  11  12
ENDBRANCH   1  11
TORSDOF 1
ENDMDL
MODEL 5
REMARK VINA RESULT:    -3.915      2.035      4.173
REMARK INTER + INTRA:          -5.679
REMARK INTER:                  -5.866
REMARK INTRA:                   0.187
REMARK UNBOUND:                 0.295
REMARK SMILES CC1=CCC[C@H](C)C(=O)C[C@H](C(C)C)C(=O)C1
REMARK SMILES IDX 8 1 9 2 6 3 7 4 5 5 4 6 3 7 2 8 1 9 10 11 11 12 15 13 16 14
REMARK SMILES IDX 17 15 12 17 13 18 14 19
REMARK H PARENT
REMARK Flexibility Score: 70.00
ROOT
ATOM      1  C   UNL     1      -7.962  20.871   5.592  1.00  0.00     0.136 C 
ATOM      2  O   UNL     1      -7.520  22.010   5.580  1.00  0.00    -0.299 OA
ENDROOT
BRANCH   1   3
ATOM      3  C   UNL     1      -7.064  19.736   5.132  1.00  0.00     0.053 C 
ATOM      4  C   UNL     1      -6.143  20.188   3.992  1.00  0.00     0.016 C 
BRANCH   3   5
ATOM      5  C   UNL     1      -6.254  19.148   6.302  1.00  0.00     0.015 C 
BRANCH   5   6
ATOM      6  C   UNL     1      -6.621  17.678   6.575  1.00  0.00     0.028 C 
BRANCH   6   7
ATOM      7  C   UNL     1      -6.662  17.393   8.053  1.00  0.00    -0.028 C 
ATOM      8  C   UNL     1      -7.797  17.275   8.782  1.00  0.00    -0.070 CG0
ATOM      9  C   UNL     1      -7.666  17.030  10.263  1.00  0.00     0.039 C 
ATOM     10  G   UNL     1      -9.188  17.371   8.172  1.00  0.00     0.000 G0
ENDBRANCH   6   7
ENDBRANCH   5   6
ENDBRANCH   3   5
ENDBRANCH   1   3
BRANCH   1  11
ATOM     11  C   UNL     1      -9.371  20.643   6.094  1.00  0.00     0.087 C 
BRANCH  11  12
ATOM     12  C   UNL     1      -9.695  19.134   6.273  1.00  0.00     0.066 C 
BRANCH  12  13
ATOM     13  C   UNL     1      -9.561  18.763   7.742  1.00  0.00     0.140 C 
ATOM     14  O   UNL     1      -9.836  19.594   8.599  1.00  0.00    -0.299 OA
BRANCH  13  15
ATOM     15  C   UNL     1      -9.209  17.357   8.160  1.00  0.00     0.106 CG0
ATOM     16  G   UNL     1      -7.816  17.269   8.766  1.00  0.00     0.000 G0
ENDBRANCH  13  15
ENDBRANCH  12  13
BRANCH  12  17
ATOM     17  C   UNL     1     -11.118  18.758   5.741  1.00  0.00    -0.006 C 
ATOM     18  C   UNL     1     -12.117  19.925   5.873  1.00  0.00     0.008 C 
ATOM     19  C   UNL     1     -11.069  18.323   4.261  1.00  0.00     0.008 C 
ENDBRANCH  12  17
ENDBRANCH  11  12
ENDBRANCH   1  11
TORSDOF 1
ENDMDL
MODEL 6
REMARK VINA RESULT:    -3.834      2.327      4.479
REMARK INTER + INTRA:          -5.556
REMARK INTER:                  -5.214
REMARK INTRA:                  -0.342
REMARK UNBOUND:                 0.295
REMARK SMILES CC1=CCC[C@H](C)C(=O)C[C@H](C(C)C)C(=O)C1
REMARK SMILES IDX 8 1 9 2 6 3 7 4 5 5 4 6 3 7 2 8 1 9 10 11 11 12 15 13 16 14
REMARK SMILES IDX 17 15 12 17 13 18 14 19
REMARK H PARENT
REMARK Flexibility Score: 70.00
ROOT
ATOM      1  C   UNL     1      -9.636  18.365   9.755  1.00  0.00     0.136 C 
ATOM      2  O   UNL     1      -9.721  19.540  10.082  1.00  0.00    -0.299 OA
ENDROOT
BRANCH   1   3
ATOM      3  C   UNL     1      -9.234  17.343  10.803  1.00  0.00     0.053 C 
ATOM      4  C   UNL     1      -9.797  15.957  10.466  1.00  0.00     0.016 C 
BRANCH   3   5
ATOM      5  C   UNL     1      -7.706  17.294  10.987  1.00  0.00     0.015 C 
BRANCH   5   6
ATOM      6  C   UNL     1      -7.070  16.135  10.198  1.00  0.00     0.028 C 
BRANCH   6   7
ATOM      7  C   UNL     1      -6.079  16.646   9.186  1.00  0.00    -0.028 C 
ATOM      8  C   UNL     1      -6.298  16.691   7.850  1.00  0.00    -0.070 CG0
ATOM      9  C   UNL     1      -5.185  17.192   6.966  1.00  0.00     0.039 C 
ATOM     10  G   UNL     1      -7.612  16.267   7.212  1.00  0.00     0.000 G0
ENDBRANCH   6   7
ENDBRANCH   5   6
ENDBRANCH   3   5
ENDBRANCH   1   3
BRANCH   1  11
ATOM     11  C   UNL     1      -9.966  17.983   8.328  1.00  0.00     0.087 C 
BRANCH  11  12
ATOM     12  C   UNL     1      -8.944  18.564   7.312  1.00  0.00     0.066 C 
BRANCH  12  13
ATOM     13  C   UNL     1      -8.328  17.425   6.515  1.00  0.00     0.140 C 
ATOM     14  O   UNL     1      -8.314  17.485   5.292  1.00  0.00    -0.299 OA
BRANCH  13  15
ATOM     15  C   UNL     1      -7.630  16.280   7.208  1.00  0.00     0.106 CG0
ATOM     16  G   UNL     1      -6.314  16.708   7.842  1.00  0.00     0.000 G0
ENDBRANCH  13  15
ENDBRANCH  12  13
BRANCH  12  17
ATOM     17  C   UNL     1      -9.587  19.620   6.351  1.00  0.00    -0.006 C 
ATOM     18  C   UNL     1     -11.106  19.763   6.576  1.00  0.00     0.008 C 
ATOM     19  C   UNL     1      -8.936  21.007   6.524  1.00  0.00     0.008 C 
ENDBRANCH  12  17
ENDBRANCH  11  12
ENDBRANCH   1  11
TORSDOF 1
ENDMDL
MODEL 7
REMARK VINA RESULT:    -3.764      2.319      4.282
REMARK INTER + INTRA:          -5.450
REMARK INTER:                  -5.197
REMARK INTRA:                  -0.252
REMARK UNBOUND:                 0.295
REMARK SMILES CC1=CCC[C@H](C)C(=O)C[C@H](C(C)C)C(=O)C1
REMARK SMILES IDX 8 1 9 2 6 3 7 4 5 5 4 6 3 7 2 8 1 9 10 11 11 12 15 13 16 14
REMARK SMILES IDX 17 15 12 17 13 18 14 19
REMARK H PARENT
REMARK Flexibility Score: 70.00
ROOT
ATOM      1  C   UNL     1     -10.133  17.185   5.456  1.00  0.00     0.136 C 
ATOM      2  O   UNL     1     -11.048  17.950   5.191  1.00  0.00    -0.299 OA
ENDROOT
BRANCH   1   3
ATOM      3  C   UNL     1     -10.457  15.725   5.719  1.00  0.00     0.053 C 
ATOM      4  C   UNL     1      -9.518  14.800   4.934  1.00  0.00     0.016 C 
BRANCH   3   5
ATOM      5  C   UNL     1     -10.423  15.402   7.225  1.00  0.00     0.015 C 
BRANCH   5   6
ATOM      6  C   UNL     1      -9.067  14.814   7.656  1.00  0.00     0.028 C 
BRANCH   6   7
ATOM      7  C   UNL     1      -8.552  15.490   8.899  1.00  0.00    -0.028 C 
ATOM      8  C   UNL     1      -7.506  16.349   8.930  1.00  0.00    -0.070 CG0
ATOM      9  C   UNL     1      -7.087  16.909  10.264  1.00  0.00     0.039 C 
ATOM     10  G   UNL     1      -6.746  16.773   7.681  1.00  0.00     0.000 G0
ENDBRANCH   6   7
ENDBRANCH   5   6
ENDBRANCH   3   5
ENDBRANCH   1   3
BRANCH   1  11
ATOM     11  C   UNL     1      -8.718  17.722   5.476  1.00  0.00     0.087 C 
BRANCH  11  12
ATOM     12  C   UNL     1      -8.435  18.585   6.737  1.00  0.00     0.066 C 
BRANCH  12  13
ATOM     13  C   UNL     1      -7.071  18.218   7.300  1.00  0.00     0.140 C 
ATOM     14  O   UNL     1      -6.259  19.104   7.532  1.00  0.00    -0.299 OA
BRANCH  13  15
ATOM     15  C   UNL     1      -6.747  16.796   7.684  1.00  0.00     0.106 CG0
ATOM     16  G   UNL     1      -7.512  16.346   8.921  1.00  0.00     0.000 G0
ENDBRANCH  13  15
ENDBRANCH  12  13
BRANCH  12  17
ATOM     17  C   UNL     1      -8.511  20.121   6.442  1.00  0.00    -0.006 C 
ATOM     18  C   UNL     1      -8.331  20.437   4.944  1.00  0.00     0.008 C 
ATOM     19  C   UNL     1      -9.856  20.717   6.907  1.00  0.00     0.008 C 
ENDBRANCH  12  17
ENDBRANCH  11  12
ENDBRANCH   1  11
TORSDOF 1
ENDMDL
MODEL 8
REMARK VINA RESULT:    -3.727      4.154      6.079
REMARK INTER + INTRA:          -5.393
REMARK INTER:                  -5.218
REMARK INTRA:                  -0.175
REMARK UNBOUND:                 0.295
REMARK SMILES CC1=CCC[C@H](C)C(=O)C[C@H](C(C)C)C(=O)C1
REMARK SMILES IDX 8 1 9 2 6 3 7 4 5 5 4 6 3 7 2 8 1 9 10 11 11 12 15 13 16 14
REMARK SMILES IDX 17 15 12 17 13 18 14 19
REMARK H PARENT
REMARK Flexibility Score: 70.00
ROOT
ATOM      1  C   UNL     1      -9.464  18.362  10.618  1.00  0.00     0.136 C 
ATOM      2  O   UNL     1      -9.754  19.544  10.505  1.00  0.00    -0.299 OA
ENDROOT
BRANCH   1   3
ATOM      3  C   UNL     1      -9.273  17.535   9.359  1.00  0.00     0.053 C 
ATOM      4  C   UNL     1      -9.875  18.242   8.138  1.00  0.00     0.016 C 
BRANCH   3   5
ATOM      5  C   UNL     1      -7.790  17.193   9.128  1.00  0.00     0.015 C 
BRANCH   5   6
ATOM      6  C   UNL     1      -7.534  15.675   9.186  1.00  0.00     0.028 C 
BRANCH   6   7
ATOM      7  C   UNL     1      -6.382  15.352  10.100  1.00  0.00    -0.028 C 
ATOM      8  C   UNL     1      -6.509  14.797  11.329  1.00  0.00    -0.070 CG0
ATOM      9  C   UNL     1      -5.257  14.576  12.139  1.00  0.00     0.039 C 
ATOM     10  G   UNL     1      -7.850  14.385  11.918  1.00  0.00     0.000 G0
ENDBRANCH   6   7
ENDBRANCH   5   6
ENDBRANCH   3   5
ENDBRANCH   1   3
BRANCH   1  11
ATOM     11  C   UNL     1      -9.276  17.789  12.006  1.00  0.00     0.087 C 
BRANCH  11  12
ATOM     12  C   UNL     1      -9.673  16.289  12.081  1.00  0.00     0.066 C 
BRANCH  12  13
ATOM     13  C   UNL     1      -8.524  15.496  12.685  1.00  0.00     0.140 C 
ATOM     14  O   UNL     1      -8.191  15.709  13.844  1.00  0.00    -0.299 OA
BRANCH  13  15
ATOM     15  C   UNL     1      -7.868  14.375  11.920  1.00  0.00     0.106 CG0
ATOM     16  G   UNL     1      -6.529  14.789  11.327  1.00  0.00     0.000 G0
ENDBRANCH  13  15
ENDBRANCH  12  13
BRANCH  12  17
ATOM     17  C   UNL     1     -10.989  16.056  12.898  1.00  0.00    -0.006 C 
ATOM     18  C   UNL     1     -11.899  17.301  12.905  1.00  0.00     0.008 C 
ATOM     19  C   UNL     1     -11.795  14.866  12.338  1.00  0.00     0.008 C 
ENDBRANCH  12  17
ENDBRANCH  11  12
ENDBRANCH   1  11
TORSDOF 1
ENDMDL
MODEL 9
REMARK VINA RESULT:    -3.588      5.243      6.833
REMARK INTER + INTRA:          -5.181
REMARK INTER:                  -4.794
REMARK INTRA:                  -0.387
REMARK UNBOUND:                 0.295
REMARK SMILES CC1=CCC[C@H](C)C(=O)C[C@H](C(C)C)C(=O)C1
REMARK SMILES IDX 8 1 9 2 6 3 7 4 5 5 4 6 3 7 2 8 1 9 10 11 11 12 15 13 16 14
REMARK SMILES IDX 17 15 12 17 13 18 14 19
REMARK H PARENT
REMARK Flexibility Score: 70.00
ROOT
ATOM      1  C   UNL     1      -9.039  18.727  12.786  1.00  0.00     0.136 C 
ATOM      2  O   UNL     1      -9.033  19.852  12.310  1.00  0.00    -0.299 OA
ENDROOT
BRANCH   1   3
ATOM      3  C   UNL     1      -9.958  17.683  12.177  1.00  0.00     0.053 C 
ATOM      4  C   UNL     1     -11.427  17.988  12.494  1.00  0.00     0.016 C 
BRANCH   3   5
ATOM      5  C   UNL     1      -9.732  17.549  10.659  1.00  0.00     0.015 C 
BRANCH   5   6
ATOM      6  C   UNL     1      -8.887  16.311  10.311  1.00  0.00     0.028 C 
BRANCH   6   7
ATOM      7  C   UNL     1      -7.434  16.672  10.150  1.00  0.00    -0.028 C 
ATOM      8  C   UNL     1      -6.460  16.356  11.037  1.00  0.00    -0.070 CG0
ATOM      9  C   UNL     1      -5.059  16.830  10.750  1.00  0.00     0.039 C 
ATOM     10  G   UNL     1      -6.720  15.543  12.297  1.00  0.00     0.000 G0
ENDBRANCH   6   7
ENDBRANCH   5   6
ENDBRANCH   3   5
ENDBRANCH   1   3
BRANCH   1  11
ATOM     11  C   UNL     1      -8.107  18.420  13.938  1.00  0.00     0.087 C 
BRANCH  11  12
ATOM     12  C   UNL     1      -7.968  16.893  14.192  1.00  0.00     0.066 C 
BRANCH  12  13
ATOM     13  C   UNL     1      -6.684  16.393  13.549  1.00  0.00     0.140 C 
ATOM     14  O   UNL     1      -5.613  16.600  14.106  1.00  0.00    -0.299 OA
BRANCH  13  15
ATOM     15  C   UNL     1      -6.718  15.547  12.300  1.00  0.00     0.106 CG0
ATOM     16  G   UNL     1      -6.450  16.364  11.045  1.00  0.00     0.000 G0
ENDBRANCH  13  15
ENDBRANCH  12  13
BRANCH  12  17
ATOM     17  C   UNL     1      -7.996  16.533  15.715  1.00  0.00    -0.006 C 
ATOM     18  C   UNL     1      -8.383  17.740  16.593  1.00  0.00     0.008 C 
ATOM     19  C   UNL     1      -8.983  15.383  16.003  1.00  0.00     0.008 C 
ENDBRANCH  12  17
ENDBRANCH  11  12
ENDBRANCH   1  11
TORSDOF 1
ENDMDL
