MODEL 1
REMARK VINA RESULT:    -5.056      0.000      0.000
REMARK INTER + INTRA:          -5.847
REMARK INTER:                  -5.794
REMARK INTRA:                  -0.053
REMARK UNBOUND:                -0.053
REMARK SMILES O=C([O-])c1cc(O)c(O)c(O)c1
REMARK SMILES IDX 4 1 5 2 12 3 6 4 10 5 8 6 2 7 1 8 3 9 7 10 11 12 9 14
REMARK H PARENT 7 11 11 13 9 15
REMARK Flexibility Score: inf
ROOT
ATOM      1  C   UNL     1      43.894  39.791   7.666  1.00  0.00     0.005 A 
ATOM      2  C   UNL     1      42.972  39.837   6.608  1.00  0.00     0.060 A 
ATOM      3  C   UNL     1      44.618  40.950   7.991  1.00  0.00     0.060 A 
ATOM      4  C   UNL     1      42.774  41.021   5.884  1.00  0.00     0.162 A 
ATOM      5  C   UNL     1      44.427  42.136   7.274  1.00  0.00     0.162 A 
ATOM      6  C   UNL     1      43.503  42.176   6.216  1.00  0.00     0.200 A 
ENDROOT
BRANCH   1   7
ATOM      7  C   UNL     1      44.098  38.536   8.425  1.00  0.00     0.072 C 
ATOM      8  O   UNL     1      44.847  38.514   9.437  1.00  0.00    -0.545 OA
ATOM      9  O   UNL     1      43.463  37.364   8.032  1.00  0.00    -0.545 OA
ENDBRANCH   1   7
BRANCH   4  10
ATOM     10  O   UNL     1      41.856  41.055   4.836  1.00  0.00    -0.504 OA
ATOM     11  H   UNL     1      41.622  40.222   4.308  1.00  0.00     0.293 HD
ENDBRANCH   4  10
BRANCH   5  12
ATOM     12  O   UNL     1      45.166  43.264   7.628  1.00  0.00    -0.504 OA
ATOM     13  H   UNL     1      45.709  43.307   8.482  1.00  0.00     0.293 HD
ENDBRANCH   5  12
BRANCH   6  14
ATOM     14  O   UNL     1      43.319  43.363   5.506  1.00  0.00    -0.502 OA
ATOM     15  H   UNL     1      43.480  43.426   4.508  1.00  0.00     0.293 HD
ENDBRANCH   6  14
TORSDOF 4
ENDMDL
MODEL 2
REMARK VINA RESULT:    -5.045      0.106      2.431
REMARK INTER + INTRA:          -5.835
REMARK INTER:                  -5.782
REMARK INTRA:                  -0.053
REMARK UNBOUND:                -0.053
REMARK SMILES O=C([O-])c1cc(O)c(O)c(O)c1
REMARK SMILES IDX 4 1 5 2 12 3 6 4 10 5 8 6 2 7 1 8 3 9 7 10 11 12 9 14
REMARK H PARENT 7 11 11 13 9 15
REMARK Flexibility Score: inf
ROOT
ATOM      1  C   UNL     1      43.888  39.701   7.714  1.00  0.00     0.005 A 
ATOM      2  C   UNL     1      44.620  40.853   8.045  1.00  0.00     0.060 A 
ATOM      3  C   UNL     1      42.980  39.755   6.642  1.00  0.00     0.060 A 
ATOM      4  C   UNL     1      44.451  42.040   7.320  1.00  0.00     0.162 A 
ATOM      5  C   UNL     1      42.806  40.936   5.913  1.00  0.00     0.162 A 
ATOM      6  C   UNL     1      43.542  42.084   6.249  1.00  0.00     0.200 A 
ENDROOT
BRANCH   1   7
ATOM      7  C   UNL     1      44.071  38.451   8.485  1.00  0.00     0.072 C 
ATOM      8  O   UNL     1      44.808  38.430   9.506  1.00  0.00    -0.545 OA
ATOM      9  O   UNL     1      43.430  37.282   8.093  1.00  0.00    -0.545 OA
ENDBRANCH   1   7
BRANCH   4  10
ATOM     10  O   UNL     1      45.185  43.176   7.658  1.00  0.00    -0.504 OA
ATOM     11  H   UNL     1      45.254  43.970   7.032  1.00  0.00     0.293 HD
ENDBRANCH   4  10
BRANCH   5  12
ATOM     12  O   UNL     1      41.896  40.947   4.856  1.00  0.00    -0.504 OA
ATOM     13  H   UNL     1      41.421  40.109   4.545  1.00  0.00     0.293 HD
ENDBRANCH   5  12
BRANCH   6  14
ATOM     14  O   UNL     1      43.362  43.258   5.517  1.00  0.00    -0.502 OA
ATOM     15  H   UNL     1      42.690  43.325   4.761  1.00  0.00     0.293 HD
ENDBRANCH   6  14
TORSDOF 4
ENDMDL
MODEL 3
REMARK VINA RESULT:    -4.926      1.967      4.128
REMARK INTER + INTRA:          -5.699
REMARK INTER:                  -5.646
REMARK INTRA:                  -0.053
REMARK UNBOUND:                -0.053
REMARK SMILES O=C([O-])c1cc(O)c(O)c(O)c1
REMARK SMILES IDX 4 1 5 2 12 3 6 4 10 5 8 6 2 7 1 8 3 9 7 10 11 12 9 14
REMARK H PARENT 7 11 11 13 9 15
REMARK Flexibility Score: inf
ROOT
ATOM      1  C   UNL     1      44.814  43.045   8.813  1.00  0.00     0.005 A 
ATOM      2  C   UNL     1      44.883  41.645   8.903  1.00  0.00     0.060 A 
ATOM      3  C   UNL     1      44.259  43.628   7.661  1.00  0.00     0.060 A 
ATOM      4  C   UNL     1      44.408  40.838   7.861  1.00  0.00     0.162 A 
ATOM      5  C   UNL     1      43.782  42.830   6.616  1.00  0.00     0.162 A 
ATOM      6  C   UNL     1      43.855  41.430   6.712  1.00  0.00     0.200 A 
ENDROOT
BRANCH   1   7
ATOM      7  C   UNL     1      45.318  43.891   9.918  1.00  0.00     0.072 C 
ATOM      8  O   UNL     1      45.766  43.368  10.973  1.00  0.00    -0.545 OA
ATOM      9  O   UNL     1      45.306  45.276   9.807  1.00  0.00    -0.545 OA
ENDBRANCH   1   7
BRANCH   4  10
ATOM     10  O   UNL     1      44.482  39.450   7.962  1.00  0.00    -0.504 OA
ATOM     11  H   UNL     1      45.354  38.978   8.173  1.00  0.00     0.293 HD
ENDBRANCH   4  10
BRANCH   5  12
ATOM     12  O   UNL     1      43.240  43.447   5.490  1.00  0.00    -0.504 OA
ATOM     13  H   UNL     1      42.241  43.561   5.365  1.00  0.00     0.293 HD
ENDBRANCH   5  12
BRANCH   6  14
ATOM     14  O   UNL     1      43.377  40.641   5.665  1.00  0.00    -0.502 OA
ATOM     15  H   UNL     1      43.968  39.983   5.171  1.00  0.00     0.293 HD
ENDBRANCH   6  14
TORSDOF 4
ENDMDL
MODEL 4
REMARK VINA RESULT:    -4.925      1.946      4.050
REMARK INTER + INTRA:          -5.697
REMARK INTER:                  -5.644
REMARK INTRA:                  -0.053
REMARK UNBOUND:                -0.053
REMARK SMILES O=C([O-])c1cc(O)c(O)c(O)c1
REMARK SMILES IDX 4 1 5 2 12 3 6 4 10 5 8 6 2 7 1 8 3 9 7 10 11 12 9 14
REMARK H PARENT 7 11 11 13 9 15
REMARK Flexibility Score: inf
ROOT
ATOM      1  C   UNL     1      44.802  43.036   8.785  1.00  0.00     0.005 A 
ATOM      2  C   UNL     1      44.249  43.626   7.637  1.00  0.00     0.060 A 
ATOM      3  C   UNL     1      44.861  41.635   8.870  1.00  0.00     0.060 A 
ATOM      4  C   UNL     1      43.761  42.832   6.590  1.00  0.00     0.162 A 
ATOM      5  C   UNL     1      44.377  40.835   7.830  1.00  0.00     0.162 A 
ATOM      6  C   UNL     1      43.825  41.431   6.684  1.00  0.00     0.200 A 
ENDROOT
BRANCH   1   7
ATOM      7  C   UNL     1      45.315  43.881   9.886  1.00  0.00     0.072 C 
ATOM      8  O   UNL     1      45.764  43.358  10.940  1.00  0.00    -0.545 OA
ATOM      9  O   UNL     1      45.308  45.267   9.773  1.00  0.00    -0.545 OA
ENDBRANCH   1   7
BRANCH   4  10
ATOM     10  O   UNL     1      43.214  43.430   5.456  1.00  0.00    -0.504 OA
ATOM     11  H   UNL     1      43.731  44.113   4.913  1.00  0.00     0.293 HD
ENDBRANCH   4  10
BRANCH   5  12
ATOM     12  O   UNL     1      44.454  39.448   7.954  1.00  0.00    -0.504 OA
ATOM     13  H   UNL     1      43.658  38.846   7.780  1.00  0.00     0.293 HD
ENDBRANCH   5  12
BRANCH   6  14
ATOM     14  O   UNL     1      43.343  40.626   5.651  1.00  0.00    -0.502 OA
ATOM     15  H   UNL     1      43.133  40.995   4.732  1.00  0.00     0.293 HD
ENDBRANCH   6  14
TORSDOF 4
ENDMDL
MODEL 5
REMARK VINA RESULT:    -4.917      1.199      2.491
REMARK INTER + INTRA:          -5.688
REMARK INTER:                  -5.635
REMARK INTRA:                  -0.053
REMARK UNBOUND:                -0.053
REMARK SMILES O=C([O-])c1cc(O)c(O)c(O)c1
REMARK SMILES IDX 4 1 5 2 12 3 6 4 10 5 8 6 2 7 1 8 3 9 7 10 11 12 9 14
REMARK H PARENT 7 11 11 13 9 15
REMARK Flexibility Score: inf
ROOT
ATOM      1  C   UNL     1      43.070  39.712   6.632  1.00  0.00     0.005 A 
ATOM      2  C   UNL     1      42.880  40.904   5.915  1.00  0.00     0.060 A 
ATOM      3  C   UNL     1      43.971  39.701   7.710  1.00  0.00     0.060 A 
ATOM      4  C   UNL     1      43.576  42.068   6.267  1.00  0.00     0.162 A 
ATOM      5  C   UNL     1      44.669  40.858   8.068  1.00  0.00     0.162 A 
ATOM      6  C   UNL     1      44.474  42.048   7.347  1.00  0.00     0.200 A 
ENDROOT
BRANCH   1   7
ATOM      7  C   UNL     1      42.332  38.486   6.253  1.00  0.00     0.072 C 
ATOM      8  O   UNL     1      41.482  38.510   5.323  1.00  0.00    -0.545 OA
ATOM      9  O   UNL     1      42.565  37.289   6.920  1.00  0.00    -0.545 OA
ENDBRANCH   1   7
BRANCH   4  10
ATOM     10  O   UNL     1      43.378  43.246   5.547  1.00  0.00    -0.504 OA
ATOM     11  H   UNL     1      43.614  43.314   4.564  1.00  0.00     0.293 HD
ENDBRANCH   4  10
BRANCH   5  12
ATOM     12  O   UNL     1      45.554  40.806   9.145  1.00  0.00    -0.504 OA
ATOM     13  H   UNL     1      45.950  41.641   9.559  1.00  0.00     0.293 HD
ENDBRANCH   5  12
BRANCH   6  14
ATOM     14  O   UNL     1      45.176  43.198   7.711  1.00  0.00    -0.502 OA
ATOM     15  H   UNL     1      45.845  43.641   7.093  1.00  0.00     0.293 HD
ENDBRANCH   6  14
TORSDOF 4
ENDMDL
MODEL 6
REMARK VINA RESULT:    -4.908      1.169      3.057
REMARK INTER + INTRA:          -5.678
REMARK INTER:                  -5.625
REMARK INTRA:                  -0.053
REMARK UNBOUND:                -0.053
REMARK SMILES O=C([O-])c1cc(O)c(O)c(O)c1
REMARK SMILES IDX 4 1 5 2 12 3 6 4 10 5 8 6 2 7 1 8 3 9 7 10 11 12 9 14
REMARK H PARENT 7 11 11 13 9 15
REMARK Flexibility Score: inf
ROOT
ATOM      1  C   UNL     1      43.115  39.760   6.631  1.00  0.00     0.005 A 
ATOM      2  C   UNL     1      43.981  39.682   7.734  1.00  0.00     0.060 A 
ATOM      3  C   UNL     1      42.991  40.981   5.947  1.00  0.00     0.060 A 
ATOM      4  C   UNL     1      44.711  40.803   8.149  1.00  0.00     0.162 A 
ATOM      5  C   UNL     1      43.717  42.105   6.355  1.00  0.00     0.162 A 
ATOM      6  C   UNL     1      44.581  42.020   7.459  1.00  0.00     0.200 A 
ENDROOT
BRANCH   1   7
ATOM      7  C   UNL     1      42.347  38.572   6.199  1.00  0.00     0.072 C 
ATOM      8  O   UNL     1      41.537  38.646   5.237  1.00  0.00    -0.545 OA
ATOM      9  O   UNL     1      42.508  37.354   6.849  1.00  0.00    -0.545 OA
ENDBRANCH   1   7
BRANCH   4  10
ATOM     10  O   UNL     1      45.568  40.713   9.246  1.00  0.00    -0.504 OA
ATOM     11  H   UNL     1      45.224  40.791  10.196  1.00  0.00     0.293 HD
ENDBRANCH   4  10
BRANCH   5  12
ATOM     12  O   UNL     1      43.565  43.299   5.649  1.00  0.00    -0.504 OA
ATOM     13  H   UNL     1      43.362  44.176   6.112  1.00  0.00     0.293 HD
ENDBRANCH   5  12
BRANCH   6  14
ATOM     14  O   UNL     1      45.301  43.147   7.859  1.00  0.00    -0.502 OA
ATOM     15  H   UNL     1      46.171  43.417   7.417  1.00  0.00     0.293 HD
ENDBRANCH   6  14
TORSDOF 4
ENDMDL
MODEL 7
REMARK VINA RESULT:    -4.860      2.302      4.841
REMARK INTER + INTRA:          -5.624
REMARK INTER:                  -5.571
REMARK INTRA:                  -0.053
REMARK UNBOUND:                -0.053
REMARK SMILES O=C([O-])c1cc(O)c(O)c(O)c1
REMARK SMILES IDX 4 1 5 2 12 3 6 4 10 5 8 6 2 7 1 8 3 9 7 10 11 12 9 14
REMARK H PARENT 7 11 11 13 9 15
REMARK Flexibility Score: inf
ROOT
ATOM      1  C   UNL     1      42.934  44.242   6.626  1.00  0.00     0.005 A 
ATOM      2  C   UNL     1      42.833  43.036   5.914  1.00  0.00     0.060 A 
ATOM      3  C   UNL     1      43.808  44.315   7.724  1.00  0.00     0.060 A 
ATOM      4  C   UNL     1      43.591  41.919   6.290  1.00  0.00     0.162 A 
ATOM      5  C   UNL     1      44.569  43.205   8.106  1.00  0.00     0.162 A 
ATOM      6  C   UNL     1      44.463  42.001   7.389  1.00  0.00     0.200 A 
ENDROOT
BRANCH   1   7
ATOM      7  C   UNL     1      42.130  45.418   6.223  1.00  0.00     0.072 C 
ATOM      8  O   UNL     1      42.325  46.542   6.758  1.00  0.00    -0.545 OA
ATOM      9  O   UNL     1      41.147  45.298   5.248  1.00  0.00    -0.545 OA
ENDBRANCH   1   7
BRANCH   4  10
ATOM     10  O   UNL     1      43.482  40.727   5.575  1.00  0.00    -0.504 OA
ATOM     11  H   UNL     1      42.838  40.631   4.798  1.00  0.00     0.293 HD
ENDBRANCH   4  10
BRANCH   5  12
ATOM     12  O   UNL     1      45.424  43.318   9.201  1.00  0.00    -0.504 OA
ATOM     13  H   UNL     1      45.090  43.255  10.155  1.00  0.00     0.293 HD
ENDBRANCH   5  12
BRANCH   6  14
ATOM     14  O   UNL     1      45.225  40.898   7.777  1.00  0.00    -0.502 OA
ATOM     15  H   UNL     1      45.211  40.024   7.265  1.00  0.00     0.293 HD
ENDBRANCH   6  14
TORSDOF 4
ENDMDL
MODEL 8
REMARK VINA RESULT:    -4.849     10.380     12.045
REMARK INTER + INTRA:          -5.610
REMARK INTER:                  -5.564
REMARK INTRA:                  -0.047
REMARK UNBOUND:                -0.053
REMARK SMILES O=C([O-])c1cc(O)c(O)c(O)c1
REMARK SMILES IDX 4 1 5 2 12 3 6 4 10 5 8 6 2 7 1 8 3 9 7 10 11 12 9 14
REMARK H PARENT 7 11 11 13 9 15
REMARK Flexibility Score: inf
ROOT
ATOM      1  C   UNL     1      53.192  45.719  11.425  1.00  0.00     0.005 A 
ATOM      2  C   UNL     1      53.691  46.514  12.469  1.00  0.00     0.060 A 
ATOM      3  C   UNL     1      51.870  45.915  10.990  1.00  0.00     0.060 A 
ATOM      4  C   UNL     1      52.885  47.490  13.072  1.00  0.00     0.162 A 
ATOM      5  C   UNL     1      51.060  46.887  11.586  1.00  0.00     0.162 A 
ATOM      6  C   UNL     1      51.565  47.680  12.630  1.00  0.00     0.200 A 
ENDROOT
BRANCH   1   7
ATOM      7  C   UNL     1      54.048  44.690  10.795  1.00  0.00     0.072 C 
ATOM      8  O   UNL     1      54.288  44.724   9.559  1.00  0.00    -0.545 OA
ATOM      9  O   UNL     1      54.602  43.669  11.559  1.00  0.00    -0.545 OA
ENDBRANCH   1   7
BRANCH   4  10
ATOM     10  O   UNL     1      53.392  48.273  14.107  1.00  0.00    -0.504 OA
ATOM     11  H   UNL     1      53.229  48.040  15.079  1.00  0.00     0.293 HD
ENDBRANCH   4  10
BRANCH   5  12
ATOM     12  O   UNL     1      49.753  47.050  11.125  1.00  0.00    -0.504 OA
ATOM     13  H   UNL     1      49.525  47.047  10.138  1.00  0.00     0.293 HD
ENDBRANCH   5  12
BRANCH   6  14
ATOM     14  O   UNL     1      50.749  48.647  13.218  1.00  0.00    -0.502 OA
ATOM     15  H   UNL     1      50.793  49.624  12.955  1.00  0.00     0.293 HD
ENDBRANCH   6  14
TORSDOF 4
ENDMDL
MODEL 9
REMARK VINA RESULT:    -4.735     10.682     11.767
REMARK INTER + INTRA:          -5.479
REMARK INTER:                  -5.431
REMARK INTRA:                  -0.048
REMARK UNBOUND:                -0.053
REMARK SMILES O=C([O-])c1cc(O)c(O)c(O)c1
REMARK SMILES IDX 4 1 5 2 12 3 6 4 10 5 8 6 2 7 1 8 3 9 7 10 11 12 9 14
REMARK H PARENT 7 11 11 13 9 15
REMARK Flexibility Score: inf
ROOT
ATOM      1  C   UNL     1      53.144  45.790  11.247  1.00  0.00     0.005 A 
ATOM      2  C   UNL     1      52.015  46.277  10.568  1.00  0.00     0.060 A 
ATOM      3  C   UNL     1      53.549  46.419  12.436  1.00  0.00     0.060 A 
ATOM      4  C   UNL     1      51.301  47.375  11.066  1.00  0.00     0.162 A 
ATOM      5  C   UNL     1      52.841  47.515  12.941  1.00  0.00     0.162 A 
ATOM      6  C   UNL     1      51.713  47.998  12.257  1.00  0.00     0.200 A 
ENDROOT
BRANCH   1   7
ATOM      7  C   UNL     1      53.894  44.630  10.714  1.00  0.00     0.072 C 
ATOM      8  O   UNL     1      54.255  43.695  11.476  1.00  0.00    -0.545 OA
ATOM      9  O   UNL     1      54.210  44.556   9.363  1.00  0.00    -0.545 OA
ENDBRANCH   1   7
BRANCH   4  10
ATOM     10  O   UNL     1      50.182  47.849  10.384  1.00  0.00    -0.504 OA
ATOM     11  H   UNL     1      50.058  47.688   9.391  1.00  0.00     0.293 HD
ENDBRANCH   4  10
BRANCH   5  12
ATOM     12  O   UNL     1      53.276  48.111  14.124  1.00  0.00    -0.504 OA
ATOM     13  H   UNL     1      53.246  49.114  14.265  1.00  0.00     0.293 HD
ENDBRANCH   5  12
BRANCH   6  14
ATOM     14  O   UNL     1      51.014  49.092  12.767  1.00  0.00    -0.502 OA
ATOM     15  H   UNL     1      50.007  49.085  12.880  1.00  0.00     0.293 HD
ENDBRANCH   6  14
TORSDOF 4
ENDMDL
