MODEL 1
REMARK VINA RESULT:    -3.611      0.000      0.000
REMARK INTER + INTRA:          -8.343
REMARK INTER:                  -6.356
REMARK INTRA:                  -1.988
REMARK UNBOUND:                -1.988
REMARK SMILES CCCCCCCCCCCCCCC(=O)[O-]
REMARK SMILES IDX 9 1 10 2 11 3 12 4 13 5 14 6 15 7 16 8 17 9 8 10 7 11 6 12
REMARK SMILES IDX 5 13 4 14 3 15 2 16 1 17
REMARK H PARENT
REMARK Flexibility Score: inf
ROOT
ATOM      1  C   UNL     1     143.891 128.471 118.482  1.00  0.00     0.000 C 
ENDROOT
BRANCH   1   2
ATOM      2  C   UNL     1     142.615 127.638 118.279  1.00  0.00     0.000 C 
BRANCH   2   3
ATOM      3  C   UNL     1     142.369 127.278 116.806  1.00  0.00     0.000 C 
BRANCH   3   4
ATOM      4  C   UNL     1     140.910 127.548 116.411  1.00  0.00     0.000 C 
BRANCH   4   5
ATOM      5  C   UNL     1     140.667 127.450 114.894  1.00  0.00     0.006 C 
BRANCH   5   6
ATOM      6  C   UNL     1     139.823 128.603 114.320  1.00  0.00     0.053 C 
BRANCH   6   7
ATOM      7  C   UNL     1     138.354 128.416 114.552  1.00  0.00     0.041 C 
ATOM      8  O   UNL     1     137.638 129.388 114.911  1.00  0.00    -0.550 OA
ATOM      9  O   UNL     1     137.781 127.159 114.405  1.00  0.00    -0.550 OA
ENDBRANCH   6   7
ENDBRANCH   5   6
ENDBRANCH   4   5
ENDBRANCH   3   4
ENDBRANCH   2   3
ENDBRANCH   1   2
BRANCH   1  10
ATOM     10  C   UNL     1     145.039 127.657 119.096  1.00  0.00     0.000 C 
BRANCH  10  11
ATOM     11  C   UNL     1     145.842 126.933 118.005  1.00  0.00    -0.000 C 
BRANCH  11  12
ATOM     12  C   UNL     1     146.020 127.785 116.739  1.00  0.00    -0.000 C 
BRANCH  12  13
ATOM     13  C   UNL     1     145.900 126.959 115.448  1.00  0.00    -0.000 C 
BRANCH  13  14
ATOM     14  C   UNL     1     145.071 127.666 114.361  1.00  0.00    -0.000 C 
BRANCH  14  15
ATOM     15  C   UNL     1     145.027 129.200 114.519  1.00  0.00    -0.000 C 
BRANCH  15  16
ATOM     16  C   UNL     1     143.596 129.751 114.457  1.00  0.00    -0.003 C 
ATOM     17  C   UNL     1     143.333 130.735 115.594  1.00  0.00     0.004 C 
ENDBRANCH  15  16
ENDBRANCH  14  15
ENDBRANCH  13  14
ENDBRANCH  12  13
ENDBRANCH  11  12
ENDBRANCH  10  11
ENDBRANCH   1  10
TORSDOF 13
ENDMDL
MODEL 2
REMARK VINA RESULT:    -3.602      4.505      6.023
REMARK INTER + INTRA:          -8.328
REMARK INTER:                  -7.005
REMARK INTRA:                  -1.323
REMARK UNBOUND:                -1.988
REMARK SMILES CCCCCCCCCCCCCCC(=O)[O-]
REMARK SMILES IDX 9 1 10 2 11 3 12 4 13 5 14 6 15 7 16 8 17 9 8 10 7 11 6 12
REMARK SMILES IDX 5 13 4 14 3 15 2 16 1 17
REMARK H PARENT
REMARK Flexibility Score: inf
ROOT
ATOM      1  C   UNL     1     145.256 129.041 114.523  1.00  0.00     0.000 C 
ENDROOT
BRANCH   1   2
ATOM      2  C   UNL     1     144.509 127.775 114.971  1.00  0.00     0.000 C 
BRANCH   2   3
ATOM      3  C   UNL     1     143.012 128.022 115.208  1.00  0.00     0.000 C 
BRANCH   3   4
ATOM      4  C   UNL     1     142.602 127.601 116.626  1.00  0.00     0.000 C 
BRANCH   4   5
ATOM      5  C   UNL     1     143.764 126.995 117.436  1.00  0.00     0.006 C 
BRANCH   5   6
ATOM      6  C   UNL     1     144.165 127.824 118.670  1.00  0.00     0.053 C 
BRANCH   6   7
ATOM      7  C   UNL     1     145.625 127.714 118.992  1.00  0.00     0.041 C 
ATOM      8  O   UNL     1     146.406 127.116 118.205  1.00  0.00    -0.550 OA
ATOM      9  O   UNL     1     146.117 128.242 120.179  1.00  0.00    -0.550 OA
ENDBRANCH   6   7
ENDBRANCH   5   6
ENDBRANCH   4   5
ENDBRANCH   3   4
ENDBRANCH   2   3
ENDBRANCH   1   2
BRANCH   1  10
ATOM     10  C   UNL     1     146.151 129.623 115.627  1.00  0.00     0.000 C 
BRANCH  10  11
ATOM     11  C   UNL     1     145.357 130.575 116.533  1.00  0.00    -0.000 C 
BRANCH  11  12
ATOM     12  C   UNL     1     144.982 131.887 115.826  1.00  0.00    -0.000 C 
BRANCH  12  13
ATOM     13  C   UNL     1     146.163 132.868 115.732  1.00  0.00    -0.000 C 
BRANCH  13  14
ATOM     14  C   UNL     1     145.775 134.308 116.108  1.00  0.00    -0.000 C 
BRANCH  14  15
ATOM     15  C   UNL     1     146.660 135.380 115.440  1.00  0.00    -0.000 C 
BRANCH  15  16
ATOM     16  C   UNL     1     146.593 135.320 113.907  1.00  0.00    -0.003 C 
ATOM     17  C   UNL     1     145.345 136.022 113.381  1.00  0.00     0.004 C 
ENDBRANCH  15  16
ENDBRANCH  14  15
ENDBRANCH  13  14
ENDBRANCH  12  13
ENDBRANCH  11  12
ENDBRANCH  10  11
ENDBRANCH   1  10
TORSDOF 13
ENDMDL
MODEL 3
REMARK VINA RESULT:    -3.587      1.540      3.595
REMARK INTER + INTRA:          -8.301
REMARK INTER:                  -5.771
REMARK INTRA:                  -2.530
REMARK UNBOUND:                -1.988
REMARK SMILES CCCCCCCCCCCCCCC(=O)[O-]
REMARK SMILES IDX 9 1 10 2 11 3 12 4 13 5 14 6 15 7 16 8 17 9 8 10 7 11 6 12
REMARK SMILES IDX 5 13 4 14 3 15 2 16 1 17
REMARK H PARENT
REMARK Flexibility Score: inf
ROOT
ATOM      1  C   UNL     1     145.943 129.943 115.531  1.00  0.00     0.000 C 
ENDROOT
BRANCH   1   2
ATOM      2  C   UNL     1     144.947 130.816 116.312  1.00  0.00     0.000 C 
BRANCH   2   3
ATOM      3  C   UNL     1     143.629 131.035 115.555  1.00  0.00     0.000 C 
BRANCH   3   4
ATOM      4  C   UNL     1     142.444 131.122 116.527  1.00  0.00     0.000 C 
BRANCH   4   5
ATOM      5  C   UNL     1     141.088 130.837 115.855  1.00  0.00     0.006 C 
BRANCH   5   6
ATOM      6  C   UNL     1     141.204 130.296 114.418  1.00  0.00     0.053 C 
BRANCH   6   7
ATOM      7  C   UNL     1     139.996 129.517 113.993  1.00  0.00     0.041 C 
ATOM      8  O   UNL     1     139.066 130.082 113.358  1.00  0.00    -0.550 OA
ATOM      9  O   UNL     1     139.880 128.174 114.329  1.00  0.00    -0.550 OA
ENDBRANCH   6   7
ENDBRANCH   5   6
ENDBRANCH   4   5
ENDBRANCH   3   4
ENDBRANCH   2   3
ENDBRANCH   1   2
BRANCH   1  10
ATOM     10  C   UNL     1     145.307 129.271 114.305  1.00  0.00     0.000 C 
BRANCH  10  11
ATOM     11  C   UNL     1     145.660 127.777 114.254  1.00  0.00    -0.000 C 
BRANCH  11  12
ATOM     12  C   UNL     1     144.770 126.928 115.174  1.00  0.00    -0.000 C 
BRANCH  12  13
ATOM     13  C   UNL     1     143.293 127.351 115.125  1.00  0.00    -0.000 C 
BRANCH  13  14
ATOM     14  C   UNL     1     142.663 127.488 116.522  1.00  0.00    -0.000 C 
BRANCH  14  15
ATOM     15  C   UNL     1     143.625 127.121 117.671  1.00  0.00    -0.000 C 
BRANCH  15  16
ATOM     16  C   UNL     1     143.760 128.251 118.701  1.00  0.00    -0.003 C 
ATOM     17  C   UNL     1     145.208 128.417 119.153  1.00  0.00     0.004 C 
ENDBRANCH  15  16
ENDBRANCH  14  15
ENDBRANCH  13  14
ENDBRANCH  12  13
ENDBRANCH  11  12
ENDBRANCH  10  11
ENDBRANCH   1  10
TORSDOF 13
ENDMDL
MODEL 4
REMARK VINA RESULT:    -3.560      1.316      3.109
REMARK INTER + INTRA:          -8.253
REMARK INTER:                  -6.435
REMARK INTRA:                  -1.818
REMARK UNBOUND:                -1.988
REMARK SMILES CCCCCCCCCCCCCCC(=O)[O-]
REMARK SMILES IDX 9 1 10 2 11 3 12 4 13 5 14 6 15 7 16 8 17 9 8 10 7 11 6 12
REMARK SMILES IDX 5 13 4 14 3 15 2 16 1 17
REMARK H PARENT
REMARK Flexibility Score: inf
ROOT
ATOM      1  C   UNL     1     142.895 128.974 115.174  1.00  0.00     0.000 C 
ENDROOT
BRANCH   1   2
ATOM      2  C   UNL     1     142.231 127.600 114.997  1.00  0.00     0.000 C 
BRANCH   2   3
ATOM      3  C   UNL     1     141.269 127.252 116.142  1.00  0.00     0.000 C 
BRANCH   3   4
ATOM      4  C   UNL     1     139.815 127.222 115.650  1.00  0.00     0.000 C 
BRANCH   4   5
ATOM      5  C   UNL     1     139.698 127.189 114.115  1.00  0.00     0.006 C 
BRANCH   5   6
ATOM      6  C   UNL     1     138.549 128.049 113.557  1.00  0.00     0.053 C 
BRANCH   6   7
ATOM      7  C   UNL     1     138.848 129.517 113.605  1.00  0.00     0.041 C 
ATOM      8  O   UNL     1     140.000 129.941 113.321  1.00  0.00    -0.550 OA
ATOM      9  O   UNL     1     137.864 130.415 113.999  1.00  0.00    -0.550 OA
ENDBRANCH   6   7
ENDBRANCH   5   6
ENDBRANCH   4   5
ENDBRANCH   3   4
ENDBRANCH   2   3
ENDBRANCH   1   2
BRANCH   1  10
ATOM     10  C   UNL     1     144.357 128.992 114.706  1.00  0.00     0.000 C 
BRANCH  10  11
ATOM     11  C   UNL     1     144.857 127.570 114.412  1.00  0.00    -0.000 C 
BRANCH  11  12
ATOM     12  C   UNL     1     146.013 127.149 115.333  1.00  0.00    -0.000 C 
BRANCH  12  13
ATOM     13  C   UNL     1     145.955 127.834 116.708  1.00  0.00    -0.000 C 
BRANCH  13  14
ATOM     14  C   UNL     1     145.532 126.876 117.835  1.00  0.00    -0.000 C 
BRANCH  14  15
ATOM     15  C   UNL     1     144.097 127.122 118.347  1.00  0.00    -0.000 C 
BRANCH  15  16
ATOM     16  C   UNL     1     144.026 128.288 119.343  1.00  0.00    -0.003 C 
ATOM     17  C   UNL     1     143.082 129.380 118.848  1.00  0.00     0.004 C 
ENDBRANCH  15  16
ENDBRANCH  14  15
ENDBRANCH  13  14
ENDBRANCH  12  13
ENDBRANCH  11  12
ENDBRANCH  10  11
ENDBRANCH   1  10
TORSDOF 13
ENDMDL
MODEL 5
REMARK VINA RESULT:    -3.556      4.002      6.329
REMARK INTER + INTRA:          -8.245
REMARK INTER:                  -6.162
REMARK INTRA:                  -2.083
REMARK UNBOUND:                -1.988
REMARK SMILES CCCCCCCCCCCCCCC(=O)[O-]
REMARK SMILES IDX 9 1 10 2 11 3 12 4 13 5 14 6 15 7 16 8 17 9 8 10 7 11 6 12
REMARK SMILES IDX 5 13 4 14 3 15 2 16 1 17
REMARK H PARENT
REMARK Flexibility Score: inf
ROOT
ATOM      1  C   UNL     1     145.327 129.519 115.035  1.00  0.00     0.000 C 
ENDROOT
BRANCH   1   2
ATOM      2  C   UNL     1     146.183 130.024 116.207  1.00  0.00     0.000 C 
BRANCH   2   3
ATOM      3  C   UNL     1     145.422 130.994 117.123  1.00  0.00     0.000 C 
BRANCH   3   4
ATOM      4  C   UNL     1     144.236 131.631 116.385  1.00  0.00     0.000 C 
BRANCH   4   5
ATOM      5  C   UNL     1     144.341 133.164 116.281  1.00  0.00     0.006 C 
BRANCH   5   6
ATOM      6  C   UNL     1     145.761 133.674 115.980  1.00  0.00     0.053 C 
BRANCH   6   7
ATOM      7  C   UNL     1     145.774 134.801 114.991  1.00  0.00     0.041 C 
ATOM      8  O   UNL     1     144.895 135.701 115.042  1.00  0.00    -0.550 OA
ATOM      9  O   UNL     1     146.737 134.838 113.991  1.00  0.00    -0.550 OA
ENDBRANCH   6   7
ENDBRANCH   5   6
ENDBRANCH   4   5
ENDBRANCH   3   4
ENDBRANCH   2   3
ENDBRANCH   1   2
BRANCH   1  10
ATOM     10  C   UNL     1     145.561 128.033 114.726  1.00  0.00     0.000 C 
BRANCH  10  11
ATOM     11  C   UNL     1     144.239 127.251 114.756  1.00  0.00    -0.000 C 
BRANCH  11  12
ATOM     12  C   UNL     1     143.043 128.130 115.154  1.00  0.00    -0.000 C 
BRANCH  12  13
ATOM     13  C   UNL     1     142.273 127.572 116.362  1.00  0.00    -0.000 C 
BRANCH  13  14
ATOM     14  C   UNL     1     142.756 128.157 117.700  1.00  0.00    -0.000 C 
BRANCH  14  15
ATOM     15  C   UNL     1     143.555 127.155 118.560  1.00  0.00    -0.000 C 
BRANCH  15  16
ATOM     16  C   UNL     1     144.966 127.665 118.888  1.00  0.00    -0.003 C 
ATOM     17  C   UNL     1     146.029 126.875 118.130  1.00  0.00     0.004 C 
ENDBRANCH  15  16
ENDBRANCH  14  15
ENDBRANCH  13  14
ENDBRANCH  12  13
ENDBRANCH  11  12
ENDBRANCH  10  11
ENDBRANCH   1  10
TORSDOF 13
ENDMDL
MODEL 6
REMARK VINA RESULT:    -3.537      3.286      5.764
REMARK INTER + INTRA:          -8.212
REMARK INTER:                  -6.247
REMARK INTRA:                  -1.964
REMARK UNBOUND:                -1.988
REMARK SMILES CCCCCCCCCCCCCCC(=O)[O-]
REMARK SMILES IDX 9 1 10 2 11 3 12 4 13 5 14 6 15 7 16 8 17 9 8 10 7 11 6 12
REMARK SMILES IDX 5 13 4 14 3 15 2 16 1 17
REMARK H PARENT
REMARK Flexibility Score: inf
ROOT
ATOM      1  C   UNL     1     144.527 129.502 114.441  1.00  0.00     0.000 C 
ENDROOT
BRANCH   1   2
ATOM      2  C   UNL     1     145.632 128.437 114.363  1.00  0.00     0.000 C 
BRANCH   2   3
ATOM      3  C   UNL     1     145.385 127.256 115.314  1.00  0.00     0.000 C 
BRANCH   3   4
ATOM      4  C   UNL     1     143.927 127.232 115.795  1.00  0.00     0.000 C 
BRANCH   4   5
ATOM      5  C   UNL     1     143.797 127.234 117.329  1.00  0.00     0.006 C 
BRANCH   5   6
ATOM      6  C   UNL     1     145.145 127.272 118.071  1.00  0.00     0.053 C 
BRANCH   6   7
ATOM      7  C   UNL     1     145.273 128.458 118.978  1.00  0.00     0.041 C 
ATOM      8  O   UNL     1     146.128 128.462 119.904  1.00  0.00    -0.550 OA
ATOM      9  O   UNL     1     144.425 129.547 118.824  1.00  0.00    -0.550 OA
ENDBRANCH   6   7
ENDBRANCH   5   6
ENDBRANCH   4   5
ENDBRANCH   3   4
ENDBRANCH   2   3
ENDBRANCH   1   2
BRANCH   1  10
ATOM     10  C   UNL     1     144.845 130.614 115.451  1.00  0.00     0.000 C 
BRANCH  10  11
ATOM     11  C   UNL     1     143.566 131.346 115.883  1.00  0.00    -0.000 C 
BRANCH  11  12
ATOM     12  C   UNL     1     142.289 130.603 115.461  1.00  0.00    -0.000 C 
BRANCH  12  13
ATOM     13  C   UNL     1     141.494 130.062 116.661  1.00  0.00    -0.000 C 
BRANCH  13  14
ATOM     14  C   UNL     1     140.562 128.898 116.284  1.00  0.00    -0.000 C 
BRANCH  14  15
ATOM     15  C   UNL     1     140.660 128.483 114.801  1.00  0.00    -0.000 C 
BRANCH  15  16
ATOM     16  C   UNL     1     140.126 127.064 114.557  1.00  0.00    -0.003 C 
ATOM     17  C   UNL     1     138.970 127.073 113.561  1.00  0.00     0.004 C 
ENDBRANCH  15  16
ENDBRANCH  14  15
ENDBRANCH  13  14
ENDBRANCH  12  13
ENDBRANCH  11  12
ENDBRANCH  10  11
ENDBRANCH   1  10
TORSDOF 13
ENDMDL
MODEL 7
REMARK VINA RESULT:    -3.525     10.617     14.548
REMARK INTER + INTRA:          -8.191
REMARK INTER:                  -6.576
REMARK INTRA:                  -1.615
REMARK UNBOUND:                -1.988
REMARK SMILES CCCCCCCCCCCCCCC(=O)[O-]
REMARK SMILES IDX 9 1 10 2 11 3 12 4 13 5 14 6 15 7 16 8 17 9 8 10 7 11 6 12
REMARK SMILES IDX 5 13 4 14 3 15 2 16 1 17
REMARK H PARENT
REMARK Flexibility Score: inf
ROOT
ATOM      1  C   UNL     1     129.356 133.372 114.761  1.00  0.00     0.000 C 
ENDROOT
BRANCH   1   2
ATOM      2  C   UNL     1     127.885 133.635 115.120  1.00  0.00     0.000 C 
BRANCH   2   3
ATOM      3  C   UNL     1     127.690 133.993 116.601  1.00  0.00     0.000 C 
BRANCH   3   4
ATOM      4  C   UNL     1     128.548 133.094 117.501  1.00  0.00     0.000 C 
BRANCH   4   5
ATOM      5  C   UNL     1     127.849 131.777 117.884  1.00  0.00     0.006 C 
BRANCH   5   6
ATOM      6  C   UNL     1     128.783 130.737 118.528  1.00  0.00     0.053 C 
BRANCH   6   7
ATOM      7  C   UNL     1     128.277 130.244 119.851  1.00  0.00     0.041 C 
ATOM      8  O   UNL     1     129.061 130.134 120.831  1.00  0.00    -0.550 OA
ATOM      9  O   UNL     1     126.946 129.874 119.992  1.00  0.00    -0.550 OA
ENDBRANCH   6   7
ENDBRANCH   5   6
ENDBRANCH   4   5
ENDBRANCH   3   4
ENDBRANCH   2   3
ENDBRANCH   1   2
BRANCH   1  10
ATOM     10  C   UNL     1     129.571 131.998 114.110  1.00  0.00     0.000 C 
BRANCH  10  11
ATOM     11  C   UNL     1     128.255 131.208 114.048  1.00  0.00    -0.000 C 
BRANCH  11  12
ATOM     12  C   UNL     1     128.335 129.868 114.795  1.00  0.00    -0.000 C 
BRANCH  12  13
ATOM     13  C   UNL     1     129.776 129.482 115.167  1.00  0.00    -0.000 C 
BRANCH  13  14
ATOM     14  C   UNL     1     129.888 128.049 115.717  1.00  0.00    -0.000 C 
BRANCH  14  15
ATOM     15  C   UNL     1     130.731 127.111 114.827  1.00  0.00    -0.000 C 
BRANCH  15  16
ATOM     16  C   UNL     1     132.106 127.706 114.492  1.00  0.00    -0.003 C 
ATOM     17  C   UNL     1     133.128 127.379 115.576  1.00  0.00     0.004 C 
ENDBRANCH  15  16
ENDBRANCH  14  15
ENDBRANCH  13  14
ENDBRANCH  12  13
ENDBRANCH  11  12
ENDBRANCH  10  11
ENDBRANCH   1  10
TORSDOF 13
ENDMDL
MODEL 8
REMARK VINA RESULT:    -3.509      1.736      2.980
REMARK INTER + INTRA:          -8.163
REMARK INTER:                  -6.366
REMARK INTRA:                  -1.797
REMARK UNBOUND:                -1.988
REMARK SMILES CCCCCCCCCCCCCCC(=O)[O-]
REMARK SMILES IDX 9 1 10 2 11 3 12 4 13 5 14 6 15 7 16 8 17 9 8 10 7 11 6 12
REMARK SMILES IDX 5 13 4 14 3 15 2 16 1 17
REMARK H PARENT
REMARK Flexibility Score: inf
ROOT
ATOM      1  C   UNL     1     144.293 128.349 114.644  1.00  0.00     0.000 C 
ENDROOT
BRANCH   1   2
ATOM      2  C   UNL     1     142.843 128.609 115.081  1.00  0.00     0.000 C 
BRANCH   2   3
ATOM      3  C   UNL     1     142.168 127.362 115.672  1.00  0.00     0.000 C 
BRANCH   3   4
ATOM      4  C   UNL     1     140.853 127.052 114.944  1.00  0.00     0.000 C 
BRANCH   4   5
ATOM      5  C   UNL     1     139.852 128.222 114.980  1.00  0.00     0.006 C 
BRANCH   5   6
ATOM      6  C   UNL     1     139.270 128.588 113.603  1.00  0.00     0.053 C 
BRANCH   6   7
ATOM      7  C   UNL     1     139.279 130.065 113.345  1.00  0.00     0.041 C 
ATOM      8  O   UNL     1     140.317 130.628 112.907  1.00  0.00    -0.550 OA
ATOM      9  O   UNL     1     138.151 130.827 113.621  1.00  0.00    -0.550 OA
ENDBRANCH   6   7
ENDBRANCH   5   6
ENDBRANCH   4   5
ENDBRANCH   3   4
ENDBRANCH   2   3
ENDBRANCH   1   2
BRANCH   1  10
ATOM     10  C   UNL     1     144.913 127.130 115.341  1.00  0.00     0.000 C 
BRANCH  10  11
ATOM     11  C   UNL     1     145.837 127.564 116.488  1.00  0.00    -0.000 C 
BRANCH  11  12
ATOM     12  C   UNL     1     145.243 127.261 117.872  1.00  0.00    -0.000 C 
BRANCH  12  13
ATOM     13  C   UNL     1     145.220 128.494 118.790  1.00  0.00    -0.000 C 
BRANCH  13  14
ATOM     14  C   UNL     1     144.385 129.651 118.215  1.00  0.00    -0.000 C 
BRANCH  14  15
ATOM     15  C   UNL     1     145.207 130.927 117.938  1.00  0.00    -0.000 C 
BRANCH  15  16
ATOM     16  C   UNL     1     145.208 131.307 116.450  1.00  0.00    -0.003 C 
ATOM     17  C   UNL     1     146.597 131.143 115.840  1.00  0.00     0.004 C 
ENDBRANCH  15  16
ENDBRANCH  14  15
ENDBRANCH  13  14
ENDBRANCH  12  13
ENDBRANCH  11  12
ENDBRANCH  10  11
ENDBRANCH   1  10
TORSDOF 13
ENDMDL
MODEL 9
REMARK VINA RESULT:    -3.487      1.486      3.012
REMARK INTER + INTRA:          -8.125
REMARK INTER:                  -6.083
REMARK INTRA:                  -2.042
REMARK UNBOUND:                -1.988
REMARK SMILES CCCCCCCCCCCCCCC(=O)[O-]
REMARK SMILES IDX 9 1 10 2 11 3 12 4 13 5 14 6 15 7 16 8 17 9 8 10 7 11 6 12
REMARK SMILES IDX 5 13 4 14 3 15 2 16 1 17
REMARK H PARENT
REMARK Flexibility Score: inf
ROOT
ATOM      1  C   UNL     1     143.381 131.182 117.089  1.00  0.00     0.000 C 
ENDROOT
BRANCH   1   2
ATOM      2  C   UNL     1     142.334 130.075 116.888  1.00  0.00     0.000 C 
BRANCH   2   3
ATOM      3  C   UNL     1     141.267 130.448 115.848  1.00  0.00     0.000 C 
BRANCH   3   4
ATOM      4  C   UNL     1     141.229 129.421 114.707  1.00  0.00     0.000 C 
BRANCH   4   5
ATOM      5  C   UNL     1     141.748 128.033 115.125  1.00  0.00     0.006 C 
BRANCH   5   6
ATOM      6  C   UNL     1     140.805 126.875 114.753  1.00  0.00     0.053 C 
BRANCH   6   7
ATOM      7  C   UNL     1     139.358 127.250 114.857  1.00  0.00     0.041 C 
ATOM      8  O   UNL     1     138.672 127.435 113.817  1.00  0.00    -0.550 OA
ATOM      9  O   UNL     1     138.774 127.430 116.105  1.00  0.00    -0.550 OA
ENDBRANCH   6   7
ENDBRANCH   5   6
ENDBRANCH   4   5
ENDBRANCH   3   4
ENDBRANCH   2   3
ENDBRANCH   1   2
BRANCH   1  10
ATOM     10  C   UNL     1     144.252 131.407 115.844  1.00  0.00     0.000 C 
BRANCH  10  11
ATOM     11  C   UNL     1     145.720 131.063 116.132  1.00  0.00    -0.000 C 
BRANCH  11  12
ATOM     12  C   UNL     1     146.268 129.979 115.190  1.00  0.00    -0.000 C 
BRANCH  12  13
ATOM     13  C   UNL     1     145.155 129.160 114.517  1.00  0.00    -0.000 C 
BRANCH  13  14
ATOM     14  C   UNL     1     145.513 127.671 114.369  1.00  0.00    -0.000 C 
BRANCH  14  15
ATOM     15  C   UNL     1     145.930 127.002 115.695  1.00  0.00    -0.000 C 
BRANCH  15  16
ATOM     16  C   UNL     1     144.845 127.122 116.775  1.00  0.00    -0.003 C 
ATOM     17  C   UNL     1     145.407 127.732 118.055  1.00  0.00     0.004 C 
ENDBRANCH  15  16
ENDBRANCH  14  15
ENDBRANCH  13  14
ENDBRANCH  12  13
ENDBRANCH  11  12
ENDBRANCH  10  11
ENDBRANCH   1  10
TORSDOF 13
ENDMDL
