MODEL 1
REMARK VINA RESULT:    -0.641      0.000      0.000
REMARK INTER + INTRA:          -1.169
REMARK INTER:                  -1.053
REMARK INTRA:                  -0.116
REMARK UNBOUND:                -0.116
REMARK SMILES C[C@H]1O[C@H](OC[C@@H]2O[C@@H](Oc3c(-c4ccc(O)c(O)c4)oc4cc(O)cc(O)c4c3=O)[C@@H](O)[C@@H](O)[C@@H]2O)[C@@H](O)[C@H](O)[C@H]1O
REMARK SMILES IDX 7 1 36 2 34 3 32 4 9 5 8 6 6 7 5 8 4 9 1 10 2 11 42 12 3 13
REMARK SMILES IDX 40 14 38 15 43 16 41 18 39 20 37 22 35 24 10 26 11 27 12 28
REMARK SMILES IDX 30 29 21 30 29 31 31 32 22 33 27 34 23 35 26 36 24 37 13 38
REMARK SMILES IDX 20 39 14 40 18 41 15 42 16 43 19 44 17 46 28 48 25 50 33 52
REMARK H PARENT 43 17 41 19 39 21 37 23 35 25 19 45 17 47 28 49 25 51 33 53
REMARK Flexibility Score: inf
ROOT
ATOM      1  C   UNL     1       4.186  33.910  86.531  1.00  0.00     0.180 C 
ATOM      2  C   UNL     1       4.731  33.335  87.855  1.00  0.00     0.177 C 
ATOM      3  C   UNL     1       3.893  32.088  88.202  1.00  0.00     0.180 C 
ATOM      4  C   UNL     1       2.395  32.469  88.234  1.00  0.00     0.214 C 
ATOM      5  C   UNL     1       1.985  33.232  86.955  1.00  0.00     0.339 C 
ATOM      6  O   UNL     1       2.842  34.339  86.707  1.00  0.00    -0.332 OA
ENDROOT
BRANCH   1   7
ATOM      7  C   UNL     1       5.032  35.086  86.013  1.00  0.00     0.198 C 
BRANCH   7   8
ATOM      8  O   UNL     1       6.144  35.319  86.851  1.00  0.00    -0.347 OA
BRANCH   8   9
ATOM      9  C   UNL     1       7.392  35.147  86.177  1.00  0.00     0.281 C 
ATOM     10  C   UNL     1       9.646  36.887  88.531  1.00  0.00     0.041 C 
ATOM     11  C   UNL     1       8.652  35.817  88.062  1.00  0.00     0.150 C 
ATOM     12  C   UNL     1       9.250  34.410  88.308  1.00  0.00     0.174 C 
ATOM     13  O   UNL     1       8.362  36.055  86.691  1.00  0.00    -0.344 OA
ATOM     14  C   UNL     1       8.352  33.305  87.716  1.00  0.00     0.179 C 
ATOM     15  C   UNL     1       7.880  33.666  86.289  1.00  0.00     0.202 C 
BRANCH  12  16
ATOM     16  O   UNL     1      10.538  34.316  87.744  1.00  0.00    -0.388 OA
ATOM     17  H   UNL     1      10.551  34.925  86.969  1.00  0.00     0.211 HD
ENDBRANCH  12  16
BRANCH  14  18
ATOM     18  O   UNL     1       7.274  33.007  88.576  1.00  0.00    -0.387 OA
ATOM     19  H   UNL     1       6.441  33.047  88.043  1.00  0.00     0.211 HD
ENDBRANCH  14  18
BRANCH  15  20
ATOM     20  O   UNL     1       8.904  33.388  85.359  1.00  0.00    -0.385 OA
ATOM     21  H   UNL     1       8.750  33.939  84.551  1.00  0.00     0.211 HD
ENDBRANCH  15  20
ENDBRANCH   8   9
ENDBRANCH   7   8
ENDBRANCH   1   7
BRANCH   2  22
ATOM     22  O   UNL     1       4.627  34.307  88.878  1.00  0.00    -0.387 OA
ATOM     23  H   UNL     1       3.896  34.931  88.607  1.00  0.00     0.211 HD
ENDBRANCH   2  22
BRANCH   3  24
ATOM     24  O   UNL     1       4.140  31.089  87.237  1.00  0.00    -0.387 OA
ATOM     25  H   UNL     1       5.125  30.951  87.201  1.00  0.00     0.211 HD
ENDBRANCH   3  24
BRANCH   5  26
ATOM     26  O   UNL     1       1.924  32.345  85.829  1.00  0.00    -0.454 OA
BRANCH  26  27
ATOM     27  C   UNL     1       0.728  32.037  85.171  1.00  0.00     0.214 A 
ATOM     28  C   UNL     1       0.758  31.392  83.928  1.00  0.00     0.180 A 
ATOM     29  C   UNL     1      -0.521  32.376  85.718  1.00  0.00     0.239 A 
ATOM     30  O   UNL     1      -0.368  31.067  83.304  1.00  0.00    -0.452 OA
ATOM     31  C   UNL     1      -1.698  32.040  85.019  1.00  0.00     0.111 A 
ATOM     32  O   UNL     1      -0.572  32.995  86.813  1.00  0.00    -0.285 OA
ATOM     33  C   UNL     1      -1.570  31.347  83.797  1.00  0.00     0.146 A 
ATOM     34  C   UNL     1      -2.991  32.374  85.486  1.00  0.00     0.134 A 
ATOM     35  C   UNL     1      -2.704  30.951  83.083  1.00  0.00     0.094 A 
ATOM     36  C   UNL     1      -4.120  31.976  84.755  1.00  0.00     0.093 A 
ATOM     37  C   UNL     1      -3.980  31.259  83.565  1.00  0.00     0.123 A 
BRANCH  28  38
ATOM     38  C   UNL     1       2.027  31.076  83.260  1.00  0.00     0.025 A 
ATOM     39  C   UNL     1       3.218  31.145  83.990  1.00  0.00     0.062 A 
ATOM     40  C   UNL     1       2.067  30.952  81.866  1.00  0.00     0.016 A 
ATOM     41  C   UNL     1       4.453  31.054  83.331  1.00  0.00     0.158 A 
ATOM     42  C   UNL     1       3.295  30.877  81.201  1.00  0.00     0.051 A 
ATOM     43  C   UNL     1       4.487  30.919  81.932  1.00  0.00     0.157 A 
BRANCH  41  44
ATOM     44  O   UNL     1       5.641  31.160  84.046  1.00  0.00    -0.504 OA
ATOM     45  H   UNL     1       5.755  31.852  84.785  1.00  0.00     0.293 HD
ENDBRANCH  41  44
BRANCH  43  46
ATOM     46  O   UNL     1       5.701  30.878  81.243  1.00  0.00    -0.504 OA
ATOM     47  H   UNL     1       6.094  29.996  80.912  1.00  0.00     0.293 HD
ENDBRANCH  43  46
ENDBRANCH  28  38
BRANCH  34  48
ATOM     48  O   UNL     1      -3.159  33.103  86.664  1.00  0.00    -0.507 OA
ATOM     49  H   UNL     1      -3.965  33.691  86.828  1.00  0.00     0.293 HD
ENDBRANCH  34  48
BRANCH  37  50
ATOM     50  O   UNL     1      -5.123  30.877  82.859  1.00  0.00    -0.508 OA
ATOM     51  H   UNL     1      -5.064  30.324  82.017  1.00  0.00     0.293 HD
ENDBRANCH  37  50
ENDBRANCH  26  27
ENDBRANCH   5  26
BRANCH   4  52
ATOM     52  O   UNL     1       1.612  31.314  88.400  1.00  0.00    -0.384 OA
ATOM     53  H   UNL     1       2.215  30.532  88.262  1.00  0.00     0.211 HD
ENDBRANCH   4  52
TORSDOF 16
ENDMDL
MODEL 2
REMARK VINA RESULT:     1.103      6.284     10.096
REMARK INTER + INTRA:           1.696
REMARK INTER:                   2.669
REMARK INTRA:                  -0.974
REMARK UNBOUND:                -0.116
REMARK SMILES C[C@H]1O[C@H](OC[C@@H]2O[C@@H](Oc3c(-c4ccc(O)c(O)c4)oc4cc(O)cc(O)c4c3=O)[C@@H](O)[C@@H](O)[C@@H]2O)[C@@H](O)[C@H](O)[C@H]1O
REMARK SMILES IDX 7 1 36 2 34 3 32 4 9 5 8 6 6 7 5 8 4 9 1 10 2 11 42 12 3 13
REMARK SMILES IDX 40 14 38 15 43 16 41 18 39 20 37 22 35 24 10 26 11 27 12 28
REMARK SMILES IDX 30 29 21 30 29 31 31 32 22 33 27 34 23 35 26 36 24 37 13 38
REMARK SMILES IDX 20 39 14 40 18 41 15 42 16 43 19 44 17 46 28 48 25 50 33 52
REMARK H PARENT 43 17 41 19 39 21 37 23 35 25 19 45 17 47 28 49 25 51 33 53
REMARK Flexibility Score: inf
ROOT
ATOM      1  C   UNL     1      -3.767  32.823  81.902  1.00  0.00     0.180 C 
ATOM      2  C   UNL     1      -3.938  31.299  81.731  1.00  0.00     0.177 C 
ATOM      3  C   UNL     1      -4.003  31.004  80.219  1.00  0.00     0.180 C 
ATOM      4  C   UNL     1      -5.125  31.853  79.579  1.00  0.00     0.214 C 
ATOM      5  C   UNL     1      -4.997  33.341  79.979  1.00  0.00     0.339 C 
ATOM      6  O   UNL     1      -4.907  33.498  81.388  1.00  0.00    -0.332 OA
ENDROOT
BRANCH   1   7
ATOM      7  C   UNL     1      -3.557  33.226  83.373  1.00  0.00     0.198 C 
BRANCH   7   8
ATOM      8  O   UNL     1      -2.460  32.537  83.935  1.00  0.00    -0.347 OA
BRANCH   8   9
ATOM      9  C   UNL     1      -1.818  33.276  84.976  1.00  0.00     0.281 C 
ATOM     10  C   UNL     1      -2.208  30.910  87.786  1.00  0.00     0.041 C 
ATOM     11  C   UNL     1      -1.718  31.407  86.420  1.00  0.00     0.150 C 
ATOM     12  C   UNL     1      -0.176  31.284  86.346  1.00  0.00     0.174 C 
ATOM     13  O   UNL     1      -2.169  32.744  86.250  1.00  0.00    -0.344 OA
ATOM     14  C   UNL     1       0.376  31.910  85.049  1.00  0.00     0.179 C 
ATOM     15  C   UNL     1      -0.268  33.287  84.768  1.00  0.00     0.202 C 
BRANCH  12  16
ATOM     16  O   UNL     1       0.422  31.909  87.457  1.00  0.00    -0.388 OA
ATOM     17  H   UNL     1       0.497  32.867  87.236  1.00  0.00     0.211 HD
ENDBRANCH  12  16
BRANCH  14  18
ATOM     18  O   UNL     1       0.244  31.026  83.957  1.00  0.00    -0.387 OA
ATOM     19  H   UNL     1      -0.192  30.201  84.286  1.00  0.00     0.211 HD
ENDBRANCH  14  18
BRANCH  15  20
ATOM     20  O   UNL     1       0.352  34.278  85.559  1.00  0.00    -0.385 OA
ATOM     21  H   UNL     1       0.245  34.028  86.511  1.00  0.00     0.211 HD
ENDBRANCH  15  20
ENDBRANCH   8   9
ENDBRANCH   7   8
ENDBRANCH   1   7
BRANCH   2  22
ATOM     22  O   UNL     1      -5.125  30.875  82.374  1.00  0.00    -0.387 OA
ATOM     23  H   UNL     1      -5.799  31.600  82.238  1.00  0.00     0.211 HD
ENDBRANCH   2  22
BRANCH   3  24
ATOM     24  O   UNL     1      -2.751  31.301  79.642  1.00  0.00    -0.387 OA
ATOM     25  H   UNL     1      -2.086  31.337  80.381  1.00  0.00     0.211 HD
ENDBRANCH   3  24
BRANCH   5  26
ATOM     26  O   UNL     1      -3.892  33.958  79.304  1.00  0.00    -0.454 OA
BRANCH  26  27
ATOM     27  C   UNL     1      -3.989  35.204  78.674  1.00  0.00     0.214 A 
ATOM     28  C   UNL     1      -4.088  35.278  77.278  1.00  0.00     0.180 A 
ATOM     29  C   UNL     1      -3.971  36.403  79.407  1.00  0.00     0.239 A 
ATOM     30  O   UNL     1      -4.209  36.450  76.667  1.00  0.00    -0.452 OA
ATOM     31  C   UNL     1      -4.076  37.632  78.726  1.00  0.00     0.111 A 
ATOM     32  O   UNL     1      -3.839  36.363  80.658  1.00  0.00    -0.285 OA
ATOM     33  C   UNL     1      -4.220  37.605  77.323  1.00  0.00     0.146 A 
ATOM     34  C   UNL     1      -4.034  38.882  79.388  1.00  0.00     0.134 A 
ATOM     35  C   UNL     1      -4.372  38.793  76.603  1.00  0.00     0.094 A 
ATOM     36  C   UNL     1      -4.180  40.066  78.650  1.00  0.00     0.093 A 
ATOM     37  C   UNL     1      -4.358  40.024  77.266  1.00  0.00     0.123 A 
BRANCH  28  38
ATOM     38  C   UNL     1      -4.035  34.072  76.442  1.00  0.00     0.025 A 
ATOM     39  C   UNL     1      -3.005  33.146  76.644  1.00  0.00     0.062 A 
ATOM     40  C   UNL     1      -4.850  33.975  75.308  1.00  0.00     0.016 A 
ATOM     41  C   UNL     1      -2.812  32.101  75.729  1.00  0.00     0.158 A 
ATOM     42  C   UNL     1      -4.651  32.945  74.384  1.00  0.00     0.051 A 
ATOM     43  C   UNL     1      -3.639  32.003  74.598  1.00  0.00     0.157 A 
BRANCH  41  44
ATOM     44  O   UNL     1      -1.766  31.200  75.903  1.00  0.00    -0.504 OA
ATOM     45  H   UNL     1      -0.869  31.495  76.284  1.00  0.00     0.293 HD
ENDBRANCH  41  44
BRANCH  43  46
ATOM     46  O   UNL     1      -3.438  31.004  73.643  1.00  0.00    -0.504 OA
ATOM     47  H   UNL     1      -3.319  30.027  73.914  1.00  0.00     0.293 HD
ENDBRANCH  43  46
ENDBRANCH  28  38
BRANCH  34  48
ATOM     48  O   UNL     1      -3.841  38.954  80.768  1.00  0.00    -0.507 OA
ATOM     49  H   UNL     1      -4.610  38.931  81.425  1.00  0.00     0.293 HD
ENDBRANCH  34  48
BRANCH  37  50
ATOM     50  O   UNL     1      -4.500  41.219  76.558  1.00  0.00    -0.508 OA
ATOM     51  H   UNL     1      -3.924  41.431  75.757  1.00  0.00     0.293 HD
ENDBRANCH  37  50
ENDBRANCH  26  27
ENDBRANCH   5  26
BRANCH   4  52
ATOM     52  O   UNL     1      -5.095  31.707  78.181  1.00  0.00    -0.384 OA
ATOM     53  H   UNL     1      -5.731  32.377  77.806  1.00  0.00     0.211 HD
ENDBRANCH   4  52
TORSDOF 16
ENDMDL
