MODEL 1
REMARK VINA RESULT:    -7.708      0.000      0.000
REMARK INTER + INTRA:          -8.710
REMARK INTER:                  -8.384
REMARK INTRA:                  -0.326
REMARK UNBOUND:                -0.326
REMARK SMILES C[C@H]1[C@H]2C3=CC[C@@H]4[C@]5(C)CC[C@H](O)C(C)(C)[C@H]5CC[C@]4(C)[C@@]3(C)CC[C@@]2(C(=O)[O-])CC[C@@H]1C
REMARK SMILES IDX 26 1 30 2 25 3 3 4 31 5 24 6 4 7 2 8 32 9 22 10 5 11 1 12
REMARK SMILES IDX 33 13 23 14 20 15 6 16 7 17 19 18 21 19 8 20 18 21 17 22
REMARK SMILES IDX 10 23 9 24 14 25 11 26 12 27 15 28 16 29 27 30 28 31 29 32
REMARK SMILES IDX 13 33
REMARK H PARENT 13 34
REMARK Flexibility Score: inf
ROOT
ATOM      1  C   UNL     1     -11.303  11.609 -25.410  1.00  0.00     0.017 C 
ATOM      2  C   UNL     1     -11.358  10.096 -25.052  1.00  0.00     0.014 C 
ATOM      3  C   UNL     1     -11.440  12.410 -24.097  1.00  0.00     0.014 C 
ATOM      4  C   UNL     1     -12.467  12.029 -26.397  1.00  0.00     0.030 C 
ATOM      5  C   UNL     1     -11.753   9.261 -26.263  1.00  0.00     0.004 C 
ATOM      6  C   UNL     1     -11.218  13.900 -24.325  1.00  0.00     0.013 C 
ATOM      7  C   UNL     1     -12.899  13.516 -26.274  1.00  0.00    -0.063 C 
ATOM      8  C   UNL     1     -13.673  11.009 -26.418  1.00  0.00    -0.003 C 
ATOM      9  C   UNL     1     -13.221   9.522 -26.644  1.00  0.00    -0.011 C 
ATOM     10  C   UNL     1     -12.183  14.568 -25.384  1.00  0.00    -0.006 C 
ATOM     11  C   UNL     1     -13.864  13.958 -27.104  1.00  0.00    -0.027 C 
ATOM     12  C   UNL     1     -14.622  11.131 -25.213  1.00  0.00     0.008 C 
ATOM     13  C   UNL     1     -13.462   9.073 -28.094  1.00  0.00     0.008 C 
ATOM     14  C   UNL     1     -11.243  15.380 -26.327  1.00  0.00     0.017 C 
ATOM     15  C   UNL     1     -13.286  15.524 -24.683  1.00  0.00    -0.020 C 
ATOM     16  C   UNL     1     -14.359  15.366 -27.096  1.00  0.00     0.032 C 
ATOM     17  C   UNL     1     -14.487  15.964 -25.666  1.00  0.00     0.006 C 
ATOM     18  C   UNL     1     -12.603  16.768 -24.006  1.00  0.00     0.008 C 
ATOM     19  C   UNL     1     -13.957  14.723 -23.517  1.00  0.00     0.012 C 
ATOM     20  C   UNL     1     -14.859  17.521 -25.650  1.00  0.00    -0.025 C 
ATOM     21  C   UNL     1     -12.429  18.043 -24.852  1.00  0.00     0.005 C 
ATOM     22  C   UNL     1     -13.547  18.347 -25.886  1.00  0.00     0.003 C 
ATOM     23  C   UNL     1     -15.884  17.861 -26.792  1.00  0.00     0.010 C 
ATOM     24  C   UNL     1     -15.550  17.869 -24.287  1.00  0.00     0.012 C 
ATOM     25  C   UNL     1     -13.731  19.892 -26.194  1.00  0.00    -0.006 C 
ATOM     26  C   UNL     1     -16.104  19.363 -27.021  1.00  0.00     0.033 C 
ATOM     27  C   UNL     1     -14.780  20.080 -27.335  1.00  0.00     0.120 C 
ATOM     28  C   UNL     1     -12.380  20.482 -26.681  1.00  0.00     0.014 C 
ATOM     29  C   UNL     1     -14.164  20.744 -24.965  1.00  0.00     0.014 C 
ENDROOT
BRANCH   1  30
ATOM     30  C   UNL     1      -9.917  11.865 -26.016  1.00  0.00     0.048 C 
ATOM     31  O   UNL     1      -9.774  12.258 -27.204  1.00  0.00    -0.550 OA
ATOM     32  O   UNL     1      -8.777  11.598 -25.264  1.00  0.00    -0.550 OA
ENDBRANCH   1  30
BRANCH  27  33
ATOM     33  O   UNL     1     -14.267  19.600 -28.555  1.00  0.00    -0.393 OA
ATOM     34  H   UNL     1     -14.813  20.002 -29.280  1.00  0.00     0.210 HD
ENDBRANCH  27  33
TORSDOF 2
ENDMDL
MODEL 2
REMARK VINA RESULT:    -7.706      1.633      2.475
REMARK INTER + INTRA:          -8.708
REMARK INTER:                  -8.399
REMARK INTRA:                  -0.310
REMARK UNBOUND:                -0.326
REMARK SMILES C[C@H]1[C@H]2C3=CC[C@@H]4[C@]5(C)CC[C@H](O)C(C)(C)[C@H]5CC[C@]4(C)[C@@]3(C)CC[C@@]2(C(=O)[O-])CC[C@@H]1C
REMARK SMILES IDX 26 1 30 2 25 3 3 4 31 5 24 6 4 7 2 8 32 9 22 10 5 11 1 12
REMARK SMILES IDX 33 13 23 14 20 15 6 16 7 17 19 18 21 19 8 20 18 21 17 22
REMARK SMILES IDX 10 23 9 24 14 25 11 26 12 27 15 28 16 29 27 30 28 31 29 32
REMARK SMILES IDX 13 33
REMARK H PARENT 13 34
REMARK Flexibility Score: inf
ROOT
ATOM      1  C   UNL     1     -11.665  11.758 -24.329  1.00  0.00     0.017 C 
ATOM      2  C   UNL     1     -11.466  10.224 -24.497  1.00  0.00     0.014 C 
ATOM      3  C   UNL     1     -13.168  12.016 -24.087  1.00  0.00     0.014 C 
ATOM      4  C   UNL     1     -11.202  12.560 -25.613  1.00  0.00     0.030 C 
ATOM      5  C   UNL     1     -10.171   9.917 -25.237  1.00  0.00     0.004 C 
ATOM      6  C   UNL     1     -13.435  13.474 -23.734  1.00  0.00     0.013 C 
ATOM      7  C   UNL     1     -11.943  13.909 -25.821  1.00  0.00    -0.063 C 
ATOM      8  C   UNL     1     -11.112  11.669 -26.914  1.00  0.00    -0.003 C 
ATOM      9  C   UNL     1     -10.273  10.357 -26.709  1.00  0.00    -0.011 C 
ATOM     10  C   UNL     1     -12.946  14.525 -24.809  1.00  0.00    -0.006 C 
ATOM     11  C   UNL     1     -11.582  14.666 -26.876  1.00  0.00    -0.027 C 
ATOM     12  C   UNL     1     -12.473  11.369 -27.566  1.00  0.00     0.008 C 
ATOM     13  C   UNL     1      -8.861  10.491 -27.303  1.00  0.00     0.008 C 
ATOM     14  C   UNL     1     -12.155  15.594 -23.994  1.00  0.00     0.017 C 
ATOM     15  C   UNL     1     -14.185  15.192 -25.613  1.00  0.00    -0.020 C 
ATOM     16  C   UNL     1     -12.206  15.987 -27.180  1.00  0.00     0.032 C 
ATOM     17  C   UNL     1     -13.741  16.013 -26.929  1.00  0.00     0.006 C 
ATOM     18  C   UNL     1     -15.071  16.066 -24.653  1.00  0.00     0.008 C 
ATOM     19  C   UNL     1     -15.117  14.040 -26.118  1.00  0.00     0.012 C 
ATOM     20  C   UNL     1     -14.396  17.464 -27.092  1.00  0.00    -0.025 C 
ATOM     21  C   UNL     1     -14.716  17.557 -24.504  1.00  0.00     0.005 C 
ATOM     22  C   UNL     1     -14.159  18.267 -25.767  1.00  0.00     0.003 C 
ATOM     23  C   UNL     1     -13.731  18.244 -28.284  1.00  0.00     0.010 C 
ATOM     24  C   UNL     1     -15.917  17.304 -27.433  1.00  0.00     0.012 C 
ATOM     25  C   UNL     1     -14.471  19.822 -25.817  1.00  0.00    -0.006 C 
ATOM     26  C   UNL     1     -14.108  19.731 -28.358  1.00  0.00     0.033 C 
ATOM     27  C   UNL     1     -13.760  20.461 -27.051  1.00  0.00     0.120 C 
ATOM     28  C   UNL     1     -13.914  20.499 -24.536  1.00  0.00     0.014 C 
ATOM     29  C   UNL     1     -15.987  20.169 -25.873  1.00  0.00     0.014 C 
ENDROOT
BRANCH   1  30
ATOM     30  C   UNL     1     -10.873  12.168 -23.081  1.00  0.00     0.048 C 
ATOM     31  O   UNL     1      -9.973  13.049 -23.124  1.00  0.00    -0.550 OA
ATOM     32  O   UNL     1     -11.101  11.512 -21.875  1.00  0.00    -0.550 OA
ENDBRANCH   1  30
BRANCH  27  33
ATOM     33  O   UNL     1     -12.363  20.453 -26.869  1.00  0.00    -0.393 OA
ATOM     34  H   UNL     1     -12.137  21.240 -26.309  1.00  0.00     0.210 HD
ENDBRANCH  27  33
TORSDOF 2
ENDMDL
MODEL 3
REMARK VINA RESULT:    -7.454     15.427     17.585
REMARK INTER + INTRA:          -8.434
REMARK INTER:                  -8.124
REMARK INTRA:                  -0.310
REMARK UNBOUND:                -0.326
REMARK SMILES C[C@H]1[C@H]2C3=CC[C@@H]4[C@]5(C)CC[C@H](O)C(C)(C)[C@H]5CC[C@]4(C)[C@@]3(C)CC[C@@]2(C(=O)[O-])CC[C@@H]1C
REMARK SMILES IDX 26 1 30 2 25 3 3 4 31 5 24 6 4 7 2 8 32 9 22 10 5 11 1 12
REMARK SMILES IDX 33 13 23 14 20 15 6 16 7 17 19 18 21 19 8 20 18 21 17 22
REMARK SMILES IDX 10 23 9 24 14 25 11 26 12 27 15 28 16 29 27 30 28 31 29 32
REMARK SMILES IDX 13 33
REMARK H PARENT 13 34
REMARK Flexibility Score: inf
ROOT
ATOM      1  C   UNL     1      -0.985   4.920 -36.304  1.00  0.00     0.017 C 
ATOM      2  C   UNL     1       0.137   4.979 -35.227  1.00  0.00     0.014 C 
ATOM      3  C   UNL     1      -1.062   6.305 -36.982  1.00  0.00     0.014 C 
ATOM      4  C   UNL     1      -2.395   4.572 -35.674  1.00  0.00     0.030 C 
ATOM      5  C   UNL     1      -0.051   3.890 -34.180  1.00  0.00     0.004 C 
ATOM      6  C   UNL     1      -2.012   6.291 -38.174  1.00  0.00     0.013 C 
ATOM      7  C   UNL     1      -3.603   5.133 -36.472  1.00  0.00    -0.063 C 
ATOM      8  C   UNL     1      -2.473   4.838 -34.119  1.00  0.00    -0.003 C 
ATOM      9  C   UNL     1      -1.293   4.177 -33.318  1.00  0.00    -0.011 C 
ATOM     10  C   UNL     1      -3.493   5.846 -37.846  1.00  0.00    -0.006 C 
ATOM     11  C   UNL     1      -4.840   4.852 -36.016  1.00  0.00    -0.027 C 
ATOM     12  C   UNL     1      -2.645   6.320 -33.742  1.00  0.00     0.008 C 
ATOM     13  C   UNL     1      -1.742   2.885 -32.618  1.00  0.00     0.008 C 
ATOM     14  C   UNL     1      -3.840   4.780 -38.930  1.00  0.00     0.017 C 
ATOM     15  C   UNL     1      -4.526   7.093 -37.893  1.00  0.00    -0.020 C 
ATOM     16  C   UNL     1      -6.083   5.319 -36.697  1.00  0.00     0.032 C 
ATOM     17  C   UNL     1      -5.970   6.767 -37.253  1.00  0.00     0.006 C 
ATOM     18  C   UNL     1      -4.652   7.665 -39.352  1.00  0.00     0.008 C 
ATOM     19  C   UNL     1      -3.927   8.257 -37.033  1.00  0.00     0.012 C 
ATOM     20  C   UNL     1      -7.232   7.221 -38.127  1.00  0.00    -0.025 C 
ATOM     21  C   UNL     1      -5.743   7.075 -40.265  1.00  0.00     0.005 C 
ATOM     22  C   UNL     1      -7.066   6.645 -39.575  1.00  0.00     0.003 C 
ATOM     23  C   UNL     1      -8.566   6.664 -37.510  1.00  0.00     0.010 C 
ATOM     24  C   UNL     1      -7.331   8.785 -38.111  1.00  0.00     0.012 C 
ATOM     25  C   UNL     1      -8.337   6.731 -40.521  1.00  0.00    -0.006 C 
ATOM     26  C   UNL     1      -9.799   6.827 -38.411  1.00  0.00     0.033 C 
ATOM     27  C   UNL     1      -9.584   6.156 -39.778  1.00  0.00     0.120 C 
ATOM     28  C   UNL     1      -8.093   5.869 -41.788  1.00  0.00     0.014 C 
ATOM     29  C   UNL     1      -8.667   8.167 -41.023  1.00  0.00     0.014 C 
ENDROOT
BRANCH   1  30
ATOM     30  C   UNL     1      -0.545   3.875 -37.337  1.00  0.00     0.048 C 
ATOM     31  O   UNL     1      -1.259   2.875 -37.617  1.00  0.00    -0.550 OA
ATOM     32  O   UNL     1       0.703   3.987 -37.942  1.00  0.00    -0.550 OA
ENDBRANCH   1  30
BRANCH  27  33
ATOM     33  O   UNL     1      -9.449   4.766 -39.599  1.00  0.00    -0.393 OA
ATOM     34  H   UNL     1      -8.609   4.493 -40.052  1.00  0.00     0.210 HD
ENDBRANCH  27  33
TORSDOF 2
ENDMDL
MODEL 4
REMARK VINA RESULT:    -7.213      1.373      1.712
REMARK INTER + INTRA:          -8.171
REMARK INTER:                  -7.844
REMARK INTRA:                  -0.327
REMARK UNBOUND:                -0.326
REMARK SMILES C[C@H]1[C@H]2C3=CC[C@@H]4[C@]5(C)CC[C@H](O)C(C)(C)[C@H]5CC[C@]4(C)[C@@]3(C)CC[C@@]2(C(=O)[O-])CC[C@@H]1C
REMARK SMILES IDX 26 1 30 2 25 3 3 4 31 5 24 6 4 7 2 8 32 9 22 10 5 11 1 12
REMARK SMILES IDX 33 13 23 14 20 15 6 16 7 17 19 18 21 19 8 20 18 21 17 22
REMARK SMILES IDX 10 23 9 24 14 25 11 26 12 27 15 28 16 29 27 30 28 31 29 32
REMARK SMILES IDX 13 33
REMARK H PARENT 13 34
REMARK Flexibility Score: inf
ROOT
ATOM      1  C   UNL     1     -10.959   9.977 -25.549  1.00  0.00     0.017 C 
ATOM      2  C   UNL     1     -10.951   8.460 -25.203  1.00  0.00     0.014 C 
ATOM      3  C   UNL     1     -11.078  10.763 -24.226  1.00  0.00     0.014 C 
ATOM      4  C   UNL     1     -12.170  10.364 -26.493  1.00  0.00     0.030 C 
ATOM      5  C   UNL     1     -11.358   7.621 -26.405  1.00  0.00     0.004 C 
ATOM      6  C   UNL     1     -10.914  12.262 -24.450  1.00  0.00     0.013 C 
ATOM      7  C   UNL     1     -12.647  11.835 -26.343  1.00  0.00    -0.063 C 
ATOM      8  C   UNL     1     -13.341   9.304 -26.482  1.00  0.00    -0.003 C 
ATOM      9  C   UNL     1     -12.847   7.834 -26.735  1.00  0.00    -0.011 C 
ATOM     10  C   UNL     1     -11.937  12.904 -25.470  1.00  0.00    -0.006 C 
ATOM     11  C   UNL     1     -13.655  12.249 -27.136  1.00  0.00    -0.027 C 
ATOM     12  C   UNL     1     -14.251   9.385 -25.244  1.00  0.00     0.008 C 
ATOM     13  C   UNL     1     -13.122   7.387 -28.179  1.00  0.00     0.008 C 
ATOM     14  C   UNL     1     -11.058  13.754 -26.438  1.00  0.00     0.017 C 
ATOM     15  C   UNL     1     -13.048  13.817 -24.724  1.00  0.00    -0.020 C 
ATOM     16  C   UNL     1     -14.197  13.639 -27.101  1.00  0.00     0.032 C 
ATOM     17  C   UNL     1     -14.295  14.223 -25.663  1.00  0.00     0.006 C 
ATOM     18  C   UNL     1     -12.383  15.079 -24.061  1.00  0.00     0.008 C 
ATOM     19  C   UNL     1     -13.650  12.985 -23.542  1.00  0.00     0.012 C 
ATOM     20  C   UNL     1     -14.719  15.766 -25.621  1.00  0.00    -0.025 C 
ATOM     21  C   UNL     1     -12.282  16.365 -24.902  1.00  0.00     0.005 C 
ATOM     22  C   UNL     1     -13.445  16.637 -25.894  1.00  0.00     0.003 C 
ATOM     23  C   UNL     1     -15.794  16.078 -26.724  1.00  0.00     0.010 C 
ATOM     24  C   UNL     1     -15.374  16.080 -24.232  1.00  0.00     0.012 C 
ATOM     25  C   UNL     1     -13.691  18.178 -26.184  1.00  0.00    -0.006 C 
ATOM     26  C   UNL     1     -16.072  17.574 -26.934  1.00  0.00     0.033 C 
ATOM     27  C   UNL     1     -14.785  18.337 -27.287  1.00  0.00     0.120 C 
ATOM     28  C   UNL     1     -12.379  18.816 -26.712  1.00  0.00     0.014 C 
ATOM     29  C   UNL     1     -14.110  19.005 -24.934  1.00  0.00     0.014 C 
ENDROOT
BRANCH   1  30
ATOM     30  C   UNL     1      -9.605  10.284 -26.200  1.00  0.00     0.048 C 
ATOM     31  O   UNL     1      -9.516  10.705 -27.385  1.00  0.00    -0.550 OA
ATOM     32  O   UNL     1      -8.430  10.034 -25.497  1.00  0.00    -0.550 OA
ENDBRANCH   1  30
BRANCH  27  33
ATOM     33  O   UNL     1     -14.298  17.884 -28.528  1.00  0.00    -0.393 OA
ATOM     34  H   UNL     1     -13.965  16.959 -28.390  1.00  0.00     0.210 HD
ENDBRANCH  27  33
TORSDOF 2
ENDMDL
MODEL 5
REMARK VINA RESULT:    -7.062     12.970     17.450
REMARK INTER + INTRA:          -8.007
REMARK INTER:                  -7.686
REMARK INTRA:                  -0.320
REMARK UNBOUND:                -0.326
REMARK SMILES C[C@H]1[C@H]2C3=CC[C@@H]4[C@]5(C)CC[C@H](O)C(C)(C)[C@H]5CC[C@]4(C)[C@@]3(C)CC[C@@]2(C(=O)[O-])CC[C@@H]1C
REMARK SMILES IDX 26 1 30 2 25 3 3 4 31 5 24 6 4 7 2 8 32 9 22 10 5 11 1 12
REMARK SMILES IDX 33 13 23 14 20 15 6 16 7 17 19 18 21 19 8 20 18 21 17 22
REMARK SMILES IDX 10 23 9 24 14 25 11 26 12 27 15 28 16 29 27 30 28 31 29 32
REMARK SMILES IDX 13 33
REMARK H PARENT 13 34
REMARK Flexibility Score: inf
ROOT
ATOM      1  C   UNL     1      -9.496   7.852 -37.174  1.00  0.00     0.017 C 
ATOM      2  C   UNL     1     -11.046   7.748 -37.274  1.00  0.00     0.014 C 
ATOM      3  C   UNL     1      -8.939   7.998 -38.606  1.00  0.00     0.014 C 
ATOM      4  C   UNL     1      -8.858   6.571 -36.497  1.00  0.00     0.030 C 
ATOM      5  C   UNL     1     -11.633   7.094 -36.031  1.00  0.00     0.004 C 
ATOM      6  C   UNL     1      -7.443   8.287 -38.597  1.00  0.00     0.013 C 
ATOM      7  C   UNL     1      -7.400   6.276 -36.946  1.00  0.00    -0.063 C 
ATOM      8  C   UNL     1      -9.806   5.308 -36.521  1.00  0.00    -0.003 C 
ATOM      9  C   UNL     1     -11.246   5.605 -35.969  1.00  0.00    -0.011 C 
ATOM     10  C   UNL     1      -6.556   7.207 -37.857  1.00  0.00    -0.006 C 
ATOM     11  C   UNL     1      -6.776   5.219 -36.389  1.00  0.00    -0.027 C 
ATOM     12  C   UNL     1      -9.862   4.589 -37.880  1.00  0.00     0.008 C 
ATOM     13  C   UNL     1     -11.418   5.090 -34.531  1.00  0.00     0.008 C 
ATOM     14  C   UNL     1      -5.628   8.031 -36.912  1.00  0.00     0.017 C 
ATOM     15  C   UNL     1      -5.695   6.311 -38.896  1.00  0.00    -0.020 C 
ATOM     16  C   UNL     1      -5.373   4.836 -36.724  1.00  0.00     0.032 C 
ATOM     17  C   UNL     1      -5.036   4.997 -38.233  1.00  0.00     0.006 C 
ATOM     18  C   UNL     1      -4.623   7.189 -39.640  1.00  0.00     0.008 C 
ATOM     19  C   UNL     1      -6.664   5.792 -40.012  1.00  0.00     0.012 C 
ATOM     20  C   UNL     1      -3.493   4.748 -38.580  1.00  0.00    -0.025 C 
ATOM     21  C   UNL     1      -3.225   7.309 -39.004  1.00  0.00     0.005 C 
ATOM     22  C   UNL     1      -2.694   6.057 -38.255  1.00  0.00     0.003 C 
ATOM     23  C   UNL     1      -2.911   3.572 -37.714  1.00  0.00     0.010 C 
ATOM     24  C   UNL     1      -3.367   4.325 -40.083  1.00  0.00     0.012 C 
ATOM     25  C   UNL     1      -1.112   5.937 -38.250  1.00  0.00    -0.006 C 
ATOM     26  C   UNL     1      -1.385   3.426 -37.786  1.00  0.00     0.033 C 
ATOM     27  C   UNL     1      -0.680   4.726 -37.365  1.00  0.00     0.120 C 
ATOM     28  C   UNL     1      -0.502   7.225 -37.635  1.00  0.00     0.014 C 
ATOM     29  C   UNL     1      -0.478   5.782 -39.663  1.00  0.00     0.014 C 
ENDROOT
BRANCH   1  30
ATOM     30  C   UNL     1      -9.195   9.129 -36.381  1.00  0.00     0.048 C 
ATOM     31  O   UNL     1      -8.639   9.095 -35.251  1.00  0.00    -0.550 OA
ATOM     32  O   UNL     1      -9.599  10.363 -36.882  1.00  0.00    -0.550 OA
ENDBRANCH   1  30
BRANCH  27  33
ATOM     33  O   UNL     1      -0.954   4.989 -36.009  1.00  0.00    -0.393 OA
ATOM     34  H   UNL     1      -1.006   5.975 -35.907  1.00  0.00     0.210 HD
ENDBRANCH  27  33
TORSDOF 2
ENDMDL
MODEL 6
REMARK VINA RESULT:    -6.980      1.664      7.928
REMARK INTER + INTRA:          -7.918
REMARK INTER:                  -7.596
REMARK INTRA:                  -0.322
REMARK UNBOUND:                -0.326
REMARK SMILES C[C@H]1[C@H]2C3=CC[C@@H]4[C@]5(C)CC[C@H](O)C(C)(C)[C@H]5CC[C@]4(C)[C@@]3(C)CC[C@@]2(C(=O)[O-])CC[C@@H]1C
REMARK SMILES IDX 26 1 30 2 25 3 3 4 31 5 24 6 4 7 2 8 32 9 22 10 5 11 1 12
REMARK SMILES IDX 33 13 23 14 20 15 6 16 7 17 19 18 21 19 8 20 18 21 17 22
REMARK SMILES IDX 10 23 9 24 14 25 11 26 12 27 15 28 16 29 27 30 28 31 29 32
REMARK SMILES IDX 13 33
REMARK H PARENT 13 34
REMARK Flexibility Score: inf
ROOT
ATOM      1  C   UNL     1     -13.628  17.902 -25.826  1.00  0.00     0.017 C 
ATOM      2  C   UNL     1     -13.387  19.392 -25.447  1.00  0.00     0.014 C 
ATOM      3  C   UNL     1     -13.644  17.080 -24.519  1.00  0.00     0.014 C 
ATOM      4  C   UNL     1     -12.494  17.341 -26.777  1.00  0.00     0.030 C 
ATOM      5  C   UNL     1     -12.843  20.178 -26.632  1.00  0.00     0.004 C 
ATOM      6  C   UNL     1     -14.052  15.634 -24.774  1.00  0.00     0.013 C 
ATOM      7  C   UNL     1     -12.265  15.809 -26.658  1.00  0.00    -0.063 C 
ATOM      8  C   UNL     1     -11.164  18.193 -26.743  1.00  0.00    -0.003 C 
ATOM      9  C   UNL     1     -11.409  19.729 -26.966  1.00  0.00    -0.011 C 
ATOM     10  C   UNL     1     -13.145  14.853 -25.808  1.00  0.00    -0.006 C 
ATOM     11  C   UNL     1     -11.337  15.251 -27.460  1.00  0.00    -0.027 C 
ATOM     12  C   UNL     1     -10.284  17.938 -25.508  1.00  0.00     0.008 C 
ATOM     13  C   UNL     1     -11.059  20.155 -28.400  1.00  0.00     0.008 C 
ATOM     14  C   UNL     1     -14.148  14.180 -26.793  1.00  0.00     0.017 C 
ATOM     15  C   UNL     1     -12.202  13.754 -25.081  1.00  0.00    -0.020 C 
ATOM     16  C   UNL     1     -11.031  13.790 -27.453  1.00  0.00     0.032 C 
ATOM     17  C   UNL     1     -11.035  13.168 -26.028  1.00  0.00     0.006 C 
ATOM     18  C   UNL     1     -13.068  12.606 -24.445  1.00  0.00     0.008 C 
ATOM     19  C   UNL     1     -11.476  14.451 -23.882  1.00  0.00     0.012 C 
ATOM     20  C   UNL     1     -10.872  11.576 -26.018  1.00  0.00    -0.025 C 
ATOM     21  C   UNL     1     -13.376  11.372 -25.313  1.00  0.00     0.005 C 
ATOM     22  C   UNL     1     -12.271  10.932 -26.310  1.00  0.00     0.003 C 
ATOM     23  C   UNL     1      -9.859  11.114 -27.128  1.00  0.00     0.010 C 
ATOM     24  C   UNL     1     -10.282  11.129 -24.637  1.00  0.00     0.012 C 
ATOM     25  C   UNL     1     -12.281   9.378 -26.632  1.00  0.00    -0.006 C 
ATOM     26  C   UNL     1      -9.830   9.598 -27.369  1.00  0.00     0.033 C 
ATOM     27  C   UNL     1     -11.224   9.064 -27.738  1.00  0.00     0.120 C 
ATOM     28  C   UNL     1     -13.678   8.976 -27.173  1.00  0.00     0.014 C 
ATOM     29  C   UNL     1     -12.008   8.467 -25.400  1.00  0.00     0.014 C 
ENDROOT
BRANCH   1  30
ATOM     30  C   UNL     1     -15.012  17.836 -26.483  1.00  0.00     0.048 C 
ATOM     31  O   UNL     1     -15.169  17.417 -27.661  1.00  0.00    -0.550 OA
ATOM     32  O   UNL     1     -16.125  18.309 -25.794  1.00  0.00    -0.550 OA
ENDBRANCH   1  30
BRANCH  27  33
ATOM     33  O   UNL     1     -11.625   9.617 -28.969  1.00  0.00    -0.393 OA
ATOM     34  H   UNL     1     -10.956  10.309 -29.210  1.00  0.00     0.210 HD
ENDBRANCH  27  33
TORSDOF 2
ENDMDL
MODEL 7
REMARK VINA RESULT:    -6.771      2.109      8.187
REMARK INTER + INTRA:          -7.690
REMARK INTER:                  -7.416
REMARK INTRA:                  -0.275
REMARK UNBOUND:                -0.326
REMARK SMILES C[C@H]1[C@H]2C3=CC[C@@H]4[C@]5(C)CC[C@H](O)C(C)(C)[C@H]5CC[C@]4(C)[C@@]3(C)CC[C@@]2(C(=O)[O-])CC[C@@H]1C
REMARK SMILES IDX 26 1 30 2 25 3 3 4 31 5 24 6 4 7 2 8 32 9 22 10 5 11 1 12
REMARK SMILES IDX 33 13 23 14 20 15 6 16 7 17 19 18 21 19 8 20 18 21 17 22
REMARK SMILES IDX 10 23 9 24 14 25 11 26 12 27 15 28 16 29 27 30 28 31 29 32
REMARK SMILES IDX 13 33
REMARK H PARENT 13 34
REMARK Flexibility Score: inf
ROOT
ATOM      1  C   UNL     1     -13.856  16.003 -25.314  1.00  0.00     0.017 C 
ATOM      2  C   UNL     1     -13.747  17.328 -24.505  1.00  0.00     0.014 C 
ATOM      3  C   UNL     1     -14.338  14.899 -24.348  1.00  0.00     0.014 C 
ATOM      4  C   UNL     1     -12.466  15.573 -25.940  1.00  0.00     0.030 C 
ATOM      5  C   UNL     1     -12.813  18.315 -25.193  1.00  0.00     0.004 C 
ATOM      6  C   UNL     1     -14.646  13.604 -25.089  1.00  0.00     0.013 C 
ATOM      7  C   UNL     1     -12.311  14.042 -26.151  1.00  0.00    -0.063 C 
ATOM      8  C   UNL     1     -11.224  16.256 -25.243  1.00  0.00    -0.003 C 
ATOM      9  C   UNL     1     -11.358  17.817 -25.129  1.00  0.00    -0.011 C 
ATOM     10  C   UNL     1     -13.443  13.005 -25.923  1.00  0.00    -0.006 C 
ATOM     11  C   UNL     1     -11.167  13.601 -26.709  1.00  0.00    -0.027 C 
ATOM     12  C   UNL     1     -10.835  15.626 -23.894  1.00  0.00     0.008 C 
ATOM     13  C   UNL     1     -10.523  18.534 -26.202  1.00  0.00     0.008 C 
ATOM     14  C   UNL     1     -14.045  12.690 -27.326  1.00  0.00     0.017 C 
ATOM     15  C   UNL     1     -12.827  11.676 -25.231  1.00  0.00    -0.020 C 
ATOM     16  C   UNL     1     -10.899  12.157 -26.978  1.00  0.00     0.032 C 
ATOM     17  C   UNL     1     -11.409  11.218 -25.848  1.00  0.00     0.006 C 
ATOM     18  C   UNL     1     -13.873  10.502 -25.242  1.00  0.00     0.008 C 
ATOM     19  C   UNL     1     -12.559  11.990 -23.721  1.00  0.00     0.012 C 
ATOM     20  C   UNL     1     -11.277   9.661 -26.196  1.00  0.00    -0.025 C 
ATOM     21  C   UNL     1     -13.872   9.547 -26.450  1.00  0.00     0.005 C 
ATOM     22  C   UNL     1     -12.492   9.249 -27.096  1.00  0.00     0.003 C 
ATOM     23  C   UNL     1      -9.945   9.377 -26.980  1.00  0.00     0.010 C 
ATOM     24  C   UNL     1     -11.214   8.841 -24.862  1.00  0.00     0.012 C 
ATOM     25  C   UNL     1     -12.405   7.826 -27.792  1.00  0.00    -0.006 C 
ATOM     26  C   UNL     1      -9.850   7.967 -27.580  1.00  0.00     0.033 C 
ATOM     27  C   UNL     1     -11.032   7.679 -28.520  1.00  0.00     0.120 C 
ATOM     28  C   UNL     1     -13.529   7.706 -28.856  1.00  0.00     0.014 C 
ATOM     29  C   UNL     1     -12.592   6.625 -26.820  1.00  0.00     0.014 C 
ENDROOT
BRANCH   1  30
ATOM     30  C   UNL     1     -14.922  16.235 -26.391  1.00  0.00     0.048 C 
ATOM     31  O   UNL     1     -16.125  16.468 -26.097  1.00  0.00    -0.550 OA
ATOM     32  O   UNL     1     -14.579  16.124 -27.735  1.00  0.00    -0.550 OA
ENDBRANCH   1  30
BRANCH  27  33
ATOM     33  O   UNL     1     -10.970   8.547 -29.627  1.00  0.00    -0.393 OA
ATOM     34  H   UNL     1     -11.898   8.848 -29.814  1.00  0.00     0.210 HD
ENDBRANCH  27  33
TORSDOF 2
ENDMDL
MODEL 8
REMARK VINA RESULT:    -6.674      2.898      8.707
REMARK INTER + INTRA:          -7.585
REMARK INTER:                  -7.261
REMARK INTRA:                  -0.325
REMARK UNBOUND:                -0.326
REMARK SMILES C[C@H]1[C@H]2C3=CC[C@@H]4[C@]5(C)CC[C@H](O)C(C)(C)[C@H]5CC[C@]4(C)[C@@]3(C)CC[C@@]2(C(=O)[O-])CC[C@@H]1C
REMARK SMILES IDX 26 1 30 2 25 3 3 4 31 5 24 6 4 7 2 8 32 9 22 10 5 11 1 12
REMARK SMILES IDX 33 13 23 14 20 15 6 16 7 17 19 18 21 19 8 20 18 21 17 22
REMARK SMILES IDX 10 23 9 24 14 25 11 26 12 27 15 28 16 29 27 30 28 31 29 32
REMARK SMILES IDX 13 33
REMARK H PARENT 13 34
REMARK Flexibility Score: inf
ROOT
ATOM      1  C   UNL     1     -13.965  14.134 -25.197  1.00  0.00     0.017 C 
ATOM      2  C   UNL     1     -14.692  15.044 -24.164  1.00  0.00     0.014 C 
ATOM      3  C   UNL     1     -14.932  12.995 -25.586  1.00  0.00     0.014 C 
ATOM      4  C   UNL     1     -12.637  13.508 -24.605  1.00  0.00     0.030 C 
ATOM      5  C   UNL     1     -13.694  15.851 -23.346  1.00  0.00     0.004 C 
ATOM      6  C   UNL     1     -14.373  12.155 -26.728  1.00  0.00     0.013 C 
ATOM      7  C   UNL     1     -12.238  12.148 -25.240  1.00  0.00    -0.063 C 
ATOM      8  C   UNL     1     -12.585  13.520 -23.026  1.00  0.00    -0.003 C 
ATOM      9  C   UNL     1     -12.893  14.930 -22.407  1.00  0.00    -0.011 C 
ATOM     10  C   UNL     1     -12.962  11.498 -26.449  1.00  0.00    -0.006 C 
ATOM     11  C   UNL     1     -11.101  11.566 -24.810  1.00  0.00    -0.027 C 
ATOM     12  C   UNL     1     -13.427  12.418 -22.360  1.00  0.00     0.008 C 
ATOM     13  C   UNL     1     -11.608  15.645 -21.962  1.00  0.00     0.008 C 
ATOM     14  C   UNL     1     -12.108  11.833 -27.710  1.00  0.00     0.017 C 
ATOM     15  C   UNL     1     -13.072   9.898 -26.218  1.00  0.00    -0.020 C 
ATOM     16  C   UNL     1     -10.601  10.267 -25.348  1.00  0.00     0.032 C 
ATOM     17  C   UNL     1     -11.733   9.234 -25.611  1.00  0.00     0.006 C 
ATOM     18  C   UNL     1     -13.538   9.171 -27.532  1.00  0.00     0.008 C 
ATOM     19  C   UNL     1     -14.200   9.633 -25.165  1.00  0.00     0.012 C 
ATOM     20  C   UNL     1     -11.232   7.900 -26.340  1.00  0.00    -0.025 C 
ATOM     21  C   UNL     1     -12.452   8.684 -28.509  1.00  0.00     0.005 C 
ATOM     22  C   UNL     1     -11.125   8.184 -27.878  1.00  0.00     0.003 C 
ATOM     23  C   UNL     1      -9.818   7.471 -25.805  1.00  0.00     0.010 C 
ATOM     24  C   UNL     1     -12.226   6.733 -26.014  1.00  0.00     0.012 C 
ATOM     25  C   UNL     1     -10.374   7.091 -28.749  1.00  0.00    -0.006 C 
ATOM     26  C   UNL     1      -9.142   6.357 -26.618  1.00  0.00     0.033 C 
ATOM     27  C   UNL     1      -8.996   6.756 -28.096  1.00  0.00     0.120 C 
ATOM     28  C   UNL     1     -10.108   7.661 -30.168  1.00  0.00     0.014 C 
ATOM     29  C   UNL     1     -11.173   5.771 -28.948  1.00  0.00     0.014 C 
ENDROOT
BRANCH   1  30
ATOM     30  C   UNL     1     -13.688  15.006 -26.428  1.00  0.00     0.048 C 
ATOM     31  O   UNL     1     -12.515  15.272 -26.804  1.00  0.00    -0.550 OA
ATOM     32  O   UNL     1     -14.751  15.578 -27.120  1.00  0.00    -0.550 OA
ENDBRANCH   1  30
BRANCH  27  33
ATOM     33  O   UNL     1      -8.124   7.857 -28.199  1.00  0.00    -0.393 OA
ATOM     34  H   UNL     1      -7.696   7.975 -27.311  1.00  0.00     0.210 HD
ENDBRANCH  27  33
TORSDOF 2
ENDMDL
MODEL 9
REMARK VINA RESULT:    -6.632      2.601      8.084
REMARK INTER + INTRA:          -7.540
REMARK INTER:                  -7.214
REMARK INTRA:                  -0.326
REMARK UNBOUND:                -0.326
REMARK SMILES C[C@H]1[C@H]2C3=CC[C@@H]4[C@]5(C)CC[C@H](O)C(C)(C)[C@H]5CC[C@]4(C)[C@@]3(C)CC[C@@]2(C(=O)[O-])CC[C@@H]1C
REMARK SMILES IDX 26 1 30 2 25 3 3 4 31 5 24 6 4 7 2 8 32 9 22 10 5 11 1 12
REMARK SMILES IDX 33 13 23 14 20 15 6 16 7 17 19 18 21 19 8 20 18 21 17 22
REMARK SMILES IDX 10 23 9 24 14 25 11 26 12 27 15 28 16 29 27 30 28 31 29 32
REMARK SMILES IDX 13 33
REMARK H PARENT 13 34
REMARK Flexibility Score: inf
ROOT
ATOM      1  C   UNL     1     -12.418  15.773 -24.237  1.00  0.00     0.017 C 
ATOM      2  C   UNL     1     -12.456  17.311 -24.472  1.00  0.00     0.014 C 
ATOM      3  C   UNL     1     -11.051  15.254 -24.730  1.00  0.00     0.014 C 
ATOM      4  C   UNL     1     -13.571  15.025 -25.023  1.00  0.00     0.030 C 
ATOM      5  C   UNL     1     -13.888  17.824 -24.518  1.00  0.00     0.004 C 
ATOM      6  C   UNL     1     -10.851  13.785 -24.378  1.00  0.00     0.013 C 
ATOM      7  C   UNL     1     -13.233  13.556 -25.400  1.00  0.00    -0.063 C 
ATOM      8  C   UNL     1     -14.175  15.871 -26.212  1.00  0.00    -0.003 C 
ATOM      9  C   UNL     1     -14.603  17.321 -25.785  1.00  0.00    -0.011 C 
ATOM     10  C   UNL     1     -11.956  12.804 -24.940  1.00  0.00    -0.006 C 
ATOM     11  C   UNL     1     -14.178  12.842 -26.043  1.00  0.00    -0.027 C 
ATOM     12  C   UNL     1     -13.299  15.894 -27.477  1.00  0.00     0.008 C 
ATOM     13  C   UNL     1     -16.124  17.427 -25.593  1.00  0.00     0.008 C 
ATOM     14  C   UNL     1     -12.373  11.927 -23.719  1.00  0.00     0.017 C 
ATOM     15  C   UNL     1     -11.397  11.893 -26.158  1.00  0.00    -0.020 C 
ATOM     16  C   UNL     1     -13.984  11.419 -26.449  1.00  0.00     0.032 C 
ATOM     17  C   UNL     1     -12.552  11.122 -26.978  1.00  0.00     0.006 C 
ATOM     18  C   UNL     1     -10.282  10.905 -25.654  1.00  0.00     0.008 C 
ATOM     19  C   UNL     1     -10.693  12.836 -27.190  1.00  0.00     0.012 C 
ATOM     20  C   UNL     1     -12.280   9.570 -27.262  1.00  0.00    -0.025 C 
ATOM     21  C   UNL     1     -10.721   9.511 -25.170  1.00  0.00     0.005 C 
ATOM     22  C   UNL     1     -11.930   8.871 -25.903  1.00  0.00     0.003 C 
ATOM     23  C   UNL     1     -13.555   8.883 -27.871  1.00  0.00     0.010 C 
ATOM     24  C   UNL     1     -11.130   9.436 -28.318  1.00  0.00     0.012 C 
ATOM     25  C   UNL     1     -11.908   7.284 -25.909  1.00  0.00    -0.006 C 
ATOM     26  C   UNL     1     -13.481   7.351 -27.938  1.00  0.00     0.033 C 
ATOM     27  C   UNL     1     -13.225   6.743 -26.549  1.00  0.00     0.120 C 
ATOM     28  C   UNL     1     -11.836   6.767 -24.447  1.00  0.00     0.014 C 
ATOM     29  C   UNL     1     -10.692   6.663 -26.655  1.00  0.00     0.014 C 
ENDROOT
BRANCH   1  30
ATOM     30  C   UNL     1     -12.525  15.560 -22.722  1.00  0.00     0.048 C 
ATOM     31  O   UNL     1     -13.479  14.918 -22.207  1.00  0.00    -0.550 OA
ATOM     32  O   UNL     1     -11.584  16.140 -21.877  1.00  0.00    -0.550 OA
ENDBRANCH   1  30
BRANCH  27  33
ATOM     33  O   UNL     1     -14.324   7.014 -25.712  1.00  0.00    -0.393 OA
ATOM     34  H   UNL     1     -14.447   7.999 -25.700  1.00  0.00     0.210 HD
ENDBRANCH  27  33
TORSDOF 2
ENDMDL
