MODEL 1
REMARK VINA RESULT:    -3.906      0.000      0.000
REMARK INTER + INTRA:          -4.020
REMARK INTER:                  -4.020
REMARK INTRA:                   0.000
REMARK UNBOUND:                 0.000
REMARK SMILES O=c1ccc2cc(O)ccc2o1
REMARK SMILES IDX 9 1 10 2 11 3 5 4 4 5 3 6 2 7 1 8 12 9 6 10 7 11 8 12
REMARK H PARENT 8 13
REMARK Flexibility Score: inf
ROOT
ATOM      1  C   UNL     1       5.429   1.751 -14.843  1.00  0.00     0.050 A 
ATOM      2  C   UNL     1       5.010   0.713 -15.682  1.00  0.00     0.052 A 
ATOM      3  C   UNL     1       4.300   1.001 -16.852  1.00  0.00     0.138 A 
ATOM      4  C   UNL     1       4.009   2.343 -17.182  1.00  0.00     0.021 A 
ATOM      5  C   UNL     1       3.297   2.600 -18.359  1.00  0.00     0.019 A 
ATOM      6  C   UNL     1       2.900   1.533 -19.165  1.00  0.00     0.094 A 
ATOM      7  C   UNL     1       3.225   0.230 -18.774  1.00  0.00     0.336 A 
ATOM      8  O   UNL     1       2.875  -0.745 -19.489  1.00  0.00    -0.246 OA
ATOM      9  O   UNL     1       3.903   0.013 -17.650  1.00  0.00    -0.423 OA
ATOM     10  C   UNL     1       4.430   3.380 -16.337  1.00  0.00     0.058 A 
ATOM     11  C   UNL     1       5.141   3.083 -15.166  1.00  0.00     0.116 A 
ENDROOT
BRANCH  11  12
ATOM     12  O   UNL     1       5.567   4.101 -14.316  1.00  0.00    -0.508 OA
ATOM     13  H   UNL     1       5.516   4.006 -13.309  1.00  0.00     0.293 HD
ENDBRANCH  11  12
TORSDOF 1
ENDMDL
MODEL 2
REMARK VINA RESULT:    -3.736      1.935      4.114
REMARK INTER + INTRA:          -3.845
REMARK INTER:                  -3.845
REMARK INTRA:                   0.000
REMARK UNBOUND:                 0.000
REMARK SMILES O=c1ccc2cc(O)ccc2o1
REMARK SMILES IDX 9 1 10 2 11 3 5 4 4 5 3 6 2 7 1 8 12 9 6 10 7 11 8 12
REMARK H PARENT 8 13
REMARK Flexibility Score: inf
ROOT
ATOM      1  C   UNL     1       2.911   1.653 -19.054  1.00  0.00     0.050 A 
ATOM      2  C   UNL     1       3.165   0.977 -17.857  1.00  0.00     0.052 A 
ATOM      3  C   UNL     1       4.131   1.461 -16.969  1.00  0.00     0.138 A 
ATOM      4  C   UNL     1       4.848   2.636 -17.286  1.00  0.00     0.021 A 
ATOM      5  C   UNL     1       5.807   3.096 -16.379  1.00  0.00     0.019 A 
ATOM      6  C   UNL     1       6.026   2.389 -15.197  1.00  0.00     0.094 A 
ATOM      7  C   UNL     1       5.278   1.233 -14.950  1.00  0.00     0.336 A 
ATOM      8  O   UNL     1       5.461   0.581 -13.888  1.00  0.00    -0.246 OA
ATOM      9  O   UNL     1       4.371   0.817 -15.829  1.00  0.00    -0.423 OA
ATOM     10  C   UNL     1       4.590   3.311 -18.488  1.00  0.00     0.058 A 
ATOM     11  C   UNL     1       3.620   2.818 -19.373  1.00  0.00     0.116 A 
ENDROOT
BRANCH  11  12
ATOM     12  O   UNL     1       3.352   3.477 -20.571  1.00  0.00    -0.508 OA
ATOM     13  H   UNL     1       2.422   3.489 -20.972  1.00  0.00     0.293 HD
ENDBRANCH  11  12
TORSDOF 1
ENDMDL
MODEL 3
REMARK VINA RESULT:    -3.629      1.309      2.230
REMARK INTER + INTRA:          -3.735
REMARK INTER:                  -3.735
REMARK INTRA:                   0.000
REMARK UNBOUND:                 0.000
REMARK SMILES O=c1ccc2cc(O)ccc2o1
REMARK SMILES IDX 9 1 10 2 11 3 5 4 4 5 3 6 2 7 1 8 12 9 6 10 7 11 8 12
REMARK H PARENT 8 13
REMARK Flexibility Score: inf
ROOT
ATOM      1  C   UNL     1       6.305   4.024 -16.153  1.00  0.00     0.050 A 
ATOM      2  C   UNL     1       5.570   3.509 -17.225  1.00  0.00     0.052 A 
ATOM      3  C   UNL     1       4.888   2.295 -17.089  1.00  0.00     0.138 A 
ATOM      4  C   UNL     1       4.944   1.593 -15.865  1.00  0.00     0.021 A 
ATOM      5  C   UNL     1       4.252   0.382 -15.759  1.00  0.00     0.019 A 
ATOM      6  C   UNL     1       3.532  -0.092 -16.855  1.00  0.00     0.094 A 
ATOM      7  C   UNL     1       3.521   0.657 -18.036  1.00  0.00     0.336 A 
ATOM      8  O   UNL     1       2.876   0.245 -19.035  1.00  0.00    -0.246 OA
ATOM      9  O   UNL     1       4.188   1.806 -18.111  1.00  0.00    -0.423 OA
ATOM     10  C   UNL     1       5.683   2.113 -14.793  1.00  0.00     0.058 A 
ATOM     11  C   UNL     1       6.364   3.331 -14.937  1.00  0.00     0.116 A 
ENDROOT
BRANCH  11  12
ATOM     12  O   UNL     1       7.102   3.861 -13.882  1.00  0.00    -0.508 OA
ATOM     13  H   UNL     1       8.056   3.568 -13.704  1.00  0.00     0.293 HD
ENDBRANCH  11  12
TORSDOF 1
ENDMDL
MODEL 4
REMARK VINA RESULT:    -3.520      1.596      4.390
REMARK INTER + INTRA:          -3.623
REMARK INTER:                  -3.623
REMARK INTRA:                   0.000
REMARK UNBOUND:                 0.000
REMARK SMILES O=c1ccc2cc(O)ccc2o1
REMARK SMILES IDX 9 1 10 2 11 3 5 4 4 5 3 6 2 7 1 8 12 9 6 10 7 11 8 12
REMARK H PARENT 8 13
REMARK Flexibility Score: inf
ROOT
ATOM      1  C   UNL     1       3.044   0.029 -18.754  1.00  0.00     0.050 A 
ATOM      2  C   UNL     1       3.228   0.262 -17.387  1.00  0.00     0.052 A 
ATOM      3  C   UNL     1       3.430   1.565 -16.920  1.00  0.00     0.138 A 
ATOM      4  C   UNL     1       3.447   2.643 -17.832  1.00  0.00     0.021 A 
ATOM      5  C   UNL     1       3.651   3.934 -17.335  1.00  0.00     0.019 A 
ATOM      6  C   UNL     1       3.830   4.119 -15.964  1.00  0.00     0.094 A 
ATOM      7  C   UNL     1       3.800   3.004 -15.120  1.00  0.00     0.336 A 
ATOM      8  O   UNL     1       3.958   3.151 -13.879  1.00  0.00    -0.246 OA
ATOM      9  O   UNL     1       3.604   1.786 -15.618  1.00  0.00    -0.423 OA
ATOM     10  C   UNL     1       3.264   2.403 -19.202  1.00  0.00     0.058 A 
ATOM     11  C   UNL     1       3.062   1.094 -19.663  1.00  0.00     0.116 A 
ENDROOT
BRANCH  11  12
ATOM     12  O   UNL     1       2.878   0.840 -21.020  1.00  0.00    -0.508 OA
ATOM     13  H   UNL     1       3.645   0.543 -21.611  1.00  0.00     0.293 HD
ENDBRANCH  11  12
TORSDOF 1
ENDMDL
MODEL 5
REMARK VINA RESULT:    -3.472      0.950      4.776
REMARK INTER + INTRA:          -3.574
REMARK INTER:                  -3.574
REMARK INTRA:                   0.000
REMARK UNBOUND:                 0.000
REMARK SMILES O=c1ccc2cc(O)ccc2o1
REMARK SMILES IDX 9 1 10 2 11 3 5 4 4 5 3 6 2 7 1 8 12 9 6 10 7 11 8 12
REMARK H PARENT 8 13
REMARK Flexibility Score: inf
ROOT
ATOM      1  C   UNL     1       2.875   1.610 -19.446  1.00  0.00     0.050 A 
ATOM      2  C   UNL     1       3.161   2.642 -18.547  1.00  0.00     0.052 A 
ATOM      3  C   UNL     1       3.743   2.351 -17.309  1.00  0.00     0.138 A 
ATOM      4  C   UNL     1       4.042   1.013 -16.971  1.00  0.00     0.021 A 
ATOM      5  C   UNL     1       4.624   0.754 -15.726  1.00  0.00     0.019 A 
ATOM      6  C   UNL     1       4.891   1.815 -14.862  1.00  0.00     0.094 A 
ATOM      7  C   UNL     1       4.568   3.115 -15.264  1.00  0.00     0.336 A 
ATOM      8  O   UNL     1       4.803   4.086 -14.497  1.00  0.00    -0.246 OA
ATOM      9  O   UNL     1       4.015   3.335 -16.454  1.00  0.00    -0.423 OA
ATOM     10  C   UNL     1       3.753  -0.019 -17.876  1.00  0.00     0.058 A 
ATOM     11  C   UNL     1       3.168   0.281 -19.116  1.00  0.00     0.116 A 
ENDROOT
BRANCH  11  12
ATOM     12  O   UNL     1       2.875  -0.733 -20.025  1.00  0.00    -0.508 OA
ATOM     13  H   UNL     1       2.989  -0.597 -21.023  1.00  0.00     0.293 HD
ENDBRANCH  11  12
TORSDOF 1
ENDMDL
MODEL 6
REMARK VINA RESULT:    -3.353      2.212      2.717
REMARK INTER + INTRA:          -3.451
REMARK INTER:                  -3.451
REMARK INTRA:                   0.000
REMARK UNBOUND:                 0.000
REMARK SMILES O=c1ccc2cc(O)ccc2o1
REMARK SMILES IDX 9 1 10 2 11 3 5 4 4 5 3 6 2 7 1 8 12 9 6 10 7 11 8 12
REMARK H PARENT 8 13
REMARK Flexibility Score: inf
ROOT
ATOM      1  C   UNL     1       5.851   2.219 -15.262  1.00  0.00     0.050 A 
ATOM      2  C   UNL     1       5.575   3.093 -16.319  1.00  0.00     0.052 A 
ATOM      3  C   UNL     1       4.665   2.723 -17.314  1.00  0.00     0.138 A 
ATOM      4  C   UNL     1       4.026   1.465 -17.248  1.00  0.00     0.021 A 
ATOM      5  C   UNL     1       3.120   1.124 -18.258  1.00  0.00     0.019 A 
ATOM      6  C   UNL     1       2.876   2.027 -19.291  1.00  0.00     0.094 A 
ATOM      7  C   UNL     1       3.545   3.256 -19.291  1.00  0.00     0.336 A 
ATOM      8  O   UNL     1       3.337   4.084 -20.217  1.00  0.00    -0.246 OA
ATOM      9  O   UNL     1       4.402   3.556 -18.319  1.00  0.00    -0.423 OA
ATOM     10  C   UNL     1       4.307   0.592 -16.187  1.00  0.00     0.058 A 
ATOM     11  C   UNL     1       5.221   0.970 -15.193  1.00  0.00     0.116 A 
ENDROOT
BRANCH  11  12
ATOM     12  O   UNL     1       5.511   0.115 -14.133  1.00  0.00    -0.508 OA
ATOM     13  H   UNL     1       6.334  -0.476 -14.139  1.00  0.00     0.293 HD
ENDBRANCH  11  12
TORSDOF 1
ENDMDL
MODEL 7
REMARK VINA RESULT:    -3.122      2.614      5.480
REMARK INTER + INTRA:          -3.213
REMARK INTER:                  -3.213
REMARK INTRA:                   0.000
REMARK UNBOUND:                 0.000
REMARK SMILES O=c1ccc2cc(O)ccc2o1
REMARK SMILES IDX 9 1 10 2 11 3 5 4 4 5 3 6 2 7 1 8 12 9 6 10 7 11 8 12
REMARK H PARENT 8 13
REMARK Flexibility Score: inf
ROOT
ATOM      1  C   UNL     1       2.924  -0.980 -22.141  1.00  0.00     0.050 A 
ATOM      2  C   UNL     1       2.940  -1.216 -20.762  1.00  0.00     0.052 A 
ATOM      3  C   UNL     1       2.924  -0.142 -19.867  1.00  0.00     0.138 A 
ATOM      4  C   UNL     1       2.891   1.182 -20.360  1.00  0.00     0.021 A 
ATOM      5  C   UNL     1       2.875   2.235 -19.440  1.00  0.00     0.019 A 
ATOM      6  C   UNL     1       2.892   1.952 -18.075  1.00  0.00     0.094 A 
ATOM      7  C   UNL     1       2.924   0.616 -17.660  1.00  0.00     0.336 A 
ATOM      8  O   UNL     1       2.938   0.341 -16.431  1.00  0.00    -0.246 OA
ATOM      9  O   UNL     1       2.938  -0.367 -18.555  1.00  0.00    -0.423 OA
ATOM     10  C   UNL     1       2.876   1.413 -21.743  1.00  0.00     0.058 A 
ATOM     11  C   UNL     1       2.892   0.331 -22.634  1.00  0.00     0.116 A 
ENDROOT
BRANCH  11  12
ATOM     12  O   UNL     1       2.878   0.545 -24.011  1.00  0.00    -0.508 OA
ATOM     13  H   UNL     1       2.821   1.478 -24.401  1.00  0.00     0.293 HD
ENDBRANCH  11  12
TORSDOF 1
ENDMDL
MODEL 8
REMARK VINA RESULT:    -2.456      2.704      3.781
REMARK INTER + INTRA:          -2.528
REMARK INTER:                  -2.528
REMARK INTRA:                   0.000
REMARK UNBOUND:                 0.000
REMARK SMILES O=c1ccc2cc(O)ccc2o1
REMARK SMILES IDX 9 1 10 2 11 3 5 4 4 5 3 6 2 7 1 8 12 9 6 10 7 11 8 12
REMARK H PARENT 8 13
REMARK Flexibility Score: inf
ROOT
ATOM      1  C   UNL     1       2.942   1.638 -17.905  1.00  0.00     0.050 A 
ATOM      2  C   UNL     1       2.960   0.351 -18.451  1.00  0.00     0.052 A 
ATOM      3  C   UNL     1       2.937   0.178 -19.838  1.00  0.00     0.138 A 
ATOM      4  C   UNL     1       2.898   1.308 -20.685  1.00  0.00     0.021 A 
ATOM      5  C   UNL     1       2.877   1.103 -22.069  1.00  0.00     0.019 A 
ATOM      6  C   UNL     1       2.896  -0.199 -22.568  1.00  0.00     0.094 A 
ATOM      7  C   UNL     1       2.935  -1.270 -21.669  1.00  0.00     0.336 A 
ATOM      8  O   UNL     1       2.954  -2.452 -22.101  1.00  0.00    -0.246 OA
ATOM      9  O   UNL     1       2.955  -1.048 -20.357  1.00  0.00    -0.423 OA
ATOM     10  C   UNL     1       2.880   2.597 -20.133  1.00  0.00     0.058 A 
ATOM     11  C   UNL     1       2.902   2.762 -18.740  1.00  0.00     0.116 A 
ENDROOT
BRANCH  11  12
ATOM     12  O   UNL     1       2.885   4.035 -18.176  1.00  0.00    -0.508 OA
ATOM     13  H   UNL     1       2.417   4.218 -17.296  1.00  0.00     0.293 HD
ENDBRANCH  11  12
TORSDOF 1
ENDMDL
