MODEL 1
REMARK VINA RESULT:    -1.935      0.000      0.000
REMARK INTER + INTRA:          -2.957
REMARK INTER:                  -2.953
REMARK INTRA:                  -0.005
REMARK UNBOUND:                -0.005
REMARK SMILES CC1=CCC[C@@H](C)C(=O)C[C@@H](C(C)C)C(=O)C1
REMARK SMILES IDX 8 1 9 2 6 3 7 4 5 5 4 6 3 7 2 8 1 9 10 11 11 12 15 13 16 14
REMARK SMILES IDX 17 15 12 17 13 18 14 19
REMARK H PARENT
REMARK Flexibility Score: 70.00
ROOT
ATOM      1  C   UNL     1      10.372 -31.921  13.638  1.00  0.00     0.136 C 
ATOM      2  O   UNL     1       9.697 -31.246  12.875  1.00  0.00    -0.299 OA
ENDROOT
BRANCH   1   3
ATOM      3  C   UNL     1      11.745 -31.413  14.041  1.00  0.00     0.053 C 
ATOM      4  C   UNL     1      12.836 -32.406  13.622  1.00  0.00     0.016 C 
BRANCH   3   5
ATOM      5  C   UNL     1      11.819 -31.113  15.550  1.00  0.00     0.015 C 
BRANCH   5   6
ATOM      6  C   UNL     1      10.561 -30.388  16.057  1.00  0.00     0.028 C 
BRANCH   6   7
ATOM      7  C   UNL     1      10.270 -30.764  17.487  1.00  0.00    -0.028 C 
ATOM      8  C   UNL     1       9.182 -31.459  17.892  1.00  0.00    -0.070 CG0
ATOM      9  C   UNL     1       9.072 -31.815  19.352  1.00  0.00     0.039 C 
ATOM     10  G   UNL     1       8.067 -31.877  16.944  1.00  0.00     0.000 G0
ENDBRANCH   6   7
ENDBRANCH   5   6
ENDBRANCH   3   5
ENDBRANCH   1   3
BRANCH   1  11
ATOM     11  C   UNL     1       9.820 -33.245  14.119  1.00  0.00     0.087 C 
BRANCH  11  12
ATOM     12  C   UNL     1       8.370 -33.116  14.661  1.00  0.00     0.066 C 
BRANCH  12  13
ATOM     13  C   UNL     1       8.342 -33.133  16.183  1.00  0.00     0.140 C 
ATOM     14  O   UNL     1       8.513 -34.184  16.784  1.00  0.00    -0.299 OA
BRANCH  13  15
ATOM     15  C   UNL     1       8.038 -31.881  16.970  1.00  0.00     0.106 CG0
ATOM     16  G   UNL     1       9.199 -31.466  17.863  1.00  0.00     0.000 G0
ENDBRANCH  13  15
ENDBRANCH  12  13
BRANCH  12  17
ATOM     17  C   UNL     1       7.421 -34.186  14.038  1.00  0.00    -0.006 C 
ATOM     18  C   UNL     1       6.457 -33.628  12.977  1.00  0.00     0.008 C 
ATOM     19  C   UNL     1       8.209 -35.373  13.463  1.00  0.00     0.008 C 
ENDBRANCH  12  17
ENDBRANCH  11  12
ENDBRANCH   1  11
TORSDOF 1
ENDMDL
MODEL 2
REMARK VINA RESULT:    -1.418      1.612      3.884
REMARK INTER + INTRA:          -2.169
REMARK INTER:                  -2.651
REMARK INTRA:                   0.483
REMARK UNBOUND:                -0.005
REMARK SMILES CC1=CCC[C@@H](C)C(=O)C[C@@H](C(C)C)C(=O)C1
REMARK SMILES IDX 8 1 9 2 6 3 7 4 5 5 4 6 3 7 2 8 1 9 10 11 11 12 15 13 16 14
REMARK SMILES IDX 17 15 12 17 13 18 14 19
REMARK H PARENT
REMARK Flexibility Score: 70.00
ROOT
ATOM      1  C   UNL     1       8.538 -33.116  17.118  1.00  0.00     0.136 C 
ATOM      2  O   UNL     1       8.486 -34.313  17.362  1.00  0.00    -0.299 OA
ENDROOT
BRANCH   1   3
ATOM      3  C   UNL     1       8.735 -32.146  18.269  1.00  0.00     0.053 C 
ATOM      4  C   UNL     1       7.551 -31.176  18.371  1.00  0.00     0.016 C 
BRANCH   3   5
ATOM      5  C   UNL     1      10.067 -31.381  18.146  1.00  0.00     0.015 C 
BRANCH   5   6
ATOM      6  C   UNL     1      10.135 -30.543  16.857  1.00  0.00     0.028 C 
BRANCH   6   7
ATOM      7  C   UNL     1      11.453 -30.750  16.158  1.00  0.00    -0.028 C 
ATOM      8  C   UNL     1      11.585 -31.152  14.872  1.00  0.00    -0.070 CG0
ATOM      9  C   UNL     1      12.976 -31.245  14.298  1.00  0.00     0.039 C 
ATOM     10  G   UNL     1      10.398 -31.526  13.996  1.00  0.00     0.000 G0
ENDBRANCH   6   7
ENDBRANCH   5   6
ENDBRANCH   3   5
ENDBRANCH   1   3
BRANCH   1  11
ATOM     11  C   UNL     1       8.374 -32.658  15.686  1.00  0.00     0.087 C 
BRANCH  11  12
ATOM     12  C   UNL     1       9.003 -33.654  14.673  1.00  0.00     0.066 C 
BRANCH  12  13
ATOM     13  C   UNL     1      10.183 -33.031  13.940  1.00  0.00     0.140 C 
ATOM     14  O   UNL     1      10.987 -33.748  13.360  1.00  0.00    -0.299 OA
BRANCH  13  15
ATOM     15  C   UNL     1      10.421 -31.541  13.971  1.00  0.00     0.106 CG0
ATOM     16  G   UNL     1      11.589 -31.162  14.870  1.00  0.00     0.000 G0
ENDBRANCH  13  15
ENDBRANCH  12  13
BRANCH  12  17
ATOM     17  C   UNL     1       7.938 -34.238  13.695  1.00  0.00    -0.006 C 
ATOM     18  C   UNL     1       7.927 -35.775  13.623  1.00  0.00     0.008 C 
ATOM     19  C   UNL     1       6.529 -33.715  14.018  1.00  0.00     0.008 C 
ENDBRANCH  12  17
ENDBRANCH  11  12
ENDBRANCH   1  11
TORSDOF 1
ENDMDL
MODEL 3
REMARK VINA RESULT:    -1.161      2.158      4.191
REMARK INTER + INTRA:          -1.777
REMARK INTER:                  -3.173
REMARK INTRA:                   1.396
REMARK UNBOUND:                -0.005
REMARK SMILES CC1=CCC[C@@H](C)C(=O)C[C@@H](C(C)C)C(=O)C1
REMARK SMILES IDX 8 1 9 2 6 3 7 4 5 5 4 6 3 7 2 8 1 9 10 11 11 12 15 13 16 14
REMARK SMILES IDX 17 15 12 17 13 18 14 19
REMARK H PARENT
REMARK Flexibility Score: 70.00
ROOT
ATOM      1  C   UNL     1       7.312 -34.738  14.198  1.00  0.00     0.136 C 
ATOM      2  O   UNL     1       6.128 -34.538  13.967  1.00  0.00    -0.299 OA
ENDROOT
BRANCH   1   3
ATOM      3  C   UNL     1       7.699 -35.390  15.512  1.00  0.00     0.053 C 
ATOM      4  C   UNL     1       6.532 -36.208  16.078  1.00  0.00     0.016 C 
BRANCH   3   5
ATOM      5  C   UNL     1       8.195 -34.352  16.538  1.00  0.00     0.015 C 
BRANCH   5   6
ATOM      6  C   UNL     1       8.013 -32.910  16.033  1.00  0.00     0.028 C 
BRANCH   6   7
ATOM      7  C   UNL     1       9.225 -32.077  16.358  1.00  0.00    -0.028 C 
ATOM      8  C   UNL     1      10.089 -31.587  15.438  1.00  0.00    -0.070 CG0
ATOM      9  C   UNL     1      11.217 -30.711  15.921  1.00  0.00     0.039 C 
ATOM     10  G   UNL     1       9.978 -31.895  13.952  1.00  0.00     0.000 G0
ENDBRANCH   6   7
ENDBRANCH   5   6
ENDBRANCH   3   5
ENDBRANCH   1   3
BRANCH   1  11
ATOM     11  C   UNL     1       8.335 -34.297  13.175  1.00  0.00     0.087 C 
BRANCH  11  12
ATOM     12  C   UNL     1       9.792 -34.535  13.659  1.00  0.00     0.066 C 
BRANCH  12  13
ATOM     13  C   UNL     1      10.616 -33.256  13.596  1.00  0.00     0.140 C 
ATOM     14  O   UNL     1      11.803 -33.310  13.305  1.00  0.00    -0.299 OA
BRANCH  13  15
ATOM     15  C   UNL     1      10.010 -31.920  13.953  1.00  0.00     0.106 CG0
ATOM     16  G   UNL     1      10.113 -31.621  15.442  1.00  0.00     0.000 G0
ENDBRANCH  13  15
ENDBRANCH  12  13
BRANCH  12  17
ATOM     17  C   UNL     1      10.471 -35.715  12.898  1.00  0.00    -0.006 C 
ATOM     18  C   UNL     1      11.956 -35.917  13.248  1.00  0.00     0.008 C 
ATOM     19  C   UNL     1       9.700 -37.030  13.095  1.00  0.00     0.008 C 
ENDBRANCH  12  17
ENDBRANCH  11  12
ENDBRANCH   1  11
TORSDOF 1
ENDMDL
MODEL 4
REMARK VINA RESULT:    -0.677      1.741      3.925
REMARK INTER + INTRA:          -1.038
REMARK INTER:                  -2.785
REMARK INTRA:                   1.747
REMARK UNBOUND:                -0.005
REMARK SMILES CC1=CCC[C@@H](C)C(=O)C[C@@H](C(C)C)C(=O)C1
REMARK SMILES IDX 8 1 9 2 6 3 7 4 5 5 4 6 3 7 2 8 1 9 10 11 11 12 15 13 16 14
REMARK SMILES IDX 17 15 12 17 13 18 14 19
REMARK H PARENT
REMARK Flexibility Score: 70.00
ROOT
ATOM      1  C   UNL     1       7.615 -34.219  13.184  1.00  0.00     0.136 C 
ATOM      2  O   UNL     1       6.439 -34.078  12.881  1.00  0.00    -0.299 OA
ENDROOT
BRANCH   1   3
ATOM      3  C   UNL     1       8.070 -35.557  13.738  1.00  0.00     0.053 C 
ATOM      4  C   UNL     1       7.474 -36.713  12.926  1.00  0.00     0.016 C 
BRANCH   3   5
ATOM      5  C   UNL     1       7.730 -35.698  15.234  1.00  0.00     0.015 C 
BRANCH   5   6
ATOM      6  C   UNL     1       7.044 -34.439  15.791  1.00  0.00     0.028 C 
BRANCH   6   7
ATOM      7  C   UNL     1       7.795 -33.909  16.984  1.00  0.00    -0.028 C 
ATOM      8  C   UNL     1       8.445 -32.722  17.017  1.00  0.00    -0.070 CG0
ATOM      9  C   UNL     1       9.092 -32.303  18.313  1.00  0.00     0.039 C 
ATOM     10  G   UNL     1       8.563 -31.809  15.805  1.00  0.00     0.000 G0
ENDBRANCH   6   7
ENDBRANCH   5   6
ENDBRANCH   3   5
ENDBRANCH   1   3
BRANCH   1  11
ATOM     11  C   UNL     1       8.552 -33.044  13.020  1.00  0.00     0.087 C 
BRANCH  11  12
ATOM     12  C   UNL     1       9.810 -33.162  13.925  1.00  0.00     0.066 C 
BRANCH  12  13
ATOM     13  C   UNL     1       9.810 -32.104  15.019  1.00  0.00     0.140 C 
ATOM     14  O   UNL     1      10.844 -31.508  15.290  1.00  0.00    -0.299 OA
BRANCH  13  15
ATOM     15  C   UNL     1       8.568 -31.820  15.828  1.00  0.00     0.106 CG0
ATOM     16  G   UNL     1       8.444 -32.739  17.035  1.00  0.00     0.000 G0
ENDBRANCH  13  15
ENDBRANCH  12  13
BRANCH  12  17
ATOM     17  C   UNL     1      11.128 -33.154  13.091  1.00  0.00    -0.006 C 
ATOM     18  C   UNL     1      12.204 -32.194  13.627  1.00  0.00     0.008 C 
ATOM     19  C   UNL     1      11.710 -34.568  12.941  1.00  0.00     0.008 C 
ENDBRANCH  12  17
ENDBRANCH  11  12
ENDBRANCH   1  11
TORSDOF 1
ENDMDL
MODEL 5
REMARK VINA RESULT:    -0.175      2.028      5.396
REMARK INTER + INTRA:          -0.272
REMARK INTER:                  -4.364
REMARK INTRA:                   4.093
REMARK UNBOUND:                -0.005
REMARK SMILES CC1=CCC[C@@H](C)C(=O)C[C@@H](C(C)C)C(=O)C1
REMARK SMILES IDX 8 1 9 2 6 3 7 4 5 5 4 6 3 7 2 8 1 9 10 11 11 12 15 13 16 14
REMARK SMILES IDX 17 15 12 17 13 18 14 19
REMARK H PARENT
REMARK Flexibility Score: 70.00
ROOT
ATOM      1  C   UNL     1       7.376 -34.135  15.626  1.00  0.00     0.136 C 
ATOM      2  O   UNL     1       8.182 -34.580  16.430  1.00  0.00    -0.299 OA
ENDROOT
BRANCH   1   3
ATOM      3  C   UNL     1       6.598 -35.107  14.759  1.00  0.00     0.053 C 
ATOM      4  C   UNL     1       6.718 -36.536  15.302  1.00  0.00     0.016 C 
BRANCH   3   5
ATOM      5  C   UNL     1       7.041 -35.035  13.285  1.00  0.00     0.015 C 
BRANCH   5   6
ATOM      6  C   UNL     1       7.942 -36.219  12.895  1.00  0.00     0.028 C 
BRANCH   6   7
ATOM      7  C   UNL     1       9.389 -35.802  12.877  1.00  0.00    -0.028 C 
ATOM      8  C   UNL     1       9.827 -34.538  13.085  1.00  0.00    -0.070 CG0
ATOM      9  C   UNL     1      11.315 -34.298  13.102  1.00  0.00     0.039 C 
ATOM     10  G   UNL     1       8.886 -33.358  13.282  1.00  0.00     0.000 G0
ENDBRANCH   6   7
ENDBRANCH   5   6
ENDBRANCH   3   5
ENDBRANCH   1   3
BRANCH   1  11
ATOM     11  C   UNL     1       7.216 -32.635  15.514  1.00  0.00     0.087 C 
BRANCH  11  12
ATOM     12  C   UNL     1       8.582 -31.896  15.488  1.00  0.00     0.066 C 
BRANCH  12  13
ATOM     13  C   UNL     1       9.440 -32.353  14.317  1.00  0.00     0.140 C 
ATOM     14  O   UNL     1      10.566 -31.896  14.172  1.00  0.00    -0.299 OA
BRANCH  13  15
ATOM     15  C   UNL     1       8.903 -33.316  13.286  1.00  0.00     0.106 CG0
ATOM     16  G   UNL     1       9.815 -34.518  13.089  1.00  0.00     0.000 G0
ENDBRANCH  13  15
ENDBRANCH  12  13
BRANCH  12  17
ATOM     17  C   UNL     1       9.330 -32.013  16.853  1.00  0.00    -0.006 C 
ATOM     18  C   UNL     1      10.446 -30.971  17.048  1.00  0.00     0.008 C 
ATOM     19  C   UNL     1       8.352 -31.966  18.037  1.00  0.00     0.008 C 
ENDBRANCH  12  17
ENDBRANCH  11  12
ENDBRANCH   1  11
TORSDOF 1
ENDMDL
MODEL 6
REMARK VINA RESULT:    -0.068      2.259      5.426
REMARK INTER + INTRA:          -0.109
REMARK INTER:                  -0.791
REMARK INTRA:                   0.682
REMARK UNBOUND:                -0.005
REMARK SMILES CC1=CCC[C@@H](C)C(=O)C[C@@H](C(C)C)C(=O)C1
REMARK SMILES IDX 8 1 9 2 6 3 7 4 5 5 4 6 3 7 2 8 1 9 10 11 11 12 15 13 16 14
REMARK SMILES IDX 17 15 12 17 13 18 14 19
REMARK H PARENT
REMARK Flexibility Score: 70.00
ROOT
ATOM      1  C   UNL     1       7.842 -35.388  17.170  1.00  0.00     0.136 C 
ATOM      2  O   UNL     1       7.675 -35.998  18.216  1.00  0.00    -0.299 OA
ENDROOT
BRANCH   1   3
ATOM      3  C   UNL     1       7.005 -35.769  15.963  1.00  0.00     0.053 C 
ATOM      4  C   UNL     1       5.900 -36.757  16.356  1.00  0.00     0.016 C 
BRANCH   3   5
ATOM      5  C   UNL     1       7.874 -36.336  14.824  1.00  0.00     0.015 C 
BRANCH   5   6
ATOM      6  C   UNL     1       8.695 -35.239  14.124  1.00  0.00     0.028 C 
BRANCH   6   7
ATOM      7  C   UNL     1       7.786 -34.240  13.456  1.00  0.00    -0.028 C 
ATOM      8  C   UNL     1       7.740 -32.922  13.760  1.00  0.00    -0.070 CG0
ATOM      9  C   UNL     1       6.823 -32.040  12.951  1.00  0.00     0.039 C 
ATOM     10  G   UNL     1       8.557 -32.302  14.885  1.00  0.00     0.000 G0
ENDBRANCH   6   7
ENDBRANCH   5   6
ENDBRANCH   3   5
ENDBRANCH   1   3
BRANCH   1  11
ATOM     11  C   UNL     1       8.896 -34.304  17.122  1.00  0.00     0.087 C 
BRANCH  11  12
ATOM     12  C   UNL     1       8.313 -32.901  17.446  1.00  0.00     0.066 C 
BRANCH  12  13
ATOM     13  C   UNL     1       7.791 -32.212  16.193  1.00  0.00     0.140 C 
ATOM     14  O   UNL     1       6.709 -31.641  16.218  1.00  0.00    -0.299 OA
BRANCH  13  15
ATOM     15  C   UNL     1       8.555 -32.276  14.893  1.00  0.00     0.106 CG0
ATOM     16  G   UNL     1       7.747 -32.933  13.783  1.00  0.00     0.000 G0
ENDBRANCH  13  15
ENDBRANCH  12  13
BRANCH  12  17
ATOM     17  C   UNL     1       9.332 -32.017  18.229  1.00  0.00    -0.006 C 
ATOM     18  C   UNL     1       9.982 -30.909  17.381  1.00  0.00     0.008 C 
ATOM     19  C   UNL     1       8.701 -31.412  19.492  1.00  0.00     0.008 C 
ENDBRANCH  12  17
ENDBRANCH  11  12
ENDBRANCH   1  11
TORSDOF 1
ENDMDL
MODEL 7
REMARK VINA RESULT:     0.332      1.920      4.676
REMARK INTER + INTRA:           0.502
REMARK INTER:                   0.212
REMARK INTRA:                   0.289
REMARK UNBOUND:                -0.005
REMARK SMILES CC1=CCC[C@@H](C)C(=O)C[C@@H](C(C)C)C(=O)C1
REMARK SMILES IDX 8 1 9 2 6 3 7 4 5 5 4 6 3 7 2 8 1 9 10 11 11 12 15 13 16 14
REMARK SMILES IDX 17 15 12 17 13 18 14 19
REMARK H PARENT
REMARK Flexibility Score: 70.00
ROOT
ATOM      1  C   UNL     1       7.537 -32.886  15.181  1.00  0.00     0.136 C 
ATOM      2  O   UNL     1       6.360 -32.842  15.509  1.00  0.00    -0.299 OA
ENDROOT
BRANCH   1   3
ATOM      3  C   UNL     1       7.891 -32.743  13.712  1.00  0.00     0.053 C 
ATOM      4  C   UNL     1       6.648 -32.388  12.886  1.00  0.00     0.016 C 
BRANCH   3   5
ATOM      5  C   UNL     1       8.574 -34.012  13.166  1.00  0.00     0.015 C 
BRANCH   5   6
ATOM      6  C   UNL     1      10.101 -33.967  13.344  1.00  0.00     0.028 C 
BRANCH   6   7
ATOM      7  C   UNL     1      10.625 -32.578  13.088  1.00  0.00    -0.028 C 
ATOM      8  C   UNL     1      11.163 -31.774  14.035  1.00  0.00    -0.070 CG0
ATOM      9  C   UNL     1      11.706 -30.435  13.603  1.00  0.00     0.039 C 
ATOM     10  G   UNL     1      11.226 -32.155  15.507  1.00  0.00     0.000 G0
ENDBRANCH   6   7
ENDBRANCH   5   6
ENDBRANCH   3   5
ENDBRANCH   1   3
BRANCH   1  11
ATOM     11  C   UNL     1       8.581 -33.111  16.252  1.00  0.00     0.087 C 
BRANCH  11  12
ATOM     12  C   UNL     1       9.018 -31.786  16.936  1.00  0.00     0.066 C 
BRANCH  12  13
ATOM     13  C   UNL     1      10.344 -31.284  16.382  1.00  0.00     0.140 C 
ATOM     14  O   UNL     1      10.693 -30.130  16.589  1.00  0.00    -0.299 OA
BRANCH  13  15
ATOM     15  C   UNL     1      11.213 -32.167  15.519  1.00  0.00     0.106 CG0
ATOM     16  G   UNL     1      11.161 -31.769  14.051  1.00  0.00     0.000 G0
ENDBRANCH  13  15
ENDBRANCH  12  13
BRANCH  12  17
ATOM     17  C   UNL     1       9.036 -31.915  18.491  1.00  0.00    -0.006 C 
ATOM     18  C   UNL     1       8.462 -30.692  19.228  1.00  0.00     0.008 C 
ATOM     19  C   UNL     1       8.326 -33.195  18.959  1.00  0.00     0.008 C 
ENDBRANCH  12  17
ENDBRANCH  11  12
ENDBRANCH   1  11
TORSDOF 1
ENDMDL
MODEL 8
REMARK VINA RESULT:     0.367      1.960      5.130
REMARK INTER + INTRA:           0.555
REMARK INTER:                  -2.721
REMARK INTRA:                   3.277
REMARK UNBOUND:                -0.005
REMARK SMILES CC1=CCC[C@@H](C)C(=O)C[C@@H](C(C)C)C(=O)C1
REMARK SMILES IDX 8 1 9 2 6 3 7 4 5 5 4 6 3 7 2 8 1 9 10 11 11 12 15 13 16 14
REMARK SMILES IDX 17 15 12 17 13 18 14 19
REMARK H PARENT
REMARK Flexibility Score: 70.00
ROOT
ATOM      1  C   UNL     1       7.753 -34.514  16.302  1.00  0.00     0.136 C 
ATOM      2  O   UNL     1       7.671 -35.679  16.664  1.00  0.00    -0.299 OA
ENDROOT
BRANCH   1   3
ATOM      3  C   UNL     1       6.615 -33.921  15.492  1.00  0.00     0.053 C 
ATOM      4  C   UNL     1       5.905 -35.007  14.674  1.00  0.00     0.016 C 
BRANCH   3   5
ATOM      5  C   UNL     1       7.100 -32.773  14.586  1.00  0.00     0.015 C 
BRANCH   5   6
ATOM      6  C   UNL     1       7.238 -33.215  13.119  1.00  0.00     0.028 C 
BRANCH   6   7
ATOM      7  C   UNL     1       8.591 -33.831  12.875  1.00  0.00    -0.028 C 
ATOM      8  C   UNL     1       9.769 -33.248  13.197  1.00  0.00    -0.070 CG0
ATOM      9  C   UNL     1      11.036 -34.027  12.950  1.00  0.00     0.039 C 
ATOM     10  G   UNL     1       9.867 -31.844  13.778  1.00  0.00     0.000 G0
ENDBRANCH   6   7
ENDBRANCH   5   6
ENDBRANCH   3   5
ENDBRANCH   1   3
BRANCH   1  11
ATOM     11  C   UNL     1       8.998 -33.730  16.652  1.00  0.00     0.087 C 
BRANCH  11  12
ATOM     12  C   UNL     1       8.907 -32.247  16.200  1.00  0.00     0.066 C 
BRANCH  12  13
ATOM     13  C   UNL     1      10.070 -31.869  15.293  1.00  0.00     0.140 C 
ATOM     14  O   UNL     1      11.139 -31.529  15.782  1.00  0.00    -0.299 OA
BRANCH  13  15
ATOM     15  C   UNL     1       9.910 -31.840  13.792  1.00  0.00     0.106 CG0
ATOM     16  G   UNL     1       9.788 -33.237  13.199  1.00  0.00     0.000 G0
ENDBRANCH  13  15
ENDBRANCH  12  13
BRANCH  12  17
ATOM     17  C   UNL     1       8.763 -31.278  17.414  1.00  0.00    -0.006 C 
ATOM     18  C   UNL     1       8.200 -31.942  18.683  1.00  0.00     0.008 C 
ATOM     19  C   UNL     1      10.090 -30.571  17.732  1.00  0.00     0.008 C 
ENDBRANCH  12  17
ENDBRANCH  11  12
ENDBRANCH   1  11
TORSDOF 1
ENDMDL
MODEL 9
REMARK VINA RESULT:     0.473      2.470      4.700
REMARK INTER + INTRA:           0.717
REMARK INTER:                  -1.047
REMARK INTRA:                   1.765
REMARK UNBOUND:                -0.005
REMARK SMILES CC1=CCC[C@@H](C)C(=O)C[C@@H](C(C)C)C(=O)C1
REMARK SMILES IDX 8 1 9 2 6 3 7 4 5 5 4 6 3 7 2 8 1 9 10 11 11 12 15 13 16 14
REMARK SMILES IDX 17 15 12 17 13 18 14 19
REMARK H PARENT
REMARK Flexibility Score: 70.00
ROOT
ATOM      1  C   UNL     1       9.468 -32.304  16.154  1.00  0.00     0.136 C 
ATOM      2  O   UNL     1       9.987 -31.198  16.211  1.00  0.00    -0.299 OA
ENDROOT
BRANCH   1   3
ATOM      3  C   UNL     1       8.224 -32.568  16.983  1.00  0.00     0.053 C 
ATOM      4  C   UNL     1       8.122 -34.053  17.352  1.00  0.00     0.016 C 
BRANCH   3   5
ATOM      5  C   UNL     1       6.949 -32.088  16.264  1.00  0.00     0.015 C 
BRANCH   5   6
ATOM      6  C   UNL     1       6.779 -32.749  14.886  1.00  0.00     0.028 C 
BRANCH   6   7
ATOM      7  C   UNL     1       6.423 -34.205  15.035  1.00  0.00    -0.028 C 
ATOM      8  C   UNL     1       6.858 -35.190  14.215  1.00  0.00    -0.070 CG0
ATOM      9  C   UNL     1       6.465 -36.609  14.542  1.00  0.00     0.039 C 
ATOM     10  G   UNL     1       7.704 -34.925  12.979  1.00  0.00     0.000 G0
ENDBRANCH   6   7
ENDBRANCH   5   6
ENDBRANCH   3   5
ENDBRANCH   1   3
BRANCH   1  11
ATOM     11  C   UNL     1      10.107 -33.363  15.285  1.00  0.00     0.087 C 
BRANCH  11  12
ATOM     12  C   UNL     1       9.613 -33.295  13.813  1.00  0.00     0.066 C 
BRANCH  12  13
ATOM     13  C   UNL     1       9.167 -34.661  13.312  1.00  0.00     0.140 C 
ATOM     14  O   UNL     1       9.994 -35.546  13.139  1.00  0.00    -0.299 OA
BRANCH  13  15
ATOM     15  C   UNL     1       7.724 -34.928  12.958  1.00  0.00     0.106 CG0
ATOM     16  G   UNL     1       6.874 -35.218  14.187  1.00  0.00     0.000 G0
ENDBRANCH  13  15
ENDBRANCH  12  13
BRANCH  12  17
ATOM     17  C   UNL     1      10.671 -32.635  12.876  1.00  0.00    -0.006 C 
ATOM     18  C   UNL     1      10.938 -31.150  13.177  1.00  0.00     0.008 C 
ATOM     19  C   UNL     1      11.993 -33.420  12.877  1.00  0.00     0.008 C 
ENDBRANCH  12  17
ENDBRANCH  11  12
ENDBRANCH   1  11
TORSDOF 1
ENDMDL
