MODEL 1
REMARK VINA RESULT:    -4.124      0.000      0.000
REMARK INTER + INTRA:          -5.978
REMARK INTER:                  -5.812
REMARK INTRA:                  -0.166
REMARK UNBOUND:                -0.166
REMARK SMILES CCCCCCCCC(=O)[O-]
REMARK SMILES IDX 6 1 7 2 8 3 9 4 10 5 11 6 5 7 4 8 3 9 2 10 1 11
REMARK H PARENT
REMARK Flexibility Score: inf
ROOT
ATOM      1  C   UNL     1      34.451  28.857  28.770  1.00  0.00     0.000 C 
ENDROOT
BRANCH   1   2
ATOM      2  C   UNL     1      33.776  27.482  28.926  1.00  0.00     0.006 C 
BRANCH   2   3
ATOM      3  C   UNL     1      32.365  27.442  28.326  1.00  0.00     0.053 C 
BRANCH   3   4
ATOM      4  C   UNL     1      32.391  26.798  26.975  1.00  0.00     0.041 C 
ATOM      5  O   UNL     1      32.096  25.582  26.848  1.00  0.00    -0.550 OA
ATOM      6  O   UNL     1      32.692  27.556  25.850  1.00  0.00    -0.550 OA
ENDBRANCH   3   4
ENDBRANCH   2   3
ENDBRANCH   1   2
BRANCH   1   7
ATOM      7  C   UNL     1      35.955  28.890  29.108  1.00  0.00     0.000 C 
BRANCH   7   8
ATOM      8  C   UNL     1      36.534  30.292  29.372  1.00  0.00    -0.000 C 
BRANCH   8   9
ATOM      9  C   UNL     1      37.549  30.729  28.306  1.00  0.00    -0.000 C 
BRANCH   9  10
ATOM     10  C   UNL     1      37.623  32.258  28.213  1.00  0.00    -0.003 C 
ATOM     11  C   UNL     1      39.070  32.741  28.209  1.00  0.00     0.004 C 
ENDBRANCH   9  10
ENDBRANCH   8   9
ENDBRANCH   7   8
ENDBRANCH   1   7
TORSDOF 7
ENDMDL
MODEL 2
REMARK VINA RESULT:    -3.971     12.339     13.589
REMARK INTER + INTRA:          -5.762
REMARK INTER:                  -5.540
REMARK INTRA:                  -0.221
REMARK UNBOUND:                -0.166
REMARK SMILES CCCCCCCCC(=O)[O-]
REMARK SMILES IDX 6 1 7 2 8 3 9 4 10 5 11 6 5 7 4 8 3 9 2 10 1 11
REMARK H PARENT
REMARK Flexibility Score: inf
ROOT
ATOM      1  C   UNL     1      38.920  26.046  17.357  1.00  0.00     0.000 C 
ENDROOT
BRANCH   1   2
ATOM      2  C   UNL     1      40.125  27.002  17.308  1.00  0.00     0.006 C 
BRANCH   2   3
ATOM      3  C   UNL     1      41.348  26.383  16.619  1.00  0.00     0.053 C 
BRANCH   3   4
ATOM      4  C   UNL     1      42.094  25.502  17.572  1.00  0.00     0.041 C 
ATOM      5  O   UNL     1      41.978  25.673  18.814  1.00  0.00    -0.550 OA
ATOM      6  O   UNL     1      42.877  24.462  17.089  1.00  0.00    -0.550 OA
ENDBRANCH   3   4
ENDBRANCH   2   3
ENDBRANCH   1   2
BRANCH   1   7
ATOM      7  C   UNL     1      37.880  26.245  16.237  1.00  0.00     0.000 C 
BRANCH   7   8
ATOM      8  C   UNL     1      36.542  25.513  16.451  1.00  0.00    -0.000 C 
BRANCH   8   9
ATOM      9  C   UNL     1      35.408  26.077  15.583  1.00  0.00    -0.000 C 
BRANCH   9  10
ATOM     10  C   UNL     1      34.972  27.460  16.080  1.00  0.00    -0.003 C 
ATOM     11  C   UNL     1      34.990  28.483  14.948  1.00  0.00     0.004 C 
ENDBRANCH   9  10
ENDBRANCH   8   9
ENDBRANCH   7   8
ENDBRANCH   1   7
TORSDOF 7
ENDMDL
MODEL 3
REMARK VINA RESULT:    -3.969     12.508     13.552
REMARK INTER + INTRA:          -5.759
REMARK INTER:                  -5.506
REMARK INTRA:                  -0.253
REMARK UNBOUND:                -0.166
REMARK SMILES CCCCCCCCC(=O)[O-]
REMARK SMILES IDX 6 1 7 2 8 3 9 4 10 5 11 6 5 7 4 8 3 9 2 10 1 11
REMARK H PARENT
REMARK Flexibility Score: inf
ROOT
ATOM      1  C   UNL     1      41.606  28.997  17.228  1.00  0.00     0.000 C 
ENDROOT
BRANCH   1   2
ATOM      2  C   UNL     1      41.805  27.478  17.374  1.00  0.00     0.006 C 
BRANCH   2   3
ATOM      3  C   UNL     1      40.844  26.666  16.496  1.00  0.00     0.053 C 
BRANCH   3   4
ATOM      4  C   UNL     1      39.531  26.482  17.191  1.00  0.00     0.041 C 
ATOM      5  O   UNL     1      38.506  26.168  16.533  1.00  0.00    -0.550 OA
ATOM      6  O   UNL     1      39.453  26.608  18.572  1.00  0.00    -0.550 OA
ENDBRANCH   3   4
ENDBRANCH   2   3
ENDBRANCH   1   2
BRANCH   1   7
ATOM      7  C   UNL     1      42.470  29.669  16.141  1.00  0.00     0.000 C 
BRANCH   7   8
ATOM      8  C   UNL     1      42.507  31.207  16.195  1.00  0.00    -0.000 C 
BRANCH   8   9
ATOM      9  C   UNL     1      43.752  31.799  15.519  1.00  0.00    -0.000 C 
BRANCH   9  10
ATOM     10  C   UNL     1      45.000  31.588  16.385  1.00  0.00    -0.003 C 
ATOM     11  C   UNL     1      46.105  30.890  15.599  1.00  0.00     0.004 C 
ENDBRANCH   9  10
ENDBRANCH   8   9
ENDBRANCH   7   8
ENDBRANCH   1   7
TORSDOF 7
ENDMDL
MODEL 4
REMARK VINA RESULT:    -3.834      3.555      6.453
REMARK INTER + INTRA:          -5.568
REMARK INTER:                  -5.353
REMARK INTRA:                  -0.215
REMARK UNBOUND:                -0.166
REMARK SMILES CCCCCCCCC(=O)[O-]
REMARK SMILES IDX 6 1 7 2 8 3 9 4 10 5 11 6 5 7 4 8 3 9 2 10 1 11
REMARK H PARENT
REMARK Flexibility Score: inf
ROOT
ATOM      1  C   UNL     1      35.594  28.394  29.728  1.00  0.00     0.000 C 
ENDROOT
BRANCH   1   2
ATOM      2  C   UNL     1      36.583  29.572  29.778  1.00  0.00     0.006 C 
BRANCH   2   3
ATOM      3  C   UNL     1      36.638  30.358  28.462  1.00  0.00     0.053 C 
BRANCH   3   4
ATOM      4  C   UNL     1      37.633  31.472  28.561  1.00  0.00     0.041 C 
ATOM      5  O   UNL     1      38.398  31.724  27.594  1.00  0.00    -0.550 OA
ATOM      6  O   UNL     1      37.679  32.263  29.702  1.00  0.00    -0.550 OA
ENDBRANCH   3   4
ENDBRANCH   2   3
ENDBRANCH   1   2
BRANCH   1   7
ATOM      7  C   UNL     1      34.266  28.684  29.000  1.00  0.00     0.000 C 
BRANCH   7   8
ATOM      8  C   UNL     1      33.493  27.439  28.530  1.00  0.00    -0.000 C 
BRANCH   8   9
ATOM      9  C   UNL     1      31.972  27.646  28.523  1.00  0.00    -0.000 C 
BRANCH   9  10
ATOM     10  C   UNL     1      31.342  27.050  27.258  1.00  0.00    -0.003 C 
ATOM     11  C   UNL     1      32.234  25.969  26.656  1.00  0.00     0.004 C 
ENDBRANCH   9  10
ENDBRANCH   8   9
ENDBRANCH   7   8
ENDBRANCH   1   7
TORSDOF 7
ENDMDL
MODEL 5
REMARK VINA RESULT:    -3.811     12.230     13.358
REMARK INTER + INTRA:          -5.536
REMARK INTER:                  -5.326
REMARK INTRA:                  -0.210
REMARK UNBOUND:                -0.166
REMARK SMILES CCCCCCCCC(=O)[O-]
REMARK SMILES IDX 6 1 7 2 8 3 9 4 10 5 11 6 5 7 4 8 3 9 2 10 1 11
REMARK H PARENT
REMARK Flexibility Score: inf
ROOT
ATOM      1  C   UNL     1      37.897  26.242  16.171  1.00  0.00     0.000 C 
ENDROOT
BRANCH   1   2
ATOM      2  C   UNL     1      38.902  26.242  17.337  1.00  0.00     0.006 C 
BRANCH   2   3
ATOM      3  C   UNL     1      40.330  26.579  16.891  1.00  0.00     0.053 C 
BRANCH   3   4
ATOM      4  C   UNL     1      41.319  26.127  17.920  1.00  0.00     0.041 C 
ATOM      5  O   UNL     1      42.154  25.229  17.643  1.00  0.00    -0.550 OA
ATOM      6  O   UNL     1      41.348  26.735  19.168  1.00  0.00    -0.550 OA
ENDBRANCH   3   4
ENDBRANCH   2   3
ENDBRANCH   1   2
BRANCH   1   7
ATOM      7  C   UNL     1      36.475  25.767  16.532  1.00  0.00     0.000 C 
BRANCH   7   8
ATOM      8  C   UNL     1      35.360  26.283  15.604  1.00  0.00    -0.000 C 
BRANCH   8   9
ATOM      9  C   UNL     1      35.028  27.764  15.834  1.00  0.00    -0.000 C 
BRANCH   9  10
ATOM     10  C   UNL     1      35.009  28.534  14.508  1.00  0.00    -0.003 C 
ATOM     11  C   UNL     1      34.948  30.039  14.746  1.00  0.00     0.004 C 
ENDBRANCH   9  10
ENDBRANCH   8   9
ENDBRANCH   7   8
ENDBRANCH   1   7
TORSDOF 7
ENDMDL
MODEL 6
REMARK VINA RESULT:    -3.748      6.640      9.151
REMARK INTER + INTRA:          -5.447
REMARK INTER:                  -5.140
REMARK INTRA:                  -0.307
REMARK UNBOUND:                -0.166
REMARK SMILES CCCCCCCCC(=O)[O-]
REMARK SMILES IDX 6 1 7 2 8 3 9 4 10 5 11 6 5 7 4 8 3 9 2 10 1 11
REMARK H PARENT
REMARK Flexibility Score: inf
ROOT
ATOM      1  C   UNL     1      43.685  31.799  29.272  1.00  0.00     0.000 C 
ENDROOT
BRANCH   1   2
ATOM      2  C   UNL     1      43.480  30.463  30.008  1.00  0.00     0.006 C 
BRANCH   2   3
ATOM      3  C   UNL     1      43.368  29.269  29.051  1.00  0.00     0.053 C 
BRANCH   3   4
ATOM      4  C   UNL     1      44.453  28.276  29.327  1.00  0.00     0.041 C 
ATOM      5  O   UNL     1      45.659  28.636  29.313  1.00  0.00    -0.550 OA
ATOM      6  O   UNL     1      44.128  26.964  29.649  1.00  0.00    -0.550 OA
ENDBRANCH   3   4
ENDBRANCH   2   3
ENDBRANCH   1   2
BRANCH   1   7
ATOM      7  C   UNL     1      42.520  32.802  29.399  1.00  0.00     0.000 C 
BRANCH   7   8
ATOM      8  C   UNL     1      41.188  32.198  29.880  1.00  0.00    -0.000 C 
BRANCH   8   9
ATOM      9  C   UNL     1      39.996  32.604  29.002  1.00  0.00    -0.000 C 
BRANCH   9  10
ATOM     10  C   UNL     1      38.784  31.706  29.273  1.00  0.00    -0.003 C 
ATOM     11  C   UNL     1      38.008  31.425  27.990  1.00  0.00     0.004 C 
ENDBRANCH   9  10
ENDBRANCH   8   9
ENDBRANCH   7   8
ENDBRANCH   1   7
TORSDOF 7
ENDMDL
MODEL 7
REMARK VINA RESULT:    -3.745      4.948      7.588
REMARK INTER + INTRA:          -5.444
REMARK INTER:                  -5.171
REMARK INTRA:                  -0.273
REMARK UNBOUND:                -0.166
REMARK SMILES CCCCCCCCC(=O)[O-]
REMARK SMILES IDX 6 1 7 2 8 3 9 4 10 5 11 6 5 7 4 8 3 9 2 10 1 11
REMARK H PARENT
REMARK Flexibility Score: inf
ROOT
ATOM      1  C   UNL     1      41.461  32.121  29.879  1.00  0.00     0.000 C 
ENDROOT
BRANCH   1   2
ATOM      2  C   UNL     1      40.177  32.616  29.189  1.00  0.00     0.006 C 
BRANCH   2   3
ATOM      3  C   UNL     1      38.916  31.914  29.707  1.00  0.00     0.053 C 
BRANCH   3   4
ATOM      4  C   UNL     1      38.052  31.482  28.564  1.00  0.00     0.041 C 
ATOM      5  O   UNL     1      38.374  31.772  27.383  1.00  0.00    -0.550 OA
ATOM      6  O   UNL     1      36.918  30.716  28.802  1.00  0.00    -0.550 OA
ENDBRANCH   3   4
ENDBRANCH   2   3
ENDBRANCH   1   2
BRANCH   1   7
ATOM      7  C   UNL     1      42.758  32.828  29.434  1.00  0.00     0.000 C 
BRANCH   7   8
ATOM      8  C   UNL     1      43.981  31.907  29.277  1.00  0.00    -0.000 C 
BRANCH   8   9
ATOM      9  C   UNL     1      43.804  30.552  29.977  1.00  0.00    -0.000 C 
BRANCH   9  10
ATOM     10  C   UNL     1      44.041  29.394  29.000  1.00  0.00    -0.003 C 
ATOM     11  C   UNL     1      45.242  28.554  29.424  1.00  0.00     0.004 C 
ENDBRANCH   9  10
ENDBRANCH   8   9
ENDBRANCH   7   8
ENDBRANCH   1   7
TORSDOF 7
ENDMDL
MODEL 8
REMARK VINA RESULT:    -3.692      1.650      2.414
REMARK INTER + INTRA:          -5.369
REMARK INTER:                  -5.123
REMARK INTRA:                  -0.247
REMARK UNBOUND:                -0.166
REMARK SMILES CCCCCCCCC(=O)[O-]
REMARK SMILES IDX 6 1 7 2 8 3 9 4 10 5 11 6 5 7 4 8 3 9 2 10 1 11
REMARK H PARENT
REMARK Flexibility Score: inf
ROOT
ATOM      1  C   UNL     1      36.129  29.656  28.634  1.00  0.00     0.000 C 
ENDROOT
BRANCH   1   2
ATOM      2  C   UNL     1      35.383  29.015  29.818  1.00  0.00     0.006 C 
BRANCH   2   3
ATOM      3  C   UNL     1      34.814  27.631  29.482  1.00  0.00     0.053 C 
BRANCH   3   4
ATOM      4  C   UNL     1      33.432  27.757  28.920  1.00  0.00     0.041 C 
ATOM      5  O   UNL     1      33.084  27.059  27.933  1.00  0.00    -0.550 OA
ATOM      6  O   UNL     1      32.514  28.610  29.520  1.00  0.00    -0.550 OA
ENDBRANCH   3   4
ENDBRANCH   2   3
ENDBRANCH   1   2
BRANCH   1   7
ATOM      7  C   UNL     1      37.366  30.494  29.016  1.00  0.00     0.000 C 
BRANCH   7   8
ATOM      8  C   UNL     1      37.871  31.450  27.920  1.00  0.00    -0.000 C 
BRANCH   8   9
ATOM      9  C   UNL     1      38.191  32.854  28.452  1.00  0.00    -0.000 C 
BRANCH   9  10
ATOM     10  C   UNL     1      39.090  32.779  29.692  1.00  0.00    -0.003 C 
ATOM     11  C   UNL     1      40.564  32.739  29.301  1.00  0.00     0.004 C 
ENDBRANCH   9  10
ENDBRANCH   8   9
ENDBRANCH   7   8
ENDBRANCH   1   7
TORSDOF 7
ENDMDL
MODEL 9
REMARK VINA RESULT:    -3.690      3.809      6.096
REMARK INTER + INTRA:          -5.365
REMARK INTER:                  -5.059
REMARK INTRA:                  -0.307
REMARK UNBOUND:                -0.166
REMARK SMILES CCCCCCCCC(=O)[O-]
REMARK SMILES IDX 6 1 7 2 8 3 9 4 10 5 11 6 5 7 4 8 3 9 2 10 1 11
REMARK H PARENT
REMARK Flexibility Score: inf
ROOT
ATOM      1  C   UNL     1      39.484  32.726  28.438  1.00  0.00     0.000 C 
ENDROOT
BRANCH   1   2
ATOM      2  C   UNL     1      37.973  32.576  28.685  1.00  0.00     0.006 C 
BRANCH   2   3
ATOM      3  C   UNL     1      37.380  31.335  28.007  1.00  0.00     0.053 C 
BRANCH   3   4
ATOM      4  C   UNL     1      36.928  30.344  29.034  1.00  0.00     0.041 C 
ATOM      5  O   UNL     1      37.572  30.205  30.106  1.00  0.00    -0.550 OA
ATOM      6  O   UNL     1      35.766  29.612  28.827  1.00  0.00    -0.550 OA
ENDBRANCH   3   4
ENDBRANCH   2   3
ENDBRANCH   1   2
BRANCH   1   7
ATOM      7  C   UNL     1      40.362  32.686  29.706  1.00  0.00     0.000 C 
BRANCH   7   8
ATOM      8  C   UNL     1      41.403  31.553  29.743  1.00  0.00    -0.000 C 
BRANCH   8   9
ATOM      9  C   UNL     1      42.848  32.070  29.798  1.00  0.00    -0.000 C 
BRANCH   9  10
ATOM     10  C   UNL     1      43.781  31.182  28.966  1.00  0.00    -0.003 C 
ATOM     11  C   UNL     1      43.612  29.711  29.332  1.00  0.00     0.004 C 
ENDBRANCH   9  10
ENDBRANCH   8   9
ENDBRANCH   7   8
ENDBRANCH   1   7
TORSDOF 7
ENDMDL
