MODEL 1
REMARK VINA RESULT:    -4.434      0.000      0.000
REMARK INTER + INTRA:         -10.065
REMARK INTER:                  -8.062
REMARK INTRA:                  -2.003
REMARK UNBOUND:                -2.003
REMARK SMILES CCCCCCCCCCCCCC[C@@H](C)C(=O)[O-]
REMARK SMILES IDX 9 1 10 2 11 3 12 4 13 5 14 6 15 7 16 8 17 9 18 10 19 11 8 12
REMARK SMILES IDX 7 13 6 14 5 15 4 16 3 17 2 18 1 19
REMARK H PARENT
REMARK Flexibility Score: inf
ROOT
ATOM      1  C   UNL     1      55.909  -1.995  14.407  1.00  0.00     0.000 C 
ENDROOT
BRANCH   1   2
ATOM      2  C   UNL     1      55.312  -3.269  13.786  1.00  0.00     0.000 C 
BRANCH   2   3
ATOM      3  C   UNL     1      54.270  -2.961  12.698  1.00  0.00     0.000 C 
BRANCH   3   4
ATOM      4  C   UNL     1      52.874  -3.505  13.049  1.00  0.00     0.000 C 
BRANCH   4   5
ATOM      5  C   UNL     1      51.957  -3.628  11.821  1.00  0.00     0.001 C 
BRANCH   5   6
ATOM      6  C   UNL     1      52.431  -4.712  10.836  1.00  0.00     0.009 C 
BRANCH   6   7
ATOM      7  C   UNL     1      52.228  -4.305   9.360  1.00  0.00     0.032 C 
ATOM      8  C   UNL     1      51.411  -3.013   9.215  1.00  0.00     0.014 C 
BRANCH   7   9
ATOM      9  C   UNL     1      53.563  -4.137   8.685  1.00  0.00     0.044 C 
ATOM     10  O   UNL     1      54.524  -3.596   9.295  1.00  0.00    -0.550 OA
ATOM     11  O   UNL     1      53.741  -4.581   7.381  1.00  0.00    -0.550 OA
ENDBRANCH   7   9
ENDBRANCH   6   7
ENDBRANCH   5   6
ENDBRANCH   4   5
ENDBRANCH   3   4
ENDBRANCH   2   3
ENDBRANCH   1   2
BRANCH   1  12
ATOM     12  C   UNL     1      54.993  -1.370  15.470  1.00  0.00     0.000 C 
BRANCH  12  13
ATOM     13  C   UNL     1      54.932   0.162  15.372  1.00  0.00    -0.000 C 
BRANCH  13  14
ATOM     14  C   UNL     1      55.564   0.654  14.064  1.00  0.00    -0.000 C 
BRANCH  14  15
ATOM     15  C   UNL     1      54.511   1.286  13.146  1.00  0.00    -0.000 C 
BRANCH  15  16
ATOM     16  C   UNL     1      53.093   1.033  13.679  1.00  0.00    -0.000 C 
BRANCH  16  17
ATOM     17  C   UNL     1      52.054   0.892  12.556  1.00  0.00    -0.000 C 
BRANCH  17  18
ATOM     18  C   UNL     1      52.580   0.084  11.362  1.00  0.00    -0.003 C 
ATOM     19  C   UNL     1      51.859   0.473  10.074  1.00  0.00     0.004 C 
ENDBRANCH  17  18
ENDBRANCH  16  17
ENDBRANCH  15  16
ENDBRANCH  14  15
ENDBRANCH  13  14
ENDBRANCH  12  13
ENDBRANCH   1  12
TORSDOF 14
ENDMDL
MODEL 2
REMARK VINA RESULT:    -4.407      8.116     11.030
REMARK INTER + INTRA:         -10.016
REMARK INTER:                  -7.675
REMARK INTRA:                  -2.340
REMARK UNBOUND:                -2.003
REMARK SMILES CCCCCCCCCCCCCC[C@@H](C)C(=O)[O-]
REMARK SMILES IDX 9 1 10 2 11 3 12 4 13 5 14 6 15 7 16 8 17 9 18 10 19 11 8 12
REMARK SMILES IDX 7 13 6 14 5 15 4 16 3 17 2 18 1 19
REMARK H PARENT
REMARK Flexibility Score: inf
ROOT
ATOM      1  C   UNL     1      55.970  -1.015  21.572  1.00  0.00     0.000 C 
ENDROOT
BRANCH   1   2
ATOM      2  C   UNL     1      56.289  -2.402  20.991  1.00  0.00     0.000 C 
BRANCH   2   3
ATOM      3  C   UNL     1      57.670  -2.920  21.424  1.00  0.00     0.000 C 
BRANCH   3   4
ATOM      4  C   UNL     1      58.008  -4.286  20.803  1.00  0.00     0.000 C 
BRANCH   4   5
ATOM      5  C   UNL     1      59.210  -4.223  19.847  1.00  0.00     0.001 C 
BRANCH   5   6
ATOM      6  C   UNL     1      60.360  -3.360  20.398  1.00  0.00     0.009 C 
BRANCH   6   7
ATOM      7  C   UNL     1      61.367  -4.176  21.237  1.00  0.00     0.032 C 
ATOM      8  C   UNL     1      62.638  -4.526  20.450  1.00  0.00     0.014 C 
BRANCH   7   9
ATOM      9  C   UNL     1      61.737  -3.413  22.480  1.00  0.00     0.044 C 
ATOM     10  O   UNL     1      60.912  -2.626  23.017  1.00  0.00    -0.550 OA
ATOM     11  O   UNL     1      62.997  -3.574  23.044  1.00  0.00    -0.550 OA
ENDBRANCH   7   9
ENDBRANCH   6   7
ENDBRANCH   5   6
ENDBRANCH   4   5
ENDBRANCH   3   4
ENDBRANCH   2   3
ENDBRANCH   1   2
BRANCH   1  12
ATOM     12  C   UNL     1      57.146  -0.421  22.364  1.00  0.00     0.000 C 
BRANCH  12  13
ATOM     13  C   UNL     1      57.712   0.851  21.716  1.00  0.00    -0.000 C 
BRANCH  13  14
ATOM     14  C   UNL     1      58.973   0.538  20.900  1.00  0.00    -0.000 C 
BRANCH  14  15
ATOM     15  C   UNL     1      58.711   0.696  19.398  1.00  0.00    -0.000 C 
BRANCH  15  16
ATOM     16  C   UNL     1      58.555  -0.673  18.720  1.00  0.00    -0.000 C 
BRANCH  16  17
ATOM     17  C   UNL     1      57.524  -0.656  17.580  1.00  0.00    -0.000 C 
BRANCH  17  18
ATOM     18  C   UNL     1      56.208   0.023  17.984  1.00  0.00    -0.003 C 
ATOM     19  C   UNL     1      55.007  -0.850  17.629  1.00  0.00     0.004 C 
ENDBRANCH  17  18
ENDBRANCH  16  17
ENDBRANCH  15  16
ENDBRANCH  14  15
ENDBRANCH  13  14
ENDBRANCH  12  13
ENDBRANCH   1  12
TORSDOF 14
ENDMDL
MODEL 3
REMARK VINA RESULT:    -4.340      7.383     10.312
REMARK INTER + INTRA:          -9.896
REMARK INTER:                  -8.292
REMARK INTRA:                  -1.604
REMARK UNBOUND:                -2.003
REMARK SMILES CCCCCCCCCCCCCC[C@@H](C)C(=O)[O-]
REMARK SMILES IDX 9 1 10 2 11 3 12 4 13 5 14 6 15 7 16 8 17 9 18 10 19 11 8 12
REMARK SMILES IDX 7 13 6 14 5 15 4 16 3 17 2 18 1 19
REMARK H PARENT
REMARK Flexibility Score: inf
ROOT
ATOM      1  C   UNL     1      57.900   0.252  20.724  1.00  0.00     0.000 C 
ENDROOT
BRANCH   1   2
ATOM      2  C   UNL     1      58.332  -0.874  21.677  1.00  0.00     0.000 C 
BRANCH   2   3
ATOM      3  C   UNL     1      57.296  -2.006  21.759  1.00  0.00     0.000 C 
BRANCH   3   4
ATOM      4  C   UNL     1      57.481  -3.056  20.649  1.00  0.00     0.000 C 
BRANCH   4   5
ATOM      5  C   UNL     1      58.498  -4.146  21.026  1.00  0.00     0.001 C 
BRANCH   5   6
ATOM      6  C   UNL     1      59.915  -3.835  20.512  1.00  0.00     0.009 C 
BRANCH   6   7
ATOM      7  C   UNL     1      60.930  -3.620  21.656  1.00  0.00     0.032 C 
ATOM      8  C   UNL     1      60.338  -3.949  23.034  1.00  0.00     0.014 C 
BRANCH   7   9
ATOM      9  C   UNL     1      62.156  -4.458  21.420  1.00  0.00     0.044 C 
ATOM     10  O   UNL     1      62.814  -4.919  22.391  1.00  0.00    -0.550 OA
ATOM     11  O   UNL     1      62.571  -4.730  20.122  1.00  0.00    -0.550 OA
ENDBRANCH   7   9
ENDBRANCH   6   7
ENDBRANCH   5   6
ENDBRANCH   4   5
ENDBRANCH   3   4
ENDBRANCH   2   3
ENDBRANCH   1   2
BRANCH   1  12
ATOM     12  C   UNL     1      58.698   0.255  19.411  1.00  0.00     0.000 C 
BRANCH  12  13
ATOM     13  C   UNL     1      57.886  -0.287  18.225  1.00  0.00    -0.000 C 
BRANCH  13  14
ATOM     14  C   UNL     1      56.381  -0.118  18.467  1.00  0.00    -0.000 C 
BRANCH  14  15
ATOM     15  C   UNL     1      55.565  -0.961  17.480  1.00  0.00    -0.000 C 
BRANCH  15  16
ATOM     16  C   UNL     1      55.847  -0.538  16.031  1.00  0.00    -0.000 C 
BRANCH  16  17
ATOM     17  C   UNL     1      55.701  -1.699  15.035  1.00  0.00    -0.000 C 
BRANCH  17  18
ATOM     18  C   UNL     1      57.052  -2.305  14.630  1.00  0.00    -0.003 C 
ATOM     19  C   UNL     1      56.861  -3.547  13.765  1.00  0.00     0.004 C 
ENDBRANCH  17  18
ENDBRANCH  16  17
ENDBRANCH  15  16
ENDBRANCH  14  15
ENDBRANCH  13  14
ENDBRANCH  12  13
ENDBRANCH   1  12
TORSDOF 14
ENDMDL
MODEL 4
REMARK VINA RESULT:    -4.318      3.650      6.166
REMARK INTER + INTRA:          -9.855
REMARK INTER:                  -8.804
REMARK INTRA:                  -1.052
REMARK UNBOUND:                -2.003
REMARK SMILES CCCCCCCCCCCCCC[C@@H](C)C(=O)[O-]
REMARK SMILES IDX 9 1 10 2 11 3 12 4 13 5 14 6 15 7 16 8 17 9 18 10 19 11 8 12
REMARK SMILES IDX 7 13 6 14 5 15 4 16 3 17 2 18 1 19
REMARK H PARENT
REMARK Flexibility Score: inf
ROOT
ATOM      1  C   UNL     1      57.616  -1.587  15.984  1.00  0.00     0.000 C 
ENDROOT
BRANCH   1   2
ATOM      2  C   UNL     1      57.071  -1.704  14.551  1.00  0.00     0.000 C 
BRANCH   2   3
ATOM      3  C   UNL     1      56.813  -3.161  14.136  1.00  0.00     0.000 C 
BRANCH   3   4
ATOM      4  C   UNL     1      55.474  -3.334  13.396  1.00  0.00     0.000 C 
BRANCH   4   5
ATOM      5  C   UNL     1      54.473  -2.210  13.709  1.00  0.00     0.001 C 
BRANCH   5   6
ATOM      6  C   UNL     1      53.390  -2.065  12.624  1.00  0.00     0.009 C 
BRANCH   6   7
ATOM      7  C   UNL     1      52.906  -3.427  12.081  1.00  0.00     0.032 C 
ATOM      8  C   UNL     1      51.489  -3.779  12.557  1.00  0.00     0.014 C 
BRANCH   7   9
ATOM      9  C   UNL     1      52.947  -3.423  10.576  1.00  0.00     0.044 C 
ATOM     10  O   UNL     1      51.881  -3.364   9.908  1.00  0.00    -0.550 OA
ATOM     11  O   UNL     1      54.168  -3.485   9.915  1.00  0.00    -0.550 OA
ENDBRANCH   7   9
ENDBRANCH   6   7
ENDBRANCH   5   6
ENDBRANCH   4   5
ENDBRANCH   3   4
ENDBRANCH   2   3
ENDBRANCH   1   2
BRANCH   1  12
ATOM     12  C   UNL     1      56.992  -0.417  16.761  1.00  0.00     0.000 C 
BRANCH  12  13
ATOM     13  C   UNL     1      55.755  -0.838  17.569  1.00  0.00    -0.000 C 
BRANCH  13  14
ATOM     14  C   UNL     1      56.116  -1.082  19.039  1.00  0.00    -0.000 C 
BRANCH  14  15
ATOM     15  C   UNL     1      57.563  -0.666  19.330  1.00  0.00    -0.000 C 
BRANCH  15  16
ATOM     16  C   UNL     1      58.362  -1.834  19.926  1.00  0.00    -0.000 C 
BRANCH  16  17
ATOM     17  C   UNL     1      57.468  -2.859  20.642  1.00  0.00    -0.000 C 
BRANCH  17  18
ATOM     18  C   UNL     1      58.154  -4.221  20.819  1.00  0.00    -0.003 C 
ATOM     19  C   UNL     1      59.124  -4.199  21.997  1.00  0.00     0.004 C 
ENDBRANCH  17  18
ENDBRANCH  16  17
ENDBRANCH  15  16
ENDBRANCH  14  15
ENDBRANCH  13  14
ENDBRANCH  12  13
ENDBRANCH   1  12
TORSDOF 14
ENDMDL
MODEL 5
REMARK VINA RESULT:    -4.289      6.921      9.756
REMARK INTER + INTRA:          -9.801
REMARK INTER:                  -9.013
REMARK INTRA:                  -0.789
REMARK UNBOUND:                -2.003
REMARK SMILES CCCCCCCCCCCCCC[C@@H](C)C(=O)[O-]
REMARK SMILES IDX 9 1 10 2 11 3 12 4 13 5 14 6 15 7 16 8 17 9 18 10 19 11 8 12
REMARK SMILES IDX 7 13 6 14 5 15 4 16 3 17 2 18 1 19
REMARK H PARENT
REMARK Flexibility Score: inf
ROOT
ATOM      1  C   UNL     1      57.971  -0.930  17.863  1.00  0.00     0.000 C 
ENDROOT
BRANCH   1   2
ATOM      2  C   UNL     1      57.103  -1.259  19.088  1.00  0.00     0.000 C 
BRANCH   2   3
ATOM      3  C   UNL     1      57.921  -1.846  20.250  1.00  0.00     0.000 C 
BRANCH   3   4
ATOM      4  C   UNL     1      57.316  -3.151  20.796  1.00  0.00     0.000 C 
BRANCH   4   5
ATOM      5  C   UNL     1      58.344  -4.292  20.880  1.00  0.00     0.001 C 
BRANCH   5   6
ATOM      6  C   UNL     1      59.777  -3.820  20.575  1.00  0.00     0.009 C 
BRANCH   6   7
ATOM      7  C   UNL     1      60.671  -3.781  21.834  1.00  0.00     0.032 C 
ATOM      8  C   UNL     1      60.074  -4.579  23.002  1.00  0.00     0.014 C 
BRANCH   7   9
ATOM      9  C   UNL     1      62.041  -4.312  21.507  1.00  0.00     0.044 C 
ATOM     10  O   UNL     1      62.908  -4.445  22.412  1.00  0.00    -0.550 OA
ATOM     11  O   UNL     1      62.356  -4.660  20.199  1.00  0.00    -0.550 OA
ENDBRANCH   7   9
ENDBRANCH   6   7
ENDBRANCH   5   6
ENDBRANCH   4   5
ENDBRANCH   3   4
ENDBRANCH   2   3
ENDBRANCH   1   2
BRANCH   1  12
ATOM     12  C   UNL     1      57.135  -0.572  16.624  1.00  0.00     0.000 C 
BRANCH  12  13
ATOM     13  C   UNL     1      57.583  -1.335  15.369  1.00  0.00    -0.000 C 
BRANCH  13  14
ATOM     14  C   UNL     1      56.374  -1.823  14.561  1.00  0.00    -0.000 C 
BRANCH  14  15
ATOM     15  C   UNL     1      56.542  -3.290  14.147  1.00  0.00    -0.000 C 
BRANCH  15  16
ATOM     16  C   UNL     1      55.279  -3.812  13.447  1.00  0.00    -0.000 C 
BRANCH  16  17
ATOM     17  C   UNL     1      54.284  -2.690  13.108  1.00  0.00    -0.000 C 
BRANCH  17  18
ATOM     18  C   UNL     1      53.392  -3.034  11.907  1.00  0.00    -0.003 C 
ATOM     19  C   UNL     1      51.984  -2.476  12.090  1.00  0.00     0.004 C 
ENDBRANCH  17  18
ENDBRANCH  16  17
ENDBRANCH  15  16
ENDBRANCH  14  15
ENDBRANCH  13  14
ENDBRANCH  12  13
ENDBRANCH   1  12
TORSDOF 14
ENDMDL
MODEL 6
REMARK VINA RESULT:    -4.266      9.243     12.200
REMARK INTER + INTRA:          -9.761
REMARK INTER:                  -7.642
REMARK INTRA:                  -2.118
REMARK UNBOUND:                -2.003
REMARK SMILES CCCCCCCCCCCCCC[C@@H](C)C(=O)[O-]
REMARK SMILES IDX 9 1 10 2 11 3 12 4 13 5 14 6 15 7 16 8 17 9 18 10 19 11 8 12
REMARK SMILES IDX 7 13 6 14 5 15 4 16 3 17 2 18 1 19
REMARK H PARENT
REMARK Flexibility Score: inf
ROOT
ATOM      1  C   UNL     1      56.735  -2.780  20.868  1.00  0.00     0.000 C 
ENDROOT
BRANCH   1   2
ATOM      2  C   UNL     1      57.905  -3.687  21.285  1.00  0.00     0.000 C 
BRANCH   2   3
ATOM      3  C   UNL     1      58.884  -3.954  20.130  1.00  0.00     0.000 C 
BRANCH   3   4
ATOM      4  C   UNL     1      60.355  -3.891  20.578  1.00  0.00     0.000 C 
BRANCH   4   5
ATOM      5  C   UNL     1      60.506  -3.720  22.099  1.00  0.00     0.001 C 
BRANCH   5   6
ATOM      6  C   UNL     1      61.926  -3.286  22.506  1.00  0.00     0.009 C 
BRANCH   6   7
ATOM      7  C   UNL     1      62.998  -4.332  22.132  1.00  0.00     0.032 C 
ATOM      8  C   UNL     1      64.165  -3.720  21.344  1.00  0.00     0.014 C 
BRANCH   7   9
ATOM      9  C   UNL     1      63.522  -4.997  23.376  1.00  0.00     0.044 C 
ATOM     10  O   UNL     1      64.665  -5.529  23.384  1.00  0.00    -0.550 OA
ATOM     11  O   UNL     1      62.744  -5.029  24.527  1.00  0.00    -0.550 OA
ENDBRANCH   7   9
ENDBRANCH   6   7
ENDBRANCH   5   6
ENDBRANCH   4   5
ENDBRANCH   3   4
ENDBRANCH   2   3
ENDBRANCH   1   2
BRANCH   1  12
ATOM     12  C   UNL     1      56.686  -1.471  21.671  1.00  0.00     0.000 C 
BRANCH  12  13
ATOM     13  C   UNL     1      57.992  -1.196  22.432  1.00  0.00    -0.000 C 
BRANCH  13  14
ATOM     14  C   UNL     1      58.944  -0.333  21.595  1.00  0.00    -0.000 C 
BRANCH  14  15
ATOM     15  C   UNL     1      58.168   0.671  20.734  1.00  0.00    -0.000 C 
BRANCH  15  16
ATOM     16  C   UNL     1      58.665   0.649  19.281  1.00  0.00    -0.000 C 
BRANCH  16  17
ATOM     17  C   UNL     1      58.714  -0.771  18.694  1.00  0.00    -0.000 C 
BRANCH  17  18
ATOM     18  C   UNL     1      57.753  -0.955  17.511  1.00  0.00    -0.003 C 
ATOM     19  C   UNL     1      56.308  -0.705  17.933  1.00  0.00     0.004 C 
ENDBRANCH  17  18
ENDBRANCH  16  17
ENDBRANCH  15  16
ENDBRANCH  14  15
ENDBRANCH  13  14
ENDBRANCH  12  13
ENDBRANCH   1  12
TORSDOF 14
ENDMDL
MODEL 7
REMARK VINA RESULT:    -4.262     10.130     12.993
REMARK INTER + INTRA:          -9.753
REMARK INTER:                  -7.255
REMARK INTRA:                  -2.498
REMARK UNBOUND:                -2.003
REMARK SMILES CCCCCCCCCCCCCC[C@@H](C)C(=O)[O-]
REMARK SMILES IDX 9 1 10 2 11 3 12 4 13 5 14 6 15 7 16 8 17 9 18 10 19 11 8 12
REMARK SMILES IDX 7 13 6 14 5 15 4 16 3 17 2 18 1 19
REMARK H PARENT
REMARK Flexibility Score: inf
ROOT
ATOM      1  C   UNL     1      58.719  -1.230  19.363  1.00  0.00     0.000 C 
ENDROOT
BRANCH   1   2
ATOM      2  C   UNL     1      57.443  -1.940  19.847  1.00  0.00     0.000 C 
BRANCH   2   3
ATOM      3  C   UNL     1      57.745  -3.114  20.792  1.00  0.00     0.000 C 
BRANCH   3   4
ATOM      4  C   UNL     1      59.072  -3.816  20.454  1.00  0.00     0.000 C 
BRANCH   4   5
ATOM      5  C   UNL     1      60.015  -3.916  21.664  1.00  0.00     0.001 C 
BRANCH   5   6
ATOM      6  C   UNL     1      61.500  -3.858  21.262  1.00  0.00     0.009 C 
BRANCH   6   7
ATOM      7  C   UNL     1      62.424  -3.506  22.448  1.00  0.00     0.032 C 
ATOM      8  C   UNL     1      61.903  -4.058  23.782  1.00  0.00     0.014 C 
BRANCH   7   9
ATOM      9  C   UNL     1      63.811  -4.031  22.192  1.00  0.00     0.044 C 
ATOM     10  O   UNL     1      64.325  -4.884  22.964  1.00  0.00    -0.550 OA
ATOM     11  O   UNL     1      64.535  -3.574  21.096  1.00  0.00    -0.550 OA
ENDBRANCH   7   9
ENDBRANCH   6   7
ENDBRANCH   5   6
ENDBRANCH   4   5
ENDBRANCH   3   4
ENDBRANCH   2   3
ENDBRANCH   1   2
BRANCH   1  12
ATOM     12  C   UNL     1      58.784   0.239  19.811  1.00  0.00     0.000 C 
BRANCH  12  13
ATOM     13  C   UNL     1      57.651   0.613  20.778  1.00  0.00    -0.000 C 
BRANCH  13  14
ATOM     14  C   UNL     1      58.195   0.876  22.187  1.00  0.00    -0.000 C 
BRANCH  14  15
ATOM     15  C   UNL     1      57.775  -0.234  23.158  1.00  0.00    -0.000 C 
BRANCH  15  16
ATOM     16  C   UNL     1      58.990  -1.055  23.613  1.00  0.00    -0.000 C 
BRANCH  16  17
ATOM     17  C   UNL     1      60.318  -0.490  23.084  1.00  0.00    -0.000 C 
BRANCH  17  18
ATOM     18  C   UNL     1      61.371  -0.322  24.188  1.00  0.00    -0.003 C 
ATOM     19  C   UNL     1      61.003   0.821  25.130  1.00  0.00     0.004 C 
ENDBRANCH  17  18
ENDBRANCH  16  17
ENDBRANCH  15  16
ENDBRANCH  14  15
ENDBRANCH  13  14
ENDBRANCH  12  13
ENDBRANCH   1  12
TORSDOF 14
ENDMDL
MODEL 8
REMARK VINA RESULT:    -4.249      1.895      3.370
REMARK INTER + INTRA:          -9.730
REMARK INTER:                  -7.612
REMARK INTRA:                  -2.118
REMARK UNBOUND:                -2.003
REMARK SMILES CCCCCCCCCCCCCC[C@@H](C)C(=O)[O-]
REMARK SMILES IDX 9 1 10 2 11 3 12 4 13 5 14 6 15 7 16 8 17 9 18 10 19 11 8 12
REMARK SMILES IDX 7 13 6 14 5 15 4 16 3 17 2 18 1 19
REMARK H PARENT
REMARK Flexibility Score: inf
ROOT
ATOM      1  C   UNL     1      57.510  -1.236  16.166  1.00  0.00     0.000 C 
ENDROOT
BRANCH   1   2
ATOM      2  C   UNL     1      56.759  -1.340  14.828  1.00  0.00     0.000 C 
BRANCH   2   3
ATOM      3  C   UNL     1      56.718  -2.777  14.285  1.00  0.00     0.000 C 
BRANCH   3   4
ATOM      4  C   UNL     1      55.311  -3.190  13.818  1.00  0.00     0.000 C 
BRANCH   4   5
ATOM      5  C   UNL     1      54.345  -1.998  13.716  1.00  0.00     0.001 C 
BRANCH   5   6
ATOM      6  C   UNL     1      53.520  -2.016  12.416  1.00  0.00     0.009 C 
BRANCH   6   7
ATOM      7  C   UNL     1      53.107  -3.443  11.992  1.00  0.00     0.032 C 
ATOM      8  C   UNL     1      51.753  -3.861  12.582  1.00  0.00     0.014 C 
BRANCH   7   9
ATOM      9  C   UNL     1      53.056  -3.538  10.492  1.00  0.00     0.044 C 
ATOM     10  O   UNL     1      51.952  -3.651   9.895  1.00  0.00    -0.550 OA
ATOM     11  O   UNL     1      54.233  -3.501   9.753  1.00  0.00    -0.550 OA
ENDBRANCH   7   9
ENDBRANCH   6   7
ENDBRANCH   5   6
ENDBRANCH   4   5
ENDBRANCH   3   4
ENDBRANCH   2   3
ENDBRANCH   1   2
BRANCH   1  12
ATOM     12  C   UNL     1      56.587  -0.858  17.335  1.00  0.00     0.000 C 
BRANCH  12  13
ATOM     13  C   UNL     1      55.101  -0.876  16.944  1.00  0.00    -0.000 C 
BRANCH  13  14
ATOM     14  C   UNL     1      54.403   0.420  17.374  1.00  0.00    -0.000 C 
BRANCH  14  15
ATOM     15  C   UNL     1      53.807   1.153  16.166  1.00  0.00    -0.000 C 
BRANCH  15  16
ATOM     16  C   UNL     1      54.871   2.006  15.460  1.00  0.00    -0.000 C 
BRANCH  16  17
ATOM     17  C   UNL     1      54.989   1.684  13.962  1.00  0.00    -0.000 C 
BRANCH  17  18
ATOM     18  C   UNL     1      56.372   2.027  13.391  1.00  0.00    -0.003 C 
ATOM     19  C   UNL     1      57.328   2.471  14.494  1.00  0.00     0.004 C 
ENDBRANCH  17  18
ENDBRANCH  16  17
ENDBRANCH  15  16
ENDBRANCH  14  15
ENDBRANCH  13  14
ENDBRANCH  12  13
ENDBRANCH   1  12
TORSDOF 14
ENDMDL
MODEL 9
REMARK VINA RESULT:    -4.232      6.481      9.554
REMARK INTER + INTRA:          -9.698
REMARK INTER:                  -8.695
REMARK INTRA:                  -1.003
REMARK UNBOUND:                -2.003
REMARK SMILES CCCCCCCCCCCCCC[C@@H](C)C(=O)[O-]
REMARK SMILES IDX 9 1 10 2 11 3 12 4 13 5 14 6 15 7 16 8 17 9 18 10 19 11 8 12
REMARK SMILES IDX 7 13 6 14 5 15 4 16 3 17 2 18 1 19
REMARK H PARENT
REMARK Flexibility Score: inf
ROOT
ATOM      1  C   UNL     1      57.881  -1.707  20.321  1.00  0.00     0.000 C 
ENDROOT
BRANCH   1   2
ATOM      2  C   UNL     1      56.489  -1.337  19.782  1.00  0.00     0.000 C 
BRANCH   2   3
ATOM      3  C   UNL     1      56.548  -0.248  18.699  1.00  0.00     0.000 C 
BRANCH   3   4
ATOM      4  C   UNL     1      56.147  -0.777  17.310  1.00  0.00     0.000 C 
BRANCH   4   5
ATOM      5  C   UNL     1      57.358  -1.014  16.393  1.00  0.00     0.001 C 
BRANCH   5   6
ATOM      6  C   UNL     1      56.960  -1.149  14.912  1.00  0.00     0.009 C 
BRANCH   6   7
ATOM      7  C   UNL     1      55.700  -2.020  14.712  1.00  0.00     0.032 C 
ATOM      8  C   UNL     1      54.599  -1.289  13.931  1.00  0.00     0.014 C 
BRANCH   7   9
ATOM      9  C   UNL     1      56.065  -3.294  13.998  1.00  0.00     0.044 C 
ATOM     10  O   UNL     1      57.257  -3.517  13.656  1.00  0.00    -0.550 OA
ATOM     11  O   UNL     1      55.083  -4.235  13.712  1.00  0.00    -0.550 OA
ENDBRANCH   7   9
ENDBRANCH   6   7
ENDBRANCH   5   6
ENDBRANCH   4   5
ENDBRANCH   3   4
ENDBRANCH   2   3
ENDBRANCH   1   2
BRANCH   1  12
ATOM     12  C   UNL     1      58.687  -2.569  19.336  1.00  0.00     0.000 C 
BRANCH  12  13
ATOM     13  C   UNL     1      59.363  -3.768  20.017  1.00  0.00    -0.000 C 
BRANCH  13  14
ATOM     14  C   UNL     1      58.825  -3.968  21.438  1.00  0.00    -0.000 C 
BRANCH  14  15
ATOM     15  C   UNL     1      59.963  -4.258  22.424  1.00  0.00    -0.000 C 
BRANCH  15  16
ATOM     16  C   UNL     1      61.309  -3.773  21.867  1.00  0.00    -0.000 C 
BRANCH  16  17
ATOM     17  C   UNL     1      62.471  -3.993  22.850  1.00  0.00    -0.000 C 
BRANCH  17  18
ATOM     18  C   UNL     1      63.710  -4.598  22.174  1.00  0.00    -0.003 C 
ATOM     19  C   UNL     1      64.406  -3.572  21.284  1.00  0.00     0.004 C 
ENDBRANCH  17  18
ENDBRANCH  16  17
ENDBRANCH  15  16
ENDBRANCH  14  15
ENDBRANCH  13  14
ENDBRANCH  12  13
ENDBRANCH   1  12
TORSDOF 14
ENDMDL
