MODEL 1
REMARK VINA RESULT:    -5.678      0.000      0.000
REMARK INTER + INTRA:          -7.757
REMARK INTER:                  -7.171
REMARK INTRA:                  -0.585
REMARK UNBOUND:                -0.585
REMARK SMILES O=C(C=Cc1ccc(O)cc1)c1ccc(O)cc1O
REMARK SMILES IDX 4 1 3 2 5 3 6 4 7 5 8 6 11 7 10 8 9 9 2 11 1 12 12 13 18 14
REMARK SMILES IDX 13 15 17 16 14 17 15 18 19 19 16 21
REMARK H PARENT 9 10 19 20 16 22
REMARK Flexibility Score: inf
ROOT
ATOM      1  C   UNL     1      45.614  15.907  -4.200  1.00  0.00     0.012 C 
ATOM      2  C   UNL     1      45.048  16.755  -3.327  1.00  0.00     0.053 C 
ENDROOT
BRANCH   1   3
ATOM      3  C   UNL     1      47.050  15.536  -4.172  1.00  0.00    -0.025 A 
ATOM      4  C   UNL     1      48.071  16.422  -4.573  1.00  0.00     0.012 A 
ATOM      5  C   UNL     1      49.409  16.020  -4.540  1.00  0.00     0.047 A 
ATOM      6  C   UNL     1      49.748  14.729  -4.117  1.00  0.00     0.115 A 
ATOM      7  C   UNL     1      47.401  14.238  -3.765  1.00  0.00     0.012 A 
ATOM      8  C   UNL     1      48.740  13.840  -3.732  1.00  0.00     0.047 A 
BRANCH   6   9
ATOM      9  O   UNL     1      51.079  14.319  -4.079  1.00  0.00    -0.508 OA
ATOM     10  H   UNL     1      51.822  14.956  -3.817  1.00  0.00     0.293 HD
ENDBRANCH   6   9
ENDBRANCH   1   3
BRANCH   2  11
ATOM     11  C   UNL     1      43.606  17.088  -3.374  1.00  0.00     0.189 C 
ATOM     12  O   UNL     1      42.829  16.401  -4.094  1.00  0.00    -0.289 OA
BRANCH  11  13
ATOM     13  C   UNL     1      43.056  18.214  -2.579  1.00  0.00     0.064 A 
ATOM     14  C   UNL     1      42.119  17.984  -1.548  1.00  0.00     0.130 A 
ATOM     15  C   UNL     1      43.448  19.538  -2.860  1.00  0.00     0.020 A 
ATOM     16  C   UNL     1      41.597  19.064  -0.819  1.00  0.00     0.093 A 
ATOM     17  C   UNL     1      42.925  20.606  -2.127  1.00  0.00     0.047 A 
ATOM     18  C   UNL     1      41.999  20.371  -1.104  1.00  0.00     0.119 A 
BRANCH  14  19
ATOM     19  O   UNL     1      41.716  16.686  -1.235  1.00  0.00    -0.507 OA
ATOM     20  H   UNL     1      41.578  16.387  -0.277  1.00  0.00     0.293 HD
ENDBRANCH  14  19
BRANCH  18  21
ATOM     21  O   UNL     1      41.471  21.430  -0.368  1.00  0.00    -0.508 OA
ATOM     22  H   UNL     1      41.029  21.282   0.531  1.00  0.00     0.293 HD
ENDBRANCH  18  21
ENDBRANCH  11  13
ENDBRANCH   2  11
TORSDOF 6
ENDMDL
MODEL 2
REMARK VINA RESULT:    -5.603      0.125      1.116
REMARK INTER + INTRA:          -7.663
REMARK INTER:                  -7.064
REMARK INTRA:                  -0.599
REMARK UNBOUND:                -0.585
REMARK SMILES O=C(C=Cc1ccc(O)cc1)c1ccc(O)cc1O
REMARK SMILES IDX 4 1 3 2 5 3 6 4 7 5 8 6 11 7 10 8 9 9 2 11 1 12 12 13 18 14
REMARK SMILES IDX 13 15 17 16 14 17 15 18 19 19 16 21
REMARK H PARENT 9 10 19 20 16 22
REMARK Flexibility Score: inf
ROOT
ATOM      1  C   UNL     1      45.535  15.722  -4.060  1.00  0.00     0.012 C 
ATOM      2  C   UNL     1      45.038  16.783  -3.407  1.00  0.00     0.053 C 
ENDROOT
BRANCH   1   3
ATOM      3  C   UNL     1      46.972  15.354  -4.057  1.00  0.00    -0.025 A 
ATOM      4  C   UNL     1      47.435  14.105  -3.595  1.00  0.00     0.012 A 
ATOM      5  C   UNL     1      48.802  13.811  -3.602  1.00  0.00     0.047 A 
ATOM      6  C   UNL     1      49.725  14.760  -4.056  1.00  0.00     0.115 A 
ATOM      7  C   UNL     1      47.910  16.305  -4.496  1.00  0.00     0.012 A 
ATOM      8  C   UNL     1      49.275  16.007  -4.501  1.00  0.00     0.047 A 
BRANCH   6   9
ATOM      9  O   UNL     1      51.089  14.476  -4.068  1.00  0.00    -0.508 OA
ATOM     10  H   UNL     1      51.783  15.211  -3.994  1.00  0.00     0.293 HD
ENDBRANCH   6   9
ENDBRANCH   1   3
BRANCH   2  11
ATOM     11  C   UNL     1      43.593  17.110  -3.418  1.00  0.00     0.189 C 
ATOM     12  O   UNL     1      42.802  16.419  -4.119  1.00  0.00    -0.289 OA
BRANCH  11  13
ATOM     13  C   UNL     1      43.058  18.232  -2.607  1.00  0.00     0.064 A 
ATOM     14  C   UNL     1      42.139  17.996  -1.560  1.00  0.00     0.130 A 
ATOM     15  C   UNL     1      43.445  19.557  -2.888  1.00  0.00     0.020 A 
ATOM     16  C   UNL     1      41.631  19.073  -0.817  1.00  0.00     0.093 A 
ATOM     17  C   UNL     1      42.935  20.621  -2.140  1.00  0.00     0.047 A 
ATOM     18  C   UNL     1      42.028  20.381  -1.103  1.00  0.00     0.119 A 
BRANCH  14  19
ATOM     19  O   UNL     1      41.742  16.697  -1.247  1.00  0.00    -0.507 OA
ATOM     20  H   UNL     1      42.412  15.942  -1.155  1.00  0.00     0.293 HD
ENDBRANCH  14  19
BRANCH  18  21
ATOM     21  O   UNL     1      41.513  21.437  -0.352  1.00  0.00    -0.508 OA
ATOM     22  H   UNL     1      41.000  21.276   0.507  1.00  0.00     0.293 HD
ENDBRANCH  18  21
ENDBRANCH  11  13
ENDBRANCH   2  11
TORSDOF 6
ENDMDL
MODEL 3
REMARK VINA RESULT:    -5.385      1.805      7.889
REMARK INTER + INTRA:          -7.388
REMARK INTER:                  -6.789
REMARK INTRA:                  -0.598
REMARK UNBOUND:                -0.585
REMARK SMILES O=C(C=Cc1ccc(O)cc1)c1ccc(O)cc1O
REMARK SMILES IDX 4 1 3 2 5 3 6 4 7 5 8 6 11 7 10 8 9 9 2 11 1 12 12 13 18 14
REMARK SMILES IDX 13 15 17 16 14 17 15 18 19 19 16 21
REMARK H PARENT 9 10 19 20 16 22
REMARK Flexibility Score: inf
ROOT
ATOM      1  C   UNL     1      43.593  18.784  -3.516  1.00  0.00     0.012 C 
ATOM      2  C   UNL     1      44.296  17.665  -3.289  1.00  0.00     0.053 C 
ENDROOT
BRANCH   1   3
ATOM      3  C   UNL     1      42.596  19.335  -2.567  1.00  0.00    -0.025 A 
ATOM      4  C   UNL     1      41.237  18.958  -2.588  1.00  0.00     0.012 A 
ATOM      5  C   UNL     1      40.334  19.516  -1.679  1.00  0.00     0.047 A 
ATOM      6  C   UNL     1      40.768  20.465  -0.745  1.00  0.00     0.115 A 
ATOM      7  C   UNL     1      43.016  20.300  -1.635  1.00  0.00     0.012 A 
ATOM      8  C   UNL     1      42.109  20.856  -0.728  1.00  0.00     0.047 A 
BRANCH   6   9
ATOM      9  O   UNL     1      39.875  21.026   0.165  1.00  0.00    -0.508 OA
ATOM     10  H   UNL     1      39.580  20.524   0.995  1.00  0.00     0.293 HD
ENDBRANCH   6   9
ENDBRANCH   1   3
BRANCH   2  11
ATOM     11  C   UNL     1      45.298  17.153  -4.253  1.00  0.00     0.189 C 
ATOM     12  O   UNL     1      45.335  17.624  -5.423  1.00  0.00    -0.289 OA
BRANCH  11  13
ATOM     13  C   UNL     1      46.267  16.100  -3.860  1.00  0.00     0.064 A 
ATOM     14  C   UNL     1      47.640  16.226  -4.170  1.00  0.00     0.130 A 
ATOM     15  C   UNL     1      45.824  14.944  -3.188  1.00  0.00     0.020 A 
ATOM     16  C   UNL     1      48.537  15.211  -3.806  1.00  0.00     0.093 A 
ATOM     17  C   UNL     1      46.726  13.941  -2.827  1.00  0.00     0.047 A 
ATOM     18  C   UNL     1      48.085  14.072  -3.135  1.00  0.00     0.119 A 
BRANCH  14  19
ATOM     19  O   UNL     1      48.115  17.362  -4.825  1.00  0.00    -0.507 OA
ATOM     20  H   UNL     1      47.529  17.901  -5.451  1.00  0.00     0.293 HD
ENDBRANCH  14  19
BRANCH  18  21
ATOM     21  O   UNL     1      48.993  13.076  -2.780  1.00  0.00    -0.508 OA
ATOM     22  H   UNL     1      49.993  13.223  -2.842  1.00  0.00     0.293 HD
ENDBRANCH  18  21
ENDBRANCH  11  13
ENDBRANCH   2  11
TORSDOF 6
ENDMDL
MODEL 4
REMARK VINA RESULT:    -5.355      1.664      7.530
REMARK INTER + INTRA:          -7.350
REMARK INTER:                  -6.737
REMARK INTRA:                  -0.612
REMARK UNBOUND:                -0.585
REMARK SMILES O=C(C=Cc1ccc(O)cc1)c1ccc(O)cc1O
REMARK SMILES IDX 4 1 3 2 5 3 6 4 7 5 8 6 11 7 10 8 9 9 2 11 1 12 12 13 18 14
REMARK SMILES IDX 13 15 17 16 14 17 15 18 19 19 16 21
REMARK H PARENT 9 10 19 20 16 22
REMARK Flexibility Score: inf
ROOT
ATOM      1  C   UNL     1      43.697  17.584  -3.339  1.00  0.00     0.012 C 
ATOM      2  C   UNL     1      44.857  17.024  -2.966  1.00  0.00     0.053 C 
ENDROOT
BRANCH   1   3
ATOM      3  C   UNL     1      42.979  18.600  -2.533  1.00  0.00    -0.025 A 
ATOM      4  C   UNL     1      43.202  19.985  -2.682  1.00  0.00     0.012 A 
ATOM      5  C   UNL     1      42.507  20.903  -1.889  1.00  0.00     0.047 A 
ATOM      6  C   UNL     1      41.591  20.455  -0.929  1.00  0.00     0.115 A 
ATOM      7  C   UNL     1      42.068  18.163  -1.555  1.00  0.00     0.012 A 
ATOM      8  C   UNL     1      41.376  19.084  -0.764  1.00  0.00     0.047 A 
BRANCH   6   9
ATOM      9  O   UNL     1      40.894  21.362  -0.134  1.00  0.00    -0.508 OA
ATOM     10  H   UNL     1      41.296  22.254   0.128  1.00  0.00     0.293 HD
ENDBRANCH   6   9
ENDBRANCH   1   3
BRANCH   2  11
ATOM     11  C   UNL     1      45.556  16.024  -3.806  1.00  0.00     0.189 C 
ATOM     12  O   UNL     1      45.020  14.901  -4.017  1.00  0.00    -0.289 OA
BRANCH  11  13
ATOM     13  C   UNL     1      46.875  16.326  -4.415  1.00  0.00     0.064 A 
ATOM     14  C   UNL     1      48.056  15.723  -3.926  1.00  0.00     0.130 A 
ATOM     15  C   UNL     1      46.971  17.243  -5.481  1.00  0.00     0.020 A 
ATOM     16  C   UNL     1      49.295  16.037  -4.504  1.00  0.00     0.093 A 
ATOM     17  C   UNL     1      48.210  17.546  -6.050  1.00  0.00     0.047 A 
ATOM     18  C   UNL     1      49.375  16.943  -5.563  1.00  0.00     0.119 A 
BRANCH  14  19
ATOM     19  O   UNL     1      47.998  14.803  -2.879  1.00  0.00    -0.507 OA
ATOM     20  H   UNL     1      48.266  15.053  -1.935  1.00  0.00     0.293 HD
ENDBRANCH  14  19
BRANCH  18  21
ATOM     21  O   UNL     1      50.615  17.239  -6.125  1.00  0.00    -0.508 OA
ATOM     22  H   UNL     1      51.364  17.643  -5.574  1.00  0.00     0.293 HD
ENDBRANCH  18  21
ENDBRANCH  11  13
ENDBRANCH   2  11
TORSDOF 6
ENDMDL
MODEL 5
REMARK VINA RESULT:    -5.308      1.364      1.719
REMARK INTER + INTRA:          -7.289
REMARK INTER:                  -6.785
REMARK INTRA:                  -0.504
REMARK UNBOUND:                -0.585
REMARK SMILES O=C(C=Cc1ccc(O)cc1)c1ccc(O)cc1O
REMARK SMILES IDX 4 1 3 2 5 3 6 4 7 5 8 6 11 7 10 8 9 9 2 11 1 12 12 13 18 14
REMARK SMILES IDX 13 15 17 16 14 17 15 18 19 19 16 21
REMARK H PARENT 9 10 19 20 16 22
REMARK Flexibility Score: inf
ROOT
ATOM      1  C   UNL     1      44.700  14.814  -3.329  1.00  0.00     0.012 C 
ATOM      2  C   UNL     1      44.514  16.114  -3.055  1.00  0.00     0.053 C 
ENDROOT
BRANCH   1   3
ATOM      3  C   UNL     1      45.969  14.092  -3.065  1.00  0.00    -0.025 A 
ATOM      4  C   UNL     1      47.232  14.635  -3.380  1.00  0.00     0.012 A 
ATOM      5  C   UNL     1      48.398  13.908  -3.122  1.00  0.00     0.047 A 
ATOM      6  C   UNL     1      48.322  12.629  -2.558  1.00  0.00     0.115 A 
ATOM      7  C   UNL     1      45.905  12.800  -2.514  1.00  0.00     0.012 A 
ATOM      8  C   UNL     1      47.073  12.078  -2.257  1.00  0.00     0.047 A 
BRANCH   6   9
ATOM      9  O   UNL     1      49.478  11.898  -2.296  1.00  0.00    -0.508 OA
ATOM     10  H   UNL     1      50.239  11.853  -2.964  1.00  0.00     0.293 HD
ENDBRANCH   6   9
ENDBRANCH   1   3
BRANCH   2  11
ATOM     11  C   UNL     1      43.227  16.798  -3.316  1.00  0.00     0.189 C 
ATOM     12  O   UNL     1      42.455  16.356  -4.213  1.00  0.00    -0.289 OA
BRANCH  11  13
ATOM     13  C   UNL     1      42.824  17.992  -2.532  1.00  0.00     0.064 A 
ATOM     14  C   UNL     1      41.902  17.882  -1.466  1.00  0.00     0.130 A 
ATOM     15  C   UNL     1      43.341  19.261  -2.856  1.00  0.00     0.020 A 
ATOM     16  C   UNL     1      41.520  19.025  -0.748  1.00  0.00     0.093 A 
ATOM     17  C   UNL     1      42.956  20.393  -2.133  1.00  0.00     0.047 A 
ATOM     18  C   UNL     1      42.045  20.277  -1.078  1.00  0.00     0.119 A 
BRANCH  14  19
ATOM     19  O   UNL     1      41.378  16.639  -1.110  1.00  0.00    -0.507 OA
ATOM     20  H   UNL     1      40.496  16.554  -0.619  1.00  0.00     0.293 HD
ENDBRANCH  14  19
BRANCH  18  21
ATOM     21  O   UNL     1      41.654  21.400  -0.351  1.00  0.00    -0.508 OA
ATOM     22  H   UNL     1      42.184  21.725   0.450  1.00  0.00     0.293 HD
ENDBRANCH  18  21
ENDBRANCH  11  13
ENDBRANCH   2  11
TORSDOF 6
ENDMDL
MODEL 6
REMARK VINA RESULT:    -5.204      1.560      2.128
REMARK INTER + INTRA:          -7.159
REMARK INTER:                  -6.532
REMARK INTRA:                  -0.627
REMARK UNBOUND:                -0.585
REMARK SMILES O=C(C=Cc1ccc(O)cc1)c1ccc(O)cc1O
REMARK SMILES IDX 4 1 3 2 5 3 6 4 7 5 8 6 11 7 10 8 9 9 2 11 1 12 12 13 18 14
REMARK SMILES IDX 13 15 17 16 14 17 15 18 19 19 16 21
REMARK H PARENT 9 10 19 20 16 22
REMARK Flexibility Score: inf
ROOT
ATOM      1  C   UNL     1      45.826  16.667  -4.278  1.00  0.00     0.012 C 
ATOM      2  C   UNL     1      44.680  16.930  -3.634  1.00  0.00     0.053 C 
ENDROOT
BRANCH   1   3
ATOM      3  C   UNL     1      46.770  15.598  -3.871  1.00  0.00    -0.025 A 
ATOM      4  C   UNL     1      48.099  15.540  -4.340  1.00  0.00     0.012 A 
ATOM      5  C   UNL     1      48.947  14.504  -3.935  1.00  0.00     0.047 A 
ATOM      6  C   UNL     1      48.480  13.508  -3.069  1.00  0.00     0.115 A 
ATOM      7  C   UNL     1      46.309  14.583  -3.015  1.00  0.00     0.012 A 
ATOM      8  C   UNL     1      47.160  13.550  -2.613  1.00  0.00     0.047 A 
BRANCH   6   9
ATOM      9  O   UNL     1      49.318  12.472  -2.660  1.00  0.00    -0.508 OA
ATOM     10  H   UNL     1      50.141  12.216  -3.192  1.00  0.00     0.293 HD
ENDBRANCH   6   9
ENDBRANCH   1   3
BRANCH   2  11
ATOM     11  C   UNL     1      43.751  17.995  -4.080  1.00  0.00     0.189 C 
ATOM     12  O   UNL     1      43.525  18.150  -5.313  1.00  0.00    -0.289 OA
BRANCH  11  13
ATOM     13  C   UNL     1      43.073  18.877  -3.099  1.00  0.00     0.064 A 
ATOM     14  C   UNL     1      43.180  20.283  -3.192  1.00  0.00     0.130 A 
ATOM     15  C   UNL     1      42.327  18.320  -2.042  1.00  0.00     0.020 A 
ATOM     16  C   UNL     1      42.546  21.099  -2.242  1.00  0.00     0.093 A 
ATOM     17  C   UNL     1      41.697  19.142  -1.104  1.00  0.00     0.047 A 
ATOM     18  C   UNL     1      41.805  20.533  -1.203  1.00  0.00     0.119 A 
BRANCH  14  19
ATOM     19  O   UNL     1      43.902  20.870  -4.231  1.00  0.00    -0.507 OA
ATOM     20  H   UNL     1      43.867  21.867  -4.407  1.00  0.00     0.293 HD
ENDBRANCH  14  19
BRANCH  18  21
ATOM     21  O   UNL     1      41.181  21.361  -0.272  1.00  0.00    -0.508 OA
ATOM     22  H   UNL     1      40.511  20.998   0.397  1.00  0.00     0.293 HD
ENDBRANCH  18  21
ENDBRANCH  11  13
ENDBRANCH   2  11
TORSDOF 6
ENDMDL
MODEL 7
REMARK VINA RESULT:    -5.194      1.255      7.592
REMARK INTER + INTRA:          -7.146
REMARK INTER:                  -6.541
REMARK INTRA:                  -0.604
REMARK UNBOUND:                -0.585
REMARK SMILES O=C(C=Cc1ccc(O)cc1)c1ccc(O)cc1O
REMARK SMILES IDX 4 1 3 2 5 3 6 4 7 5 8 6 11 7 10 8 9 9 2 11 1 12 12 13 18 14
REMARK SMILES IDX 13 15 17 16 14 17 15 18 19 19 16 21
REMARK H PARENT 9 10 19 20 16 22
REMARK Flexibility Score: inf
ROOT
ATOM      1  C   UNL     1      43.728  17.120  -3.469  1.00  0.00     0.012 C 
ATOM      2  C   UNL     1      45.042  16.862  -3.547  1.00  0.00     0.053 C 
ENDROOT
BRANCH   1   3
ATOM      3  C   UNL     1      43.158  18.254  -2.700  1.00  0.00    -0.025 A 
ATOM      4  C   UNL     1      43.586  19.586  -2.882  1.00  0.00     0.012 A 
ATOM      5  C   UNL     1      43.026  20.618  -2.124  1.00  0.00     0.047 A 
ATOM      6  C   UNL     1      42.042  20.338  -1.168  1.00  0.00     0.115 A 
ATOM      7  C   UNL     1      42.181  17.984  -1.727  1.00  0.00     0.012 A 
ATOM      8  C   UNL     1      41.624  19.019  -0.971  1.00  0.00     0.047 A 
BRANCH   6   9
ATOM      9  O   UNL     1      41.478  21.360  -0.408  1.00  0.00    -0.508 OA
ATOM     10  H   UNL     1      40.922  22.092  -0.836  1.00  0.00     0.293 HD
ENDBRANCH   6   9
ENDBRANCH   1   3
BRANCH   2  11
ATOM     11  C   UNL     1      45.576  15.730  -4.339  1.00  0.00     0.189 C 
ATOM     12  O   UNL     1      44.800  15.064  -5.080  1.00  0.00    -0.289 OA
BRANCH  11  13
ATOM     13  C   UNL     1      47.015  15.371  -4.284  1.00  0.00     0.064 A 
ATOM     14  C   UNL     1      47.426  14.079  -3.890  1.00  0.00     0.130 A 
ATOM     15  C   UNL     1      47.997  16.330  -4.606  1.00  0.00     0.020 A 
ATOM     16  C   UNL     1      48.793  13.766  -3.827  1.00  0.00     0.093 A 
ATOM     17  C   UNL     1      49.354  16.007  -4.543  1.00  0.00     0.047 A 
ATOM     18  C   UNL     1      49.755  14.724  -4.153  1.00  0.00     0.119 A 
BRANCH  14  19
ATOM     19  O   UNL     1      46.482  13.102  -3.575  1.00  0.00    -0.507 OA
ATOM     20  H   UNL     1      45.536  13.139  -3.936  1.00  0.00     0.293 HD
ENDBRANCH  14  19
BRANCH  18  21
ATOM     21  O   UNL     1      51.107  14.392  -4.087  1.00  0.00    -0.508 OA
ATOM     22  H   UNL     1      51.439  13.465  -4.325  1.00  0.00     0.293 HD
ENDBRANCH  18  21
ENDBRANCH  11  13
ENDBRANCH   2  11
TORSDOF 6
ENDMDL
MODEL 8
REMARK VINA RESULT:    -4.942      1.576      2.145
REMARK INTER + INTRA:          -6.827
REMARK INTER:                  -6.218
REMARK INTRA:                  -0.610
REMARK UNBOUND:                -0.585
REMARK SMILES O=C(C=Cc1ccc(O)cc1)c1ccc(O)cc1O
REMARK SMILES IDX 4 1 3 2 5 3 6 4 7 5 8 6 11 7 10 8 9 9 2 11 1 12 12 13 18 14
REMARK SMILES IDX 13 15 17 16 14 17 15 18 19 19 16 21
REMARK H PARENT 9 10 19 20 16 22
REMARK Flexibility Score: inf
ROOT
ATOM      1  C   UNL     1      44.627  16.702  -4.046  1.00  0.00     0.012 C 
ATOM      2  C   UNL     1      44.375  17.850  -3.399  1.00  0.00     0.053 C 
ENDROOT
BRANCH   1   3
ATOM      3  C   UNL     1      45.752  15.798  -3.705  1.00  0.00    -0.025 A 
ATOM      4  C   UNL     1      45.585  14.643  -2.913  1.00  0.00     0.012 A 
ATOM      5  C   UNL     1      46.681  13.829  -2.611  1.00  0.00     0.047 A 
ATOM      6  C   UNL     1      47.957  14.159  -3.082  1.00  0.00     0.115 A 
ATOM      7  C   UNL     1      47.041  16.127  -4.159  1.00  0.00     0.012 A 
ATOM      8  C   UNL     1      48.133  15.310  -3.855  1.00  0.00     0.047 A 
BRANCH   6   9
ATOM      9  O   UNL     1      49.055  13.354  -2.787  1.00  0.00    -0.508 OA
ATOM     10  H   UNL     1      49.562  12.862  -3.513  1.00  0.00     0.293 HD
ENDBRANCH   6   9
ENDBRANCH   1   3
BRANCH   2  11
ATOM     11  C   UNL     1      43.230  18.720  -3.755  1.00  0.00     0.189 C 
ATOM     12  O   UNL     1      42.972  18.947  -4.970  1.00  0.00    -0.289 OA
BRANCH  11  13
ATOM     13  C   UNL     1      42.372  19.322  -2.704  1.00  0.00     0.064 A 
ATOM     14  C   UNL     1      40.994  19.022  -2.633  1.00  0.00     0.130 A 
ATOM     15  C   UNL     1      42.922  20.223  -1.770  1.00  0.00     0.020 A 
ATOM     16  C   UNL     1      40.197  19.615  -1.642  1.00  0.00     0.093 A 
ATOM     17  C   UNL     1      42.120  20.806  -0.786  1.00  0.00     0.047 A 
ATOM     18  C   UNL     1      40.756  20.503  -0.720  1.00  0.00     0.119 A 
BRANCH  14  19
ATOM     19  O   UNL     1      40.418  18.126  -3.533  1.00  0.00    -0.507 OA
ATOM     20  H   UNL     1      40.906  17.820  -4.366  1.00  0.00     0.293 HD
ENDBRANCH  14  19
BRANCH  18  21
ATOM     21  O   UNL     1      39.948  21.081   0.258  1.00  0.00    -0.508 OA
ATOM     22  H   UNL     1      39.846  20.664   1.176  1.00  0.00     0.293 HD
ENDBRANCH  18  21
ENDBRANCH  11  13
ENDBRANCH   2  11
TORSDOF 6
ENDMDL
MODEL 9
REMARK VINA RESULT:    -4.763      2.744      7.603
REMARK INTER + INTRA:          -6.601
REMARK INTER:                  -5.885
REMARK INTRA:                  -0.716
REMARK UNBOUND:                -0.585
REMARK SMILES O=C(C=Cc1ccc(O)cc1)c1ccc(O)cc1O
REMARK SMILES IDX 4 1 3 2 5 3 6 4 7 5 8 6 11 7 10 8 9 9 2 11 1 12 12 13 18 14
REMARK SMILES IDX 13 15 17 16 14 17 15 18 19 19 16 21
REMARK H PARENT 9 10 19 20 16 22
REMARK Flexibility Score: inf
ROOT
ATOM      1  C   UNL     1      43.855  15.099  -2.734  1.00  0.00     0.012 C 
ATOM      2  C   UNL     1      44.661  14.726  -3.739  1.00  0.00     0.053 C 
ENDROOT
BRANCH   1   3
ATOM      3  C   UNL     1      43.352  16.483  -2.555  1.00  0.00    -0.025 A 
ATOM      4  C   UNL     1      42.221  16.784  -1.768  1.00  0.00     0.012 A 
ATOM      5  C   UNL     1      41.779  18.104  -1.641  1.00  0.00     0.047 A 
ATOM      6  C   UNL     1      42.449  19.139  -2.304  1.00  0.00     0.115 A 
ATOM      7  C   UNL     1      44.006  17.529  -3.229  1.00  0.00     0.012 A 
ATOM      8  C   UNL     1      43.561  18.847  -3.099  1.00  0.00     0.047 A 
BRANCH   6   9
ATOM      9  O   UNL     1      42.017  20.458  -2.183  1.00  0.00    -0.508 OA
ATOM     10  H   UNL     1      41.095  20.744  -2.494  1.00  0.00     0.293 HD
ENDBRANCH   6   9
ENDBRANCH   1   3
BRANCH   2  11
ATOM     11  C   UNL     1      45.130  13.329  -3.897  1.00  0.00     0.189 C 
ATOM     12  O   UNL     1      44.599  12.587  -4.769  1.00  0.00    -0.289 OA
BRANCH  11  13
ATOM     13  C   UNL     1      46.224  12.791  -3.051  1.00  0.00     0.064 A 
ATOM     14  C   UNL     1      45.978  11.763  -2.114  1.00  0.00     0.130 A 
ATOM     15  C   UNL     1      47.526  13.319  -3.157  1.00  0.00     0.020 A 
ATOM     16  C   UNL     1      47.023  11.281  -1.311  1.00  0.00     0.093 A 
ATOM     17  C   UNL     1      48.560  12.830  -2.355  1.00  0.00     0.047 A 
ATOM     18  C   UNL     1      48.310  11.809  -1.430  1.00  0.00     0.119 A 
BRANCH  14  19
ATOM     19  O   UNL     1      44.704  11.210  -1.989  1.00  0.00    -0.507 OA
ATOM     20  H   UNL     1      43.888  11.657  -2.391  1.00  0.00     0.293 HD
ENDBRANCH  14  19
BRANCH  18  21
ATOM     21  O   UNL     1      49.335  11.315  -0.625  1.00  0.00    -0.508 OA
ATOM     22  H   UNL     1      49.819  10.454  -0.850  1.00  0.00     0.293 HD
ENDBRANCH  18  21
ENDBRANCH  11  13
ENDBRANCH   2  11
TORSDOF 6
ENDMDL
