MODEL 1
REMARK VINA RESULT:    -4.685      0.000      0.000
REMARK INTER + INTRA:          -7.389
REMARK INTER:                  -6.876
REMARK INTRA:                  -0.513
REMARK UNBOUND:                -0.513
REMARK SMILES O=C([O-])CCCCCCCC(=O)[O-]
REMARK SMILES IDX 7 1 6 2 5 3 4 4 2 5 1 6 3 7 8 8 9 9 10 10 11 11 12 12 13 13
REMARK H PARENT
REMARK Flexibility Score: inf
ROOT
ATOM      1  C   UNL     1      63.612 -27.733  -1.416  1.00  0.00     0.000 C 
ENDROOT
BRANCH   1   2
ATOM      2  C   UNL     1      62.927 -29.088  -1.178  1.00  0.00     0.000 C 
BRANCH   2   3
ATOM      3  C   UNL     1      61.637 -28.916  -0.368  1.00  0.00     0.006 C 
BRANCH   3   4
ATOM      4  C   UNL     1      60.409 -28.904  -1.283  1.00  0.00     0.053 C 
BRANCH   4   5
ATOM      5  C   UNL     1      59.162 -29.129  -0.489  1.00  0.00     0.041 C 
ATOM      6  O   UNL     1      58.380 -28.171  -0.252  1.00  0.00    -0.550 OA
ATOM      7  O   UNL     1      58.837 -30.407  -0.053  1.00  0.00    -0.550 OA
ENDBRANCH   4   5
ENDBRANCH   3   4
ENDBRANCH   2   3
ENDBRANCH   1   2
BRANCH   1   8
ATOM      8  C   UNL     1      63.320 -27.161  -2.812  1.00  0.00     0.000 C 
BRANCH   8   9
ATOM      9  C   UNL     1      62.596 -25.804  -2.755  1.00  0.00     0.006 C 
BRANCH   9  10
ATOM     10  C   UNL     1      61.580 -25.642  -3.894  1.00  0.00     0.053 C 
BRANCH  10  11
ATOM     11  C   UNL     1      60.284 -25.073  -3.406  1.00  0.00     0.041 C 
ATOM     12  O   UNL     1      59.813 -25.431  -2.295  1.00  0.00    -0.550 OA
ATOM     13  O   UNL     1      59.577 -24.174  -4.195  1.00  0.00    -0.550 OA
ENDBRANCH  10  11
ENDBRANCH   9  10
ENDBRANCH   8   9
ENDBRANCH   1   8
TORSDOF 8
ENDMDL
MODEL 2
REMARK VINA RESULT:    -4.681      1.156      5.039
REMARK INTER + INTRA:          -7.383
REMARK INTER:                  -6.845
REMARK INTRA:                  -0.538
REMARK UNBOUND:                -0.513
REMARK SMILES O=C([O-])CCCCCCCC(=O)[O-]
REMARK SMILES IDX 7 1 6 2 5 3 4 4 2 5 1 6 3 7 8 8 9 9 10 10 11 11 12 12 13 13
REMARK H PARENT
REMARK Flexibility Score: inf
ROOT
ATOM      1  C   UNL     1      63.670 -27.320  -1.740  1.00  0.00     0.000 C 
ENDROOT
BRANCH   1   2
ATOM      2  C   UNL     1      63.091 -26.714  -3.028  1.00  0.00     0.000 C 
BRANCH   2   3
ATOM      3  C   UNL     1      61.883 -25.823  -2.719  1.00  0.00     0.006 C 
BRANCH   3   4
ATOM      4  C   UNL     1      60.659 -26.253  -3.533  1.00  0.00     0.053 C 
BRANCH   4   5
ATOM      5  C   UNL     1      60.359 -25.247  -4.600  1.00  0.00     0.041 C 
ATOM      6  O   UNL     1      60.582 -25.520  -5.809  1.00  0.00    -0.550 OA
ATOM      7  O   UNL     1      59.788 -24.027  -4.263  1.00  0.00    -0.550 OA
ENDBRANCH   4   5
ENDBRANCH   3   4
ENDBRANCH   2   3
ENDBRANCH   1   2
BRANCH   1   8
ATOM      8  C   UNL     1      63.269 -28.791  -1.547  1.00  0.00     0.000 C 
BRANCH   8   9
ATOM      9  C   UNL     1      62.298 -28.989  -0.370  1.00  0.00     0.006 C 
BRANCH   9  10
ATOM     10  C   UNL     1      60.832 -28.990  -0.822  1.00  0.00     0.053 C 
BRANCH  10  11
ATOM     11  C   UNL     1      59.916 -29.472   0.260  1.00  0.00     0.041 C 
ATOM     12  O   UNL     1      60.094 -29.106   1.451  1.00  0.00    -0.550 OA
ATOM     13  O   UNL     1      58.887 -30.356  -0.040  1.00  0.00    -0.550 OA
ENDBRANCH  10  11
ENDBRANCH   9  10
ENDBRANCH   8   9
ENDBRANCH   1   8
TORSDOF 8
ENDMDL
MODEL 3
REMARK VINA RESULT:    -4.675      0.801      4.785
REMARK INTER + INTRA:          -7.374
REMARK INTER:                  -6.848
REMARK INTRA:                  -0.526
REMARK UNBOUND:                -0.513
REMARK SMILES O=C([O-])CCCCCCCC(=O)[O-]
REMARK SMILES IDX 7 1 6 2 5 3 4 4 2 5 1 6 3 7 8 8 9 9 10 10 11 11 12 12 13 13
REMARK H PARENT
REMARK Flexibility Score: inf
ROOT
ATOM      1  C   UNL     1      63.632 -27.527  -1.503  1.00  0.00     0.000 C 
ENDROOT
BRANCH   1   2
ATOM      2  C   UNL     1      63.345 -27.019  -2.924  1.00  0.00     0.000 C 
BRANCH   2   3
ATOM      3  C   UNL     1      62.658 -25.648  -2.888  1.00  0.00     0.006 C 
BRANCH   3   4
ATOM      4  C   UNL     1      61.140 -25.790  -3.038  1.00  0.00     0.053 C 
BRANCH   4   5
ATOM      5  C   UNL     1      60.672 -25.111  -4.286  1.00  0.00     0.041 C 
ATOM      6  O   UNL     1      59.648 -24.378  -4.263  1.00  0.00    -0.550 OA
ATOM      7  O   UNL     1      61.394 -25.248  -5.465  1.00  0.00    -0.550 OA
ENDBRANCH   4   5
ENDBRANCH   3   4
ENDBRANCH   2   3
ENDBRANCH   1   2
BRANCH   1   8
ATOM      8  C   UNL     1      63.096 -28.947  -1.264  1.00  0.00     0.000 C 
BRANCH   8   9
ATOM      9  C   UNL     1      61.821 -28.962  -0.402  1.00  0.00     0.006 C 
BRANCH   9  10
ATOM     10  C   UNL     1      60.546 -28.960  -1.255  1.00  0.00     0.053 C 
BRANCH  10  11
ATOM     11  C   UNL     1      59.322 -29.202  -0.426  1.00  0.00     0.041 C 
ATOM     12  O   UNL     1      59.046 -30.363  -0.028  1.00  0.00    -0.550 OA
ATOM     13  O   UNL     1      58.467 -28.149  -0.124  1.00  0.00    -0.550 OA
ENDBRANCH  10  11
ENDBRANCH   9  10
ENDBRANCH   8   9
ENDBRANCH   1   8
TORSDOF 8
ENDMDL
MODEL 4
REMARK VINA RESULT:    -4.607      1.690      5.447
REMARK INTER + INTRA:          -7.274
REMARK INTER:                  -6.915
REMARK INTRA:                  -0.359
REMARK UNBOUND:                -0.513
REMARK SMILES O=C([O-])CCCCCCCC(=O)[O-]
REMARK SMILES IDX 7 1 6 2 5 3 4 4 2 5 1 6 3 7 8 8 9 9 10 10 11 11 12 12 13 13
REMARK H PARENT
REMARK Flexibility Score: inf
ROOT
ATOM      1  C   UNL     1      62.656 -25.998  -2.750  1.00  0.00     0.000 C 
ENDROOT
BRANCH   1   2
ATOM      2  C   UNL     1      61.174 -26.403  -2.717  1.00  0.00     0.000 C 
BRANCH   2   3
ATOM      3  C   UNL     1      60.292 -25.305  -3.322  1.00  0.00     0.006 C 
BRANCH   3   4
ATOM      4  C   UNL     1      60.062 -25.545  -4.817  1.00  0.00     0.053 C 
BRANCH   4   5
ATOM      5  C   UNL     1      60.046 -24.247  -5.560  1.00  0.00     0.041 C 
ATOM      6  O   UNL     1      59.453 -23.246  -5.076  1.00  0.00    -0.550 OA
ATOM      7  O   UNL     1      60.726 -24.127  -6.765  1.00  0.00    -0.550 OA
ENDBRANCH   4   5
ENDBRANCH   3   4
ENDBRANCH   2   3
ENDBRANCH   1   2
BRANCH   1   8
ATOM      8  C   UNL     1      63.561 -27.009  -2.028  1.00  0.00     0.000 C 
BRANCH   8   9
ATOM      9  C   UNL     1      62.924 -28.406  -1.926  1.00  0.00     0.006 C 
BRANCH   9  10
ATOM     10  C   UNL     1      62.760 -28.862  -0.470  1.00  0.00     0.053 C 
BRANCH  10  11
ATOM     11  C   UNL     1      61.327 -29.136  -0.132  1.00  0.00     0.041 C 
ATOM     12  O   UNL     1      60.481 -29.310  -1.048  1.00  0.00    -0.550 OA
ATOM     13  O   UNL     1      60.917 -29.162   1.196  1.00  0.00    -0.550 OA
ENDBRANCH  10  11
ENDBRANCH   9  10
ENDBRANCH   8   9
ENDBRANCH   1   8
TORSDOF 8
ENDMDL
MODEL 5
REMARK VINA RESULT:    -4.583      1.614      2.413
REMARK INTER + INTRA:          -7.239
REMARK INTER:                  -6.868
REMARK INTRA:                  -0.371
REMARK UNBOUND:                -0.513
REMARK SMILES O=C([O-])CCCCCCCC(=O)[O-]
REMARK SMILES IDX 7 1 6 2 5 3 4 4 2 5 1 6 3 7 8 8 9 9 10 10 11 11 12 12 13 13
REMARK H PARENT
REMARK Flexibility Score: inf
ROOT
ATOM      1  C   UNL     1      62.893 -25.980  -2.722  1.00  0.00     0.000 C 
ENDROOT
BRANCH   1   2
ATOM      2  C   UNL     1      63.636 -27.107  -1.989  1.00  0.00     0.000 C 
BRANCH   2   3
ATOM      3  C   UNL     1      62.780 -28.377  -1.926  1.00  0.00     0.006 C 
BRANCH   3   4
ATOM      4  C   UNL     1      62.634 -28.871  -0.483  1.00  0.00     0.053 C 
BRANCH   4   5
ATOM      5  C   UNL     1      61.197 -29.132  -0.161  1.00  0.00     0.041 C 
ATOM      6  O   UNL     1      60.822 -29.220   1.038  1.00  0.00    -0.550 OA
ATOM      7  O   UNL     1      60.262 -29.228  -1.184  1.00  0.00    -0.550 OA
ENDBRANCH   4   5
ENDBRANCH   3   4
ENDBRANCH   2   3
ENDBRANCH   1   2
BRANCH   1   8
ATOM      8  C   UNL     1      61.396 -26.277  -2.900  1.00  0.00     0.000 C 
BRANCH   8   9
ATOM      9  C   UNL     1      60.628 -25.099  -3.526  1.00  0.00     0.006 C 
BRANCH   9  10
ATOM     10  C   UNL     1      60.254 -25.365  -4.990  1.00  0.00     0.053 C 
BRANCH  10  11
ATOM     11  C   UNL     1      59.424 -24.258  -5.562  1.00  0.00     0.041 C 
ATOM     12  O   UNL     1      59.193 -23.223  -4.883  1.00  0.00    -0.550 OA
ATOM     13  O   UNL     1      58.874 -24.383  -6.832  1.00  0.00    -0.550 OA
ENDBRANCH  10  11
ENDBRANCH   9  10
ENDBRANCH   8   9
ENDBRANCH   1   8
TORSDOF 8
ENDMDL
MODEL 6
REMARK VINA RESULT:    -4.561      0.987      1.562
REMARK INTER + INTRA:          -7.207
REMARK INTER:                  -6.602
REMARK INTRA:                  -0.604
REMARK UNBOUND:                -0.513
REMARK SMILES O=C([O-])CCCCCCCC(=O)[O-]
REMARK SMILES IDX 7 1 6 2 5 3 4 4 2 5 1 6 3 7 8 8 9 9 10 10 11 11 12 12 13 13
REMARK H PARENT
REMARK Flexibility Score: inf
ROOT
ATOM      1  C   UNL     1      63.106 -28.489  -1.895  1.00  0.00     0.000 C 
ENDROOT
BRANCH   1   2
ATOM      2  C   UNL     1      63.028 -29.010  -0.452  1.00  0.00     0.000 C 
BRANCH   2   3
ATOM      3  C   UNL     1      61.596 -28.915   0.089  1.00  0.00     0.006 C 
BRANCH   3   4
ATOM      4  C   UNL     1      60.571 -29.124  -1.030  1.00  0.00     0.053 C 
BRANCH   4   5
ATOM      5  C   UNL     1      59.196 -29.271  -0.459  1.00  0.00     0.041 C 
ATOM      6  O   UNL     1      58.781 -30.402  -0.090  1.00  0.00    -0.550 OA
ATOM      7  O   UNL     1      58.390 -28.152  -0.289  1.00  0.00    -0.550 OA
ENDBRANCH   4   5
ENDBRANCH   3   4
ENDBRANCH   2   3
ENDBRANCH   1   2
BRANCH   1   8
ATOM      8  C   UNL     1      63.624 -27.045  -1.975  1.00  0.00     0.000 C 
BRANCH   8   9
ATOM      9  C   UNL     1      62.959 -26.239  -3.105  1.00  0.00     0.006 C 
BRANCH   9  10
ATOM     10  C   UNL     1      61.549 -25.768  -2.726  1.00  0.00     0.053 C 
BRANCH  10  11
ATOM     11  C   UNL     1      60.562 -26.031  -3.821  1.00  0.00     0.041 C 
ATOM     12  O   UNL     1      60.679 -25.451  -4.933  1.00  0.00    -0.550 OA
ATOM     13  O   UNL     1      59.491 -26.890  -3.604  1.00  0.00    -0.550 OA
ENDBRANCH  10  11
ENDBRANCH   9  10
ENDBRANCH   8   9
ENDBRANCH   1   8
TORSDOF 8
ENDMDL
MODEL 7
REMARK VINA RESULT:    -4.427      2.086      4.114
REMARK INTER + INTRA:          -7.010
REMARK INTER:                  -6.403
REMARK INTRA:                  -0.607
REMARK UNBOUND:                -0.513
REMARK SMILES O=C([O-])CCCCCCCC(=O)[O-]
REMARK SMILES IDX 7 1 6 2 5 3 4 4 2 5 1 6 3 7 8 8 9 9 10 10 11 11 12 12 13 13
REMARK H PARENT
REMARK Flexibility Score: inf
ROOT
ATOM      1  C   UNL     1      61.856 -25.660  -2.907  1.00  0.00     0.000 C 
ENDROOT
BRANCH   1   2
ATOM      2  C   UNL     1      61.103 -25.618  -4.245  1.00  0.00     0.000 C 
BRANCH   2   3
ATOM      3  C   UNL     1      59.631 -26.002  -4.059  1.00  0.00     0.006 C 
BRANCH   3   4
ATOM      4  C   UNL     1      59.147 -25.657  -2.647  1.00  0.00     0.053 C 
BRANCH   4   5
ATOM      5  C   UNL     1      58.342 -26.783  -2.079  1.00  0.00     0.041 C 
ATOM      6  O   UNL     1      57.206 -26.563  -1.581  1.00  0.00    -0.550 OA
ATOM      7  O   UNL     1      58.825 -28.084  -2.144  1.00  0.00    -0.550 OA
ENDBRANCH   4   5
ENDBRANCH   3   4
ENDBRANCH   2   3
ENDBRANCH   1   2
BRANCH   1   8
ATOM      8  C   UNL     1      63.295 -26.181  -3.055  1.00  0.00     0.000 C 
BRANCH   8   9
ATOM      9  C   UNL     1      63.577 -27.401  -2.160  1.00  0.00     0.006 C 
BRANCH   9  10
ATOM     10  C   UNL     1      62.302 -28.198  -1.849  1.00  0.00     0.053 C 
BRANCH  10  11
ATOM     11  C   UNL     1      62.352 -28.815  -0.485  1.00  0.00     0.041 C 
ATOM     12  O   UNL     1      63.460 -29.070   0.055  1.00  0.00    -0.550 OA
ATOM     13  O   UNL     1      61.173 -29.141   0.175  1.00  0.00    -0.550 OA
ENDBRANCH  10  11
ENDBRANCH   9  10
ENDBRANCH   8   9
ENDBRANCH   1   8
TORSDOF 8
ENDMDL
MODEL 8
REMARK VINA RESULT:    -4.246      1.823      5.327
REMARK INTER + INTRA:          -6.745
REMARK INTER:                  -6.274
REMARK INTRA:                  -0.471
REMARK UNBOUND:                -0.513
REMARK SMILES O=C([O-])CCCCCCCC(=O)[O-]
REMARK SMILES IDX 7 1 6 2 5 3 4 4 2 5 1 6 3 7 8 8 9 9 10 10 11 11 12 12 13 13
REMARK H PARENT
REMARK Flexibility Score: inf
ROOT
ATOM      1  C   UNL     1      61.880 -28.997  -0.153  1.00  0.00     0.000 C 
ENDROOT
BRANCH   1   2
ATOM      2  C   UNL     1      63.253 -28.615  -0.728  1.00  0.00     0.000 C 
BRANCH   2   3
ATOM      3  C   UNL     1      63.123 -28.117  -2.172  1.00  0.00     0.006 C 
BRANCH   3   4
ATOM      4  C   UNL     1      63.524 -26.642  -2.283  1.00  0.00     0.053 C 
BRANCH   4   5
ATOM      5  C   UNL     1      62.547 -25.897  -3.137  1.00  0.00     0.041 C 
ATOM      6  O   UNL     1      62.889 -25.483  -4.276  1.00  0.00    -0.550 OA
ATOM      7  O   UNL     1      61.245 -25.702  -2.695  1.00  0.00    -0.550 OA
ENDBRANCH   4   5
ENDBRANCH   3   4
ENDBRANCH   2   3
ENDBRANCH   1   2
BRANCH   1   8
ATOM      8  C   UNL     1      60.750 -28.869  -1.187  1.00  0.00     0.000 C 
BRANCH   8   9
ATOM      9  C   UNL     1      59.354 -29.033  -0.562  1.00  0.00     0.006 C 
BRANCH   9  10
ATOM     10  C   UNL     1      59.386 -29.896   0.706  1.00  0.00     0.053 C 
BRANCH  10  11
ATOM     11  C   UNL     1      58.844 -29.161   1.893  1.00  0.00     0.041 C 
ATOM     12  O   UNL     1      59.628 -28.613   2.712  1.00  0.00    -0.550 OA
ATOM     13  O   UNL     1      57.473 -29.111   2.116  1.00  0.00    -0.550 OA
ENDBRANCH  10  11
ENDBRANCH   9  10
ENDBRANCH   8   9
ENDBRANCH   1   8
TORSDOF 8
ENDMDL
MODEL 9
REMARK VINA RESULT:    -4.232      2.439      5.521
REMARK INTER + INTRA:          -6.724
REMARK INTER:                  -6.189
REMARK INTRA:                  -0.535
REMARK UNBOUND:                -0.513
REMARK SMILES O=C([O-])CCCCCCCC(=O)[O-]
REMARK SMILES IDX 7 1 6 2 5 3 4 4 2 5 1 6 3 7 8 8 9 9 10 10 11 11 12 12 13 13
REMARK H PARENT
REMARK Flexibility Score: inf
ROOT
ATOM      1  C   UNL     1      59.316 -27.501  -2.566  1.00  0.00     0.000 C 
ENDROOT
BRANCH   1   2
ATOM      2  C   UNL     1      59.059 -26.010  -2.294  1.00  0.00     0.000 C 
BRANCH   2   3
ATOM      3  C   UNL     1      60.203 -25.148  -2.840  1.00  0.00     0.006 C 
BRANCH   3   4
ATOM      4  C   UNL     1      60.780 -25.748  -4.126  1.00  0.00     0.053 C 
BRANCH   4   5
ATOM      5  C   UNL     1      60.387 -24.923  -5.310  1.00  0.00     0.041 C 
ATOM      6  O   UNL     1      60.702 -25.292  -6.473  1.00  0.00    -0.550 OA
ATOM      7  O   UNL     1      59.631 -23.771  -5.135  1.00  0.00    -0.550 OA
ENDBRANCH   4   5
ENDBRANCH   3   4
ENDBRANCH   2   3
ENDBRANCH   1   2
BRANCH   1   8
ATOM      8  C   UNL     1      59.320 -28.344  -1.281  1.00  0.00     0.000 C 
BRANCH   8   9
ATOM      9  C   UNL     1      60.742 -28.666  -0.790  1.00  0.00     0.006 C 
BRANCH   9  10
ATOM     10  C   UNL     1      61.806 -28.349  -1.849  1.00  0.00     0.053 C 
BRANCH  10  11
ATOM     11  C   UNL     1      63.158 -28.147  -1.236  1.00  0.00     0.041 C 
ATOM     12  O   UNL     1      63.963 -27.319  -1.736  1.00  0.00    -0.550 OA
ATOM     13  O   UNL     1      63.542 -28.899  -0.132  1.00  0.00    -0.550 OA
ENDBRANCH  10  11
ENDBRANCH   9  10
ENDBRANCH   8   9
ENDBRANCH   1   8
TORSDOF 8
ENDMDL
