MODEL 1
REMARK VINA RESULT:    -5.095      0.000      0.000
REMARK INTER + INTRA:          -9.792
REMARK INTER:                  -8.670
REMARK INTRA:                  -1.122
REMARK UNBOUND:                -1.122
REMARK SMILES CCCCCCCCCCCCCC(=O)[O-]
REMARK SMILES IDX 8 1 9 2 10 3 11 4 12 5 13 6 14 7 15 8 16 9 7 10 6 11 5 12
REMARK SMILES IDX 4 13 3 14 2 15 1 16
REMARK H PARENT
REMARK Flexibility Score: inf
ROOT
ATOM      1  C   UNL     1      46.301   4.955 130.462  1.00  0.00     0.000 C 
ENDROOT
BRANCH   1   2
ATOM      2  C   UNL     1      47.382   4.496 131.447  1.00  0.00     0.000 C 
BRANCH   2   3
ATOM      3  C   UNL     1      46.872   3.343 132.324  1.00  0.00     0.000 C 
BRANCH   3   4
ATOM      4  C   UNL     1      45.661   3.738 133.189  1.00  0.00     0.000 C 
BRANCH   4   5
ATOM      5  C   UNL     1      44.744   2.568 133.602  1.00  0.00     0.006 C 
BRANCH   5   6
ATOM      6  C   UNL     1      43.625   2.251 132.598  1.00  0.00     0.053 C 
BRANCH   6   7
ATOM      7  C   UNL     1      43.685   0.832 132.122  1.00  0.00     0.041 C 
ATOM      8  O   UNL     1      42.687   0.308 131.563  1.00  0.00    -0.550 OA
ATOM      9  O   UNL     1      44.834   0.079 132.326  1.00  0.00    -0.550 OA
ENDBRANCH   6   7
ENDBRANCH   5   6
ENDBRANCH   4   5
ENDBRANCH   3   4
ENDBRANCH   2   3
ENDBRANCH   1   2
BRANCH   1  10
ATOM     10  C   UNL     1      46.812   4.900 129.017  1.00  0.00     0.000 C 
BRANCH  10  11
ATOM     11  C   UNL     1      47.007   6.314 128.448  1.00  0.00    -0.000 C 
BRANCH  11  12
ATOM     12  C   UNL     1      46.019   7.332 129.038  1.00  0.00    -0.000 C 
BRANCH  12  13
ATOM     13  C   UNL     1      44.781   7.538 128.152  1.00  0.00    -0.000 C 
BRANCH  13  14
ATOM     14  C   UNL     1      43.507   7.085 128.875  1.00  0.00    -0.000 C 
BRANCH  14  15
ATOM     15  C   UNL     1      42.639   6.209 127.964  1.00  0.00    -0.003 C 
ATOM     16  C   UNL     1      43.488   5.492 126.918  1.00  0.00     0.004 C 
ENDBRANCH  14  15
ENDBRANCH  13  14
ENDBRANCH  12  13
ENDBRANCH  11  12
ENDBRANCH  10  11
ENDBRANCH   1  10
TORSDOF 12
ENDMDL
MODEL 2
REMARK VINA RESULT:    -4.855      2.453      5.956
REMARK INTER + INTRA:          -9.384
REMARK INTER:                  -8.425
REMARK INTRA:                  -0.959
REMARK UNBOUND:                -1.122
REMARK SMILES CCCCCCCCCCCCCC(=O)[O-]
REMARK SMILES IDX 8 1 9 2 10 3 11 4 12 5 13 6 14 7 15 8 16 9 7 10 6 11 5 12
REMARK SMILES IDX 4 13 3 14 2 15 1 16
REMARK H PARENT
REMARK Flexibility Score: inf
ROOT
ATOM      1  C   UNL     1      46.577   4.911 130.345  1.00  0.00     0.000 C 
ENDROOT
BRANCH   1   2
ATOM      2  C   UNL     1      47.712   5.217 129.363  1.00  0.00     0.000 C 
BRANCH   2   3
ATOM      3  C   UNL     1      47.371   6.433 128.489  1.00  0.00     0.000 C 
BRANCH   3   4
ATOM      4  C   UNL     1      46.255   7.308 129.089  1.00  0.00     0.000 C 
BRANCH   4   5
ATOM      5  C   UNL     1      45.053   7.564 128.156  1.00  0.00     0.006 C 
BRANCH   5   6
ATOM      6  C   UNL     1      43.790   6.765 128.512  1.00  0.00     0.053 C 
BRANCH   6   7
ATOM      7  C   UNL     1      43.531   5.661 127.532  1.00  0.00     0.041 C 
ATOM      8  O   UNL     1      42.497   5.679 126.815  1.00  0.00    -0.550 OA
ATOM      9  O   UNL     1      44.417   4.595 127.437  1.00  0.00    -0.550 OA
ENDBRANCH   6   7
ENDBRANCH   5   6
ENDBRANCH   4   5
ENDBRANCH   3   4
ENDBRANCH   2   3
ENDBRANCH   1   2
BRANCH   1  10
ATOM     10  C   UNL     1      47.115   4.262 131.626  1.00  0.00     0.000 C 
BRANCH  10  11
ATOM     11  C   UNL     1      45.998   4.088 132.667  1.00  0.00    -0.000 C 
BRANCH  11  12
ATOM     12  C   UNL     1      46.158   2.806 133.499  1.00  0.00    -0.000 C 
BRANCH  12  13
ATOM     13  C   UNL     1      44.809   2.200 133.917  1.00  0.00    -0.000 C 
BRANCH  13  14
ATOM     14  C   UNL     1      43.776   2.333 132.793  1.00  0.00    -0.000 C 
BRANCH  14  15
ATOM     15  C   UNL     1      43.637   1.018 132.016  1.00  0.00    -0.003 C 
ATOM     16  C   UNL     1      42.445   0.206 132.516  1.00  0.00     0.004 C 
ENDBRANCH  14  15
ENDBRANCH  13  14
ENDBRANCH  12  13
ENDBRANCH  11  12
ENDBRANCH  10  11
ENDBRANCH   1  10
TORSDOF 12
ENDMDL
MODEL 3
REMARK VINA RESULT:    -4.752      1.444      2.200
REMARK INTER + INTRA:          -9.208
REMARK INTER:                  -8.465
REMARK INTRA:                  -0.742
REMARK UNBOUND:                -1.122
REMARK SMILES CCCCCCCCCCCCCC(=O)[O-]
REMARK SMILES IDX 8 1 9 2 10 3 11 4 12 5 13 6 14 7 15 8 16 9 7 10 6 11 5 12
REMARK SMILES IDX 4 13 3 14 2 15 1 16
REMARK H PARENT
REMARK Flexibility Score: inf
ROOT
ATOM      1  C   UNL     1      46.950   4.180 131.533  1.00  0.00     0.000 C 
ENDROOT
BRANCH   1   2
ATOM      2  C   UNL     1      46.131   4.007 132.817  1.00  0.00     0.000 C 
BRANCH   2   3
ATOM      3  C   UNL     1      45.714   2.541 133.009  1.00  0.00     0.000 C 
BRANCH   3   4
ATOM      4  C   UNL     1      44.313   2.236 132.448  1.00  0.00     0.000 C 
BRANCH   4   5
ATOM      5  C   UNL     1      44.016   0.742 132.208  1.00  0.00     0.006 C 
BRANCH   5   6
ATOM      6  C   UNL     1      42.521   0.390 132.155  1.00  0.00     0.053 C 
BRANCH   6   7
ATOM      7  C   UNL     1      42.097  -0.433 133.332  1.00  0.00     0.041 C 
ATOM      8  O   UNL     1      40.874  -0.600 133.582  1.00  0.00    -0.550 OA
ATOM      9  O   UNL     1      43.054  -0.987 134.173  1.00  0.00    -0.550 OA
ENDBRANCH   6   7
ENDBRANCH   5   6
ENDBRANCH   4   5
ENDBRANCH   3   4
ENDBRANCH   2   3
ENDBRANCH   1   2
BRANCH   1  10
ATOM     10  C   UNL     1      46.122   4.864 130.439  1.00  0.00     0.000 C 
BRANCH  10  11
ATOM     11  C   UNL     1      47.024   5.372 129.303  1.00  0.00    -0.000 C 
BRANCH  11  12
ATOM     12  C   UNL     1      46.407   5.152 127.913  1.00  0.00    -0.000 C 
BRANCH  12  13
ATOM     13  C   UNL     1      44.966   4.624 127.982  1.00  0.00    -0.000 C 
BRANCH  13  14
ATOM     14  C   UNL     1      44.150   5.095 126.772  1.00  0.00    -0.000 C 
BRANCH  14  15
ATOM     15  C   UNL     1      42.856   5.787 127.216  1.00  0.00    -0.003 C 
ATOM     16  C   UNL     1      43.027   6.452 128.579  1.00  0.00     0.004 C 
ENDBRANCH  14  15
ENDBRANCH  13  14
ENDBRANCH  12  13
ENDBRANCH  11  12
ENDBRANCH  10  11
ENDBRANCH   1  10
TORSDOF 12
ENDMDL
MODEL 4
REMARK VINA RESULT:    -4.716      4.924      6.519
REMARK INTER + INTRA:          -9.147
REMARK INTER:                  -8.288
REMARK INTRA:                  -0.859
REMARK UNBOUND:                -1.122
REMARK SMILES CCCCCCCCCCCCCC(=O)[O-]
REMARK SMILES IDX 8 1 9 2 10 3 11 4 12 5 13 6 14 7 15 8 16 9 7 10 6 11 5 12
REMARK SMILES IDX 4 13 3 14 2 15 1 16
REMARK H PARENT
REMARK Flexibility Score: inf
ROOT
ATOM      1  C   UNL     1      46.796   7.833 125.782  1.00  0.00     0.000 C 
ENDROOT
BRANCH   1   2
ATOM      2  C   UNL     1      47.785   7.253 126.799  1.00  0.00     0.000 C 
BRANCH   2   3
ATOM      3  C   UNL     1      47.058   6.405 127.852  1.00  0.00     0.000 C 
BRANCH   3   4
ATOM      4  C   UNL     1      46.405   7.252 128.959  1.00  0.00     0.000 C 
BRANCH   4   5
ATOM      5  C   UNL     1      44.872   7.393 128.856  1.00  0.00     0.006 C 
BRANCH   5   6
ATOM      6  C   UNL     1      44.113   6.060 128.773  1.00  0.00     0.053 C 
BRANCH   6   7
ATOM      7  C   UNL     1      43.367   5.919 127.482  1.00  0.00     0.041 C 
ATOM      8  O   UNL     1      42.141   6.198 127.424  1.00  0.00    -0.550 OA
ATOM      9  O   UNL     1      44.021   5.448 126.350  1.00  0.00    -0.550 OA
ENDBRANCH   6   7
ENDBRANCH   5   6
ENDBRANCH   4   5
ENDBRANCH   3   4
ENDBRANCH   2   3
ENDBRANCH   1   2
BRANCH   1  10
ATOM     10  C   UNL     1      47.500   8.183 124.465  1.00  0.00     0.000 C 
BRANCH  10  11
ATOM     11  C   UNL     1      47.992   9.638 124.475  1.00  0.00    -0.000 C 
BRANCH  11  12
ATOM     12  C   UNL     1      47.263  10.517 123.447  1.00  0.00    -0.000 C 
BRANCH  12  13
ATOM     13  C   UNL     1      46.608  11.753 124.083  1.00  0.00    -0.000 C 
BRANCH  13  14
ATOM     14  C   UNL     1      45.085  11.595 124.146  1.00  0.00    -0.000 C 
BRANCH  14  15
ATOM     15  C   UNL     1      44.497  11.357 122.750  1.00  0.00    -0.003 C 
ATOM     16  C   UNL     1      44.670  12.587 121.863  1.00  0.00     0.004 C 
ENDBRANCH  14  15
ENDBRANCH  13  14
ENDBRANCH  12  13
ENDBRANCH  11  12
ENDBRANCH  10  11
ENDBRANCH   1  10
TORSDOF 12
ENDMDL
MODEL 5
REMARK VINA RESULT:    -4.641      2.687      6.249
REMARK INTER + INTRA:          -9.018
REMARK INTER:                  -8.024
REMARK INTRA:                  -0.994
REMARK UNBOUND:                -1.122
REMARK SMILES CCCCCCCCCCCCCC(=O)[O-]
REMARK SMILES IDX 8 1 9 2 10 3 11 4 12 5 13 6 14 7 15 8 16 9 7 10 6 11 5 12
REMARK SMILES IDX 4 13 3 14 2 15 1 16
REMARK H PARENT
REMARK Flexibility Score: inf
ROOT
ATOM      1  C   UNL     1      45.883   4.116 133.377  1.00  0.00     0.000 C 
ENDROOT
BRANCH   1   2
ATOM      2  C   UNL     1      46.104   4.172 131.861  1.00  0.00     0.000 C 
BRANCH   2   3
ATOM      3  C   UNL     1      47.594   4.026 131.518  1.00  0.00     0.000 C 
BRANCH   3   4
ATOM      4  C   UNL     1      47.964   4.666 130.167  1.00  0.00     0.000 C 
BRANCH   4   5
ATOM      5  C   UNL     1      46.847   5.505 129.513  1.00  0.00     0.006 C 
BRANCH   5   6
ATOM      6  C   UNL     1      46.262   4.897 128.229  1.00  0.00     0.053 C 
BRANCH   6   7
ATOM      7  C   UNL     1      44.777   5.076 128.151  1.00  0.00     0.041 C 
ATOM      8  O   UNL     1      44.141   4.668 127.144  1.00  0.00    -0.550 OA
ATOM      9  O   UNL     1      44.101   5.726 129.176  1.00  0.00    -0.550 OA
ENDBRANCH   6   7
ENDBRANCH   5   6
ENDBRANCH   4   5
ENDBRANCH   3   4
ENDBRANCH   2   3
ENDBRANCH   1   2
BRANCH   1  10
ATOM     10  C   UNL     1      46.390   2.791 133.959  1.00  0.00     0.000 C 
BRANCH  10  11
ATOM     11  C   UNL     1      46.127   2.719 135.472  1.00  0.00    -0.000 C 
BRANCH  11  12
ATOM     12  C   UNL     1      44.843   1.947 135.813  1.00  0.00    -0.000 C 
BRANCH  12  13
ATOM     13  C   UNL     1      44.485   0.893 134.754  1.00  0.00    -0.000 C 
BRANCH  13  14
ATOM     14  C   UNL     1      43.176   1.254 134.041  1.00  0.00    -0.000 C 
BRANCH  14  15
ATOM     15  C   UNL     1      43.357   1.238 132.518  1.00  0.00    -0.003 C 
ATOM     16  C   UNL     1      42.367   0.284 131.855  1.00  0.00     0.004 C 
ENDBRANCH  14  15
ENDBRANCH  13  14
ENDBRANCH  12  13
ENDBRANCH  11  12
ENDBRANCH  10  11
ENDBRANCH   1  10
TORSDOF 12
ENDMDL
MODEL 6
REMARK VINA RESULT:    -4.625      6.867      9.662
REMARK INTER + INTRA:          -8.991
REMARK INTER:                  -8.114
REMARK INTRA:                  -0.877
REMARK UNBOUND:                -1.122
REMARK SMILES CCCCCCCCCCCCCC(=O)[O-]
REMARK SMILES IDX 8 1 9 2 10 3 11 4 12 5 13 6 14 7 15 8 16 9 7 10 6 11 5 12
REMARK SMILES IDX 4 13 3 14 2 15 1 16
REMARK H PARENT
REMARK Flexibility Score: inf
ROOT
ATOM      1  C   UNL     1      46.893   7.893 125.590  1.00  0.00     0.000 C 
ENDROOT
BRANCH   1   2
ATOM      2  C   UNL     1      47.915   8.387 124.560  1.00  0.00     0.000 C 
BRANCH   2   3
ATOM      3  C   UNL     1      47.304   9.464 123.652  1.00  0.00     0.000 C 
BRANCH   3   4
ATOM      4  C   UNL     1      45.982  10.032 124.201  1.00  0.00     0.000 C 
BRANCH   4   5
ATOM      5  C   UNL     1      45.688  11.495 123.810  1.00  0.00     0.006 C 
BRANCH   5   6
ATOM      6  C   UNL     1      44.379  11.695 123.030  1.00  0.00     0.053 C 
BRANCH   6   7
ATOM      7  C   UNL     1      44.629  12.022 121.590  1.00  0.00     0.041 C 
ATOM      8  O   UNL     1      43.754  12.625 120.915  1.00  0.00    -0.550 OA
ATOM      9  O   UNL     1      45.816  11.630 120.985  1.00  0.00    -0.550 OA
ENDBRANCH   6   7
ENDBRANCH   5   6
ENDBRANCH   4   5
ENDBRANCH   3   4
ENDBRANCH   2   3
ENDBRANCH   1   2
BRANCH   1  10
ATOM     10  C   UNL     1      47.583   7.141 126.734  1.00  0.00     0.000 C 
BRANCH  10  11
ATOM     11  C   UNL     1      46.577   6.767 127.833  1.00  0.00    -0.000 C 
BRANCH  11  12
ATOM     12  C   UNL     1      46.418   5.248 128.000  1.00  0.00    -0.000 C 
BRANCH  12  13
ATOM     13  C   UNL     1      44.947   4.804 128.010  1.00  0.00    -0.000 C 
BRANCH  13  14
ATOM     14  C   UNL     1      44.369   4.790 126.590  1.00  0.00    -0.000 C 
BRANCH  14  15
ATOM     15  C   UNL     1      43.117   5.672 126.498  1.00  0.00    -0.003 C 
ATOM     16  C   UNL     1      42.700   6.183 127.874  1.00  0.00     0.004 C 
ENDBRANCH  14  15
ENDBRANCH  13  14
ENDBRANCH  12  13
ENDBRANCH  11  12
ENDBRANCH  10  11
ENDBRANCH   1  10
TORSDOF 12
ENDMDL
MODEL 7
REMARK VINA RESULT:    -4.556      2.610      5.790
REMARK INTER + INTRA:          -8.874
REMARK INTER:                  -7.840
REMARK INTRA:                  -1.034
REMARK UNBOUND:                -1.122
REMARK SMILES CCCCCCCCCCCCCC(=O)[O-]
REMARK SMILES IDX 8 1 9 2 10 3 11 4 12 5 13 6 14 7 15 8 16 9 7 10 6 11 5 12
REMARK SMILES IDX 4 13 3 14 2 15 1 16
REMARK H PARENT
REMARK Flexibility Score: inf
ROOT
ATOM      1  C   UNL     1      47.490   6.274 129.092  1.00  0.00     0.000 C 
ENDROOT
BRANCH   1   2
ATOM      2  C   UNL     1      46.991   6.586 127.676  1.00  0.00     0.000 C 
BRANCH   2   3
ATOM      3  C   UNL     1      45.807   7.563 127.713  1.00  0.00     0.000 C 
BRANCH   3   4
ATOM      4  C   UNL     1      45.032   7.517 129.043  1.00  0.00     0.000 C 
BRANCH   4   5
ATOM      5  C   UNL     1      44.001   6.376 129.160  1.00  0.00     0.006 C 
BRANCH   5   6
ATOM      6  C   UNL     1      42.918   6.382 128.069  1.00  0.00     0.053 C 
BRANCH   6   7
ATOM      7  C   UNL     1      43.191   5.365 127.004  1.00  0.00     0.041 C 
ATOM      8  O   UNL     1      42.437   5.282 125.999  1.00  0.00    -0.550 OA
ATOM      9  O   UNL     1      44.259   4.488 127.138  1.00  0.00    -0.550 OA
ENDBRANCH   6   7
ENDBRANCH   5   6
ENDBRANCH   4   5
ENDBRANCH   3   4
ENDBRANCH   2   3
ENDBRANCH   1   2
BRANCH   1  10
ATOM     10  C   UNL     1      47.412   4.771 129.386  1.00  0.00     0.000 C 
BRANCH  10  11
ATOM     11  C   UNL     1      48.031   4.446 130.754  1.00  0.00    -0.000 C 
BRANCH  11  12
ATOM     12  C   UNL     1      47.042   4.640 131.914  1.00  0.00    -0.000 C 
BRANCH  12  13
ATOM     13  C   UNL     1      45.645   4.079 131.601  1.00  0.00    -0.000 C 
BRANCH  13  14
ATOM     14  C   UNL     1      45.058   3.359 132.821  1.00  0.00    -0.000 C 
BRANCH  14  15
ATOM     15  C   UNL     1      45.831   3.718 134.096  1.00  0.00    -0.003 C 
ATOM     16  C   UNL     1      45.687   2.626 135.153  1.00  0.00     0.004 C 
ENDBRANCH  14  15
ENDBRANCH  13  14
ENDBRANCH  12  13
ENDBRANCH  11  12
ENDBRANCH  10  11
ENDBRANCH   1  10
TORSDOF 12
ENDMDL
MODEL 8
REMARK VINA RESULT:    -4.511      1.241      2.457
REMARK INTER + INTRA:          -8.798
REMARK INTER:                  -7.934
REMARK INTRA:                  -0.864
REMARK UNBOUND:                -1.122
REMARK SMILES CCCCCCCCCCCCCC(=O)[O-]
REMARK SMILES IDX 8 1 9 2 10 3 11 4 12 5 13 6 14 7 15 8 16 9 7 10 6 11 5 12
REMARK SMILES IDX 4 13 3 14 2 15 1 16
REMARK H PARENT
REMARK Flexibility Score: inf
ROOT
ATOM      1  C   UNL     1      47.422   6.189 128.444  1.00  0.00     0.000 C 
ENDROOT
BRANCH   1   2
ATOM      2  C   UNL     1      46.983   5.536 129.759  1.00  0.00     0.000 C 
BRANCH   2   3
ATOM      3  C   UNL     1      48.099   4.651 130.333  1.00  0.00     0.000 C 
BRANCH   3   4
ATOM      4  C   UNL     1      47.665   3.878 131.592  1.00  0.00     0.000 C 
BRANCH   4   5
ATOM      5  C   UNL     1      46.188   4.065 131.997  1.00  0.00     0.006 C 
BRANCH   5   6
ATOM      6  C   UNL     1      45.718   3.146 133.135  1.00  0.00     0.053 C 
BRANCH   6   7
ATOM      7  C   UNL     1      44.496   2.367 132.759  1.00  0.00     0.041 C 
ATOM      8  O   UNL     1      43.365   2.921 132.762  1.00  0.00    -0.550 OA
ATOM      9  O   UNL     1      44.602   1.020 132.437  1.00  0.00    -0.550 OA
ENDBRANCH   6   7
ENDBRANCH   5   6
ENDBRANCH   4   5
ENDBRANCH   3   4
ENDBRANCH   2   3
ENDBRANCH   1   2
BRANCH   1  10
ATOM     10  C   UNL     1      46.324   7.104 127.889  1.00  0.00     0.000 C 
BRANCH  10  11
ATOM     11  C   UNL     1      45.598   6.439 126.709  1.00  0.00    -0.000 C 
BRANCH  11  12
ATOM     12  C   UNL     1      44.806   5.190 127.128  1.00  0.00    -0.000 C 
BRANCH  12  13
ATOM     13  C   UNL     1      43.363   5.200 126.601  1.00  0.00    -0.000 C 
BRANCH  13  14
ATOM     14  C   UNL     1      42.508   6.220 127.362  1.00  0.00    -0.000 C 
BRANCH  14  15
ATOM     15  C   UNL     1      42.808   6.176 128.866  1.00  0.00    -0.003 C 
ATOM     16  C   UNL     1      43.145   7.565 129.401  1.00  0.00     0.004 C 
ENDBRANCH  14  15
ENDBRANCH  13  14
ENDBRANCH  12  13
ENDBRANCH  11  12
ENDBRANCH  10  11
ENDBRANCH   1  10
TORSDOF 12
ENDMDL
MODEL 9
REMARK VINA RESULT:    -4.449      5.571      7.413
REMARK INTER + INTRA:          -8.692
REMARK INTER:                  -7.746
REMARK INTRA:                  -0.946
REMARK UNBOUND:                -1.122
REMARK SMILES CCCCCCCCCCCCCC(=O)[O-]
REMARK SMILES IDX 8 1 9 2 10 3 11 4 12 5 13 6 14 7 15 8 16 9 7 10 6 11 5 12
REMARK SMILES IDX 4 13 3 14 2 15 1 16
REMARK H PARENT
REMARK Flexibility Score: inf
ROOT
ATOM      1  C   UNL     1      47.737   8.255 123.891  1.00  0.00     0.000 C 
ENDROOT
BRANCH   1   2
ATOM      2  C   UNL     1      47.003   8.154 125.233  1.00  0.00     0.000 C 
BRANCH   2   3
ATOM      3  C   UNL     1      47.888   7.483 126.294  1.00  0.00     0.000 C 
BRANCH   3   4
ATOM      4  C   UNL     1      47.077   6.863 127.446  1.00  0.00     0.000 C 
BRANCH   4   5
ATOM      5  C   UNL     1      45.548   7.033 127.335  1.00  0.00     0.006 C 
BRANCH   5   6
ATOM      6  C   UNL     1      44.733   5.847 127.874  1.00  0.00     0.053 C 
BRANCH   6   7
ATOM      7  C   UNL     1      43.286   5.944 127.499  1.00  0.00     0.041 C 
ATOM      8  O   UNL     1      42.465   6.497 128.276  1.00  0.00    -0.550 OA
ATOM      9  O   UNL     1      42.840   5.393 126.304  1.00  0.00    -0.550 OA
ENDBRANCH   6   7
ENDBRANCH   5   6
ENDBRANCH   4   5
ENDBRANCH   3   4
ENDBRANCH   2   3
ENDBRANCH   1   2
BRANCH   1  10
ATOM     10  C   UNL     1      47.521   9.630 123.247  1.00  0.00     0.000 C 
BRANCH  10  11
ATOM     11  C   UNL     1      47.278  10.706 124.315  1.00  0.00    -0.000 C 
BRANCH  11  12
ATOM     12  C   UNL     1      45.993  11.511 124.063  1.00  0.00    -0.000 C 
BRANCH  12  13
ATOM     13  C   UNL     1      45.109  10.889 122.972  1.00  0.00    -0.000 C 
BRANCH  13  14
ATOM     14  C   UNL     1      44.324  11.970 122.220  1.00  0.00    -0.000 C 
BRANCH  14  15
ATOM     15  C   UNL     1      44.826  12.112 120.778  1.00  0.00    -0.003 C 
ATOM     16  C   UNL     1      45.641  10.893 120.356  1.00  0.00     0.004 C 
ENDBRANCH  14  15
ENDBRANCH  13  14
ENDBRANCH  12  13
ENDBRANCH  11  12
ENDBRANCH  10  11
ENDBRANCH   1  10
TORSDOF 12
ENDMDL
