MODEL 1
REMARK VINA RESULT:    -4.167      0.000      0.000
REMARK INTER + INTRA:         -10.403
REMARK INTER:                  -9.039
REMARK INTRA:                  -1.364
REMARK UNBOUND:                -1.364
REMARK SMILES CCCCCCCCCCCCCCCCCCCCCC(=O)[O-]
REMARK SMILES IDX 12 1 11 2 10 3 9 4 8 5 7 6 6 7 5 8 4 9 3 10 2 11 1 12 13 13
REMARK SMILES IDX 14 14 15 15 16 16 17 17 18 18 19 19 20 20 21 21 22 22 23 23
REMARK SMILES IDX 24 24
REMARK H PARENT
REMARK Flexibility Score: inf
ROOT
ATOM      1  C   UNL     1       0.919  16.276  21.675  1.00  0.00     0.000 C 
ENDROOT
BRANCH   1   2
ATOM      2  C   UNL     1      -0.522  15.744  21.667  1.00  0.00     0.000 C 
BRANCH   2   3
ATOM      3  C   UNL     1      -1.568  16.868  21.599  1.00  0.00     0.000 C 
BRANCH   3   4
ATOM      4  C   UNL     1      -2.624  16.760  22.714  1.00  0.00    -0.000 C 
BRANCH   4   5
ATOM      5  C   UNL     1      -4.036  17.128  22.228  1.00  0.00    -0.000 C 
BRANCH   5   6
ATOM      6  C   UNL     1      -5.078  16.054  22.574  1.00  0.00    -0.000 C 
BRANCH   6   7
ATOM      7  C   UNL     1      -5.473  15.251  21.328  1.00  0.00    -0.000 C 
BRANCH   7   8
ATOM      8  C   UNL     1      -6.890  14.652  21.423  1.00  0.00    -0.000 C 
BRANCH   8   9
ATOM      9  C   UNL     1      -7.884  15.457  22.283  1.00  0.00    -0.000 C 
BRANCH   9  10
ATOM     10  C   UNL     1      -8.790  16.380  21.451  1.00  0.00    -0.000 C 
BRANCH  10  11
ATOM     11  C   UNL     1      -8.227  17.806  21.335  1.00  0.00    -0.003 C 
ATOM     12  C   UNL     1      -8.133  18.290  19.887  1.00  0.00     0.004 C 
ENDBRANCH  10  11
ENDBRANCH   9  10
ENDBRANCH   8   9
ENDBRANCH   7   8
ENDBRANCH   6   7
ENDBRANCH   5   6
ENDBRANCH   4   5
ENDBRANCH   3   4
ENDBRANCH   2   3
ENDBRANCH   1   2
BRANCH   1  13
ATOM     13  C   UNL     1       1.594  16.012  23.025  1.00  0.00     0.000 C 
BRANCH  13  14
ATOM     14  C   UNL     1       3.121  15.995  22.884  1.00  0.00     0.000 C 
BRANCH  14  15
ATOM     15  C   UNL     1       3.569  16.788  21.648  1.00  0.00     0.000 C 
BRANCH  15  16
ATOM     16  C   UNL     1       5.025  16.492  21.250  1.00  0.00     0.000 C 
BRANCH  16  17
ATOM     17  C   UNL     1       5.804  15.772  22.365  1.00  0.00     0.000 C 
BRANCH  17  18
ATOM     18  C   UNL     1       7.292  16.167  22.403  1.00  0.00     0.000 C 
BRANCH  18  19
ATOM     19  C   UNL     1       7.782  16.973  21.185  1.00  0.00     0.000 C 
BRANCH  19  20
ATOM     20  C   UNL     1       9.256  16.702  20.845  1.00  0.00     0.006 C 
BRANCH  20  21
ATOM     21  C   UNL     1       9.667  15.289  21.269  1.00  0.00     0.053 C 
BRANCH  21  22
ATOM     22  C   UNL     1      10.202  14.520  20.102  1.00  0.00     0.041 C 
ATOM     23  O   UNL     1      10.917  15.095  19.239  1.00  0.00    -0.550 OA
ATOM     24  O   UNL     1       9.941  13.160  19.983  1.00  0.00    -0.550 OA
ENDBRANCH  21  22
ENDBRANCH  20  21
ENDBRANCH  19  20
ENDBRANCH  18  19
ENDBRANCH  17  18
ENDBRANCH  16  17
ENDBRANCH  15  16
ENDBRANCH  14  15
ENDBRANCH  13  14
ENDBRANCH   1  13
TORSDOF 20
ENDMDL
MODEL 2
REMARK VINA RESULT:    -4.038      5.466     13.733
REMARK INTER + INTRA:         -10.123
REMARK INTER:                  -9.149
REMARK INTRA:                  -0.974
REMARK UNBOUND:                -1.364
REMARK SMILES CCCCCCCCCCCCCCCCCCCCCC(=O)[O-]
REMARK SMILES IDX 12 1 11 2 10 3 9 4 8 5 7 6 6 7 5 8 4 9 3 10 2 11 1 12 13 13
REMARK SMILES IDX 14 14 15 15 16 16 17 17 18 18 19 19 20 20 21 21 22 22 23 23
REMARK SMILES IDX 24 24
REMARK H PARENT
REMARK Flexibility Score: inf
ROOT
ATOM      1  C   UNL     1       3.547  16.072  22.004  1.00  0.00     0.000 C 
ENDROOT
BRANCH   1   2
ATOM      2  C   UNL     1       4.563  15.287  22.847  1.00  0.00     0.000 C 
BRANCH   2   3
ATOM      3  C   UNL     1       5.885  15.040  22.102  1.00  0.00     0.000 C 
BRANCH   3   4
ATOM      4  C   UNL     1       6.582  16.348  21.686  1.00  0.00    -0.000 C 
BRANCH   4   5
ATOM      5  C   UNL     1       8.105  16.299  21.898  1.00  0.00    -0.000 C 
BRANCH   5   6
ATOM      6  C   UNL     1       8.873  17.111  20.845  1.00  0.00    -0.000 C 
BRANCH   6   7
ATOM      7  C   UNL     1       9.855  16.218  20.073  1.00  0.00    -0.000 C 
BRANCH   7   8
ATOM      8  C   UNL     1      10.957  15.622  20.969  1.00  0.00    -0.000 C 
BRANCH   8   9
ATOM      9  C   UNL     1      11.064  14.085  20.941  1.00  0.00    -0.000 C 
BRANCH   9  10
ATOM     10  C   UNL     1      10.172  13.439  19.867  1.00  0.00    -0.000 C 
BRANCH  10  11
ATOM     11  C   UNL     1      10.971  12.993  18.631  1.00  0.00    -0.003 C 
ATOM     12  C   UNL     1      10.284  11.868  17.856  1.00  0.00     0.004 C 
ENDBRANCH  10  11
ENDBRANCH   9  10
ENDBRANCH   8   9
ENDBRANCH   7   8
ENDBRANCH   6   7
ENDBRANCH   5   6
ENDBRANCH   4   5
ENDBRANCH   3   4
ENDBRANCH   2   3
ENDBRANCH   1   2
BRANCH   1  13
ATOM     13  C   UNL     1       2.237  16.275  22.773  1.00  0.00     0.000 C 
BRANCH  13  14
ATOM     14  C   UNL     1       1.024  15.996  21.877  1.00  0.00     0.000 C 
BRANCH  14  15
ATOM     15  C   UNL     1      -0.286  16.362  22.594  1.00  0.00     0.000 C 
BRANCH  15  16
ATOM     16  C   UNL     1      -1.448  16.601  21.615  1.00  0.00     0.000 C 
BRANCH  16  17
ATOM     17  C   UNL     1      -2.418  17.688  22.109  1.00  0.00     0.000 C 
BRANCH  17  18
ATOM     18  C   UNL     1      -3.837  17.149  22.370  1.00  0.00     0.000 C 
BRANCH  18  19
ATOM     19  C   UNL     1      -4.182  15.844  21.630  1.00  0.00     0.000 C 
BRANCH  19  20
ATOM     20  C   UNL     1      -5.520  15.238  22.081  1.00  0.00     0.006 C 
BRANCH  20  21
ATOM     21  C   UNL     1      -6.534  15.231  20.933  1.00  0.00     0.053 C 
BRANCH  21  22
ATOM     22  C   UNL     1      -7.628  16.221  21.189  1.00  0.00     0.041 C 
ATOM     23  O   UNL     1      -8.693  15.855  21.754  1.00  0.00    -0.550 OA
ATOM     24  O   UNL     1      -7.460  17.554  20.835  1.00  0.00    -0.550 OA
ENDBRANCH  21  22
ENDBRANCH  20  21
ENDBRANCH  19  20
ENDBRANCH  18  19
ENDBRANCH  17  18
ENDBRANCH  16  17
ENDBRANCH  15  16
ENDBRANCH  14  15
ENDBRANCH  13  14
ENDBRANCH   1  13
TORSDOF 20
ENDMDL
MODEL 3
REMARK VINA RESULT:    -4.000      1.038      1.792
REMARK INTER + INTRA:         -10.041
REMARK INTER:                  -9.233
REMARK INTRA:                  -0.808
REMARK UNBOUND:                -1.364
REMARK SMILES CCCCCCCCCCCCCCCCCCCCCC(=O)[O-]
REMARK SMILES IDX 12 1 11 2 10 3 9 4 8 5 7 6 6 7 5 8 4 9 3 10 2 11 1 12 13 13
REMARK SMILES IDX 14 14 15 15 16 16 17 17 18 18 19 19 20 20 21 21 22 22 23 23
REMARK SMILES IDX 24 24
REMARK H PARENT
REMARK Flexibility Score: inf
ROOT
ATOM      1  C   UNL     1       1.957  15.975  22.975  1.00  0.00     0.000 C 
ENDROOT
BRANCH   1   2
ATOM      2  C   UNL     1       0.787  16.009  21.982  1.00  0.00     0.000 C 
BRANCH   2   3
ATOM      3  C   UNL     1      -0.491  16.606  22.593  1.00  0.00     0.000 C 
BRANCH   3   4
ATOM      4  C   UNL     1      -1.555  16.936  21.531  1.00  0.00    -0.000 C 
BRANCH   4   5
ATOM      5  C   UNL     1      -2.754  15.973  21.576  1.00  0.00    -0.000 C 
BRANCH   5   6
ATOM      6  C   UNL     1      -3.458  15.970  22.941  1.00  0.00    -0.000 C 
BRANCH   6   7
ATOM      7  C   UNL     1      -4.973  16.150  22.777  1.00  0.00    -0.000 C 
BRANCH   7   8
ATOM      8  C   UNL     1      -5.495  15.647  21.418  1.00  0.00    -0.000 C 
BRANCH   8   9
ATOM      9  C   UNL     1      -6.550  14.528  21.495  1.00  0.00    -0.000 C 
BRANCH   9  10
ATOM     10  C   UNL     1      -7.994  15.058  21.484  1.00  0.00    -0.000 C 
BRANCH  10  11
ATOM     11  C   UNL     1      -8.055  16.595  21.518  1.00  0.00    -0.003 C 
ATOM     12  C   UNL     1      -8.347  17.206  20.146  1.00  0.00     0.004 C 
ENDBRANCH  10  11
ENDBRANCH   9  10
ENDBRANCH   8   9
ENDBRANCH   7   8
ENDBRANCH   6   7
ENDBRANCH   5   6
ENDBRANCH   4   5
ENDBRANCH   3   4
ENDBRANCH   2   3
ENDBRANCH   1   2
BRANCH   1  13
ATOM     13  C   UNL     1       3.300  16.099  22.245  1.00  0.00     0.000 C 
BRANCH  13  14
ATOM     14  C   UNL     1       4.425  15.433  23.045  1.00  0.00     0.000 C 
BRANCH  14  15
ATOM     15  C   UNL     1       5.623  15.102  22.141  1.00  0.00     0.000 C 
BRANCH  15  16
ATOM     16  C   UNL     1       6.798  16.075  22.336  1.00  0.00     0.000 C 
BRANCH  16  17
ATOM     17  C   UNL     1       7.306  16.657  21.005  1.00  0.00     0.000 C 
BRANCH  17  18
ATOM     18  C   UNL     1       8.562  17.531  21.176  1.00  0.00     0.000 C 
BRANCH  18  19
ATOM     19  C   UNL     1       9.740  17.164  20.255  1.00  0.00     0.000 C 
BRANCH  19  20
ATOM     20  C   UNL     1      10.472  15.889  20.702  1.00  0.00     0.006 C 
BRANCH  20  21
ATOM     21  C   UNL     1      10.796  14.993  19.502  1.00  0.00     0.053 C 
BRANCH  21  22
ATOM     22  C   UNL     1      10.078  13.684  19.610  1.00  0.00     0.041 C 
ATOM     23  O   UNL     1      10.382  12.731  18.845  1.00  0.00    -0.550 OA
ATOM     24  O   UNL     1       9.099  13.503  20.580  1.00  0.00    -0.550 OA
ENDBRANCH  21  22
ENDBRANCH  20  21
ENDBRANCH  19  20
ENDBRANCH  18  19
ENDBRANCH  17  18
ENDBRANCH  16  17
ENDBRANCH  15  16
ENDBRANCH  14  15
ENDBRANCH  13  14
ENDBRANCH   1  13
TORSDOF 20
ENDMDL
MODEL 4
REMARK VINA RESULT:    -3.928      1.147      1.891
REMARK INTER + INTRA:          -9.886
REMARK INTER:                  -8.322
REMARK INTRA:                  -1.564
REMARK UNBOUND:                -1.364
REMARK SMILES CCCCCCCCCCCCCCCCCCCCCC(=O)[O-]
REMARK SMILES IDX 12 1 11 2 10 3 9 4 8 5 7 6 6 7 5 8 4 9 3 10 2 11 1 12 13 13
REMARK SMILES IDX 14 14 15 15 16 16 17 17 18 18 19 19 20 20 21 21 22 22 23 23
REMARK SMILES IDX 24 24
REMARK H PARENT
REMARK Flexibility Score: inf
ROOT
ATOM      1  C   UNL     1      -1.152  16.218  21.658  1.00  0.00     0.000 C 
ENDROOT
BRANCH   1   2
ATOM      2  C   UNL     1      -1.821  17.600  21.628  1.00  0.00     0.000 C 
BRANCH   2   3
ATOM      3  C   UNL     1      -3.301  17.550  22.041  1.00  0.00     0.000 C 
BRANCH   3   4
ATOM      4  C   UNL     1      -3.603  16.402  23.021  1.00  0.00    -0.000 C 
BRANCH   4   5
ATOM      5  C   UNL     1      -4.952  15.721  22.736  1.00  0.00    -0.000 C 
BRANCH   5   6
ATOM      6  C   UNL     1      -5.104  15.304  21.266  1.00  0.00    -0.000 C 
BRANCH   6   7
ATOM      7  C   UNL     1      -6.573  15.366  20.827  1.00  0.00    -0.000 C 
BRANCH   7   8
ATOM      8  C   UNL     1      -7.551  14.940  21.939  1.00  0.00    -0.000 C 
BRANCH   8   9
ATOM      9  C   UNL     1      -8.826  15.797  22.053  1.00  0.00    -0.000 C 
BRANCH   9  10
ATOM     10  C   UNL     1      -8.703  17.157  21.345  1.00  0.00    -0.000 C 
BRANCH  10  11
ATOM     11  C   UNL     1      -8.469  18.313  22.332  1.00  0.00    -0.003 C 
ATOM     12  C   UNL     1      -6.995  18.704  22.448  1.00  0.00     0.004 C 
ENDBRANCH  10  11
ENDBRANCH   9  10
ENDBRANCH   8   9
ENDBRANCH   7   8
ENDBRANCH   6   7
ENDBRANCH   5   6
ENDBRANCH   4   5
ENDBRANCH   3   4
ENDBRANCH   2   3
ENDBRANCH   1   2
BRANCH   1  13
ATOM     13  C   UNL     1       0.118  16.242  22.516  1.00  0.00     0.000 C 
BRANCH  13  14
ATOM     14  C   UNL     1       1.366  15.992  21.660  1.00  0.00     0.000 C 
BRANCH  14  15
ATOM     15  C   UNL     1       2.641  16.401  22.413  1.00  0.00     0.000 C 
BRANCH  15  16
ATOM     16  C   UNL     1       3.856  15.537  22.032  1.00  0.00     0.000 C 
BRANCH  16  17
ATOM     17  C   UNL     1       5.105  16.381  21.725  1.00  0.00     0.000 C 
BRANCH  17  18
ATOM     18  C   UNL     1       6.371  15.849  22.422  1.00  0.00     0.000 C 
BRANCH  18  19
ATOM     19  C   UNL     1       6.859  14.477  21.923  1.00  0.00     0.000 C 
BRANCH  19  20
ATOM     20  C   UNL     1       8.294  14.517  21.374  1.00  0.00     0.006 C 
BRANCH  20  21
ATOM     21  C   UNL     1       8.942  15.881  21.633  1.00  0.00     0.053 C 
BRANCH  21  22
ATOM     22  C   UNL     1       9.763  16.309  20.457  1.00  0.00     0.041 C 
ATOM     23  O   UNL     1      10.292  15.446  19.707  1.00  0.00    -0.550 OA
ATOM     24  O   UNL     1       9.915  17.659  20.166  1.00  0.00    -0.550 OA
ENDBRANCH  21  22
ENDBRANCH  20  21
ENDBRANCH  19  20
ENDBRANCH  18  19
ENDBRANCH  17  18
ENDBRANCH  16  17
ENDBRANCH  15  16
ENDBRANCH  14  15
ENDBRANCH  13  14
ENDBRANCH   1  13
TORSDOF 20
ENDMDL
MODEL 5
REMARK VINA RESULT:    -3.914      5.500     13.658
REMARK INTER + INTRA:          -9.854
REMARK INTER:                  -8.857
REMARK INTRA:                  -0.997
REMARK UNBOUND:                -1.364
REMARK SMILES CCCCCCCCCCCCCCCCCCCCCC(=O)[O-]
REMARK SMILES IDX 12 1 11 2 10 3 9 4 8 5 7 6 6 7 5 8 4 9 3 10 2 11 1 12 13 13
REMARK SMILES IDX 14 14 15 15 16 16 17 17 18 18 19 19 20 20 21 21 22 22 23 23
REMARK SMILES IDX 24 24
REMARK H PARENT
REMARK Flexibility Score: inf
ROOT
ATOM      1  C   UNL     1       0.809  15.992  21.996  1.00  0.00     0.000 C 
ENDROOT
BRANCH   1   2
ATOM      2  C   UNL     1       1.859  16.159  23.104  1.00  0.00     0.000 C 
BRANCH   2   3
ATOM      3  C   UNL     1       3.273  15.773  22.641  1.00  0.00     0.000 C 
BRANCH   3   4
ATOM      4  C   UNL     1       3.819  16.720  21.558  1.00  0.00    -0.000 C 
BRANCH   4   5
ATOM      5  C   UNL     1       5.320  16.513  21.293  1.00  0.00    -0.000 C 
BRANCH   5   6
ATOM      6  C   UNL     1       6.027  15.782  22.444  1.00  0.00    -0.000 C 
BRANCH   6   7
ATOM      7  C   UNL     1       6.664  14.474  21.955  1.00  0.00    -0.000 C 
BRANCH   7   8
ATOM      8  C   UNL     1       8.195  14.451  22.125  1.00  0.00    -0.000 C 
BRANCH   8   9
ATOM      9  C   UNL     1       8.992  14.149  20.842  1.00  0.00    -0.000 C 
BRANCH   9  10
ATOM     10  C   UNL     1      10.397  14.775  20.843  1.00  0.00    -0.000 C 
BRANCH  10  11
ATOM     11  C   UNL     1      10.483  16.026  19.952  1.00  0.00    -0.003 C 
ATOM     12  C   UNL     1       9.524  17.133  20.393  1.00  0.00     0.004 C 
ENDBRANCH  10  11
ENDBRANCH   9  10
ENDBRANCH   8   9
ENDBRANCH   7   8
ENDBRANCH   6   7
ENDBRANCH   5   6
ENDBRANCH   4   5
ENDBRANCH   3   4
ENDBRANCH   2   3
ENDBRANCH   1   2
BRANCH   1  13
ATOM     13  C   UNL     1      -0.584  16.394  22.495  1.00  0.00     0.000 C 
BRANCH  13  14
ATOM     14  C   UNL     1      -1.665  16.017  21.475  1.00  0.00     0.000 C 
BRANCH  14  15
ATOM     15  C   UNL     1      -3.069  16.308  22.028  1.00  0.00     0.000 C 
BRANCH  15  16
ATOM     16  C   UNL     1      -4.171  15.544  21.275  1.00  0.00     0.000 C 
BRANCH  16  17
ATOM     17  C   UNL     1      -5.499  15.508  22.052  1.00  0.00     0.000 C 
BRANCH  17  18
ATOM     18  C   UNL     1      -6.496  14.483  21.483  1.00  0.00     0.000 C 
BRANCH  18  19
ATOM     19  C   UNL     1      -7.981  14.847  21.672  1.00  0.00     0.000 C 
BRANCH  19  20
ATOM     20  C   UNL     1      -8.183  16.089  22.554  1.00  0.00     0.006 C 
BRANCH  20  21
ATOM     21  C   UNL     1      -9.122  17.094  21.880  1.00  0.00     0.053 C 
BRANCH  21  22
ATOM     22  C   UNL     1      -8.425  17.798  20.757  1.00  0.00     0.041 C 
ATOM     23  O   UNL     1      -7.261  18.250  20.920  1.00  0.00    -0.550 OA
ATOM     24  O   UNL     1      -9.045  17.924  19.520  1.00  0.00    -0.550 OA
ENDBRANCH  21  22
ENDBRANCH  20  21
ENDBRANCH  19  20
ENDBRANCH  18  19
ENDBRANCH  17  18
ENDBRANCH  16  17
ENDBRANCH  15  16
ENDBRANCH  14  15
ENDBRANCH  13  14
ENDBRANCH   1  13
TORSDOF 20
ENDMDL
MODEL 6
REMARK VINA RESULT:    -3.882      5.648     13.798
REMARK INTER + INTRA:          -9.785
REMARK INTER:                  -8.787
REMARK INTRA:                  -0.997
REMARK UNBOUND:                -1.364
REMARK SMILES CCCCCCCCCCCCCCCCCCCCCC(=O)[O-]
REMARK SMILES IDX 12 1 11 2 10 3 9 4 8 5 7 6 6 7 5 8 4 9 3 10 2 11 1 12 13 13
REMARK SMILES IDX 14 14 15 15 16 16 17 17 18 18 19 19 20 20 21 21 22 22 23 23
REMARK SMILES IDX 24 24
REMARK H PARENT
REMARK Flexibility Score: inf
ROOT
ATOM      1  C   UNL     1      -0.945  16.411  21.966  1.00  0.00     0.000 C 
ENDROOT
BRANCH   1   2
ATOM      2  C   UNL     1       0.329  16.321  22.819  1.00  0.00     0.000 C 
BRANCH   2   3
ATOM      3  C   UNL     1       1.571  15.955  21.990  1.00  0.00     0.000 C 
BRANCH   3   4
ATOM      4  C   UNL     1       2.886  16.266  22.728  1.00  0.00    -0.000 C 
BRANCH   4   5
ATOM      5  C   UNL     1       4.028  15.318  22.325  1.00  0.00    -0.000 C 
BRANCH   5   6
ATOM      6  C   UNL     1       5.411  15.864  22.708  1.00  0.00    -0.000 C 
BRANCH   6   7
ATOM      7  C   UNL     1       6.204  16.275  21.460  1.00  0.00    -0.000 C 
BRANCH   7   8
ATOM      8  C   UNL     1       7.728  16.259  21.684  1.00  0.00    -0.000 C 
BRANCH   8   9
ATOM      9  C   UNL     1       8.500  17.415  21.020  1.00  0.00    -0.000 C 
BRANCH   9  10
ATOM     10  C   UNL     1       9.794  16.956  20.326  1.00  0.00    -0.000 C 
BRANCH  10  11
ATOM     11  C   UNL     1      10.337  15.640  20.909  1.00  0.00    -0.003 C 
ATOM     12  C   UNL     1      10.421  14.523  19.868  1.00  0.00     0.004 C 
ENDBRANCH  10  11
ENDBRANCH   9  10
ENDBRANCH   8   9
ENDBRANCH   7   8
ENDBRANCH   6   7
ENDBRANCH   5   6
ENDBRANCH   4   5
ENDBRANCH   3   4
ENDBRANCH   2   3
ENDBRANCH   1   2
BRANCH   1  13
ATOM     13  C   UNL     1      -2.166  16.731  22.836  1.00  0.00     0.000 C 
BRANCH  13  14
ATOM     14  C   UNL     1      -3.237  17.475  22.030  1.00  0.00     0.000 C 
BRANCH  14  15
ATOM     15  C   UNL     1      -4.648  17.026  22.441  1.00  0.00     0.000 C 
BRANCH  15  16
ATOM     16  C   UNL     1      -4.949  15.574  22.032  1.00  0.00     0.000 C 
BRANCH  16  17
ATOM     17  C   UNL     1      -6.061  15.480  20.973  1.00  0.00     0.000 C 
BRANCH  17  18
ATOM     18  C   UNL     1      -7.264  14.643  21.443  1.00  0.00     0.000 C 
BRANCH  18  19
ATOM     19  C   UNL     1      -8.285  15.403  22.311  1.00  0.00     0.000 C 
BRANCH  19  20
ATOM     20  C   UNL     1      -9.024  16.505  21.536  1.00  0.00     0.006 C 
BRANCH  20  21
ATOM     21  C   UNL     1      -8.602  17.895  22.022  1.00  0.00     0.053 C 
BRANCH  21  22
ATOM     22  C   UNL     1      -8.447  18.835  20.868  1.00  0.00     0.041 C 
ATOM     23  O   UNL     1      -8.108  18.398  19.737  1.00  0.00    -0.550 OA
ATOM     24  O   UNL     1      -8.712  20.190  21.031  1.00  0.00    -0.550 OA
ENDBRANCH  21  22
ENDBRANCH  20  21
ENDBRANCH  19  20
ENDBRANCH  18  19
ENDBRANCH  17  18
ENDBRANCH  16  17
ENDBRANCH  15  16
ENDBRANCH  14  15
ENDBRANCH  13  14
ENDBRANCH   1  13
TORSDOF 20
ENDMDL
MODEL 7
REMARK VINA RESULT:    -3.668      5.344     13.282
REMARK INTER + INTRA:          -9.320
REMARK INTER:                  -7.984
REMARK INTRA:                  -1.336
REMARK UNBOUND:                -1.364
REMARK SMILES CCCCCCCCCCCCCCCCCCCCCC(=O)[O-]
REMARK SMILES IDX 12 1 11 2 10 3 9 4 8 5 7 6 6 7 5 8 4 9 3 10 2 11 1 12 13 13
REMARK SMILES IDX 14 14 15 15 16 16 17 17 18 18 19 19 20 20 21 21 22 22 23 23
REMARK SMILES IDX 24 24
REMARK H PARENT
REMARK Flexibility Score: inf
ROOT
ATOM      1  C   UNL     1       2.956  16.741  21.819  1.00  0.00     0.000 C 
ENDROOT
BRANCH   1   2
ATOM      2  C   UNL     1       4.444  16.466  21.558  1.00  0.00     0.000 C 
BRANCH   2   3
ATOM      3  C   UNL     1       5.033  15.429  22.529  1.00  0.00     0.000 C 
BRANCH   3   4
ATOM      4  C   UNL     1       6.559  15.286  22.385  1.00  0.00    -0.000 C 
BRANCH   4   5
ATOM      5  C   UNL     1       6.994  13.835  22.119  1.00  0.00    -0.000 C 
BRANCH   5   6
ATOM      6  C   UNL     1       8.208  13.745  21.183  1.00  0.00    -0.000 C 
BRANCH   6   7
ATOM      7  C   UNL     1       9.463  13.311  21.953  1.00  0.00    -0.000 C 
BRANCH   7   8
ATOM      8  C   UNL     1      10.768  13.820  21.310  1.00  0.00    -0.000 C 
BRANCH   8   9
ATOM      9  C   UNL     1      10.588  14.917  20.243  1.00  0.00    -0.000 C 
BRANCH   9  10
ATOM     10  C   UNL     1      11.067  16.300  20.713  1.00  0.00    -0.000 C 
BRANCH  10  11
ATOM     11  C   UNL     1      10.180  17.440  20.184  1.00  0.00    -0.003 C 
ATOM     12  C   UNL     1       8.837  17.530  20.911  1.00  0.00     0.004 C 
ENDBRANCH  10  11
ENDBRANCH   9  10
ENDBRANCH   8   9
ENDBRANCH   7   8
ENDBRANCH   6   7
ENDBRANCH   5   6
ENDBRANCH   4   5
ENDBRANCH   3   4
ENDBRANCH   2   3
ENDBRANCH   1   2
BRANCH   1  13
ATOM     13  C   UNL     1       2.413  15.822  22.919  1.00  0.00     0.000 C 
BRANCH  13  14
ATOM     14  C   UNL     1       0.909  16.038  23.125  1.00  0.00     0.000 C 
BRANCH  14  15
ATOM     15  C   UNL     1       0.196  16.267  21.783  1.00  0.00     0.000 C 
BRANCH  15  16
ATOM     16  C   UNL     1      -1.294  15.888  21.832  1.00  0.00     0.000 C 
BRANCH  16  17
ATOM     17  C   UNL     1      -2.217  17.103  21.633  1.00  0.00     0.000 C 
BRANCH  17  18
ATOM     18  C   UNL     1      -3.379  17.142  22.641  1.00  0.00     0.000 C 
BRANCH  18  19
ATOM     19  C   UNL     1      -4.199  15.842  22.738  1.00  0.00     0.000 C 
BRANCH  19  20
ATOM     20  C   UNL     1      -4.908  15.484  21.423  1.00  0.00     0.006 C 
BRANCH  20  21
ATOM     21  C   UNL     1      -6.311  14.931  21.689  1.00  0.00     0.053 C 
BRANCH  21  22
ATOM     22  C   UNL     1      -7.277  16.043  21.955  1.00  0.00     0.041 C 
ATOM     23  O   UNL     1      -8.341  15.818  22.591  1.00  0.00    -0.550 OA
ATOM     24  O   UNL     1      -6.987  17.335  21.535  1.00  0.00    -0.550 OA
ENDBRANCH  21  22
ENDBRANCH  20  21
ENDBRANCH  19  20
ENDBRANCH  18  19
ENDBRANCH  17  18
ENDBRANCH  16  17
ENDBRANCH  15  16
ENDBRANCH  14  15
ENDBRANCH  13  14
ENDBRANCH   1  13
TORSDOF 20
ENDMDL
MODEL 8
REMARK VINA RESULT:    -3.504      1.592      2.674
REMARK INTER + INTRA:          -8.965
REMARK INTER:                  -8.277
REMARK INTRA:                  -0.687
REMARK UNBOUND:                -1.364
REMARK SMILES CCCCCCCCCCCCCCCCCCCCCC(=O)[O-]
REMARK SMILES IDX 12 1 11 2 10 3 9 4 8 5 7 6 6 7 5 8 4 9 3 10 2 11 1 12 13 13
REMARK SMILES IDX 14 14 15 15 16 16 17 17 18 18 19 19 20 20 21 21 22 22 23 23
REMARK SMILES IDX 24 24
REMARK H PARENT
REMARK Flexibility Score: inf
ROOT
ATOM      1  C   UNL     1       2.848  16.357  22.017  1.00  0.00     0.000 C 
ENDROOT
BRANCH   1   2
ATOM      2  C   UNL     1       1.592  16.000  22.825  1.00  0.00     0.000 C 
BRANCH   2   3
ATOM      3  C   UNL     1       0.315  16.009  21.969  1.00  0.00     0.000 C 
BRANCH   3   4
ATOM      4  C   UNL     1      -0.884  16.635  22.703  1.00  0.00    -0.000 C 
BRANCH   4   5
ATOM      5  C   UNL     1      -2.046  16.974  21.754  1.00  0.00    -0.000 C 
BRANCH   5   6
ATOM      6  C   UNL     1      -3.051  15.821  21.617  1.00  0.00    -0.000 C 
BRANCH   6   7
ATOM      7  C   UNL     1      -4.467  16.281  21.991  1.00  0.00    -0.000 C 
BRANCH   7   8
ATOM      8  C   UNL     1      -5.527  15.179  21.800  1.00  0.00    -0.000 C 
BRANCH   8   9
ATOM      9  C   UNL     1      -6.711  15.560  20.891  1.00  0.00    -0.000 C 
BRANCH   9  10
ATOM     10  C   UNL     1      -7.388  16.878  21.305  1.00  0.00    -0.000 C 
BRANCH  10  11
ATOM     11  C   UNL     1      -8.574  17.239  20.394  1.00  0.00    -0.003 C 
ATOM     12  C   UNL     1      -8.363  18.553  19.640  1.00  0.00     0.004 C 
ENDBRANCH  10  11
ENDBRANCH   9  10
ENDBRANCH   8   9
ENDBRANCH   7   8
ENDBRANCH   6   7
ENDBRANCH   5   6
ENDBRANCH   4   5
ENDBRANCH   3   4
ENDBRANCH   2   3
ENDBRANCH   1   2
BRANCH   1  13
ATOM     13  C   UNL     1       4.120  15.984  22.787  1.00  0.00     0.000 C 
BRANCH  13  14
ATOM     14  C   UNL     1       5.334  15.925  21.852  1.00  0.00     0.000 C 
BRANCH  14  15
ATOM     15  C   UNL     1       6.560  15.349  22.575  1.00  0.00     0.000 C 
BRANCH  15  16
ATOM     16  C   UNL     1       6.897  13.919  22.121  1.00  0.00     0.000 C 
BRANCH  16  17
ATOM     17  C   UNL     1       8.401  13.724  21.860  1.00  0.00     0.000 C 
BRANCH  17  18
ATOM     18  C   UNL     1       9.068  14.969  21.249  1.00  0.00     0.000 C 
BRANCH  18  19
ATOM     19  C   UNL     1      10.463  14.729  20.644  1.00  0.00     0.000 C 
BRANCH  19  20
ATOM     20  C   UNL     1      10.436  13.774  19.441  1.00  0.00     0.006 C 
BRANCH  20  21
ATOM     21  C   UNL     1      11.105  12.440  19.784  1.00  0.00     0.053 C 
BRANCH  21  22
ATOM     22  C   UNL     1      10.869  11.435  18.700  1.00  0.00     0.041 C 
ATOM     23  O   UNL     1      11.089  10.213  18.911  1.00  0.00    -0.550 OA
ATOM     24  O   UNL     1      10.372  11.841  17.467  1.00  0.00    -0.550 OA
ENDBRANCH  21  22
ENDBRANCH  20  21
ENDBRANCH  19  20
ENDBRANCH  18  19
ENDBRANCH  17  18
ENDBRANCH  16  17
ENDBRANCH  15  16
ENDBRANCH  14  15
ENDBRANCH  13  14
ENDBRANCH   1  13
TORSDOF 20
ENDMDL
MODEL 9
REMARK VINA RESULT:    -3.497      1.340      3.516
REMARK INTER + INTRA:          -8.949
REMARK INTER:                  -7.765
REMARK INTRA:                  -1.184
REMARK UNBOUND:                -1.364
REMARK SMILES CCCCCCCCCCCCCCCCCCCCCC(=O)[O-]
REMARK SMILES IDX 12 1 11 2 10 3 9 4 8 5 7 6 6 7 5 8 4 9 3 10 2 11 1 12 13 13
REMARK SMILES IDX 14 14 15 15 16 16 17 17 18 18 19 19 20 20 21 21 22 22 23 23
REMARK SMILES IDX 24 24
REMARK H PARENT
REMARK Flexibility Score: inf
ROOT
ATOM      1  C   UNL     1      -3.411  17.454  22.203  1.00  0.00     0.000 C 
ENDROOT
BRANCH   1   2
ATOM      2  C   UNL     1      -4.219  16.198  22.560  1.00  0.00     0.000 C 
BRANCH   2   3
ATOM      3  C   UNL     1      -4.884  15.553  21.333  1.00  0.00     0.000 C 
BRANCH   3   4
ATOM      4  C   UNL     1      -5.989  14.553  21.718  1.00  0.00    -0.000 C 
BRANCH   4   5
ATOM      5  C   UNL     1      -7.398  15.076  21.390  1.00  0.00    -0.000 C 
BRANCH   5   6
ATOM      6  C   UNL     1      -8.273  15.242  22.641  1.00  0.00    -0.000 C 
BRANCH   6   7
ATOM      7  C   UNL     1      -9.123  16.516  22.552  1.00  0.00    -0.000 C 
BRANCH   7   8
ATOM      8  C   UNL     1      -8.368  17.776  23.015  1.00  0.00    -0.000 C 
BRANCH   8   9
ATOM      9  C   UNL     1      -8.276  18.906  21.971  1.00  0.00    -0.000 C 
BRANCH   9  10
ATOM     10  C   UNL     1      -7.888  18.402  20.571  1.00  0.00    -0.000 C 
BRANCH  10  11
ATOM     11  C   UNL     1      -8.852  18.899  19.481  1.00  0.00    -0.003 C 
ATOM     12  C   UNL     1      -8.324  20.128  18.738  1.00  0.00     0.004 C 
ENDBRANCH  10  11
ENDBRANCH   9  10
ENDBRANCH   8   9
ENDBRANCH   7   8
ENDBRANCH   6   7
ENDBRANCH   5   6
ENDBRANCH   4   5
ENDBRANCH   3   4
ENDBRANCH   2   3
ENDBRANCH   1   2
BRANCH   1  13
ATOM     13  C   UNL     1      -2.026  17.420  22.858  1.00  0.00     0.000 C 
BRANCH  13  14
ATOM     14  C   UNL     1      -1.114  16.401  22.165  1.00  0.00     0.000 C 
BRANCH  14  15
ATOM     15  C   UNL     1       0.225  16.267  22.906  1.00  0.00     0.000 C 
BRANCH  15  16
ATOM     16  C   UNL     1       1.424  16.164  21.948  1.00  0.00     0.000 C 
BRANCH  16  17
ATOM     17  C   UNL     1       2.773  16.307  22.676  1.00  0.00     0.000 C 
BRANCH  17  18
ATOM     18  C   UNL     1       3.708  15.107  22.443  1.00  0.00     0.000 C 
BRANCH  18  19
ATOM     19  C   UNL     1       5.174  15.335  22.855  1.00  0.00     0.000 C 
BRANCH  19  20
ATOM     20  C   UNL     1       6.017  15.969  21.737  1.00  0.00     0.006 C 
BRANCH  20  21
ATOM     21  C   UNL     1       7.237  16.692  22.313  1.00  0.00     0.053 C 
BRANCH  21  22
ATOM     22  C   UNL     1       8.410  16.569  21.391  1.00  0.00     0.041 C 
ATOM     23  O   UNL     1       8.859  17.586  20.799  1.00  0.00    -0.550 OA
ATOM     24  O   UNL     1       9.030  15.338  21.211  1.00  0.00    -0.550 OA
ENDBRANCH  21  22
ENDBRANCH  20  21
ENDBRANCH  19  20
ENDBRANCH  18  19
ENDBRANCH  17  18
ENDBRANCH  16  17
ENDBRANCH  15  16
ENDBRANCH  14  15
ENDBRANCH  13  14
ENDBRANCH   1  13
TORSDOF 20
ENDMDL
