MODEL 1
REMARK VINA RESULT:   -10.422      0.000      0.000
REMARK INTER + INTRA:         -14.822
REMARK INTER:                 -13.773
REMARK INTRA:                  -1.048
REMARK UNBOUND:                -1.048
REMARK SMILES CC[C@H](C=C[C@H](C)[C@@H]1CC[C@H]2[C@H]3CC=C4C[C@H](O)CC[C@@]4(C)[C@H]3CC[C@]21C)C(C)C
REMARK SMILES IDX 6 1 7 2 5 3 4 4 3 5 2 6 1 7 28 8 29 9 30 10 8 11 9 12 26 13
REMARK SMILES IDX 10 14 11 15 25 16 27 17 12 18 24 19 23 20 13 21 21 22 14 23
REMARK SMILES IDX 15 24 20 25 22 26 16 27 19 28 17 29 18 30
REMARK H PARENT 18 31
REMARK Flexibility Score: inf
ROOT
ATOM      1  C   UNL     1      46.941  46.750  56.159  1.00  0.00     0.012 C 
ATOM      2  C   UNL     1      45.596  46.025  55.954  1.00  0.00     0.012 C 
ENDROOT
BRANCH   1   3
ATOM      3  C   UNL     1      47.340  47.370  54.831  1.00  0.00    -0.028 C 
ATOM      4  C   UNL     1      48.266  46.786  54.049  1.00  0.00    -0.027 C 
BRANCH   4   5
ATOM      5  C   UNL     1      48.697  47.355  52.709  1.00  0.00     0.014 C 
BRANCH   5   6
ATOM      6  C   UNL     1      48.691  46.259  51.612  1.00  0.00     0.004 C 
ATOM      7  C   UNL     1      48.722  44.842  52.193  1.00  0.00     0.004 C 
ENDBRANCH   5   6
BRANCH   5   8
ATOM      8  C   UNL     1      47.835  48.600  52.326  1.00  0.00    -0.011 C 
ATOM      9  C   UNL     1      47.191  48.454  50.934  1.00  0.00     0.008 C 
ATOM     10  C   UNL     1      48.680  49.892  52.355  1.00  0.00     0.008 C 
ENDBRANCH   5   8
ENDBRANCH   4   5
ENDBRANCH   1   3
BRANCH   1  11
ATOM     11  C   UNL     1      46.842  47.823  57.301  1.00  0.00     0.002 C 
ATOM     12  C   UNL     1      47.960  48.870  57.259  1.00  0.00     0.005 C 
ATOM     13  C   UNL     1      46.834  47.312  58.797  1.00  0.00    -0.026 C 
ATOM     14  C   UNL     1      47.937  49.521  58.627  1.00  0.00     0.005 C 
ATOM     15  C   UNL     1      47.686  48.364  59.588  1.00  0.00    -0.001 C 
ATOM     16  C   UNL     1      45.376  47.242  59.333  1.00  0.00     0.007 C 
ATOM     17  C   UNL     1      47.505  45.926  58.984  1.00  0.00     0.012 C 
ATOM     18  C   UNL     1      47.121  48.764  60.992  1.00  0.00     0.000 C 
ATOM     19  C   UNL     1      44.862  48.617  59.768  1.00  0.00     0.005 C 
ATOM     20  C   UNL     1      45.581  49.098  61.050  1.00  0.00     0.003 C 
ATOM     21  C   UNL     1      48.006  49.816  61.682  1.00  0.00     0.031 C 
ATOM     22  C   UNL     1      45.208  50.578  61.539  1.00  0.00    -0.008 C 
ATOM     23  C   UNL     1      47.614  51.207  61.296  1.00  0.00    -0.027 C 
ATOM     24  C   UNL     1      46.324  51.582  61.212  1.00  0.00    -0.065 C 
ATOM     25  C   UNL     1      43.850  51.070  60.924  1.00  0.00     0.014 C 
ATOM     26  C   UNL     1      45.031  50.553  63.085  1.00  0.00     0.016 C 
ATOM     27  C   UNL     1      46.040  53.076  61.158  1.00  0.00     0.063 C 
ATOM     28  C   UNL     1      43.562  52.551  61.185  1.00  0.00     0.033 C 
ATOM     29  C   UNL     1      44.669  53.410  60.561  1.00  0.00     0.118 C 
BRANCH  29  30
ATOM     30  O   UNL     1      44.386  54.781  60.723  1.00  0.00    -0.393 OA
ATOM     31  H   UNL     1      43.909  55.089  59.904  1.00  0.00     0.210 HD
ENDBRANCH  29  30
ENDBRANCH   1  11
TORSDOF 6
ENDMDL
MODEL 2
REMARK VINA RESULT:   -10.058      7.012      9.937
REMARK INTER + INTRA:         -14.341
REMARK INTER:                 -14.093
REMARK INTRA:                  -0.247
REMARK UNBOUND:                -1.048
REMARK SMILES CC[C@H](C=C[C@H](C)[C@@H]1CC[C@H]2[C@H]3CC=C4C[C@H](O)CC[C@@]4(C)[C@H]3CC[C@]21C)C(C)C
REMARK SMILES IDX 6 1 7 2 5 3 4 4 3 5 2 6 1 7 28 8 29 9 30 10 8 11 9 12 26 13
REMARK SMILES IDX 10 14 11 15 25 16 27 17 12 18 24 19 23 20 13 21 21 22 14 23
REMARK SMILES IDX 15 24 20 25 22 26 16 27 19 28 17 29 18 30
REMARK H PARENT 18 31
REMARK Flexibility Score: inf
ROOT
ATOM      1  C   UNL     1      51.468  53.748  50.859  1.00  0.00     0.012 C 
ATOM      2  C   UNL     1      52.857  53.963  50.225  1.00  0.00     0.012 C 
ENDROOT
BRANCH   1   3
ATOM      3  C   UNL     1      51.394  52.307  51.334  1.00  0.00    -0.028 C 
ATOM      4  C   UNL     1      51.211  51.301  50.460  1.00  0.00    -0.027 C 
BRANCH   4   5
ATOM      5  C   UNL     1      51.138  49.844  50.878  1.00  0.00     0.014 C 
BRANCH   5   6
ATOM      6  C   UNL     1      49.700  49.289  50.708  1.00  0.00     0.004 C 
ATOM      7  C   UNL     1      48.800  49.603  51.906  1.00  0.00     0.004 C 
ENDBRANCH   5   6
BRANCH   5   8
ATOM      8  C   UNL     1      52.209  48.991  50.125  1.00  0.00    -0.011 C 
ATOM      9  C   UNL     1      52.905  49.790  49.005  1.00  0.00     0.008 C 
ATOM     10  C   UNL     1      51.580  47.719  49.518  1.00  0.00     0.008 C 
ENDBRANCH   5   8
ENDBRANCH   4   5
ENDBRANCH   1   3
BRANCH   1  11
ATOM     11  C   UNL     1      51.210  54.766  52.026  1.00  0.00     0.002 C 
ATOM     12  C   UNL     1      49.742  54.846  52.457  1.00  0.00     0.005 C 
ATOM     13  C   UNL     1      51.639  56.271  51.803  1.00  0.00    -0.026 C 
ATOM     14  C   UNL     1      49.638  56.131  53.252  1.00  0.00     0.005 C 
ATOM     15  C   UNL     1      50.509  57.119  52.482  1.00  0.00    -0.001 C 
ATOM     16  C   UNL     1      53.022  56.537  52.461  1.00  0.00     0.007 C 
ATOM     17  C   UNL     1      51.705  56.684  50.309  1.00  0.00     0.012 C 
ATOM     18  C   UNL     1      51.001  58.361  53.297  1.00  0.00     0.000 C 
ATOM     19  C   UNL     1      52.903  56.764  53.970  1.00  0.00     0.005 C 
ATOM     20  C   UNL     1      52.212  58.113  54.276  1.00  0.00     0.003 C 
ATOM     21  C   UNL     1      49.829  59.116  53.947  1.00  0.00     0.031 C 
ATOM     22  C   UNL     1      51.927  58.409  55.825  1.00  0.00    -0.008 C 
ATOM     23  C   UNL     1      49.490  58.558  55.292  1.00  0.00    -0.027 C 
ATOM     24  C   UNL     1      50.443  58.212  56.177  1.00  0.00    -0.065 C 
ATOM     25  C   UNL     1      52.819  57.521  56.762  1.00  0.00     0.014 C 
ATOM     26  C   UNL     1      52.289  59.894  56.115  1.00  0.00     0.016 C 
ATOM     27  C   UNL     1      50.004  57.991  57.617  1.00  0.00     0.063 C 
ATOM     28  C   UNL     1      52.430  57.609  58.240  1.00  0.00     0.033 C 
ATOM     29  C   UNL     1      50.984  57.130  58.423  1.00  0.00     0.118 C 
BRANCH  29  30
ATOM     30  O   UNL     1      50.628  57.131  59.786  1.00  0.00    -0.393 OA
ATOM     31  H   UNL     1      50.321  58.051  60.017  1.00  0.00     0.210 HD
ENDBRANCH  29  30
ENDBRANCH   1  11
TORSDOF 6
ENDMDL
MODEL 3
REMARK VINA RESULT:   -10.036      2.385      4.660
REMARK INTER + INTRA:         -14.312
REMARK INTER:                 -13.586
REMARK INTRA:                  -0.725
REMARK UNBOUND:                -1.048
REMARK SMILES CC[C@H](C=C[C@H](C)[C@@H]1CC[C@H]2[C@H]3CC=C4C[C@H](O)CC[C@@]4(C)[C@H]3CC[C@]21C)C(C)C
REMARK SMILES IDX 6 1 7 2 5 3 4 4 3 5 2 6 1 7 28 8 29 9 30 10 8 11 9 12 26 13
REMARK SMILES IDX 10 14 11 15 25 16 27 17 12 18 24 19 23 20 13 21 21 22 14 23
REMARK SMILES IDX 15 24 20 25 22 26 16 27 19 28 17 29 18 30
REMARK H PARENT 18 31
REMARK Flexibility Score: inf
ROOT
ATOM      1  C   UNL     1      47.583  46.879  59.663  1.00  0.00     0.012 C 
ATOM      2  C   UNL     1      47.247  45.569  60.405  1.00  0.00     0.012 C 
ENDROOT
BRANCH   1   3
ATOM      3  C   UNL     1      46.855  46.855  58.329  1.00  0.00    -0.028 C 
ATOM      4  C   UNL     1      46.771  45.721  57.611  1.00  0.00    -0.027 C 
BRANCH   4   5
ATOM      5  C   UNL     1      46.050  45.637  56.277  1.00  0.00     0.014 C 
BRANCH   5   6
ATOM      6  C   UNL     1      46.969  46.106  55.119  1.00  0.00     0.004 C 
ATOM      7  C   UNL     1      47.214  47.617  55.135  1.00  0.00     0.004 C 
ENDBRANCH   5   6
BRANCH   5   8
ATOM      8  C   UNL     1      45.465  44.207  56.046  1.00  0.00    -0.011 C 
ATOM      9  C   UNL     1      44.032  44.250  55.481  1.00  0.00     0.008 C 
ATOM     10  C   UNL     1      45.465  43.388  57.354  1.00  0.00     0.008 C 
ENDBRANCH   5   8
ENDBRANCH   4   5
ENDBRANCH   1   3
BRANCH   1  11
ATOM     11  C   UNL     1      47.195  48.135  60.521  1.00  0.00     0.002 C 
ATOM     12  C   UNL     1      45.746  48.591  60.323  1.00  0.00     0.005 C 
ATOM     13  C   UNL     1      48.053  49.451  60.335  1.00  0.00    -0.026 C 
ATOM     14  C   UNL     1      45.702  50.001  60.875  1.00  0.00     0.005 C 
ATOM     15  C   UNL     1      47.017  50.624  60.418  1.00  0.00    -0.001 C 
ATOM     16  C   UNL     1      49.123  49.556  61.457  1.00  0.00     0.007 C 
ATOM     17  C   UNL     1      48.759  49.542  58.957  1.00  0.00     0.012 C 
ATOM     18  C   UNL     1      47.487  51.877  61.231  1.00  0.00     0.000 C 
ATOM     19  C   UNL     1      48.530  50.092  62.763  1.00  0.00     0.005 C 
ATOM     20  C   UNL     1      48.154  51.586  62.630  1.00  0.00     0.003 C 
ATOM     21  C   UNL     1      46.400  52.964  61.280  1.00  0.00     0.031 C 
ATOM     22  C   UNL     1      47.416  52.229  63.899  1.00  0.00    -0.008 C 
ATOM     23  C   UNL     1      45.466  52.758  62.429  1.00  0.00    -0.027 C 
ATOM     24  C   UNL     1      45.910  52.408  63.650  1.00  0.00    -0.065 C 
ATOM     25  C   UNL     1      47.645  51.380  65.199  1.00  0.00     0.014 C 
ATOM     26  C   UNL     1      48.024  53.639  64.156  1.00  0.00     0.016 C 
ATOM     27  C   UNL     1      44.940  52.564  64.811  1.00  0.00     0.063 C 
ATOM     28  C   UNL     1      46.787  51.832  66.383  1.00  0.00     0.033 C 
ATOM     29  C   UNL     1      45.301  51.698  66.023  1.00  0.00     0.118 C 
BRANCH  29  30
ATOM     30  O   UNL     1      44.490  52.037  67.125  1.00  0.00    -0.393 OA
ATOM     31  H   UNL     1      43.648  52.435  66.768  1.00  0.00     0.210 HD
ENDBRANCH  29  30
ENDBRANCH   1  11
TORSDOF 6
ENDMDL
MODEL 4
REMARK VINA RESULT:    -9.964      6.646      9.257
REMARK INTER + INTRA:         -14.217
REMARK INTER:                 -13.042
REMARK INTRA:                  -1.175
REMARK UNBOUND:                -1.048
REMARK SMILES CC[C@H](C=C[C@H](C)[C@@H]1CC[C@H]2[C@H]3CC=C4C[C@H](O)CC[C@@]4(C)[C@H]3CC[C@]21C)C(C)C
REMARK SMILES IDX 6 1 7 2 5 3 4 4 3 5 2 6 1 7 28 8 29 9 30 10 8 11 9 12 26 13
REMARK SMILES IDX 10 14 11 15 25 16 27 17 12 18 24 19 23 20 13 21 21 22 14 23
REMARK SMILES IDX 15 24 20 25 22 26 16 27 19 28 17 29 18 30
REMARK H PARENT 18 31
REMARK Flexibility Score: inf
ROOT
ATOM      1  C   UNL     1      51.800  51.975  50.903  1.00  0.00     0.012 C 
ATOM      2  C   UNL     1      52.950  51.051  51.352  1.00  0.00     0.012 C 
ENDROOT
BRANCH   1   3
ATOM      3  C   UNL     1      50.579  51.106  50.651  1.00  0.00    -0.028 C 
ATOM      4  C   UNL     1      50.700  49.775  50.498  1.00  0.00    -0.027 C 
BRANCH   4   5
ATOM      5  C   UNL     1      49.516  48.858  50.253  1.00  0.00     0.014 C 
BRANCH   5   6
ATOM      6  C   UNL     1      49.962  47.374  50.211  1.00  0.00     0.004 C 
ATOM      7  C   UNL     1      51.286  47.177  49.469  1.00  0.00     0.004 C 
ENDBRANCH   5   6
BRANCH   5   8
ATOM      8  C   UNL     1      48.381  49.120  51.295  1.00  0.00    -0.011 C 
ATOM      9  C   UNL     1      48.564  48.283  52.576  1.00  0.00     0.008 C 
ATOM     10  C   UNL     1      46.992  48.817  50.692  1.00  0.00     0.008 C 
ENDBRANCH   5   8
ENDBRANCH   4   5
ENDBRANCH   1   3
BRANCH   1  11
ATOM     11  C   UNL     1      51.516  53.092  51.969  1.00  0.00     0.002 C 
ATOM     12  C   UNL     1      50.237  52.857  52.779  1.00  0.00     0.005 C 
ATOM     13  C   UNL     1      51.396  54.585  51.462  1.00  0.00    -0.026 C 
ATOM     14  C   UNL     1      49.927  54.196  53.415  1.00  0.00     0.005 C 
ATOM     15  C   UNL     1      50.248  55.213  52.324  1.00  0.00    -0.001 C 
ATOM     16  C   UNL     1      52.742  55.333  51.675  1.00  0.00     0.007 C 
ATOM     17  C   UNL     1      50.985  54.703  49.972  1.00  0.00     0.012 C 
ATOM     18  C   UNL     1      50.505  56.675  52.821  1.00  0.00     0.000 C 
ATOM     19  C   UNL     1      52.909  55.806  53.121  1.00  0.00     0.005 C 
ATOM     20  C   UNL     1      51.925  56.954  53.447  1.00  0.00     0.003 C 
ATOM     21  C   UNL     1      49.340  57.199  53.677  1.00  0.00     0.031 C 
ATOM     22  C   UNL     1      51.927  57.457  54.969  1.00  0.00    -0.008 C 
ATOM     23  C   UNL     1      49.511  56.841  55.119  1.00  0.00    -0.027 C 
ATOM     24  C   UNL     1      50.701  56.942  55.739  1.00  0.00    -0.065 C 
ATOM     25  C   UNL     1      53.242  57.038  55.719  1.00  0.00     0.014 C 
ATOM     26  C   UNL     1      51.870  59.012  54.972  1.00  0.00     0.016 C 
ATOM     27  C   UNL     1      50.696  56.894  57.259  1.00  0.00     0.063 C 
ATOM     28  C   UNL     1      53.196  57.303  57.226  1.00  0.00     0.033 C 
ATOM     29  C   UNL     1      52.051  56.499  57.857  1.00  0.00     0.118 C 
BRANCH  29  30
ATOM     30  O   UNL     1      52.036  56.668  59.256  1.00  0.00    -0.393 OA
ATOM     31  H   UNL     1      52.689  56.022  59.644  1.00  0.00     0.210 HD
ENDBRANCH  29  30
ENDBRANCH   1  11
TORSDOF 6
ENDMDL
MODEL 5
REMARK VINA RESULT:    -9.647      3.678      6.390
REMARK INTER + INTRA:         -13.797
REMARK INTER:                 -12.963
REMARK INTRA:                  -0.834
REMARK UNBOUND:                -1.048
REMARK SMILES CC[C@H](C=C[C@H](C)[C@@H]1CC[C@H]2[C@H]3CC=C4C[C@H](O)CC[C@@]4(C)[C@H]3CC[C@]21C)C(C)C
REMARK SMILES IDX 6 1 7 2 5 3 4 4 3 5 2 6 1 7 28 8 29 9 30 10 8 11 9 12 26 13
REMARK SMILES IDX 10 14 11 15 25 16 27 17 12 18 24 19 23 20 13 21 21 22 14 23
REMARK SMILES IDX 15 24 20 25 22 26 16 27 19 28 17 29 18 30
REMARK H PARENT 18 31
REMARK Flexibility Score: inf
ROOT
ATOM      1  C   UNL     1      44.968  48.136  61.225  1.00  0.00     0.012 C 
ATOM      2  C   UNL     1      44.108  47.010  60.618  1.00  0.00     0.012 C 
ENDROOT
BRANCH   1   3
ATOM      3  C   UNL     1      46.357  48.037  60.617  1.00  0.00    -0.028 C 
ATOM      4  C   UNL     1      47.353  48.836  61.041  1.00  0.00    -0.027 C 
BRANCH   4   5
ATOM      5  C   UNL     1      48.761  48.774  60.476  1.00  0.00     0.014 C 
BRANCH   5   6
ATOM      6  C   UNL     1      48.913  49.723  59.259  1.00  0.00     0.004 C 
ATOM      7  C   UNL     1      48.205  49.195  58.008  1.00  0.00     0.004 C 
ENDBRANCH   5   6
BRANCH   5   8
ATOM      8  C   UNL     1      49.822  49.044  61.590  1.00  0.00    -0.011 C 
ATOM      9  C   UNL     1      49.213  49.756  62.814  1.00  0.00     0.008 C 
ATOM     10  C   UNL     1      50.994  49.891  61.048  1.00  0.00     0.008 C 
ENDBRANCH   5   8
ENDBRANCH   4   5
ENDBRANCH   1   3
BRANCH   1  11
ATOM     11  C   UNL     1      44.319  49.544  60.980  1.00  0.00     0.002 C 
ATOM     12  C   UNL     1      45.027  50.367  59.899  1.00  0.00     0.005 C 
ATOM     13  C   UNL     1      44.201  50.528  62.213  1.00  0.00    -0.026 C 
ATOM     14  C   UNL     1      44.543  51.787  60.110  1.00  0.00     0.005 C 
ATOM     15  C   UNL     1      44.506  51.949  61.626  1.00  0.00    -0.001 C 
ATOM     16  C   UNL     1      42.771  50.458  62.819  1.00  0.00     0.007 C 
ATOM     17  C   UNL     1      45.236  50.248  63.333  1.00  0.00     0.012 C 
ATOM     18  C   UNL     1      43.593  53.104  62.158  1.00  0.00     0.000 C 
ATOM     19  C   UNL     1      41.770  51.294  62.018  1.00  0.00     0.005 C 
ATOM     20  C   UNL     1      42.045  52.806  62.190  1.00  0.00     0.003 C 
ATOM     21  C   UNL     1      43.948  54.454  61.511  1.00  0.00     0.031 C 
ATOM     22  C   UNL     1      41.131  53.781  61.306  1.00  0.00    -0.008 C 
ATOM     23  C   UNL     1      43.206  54.663  60.230  1.00  0.00    -0.027 C 
ATOM     24  C   UNL     1      41.904  54.350  60.105  1.00  0.00    -0.065 C 
ATOM     25  C   UNL     1      39.826  53.065  60.809  1.00  0.00     0.014 C 
ATOM     26  C   UNL     1      40.689  54.979  62.195  1.00  0.00     0.016 C 
ATOM     27  C   UNL     1      41.168  54.916  58.899  1.00  0.00     0.063 C 
ATOM     28  C   UNL     1      39.032  53.882  59.786  1.00  0.00     0.033 C 
ATOM     29  C   UNL     1      39.897  54.135  58.545  1.00  0.00     0.118 C 
BRANCH  29  30
ATOM     30  O   UNL     1      39.162  54.821  57.557  1.00  0.00    -0.393 OA
ATOM     31  H   UNL     1      39.441  54.461  56.670  1.00  0.00     0.210 HD
ENDBRANCH  29  30
ENDBRANCH   1  11
TORSDOF 6
ENDMDL
MODEL 6
REMARK VINA RESULT:    -9.421      3.535      8.349
REMARK INTER + INTRA:         -13.498
REMARK INTER:                 -12.307
REMARK INTRA:                  -1.192
REMARK UNBOUND:                -1.048
REMARK SMILES CC[C@H](C=C[C@H](C)[C@@H]1CC[C@H]2[C@H]3CC=C4C[C@H](O)CC[C@@]4(C)[C@H]3CC[C@]21C)C(C)C
REMARK SMILES IDX 6 1 7 2 5 3 4 4 3 5 2 6 1 7 28 8 29 9 30 10 8 11 9 12 26 13
REMARK SMILES IDX 10 14 11 15 25 16 27 17 12 18 24 19 23 20 13 21 21 22 14 23
REMARK SMILES IDX 15 24 20 25 22 26 16 27 19 28 17 29 18 30
REMARK H PARENT 18 31
REMARK Flexibility Score: inf
ROOT
ATOM      1  C   UNL     1      42.713  54.064  60.691  1.00  0.00     0.012 C 
ATOM      2  C   UNL     1      43.414  55.254  60.005  1.00  0.00     0.012 C 
ENDROOT
BRANCH   1   3
ATOM      3  C   UNL     1      41.266  54.049  60.228  1.00  0.00    -0.028 C 
ATOM      4  C   UNL     1      40.929  54.501  59.006  1.00  0.00    -0.027 C 
BRANCH   4   5
ATOM      5  C   UNL     1      39.502  54.501  58.488  1.00  0.00     0.014 C 
BRANCH   5   6
ATOM      6  C   UNL     1      38.958  55.948  58.362  1.00  0.00     0.004 C 
ATOM      7  C   UNL     1      37.927  56.095  57.239  1.00  0.00     0.004 C 
ENDBRANCH   5   6
BRANCH   5   8
ATOM      8  C   UNL     1      39.390  53.695  57.155  1.00  0.00    -0.011 C 
ATOM      9  C   UNL     1      38.536  52.422  57.317  1.00  0.00     0.008 C 
ATOM     10  C   UNL     1      40.785  53.299  56.626  1.00  0.00     0.008 C 
ENDBRANCH   5   8
ENDBRANCH   4   5
ENDBRANCH   1   3
BRANCH   1  11
ATOM     11  C   UNL     1      43.445  52.711  60.375  1.00  0.00     0.002 C 
ATOM     12  C   UNL     1      42.504  51.602  59.893  1.00  0.00     0.005 C 
ATOM     13  C   UNL     1      44.289  52.040  61.531  1.00  0.00    -0.026 C 
ATOM     14  C   UNL     1      43.297  50.322  60.052  1.00  0.00     0.005 C 
ATOM     15  C   UNL     1      44.038  50.501  61.374  1.00  0.00    -0.001 C 
ATOM     16  C   UNL     1      45.795  52.389  61.367  1.00  0.00     0.007 C 
ATOM     17  C   UNL     1      43.830  52.450  62.954  1.00  0.00     0.012 C 
ATOM     18  C   UNL     1      45.297  49.592  61.569  1.00  0.00     0.000 C 
ATOM     19  C   UNL     1      46.475  51.507  60.317  1.00  0.00     0.005 C 
ATOM     20  C   UNL     1      46.605  50.049  60.817  1.00  0.00     0.003 C 
ATOM     21  C   UNL     1      44.961  48.104  61.372  1.00  0.00     0.031 C 
ATOM     22  C   UNL     1      47.199  49.004  59.757  1.00  0.00    -0.008 C 
ATOM     23  C   UNL     1      45.078  47.697  59.938  1.00  0.00    -0.027 C 
ATOM     24  C   UNL     1      46.099  48.108  59.165  1.00  0.00    -0.065 C 
ATOM     25  C   UNL     1      47.978  49.726  58.601  1.00  0.00     0.014 C 
ATOM     26  C   UNL     1      48.215  48.083  60.492  1.00  0.00     0.016 C 
ATOM     27  C   UNL     1      46.314  47.372  57.851  1.00  0.00     0.063 C 
ATOM     28  C   UNL     1      48.374  48.792  57.454  1.00  0.00     0.033 C 
ATOM     29  C   UNL     1      47.114  48.183  56.826  1.00  0.00     0.118 C 
BRANCH  29  30
ATOM     30  O   UNL     1      47.449  47.378  55.719  1.00  0.00    -0.393 OA
ATOM     31  H   UNL     1      47.913  47.957  55.054  1.00  0.00     0.210 HD
ENDBRANCH  29  30
ENDBRANCH   1  11
TORSDOF 6
ENDMDL
MODEL 7
REMARK VINA RESULT:    -9.273      3.342      5.900
REMARK INTER + INTRA:         -13.304
REMARK INTER:                 -12.168
REMARK INTRA:                  -1.136
REMARK UNBOUND:                -1.048
REMARK SMILES CC[C@H](C=C[C@H](C)[C@@H]1CC[C@H]2[C@H]3CC=C4C[C@H](O)CC[C@@]4(C)[C@H]3CC[C@]21C)C(C)C
REMARK SMILES IDX 6 1 7 2 5 3 4 4 3 5 2 6 1 7 28 8 29 9 30 10 8 11 9 12 26 13
REMARK SMILES IDX 10 14 11 15 25 16 27 17 12 18 24 19 23 20 13 21 21 22 14 23
REMARK SMILES IDX 15 24 20 25 22 26 16 27 19 28 17 29 18 30
REMARK H PARENT 18 31
REMARK Flexibility Score: inf
ROOT
ATOM      1  C   UNL     1      43.958  47.744  61.272  1.00  0.00     0.012 C 
ATOM      2  C   UNL     1      42.753  46.793  61.127  1.00  0.00     0.012 C 
ENDROOT
BRANCH   1   3
ATOM      3  C   UNL     1      44.991  47.344  60.232  1.00  0.00    -0.028 C 
ATOM      4  C   UNL     1      46.286  47.670  60.387  1.00  0.00    -0.027 C 
BRANCH   4   5
ATOM      5  C   UNL     1      47.362  47.290  59.385  1.00  0.00     0.014 C 
BRANCH   5   6
ATOM      6  C   UNL     1      46.738  46.664  58.111  1.00  0.00     0.004 C 
ATOM      7  C   UNL     1      46.823  45.135  58.103  1.00  0.00     0.004 C 
ENDBRANCH   5   6
BRANCH   5   8
ATOM      8  C   UNL     1      48.288  48.508  59.069  1.00  0.00    -0.011 C 
ATOM      9  C   UNL     1      48.202  49.600  60.154  1.00  0.00     0.008 C 
ATOM     10  C   UNL     1      47.938  49.132  57.701  1.00  0.00     0.008 C 
ENDBRANCH   5   8
ENDBRANCH   4   5
ENDBRANCH   1   3
BRANCH   1  11
ATOM     11  C   UNL     1      43.522  49.245  61.121  1.00  0.00     0.002 C 
ATOM     12  C   UNL     1      44.284  49.998  60.026  1.00  0.00     0.005 C 
ATOM     13  C   UNL     1      43.630  50.177  62.393  1.00  0.00    -0.026 C 
ATOM     14  C   UNL     1      44.039  51.464  60.319  1.00  0.00     0.005 C 
ATOM     15  C   UNL     1      44.117  51.561  61.839  1.00  0.00    -0.001 C 
ATOM     16  C   UNL     1      42.245  50.299  63.088  1.00  0.00     0.007 C 
ATOM     17  C   UNL     1      44.674  49.692  63.432  1.00  0.00     0.012 C 
ATOM     18  C   UNL     1      43.427  52.816  62.471  1.00  0.00     0.000 C 
ATOM     19  C   UNL     1      41.340  51.313  62.384  1.00  0.00     0.005 C 
ATOM     20  C   UNL     1      41.856  52.756  62.592  1.00  0.00     0.003 C 
ATOM     21  C   UNL     1      43.948  54.124  61.851  1.00  0.00     0.031 C 
ATOM     22  C   UNL     1      41.054  53.899  61.805  1.00  0.00    -0.008 C 
ATOM     23  C   UNL     1      43.174  54.502  60.629  1.00  0.00    -0.027 C 
ATOM     24  C   UNL     1      41.834  54.397  60.578  1.00  0.00    -0.065 C 
ATOM     25  C   UNL     1      39.626  53.413  61.369  1.00  0.00     0.014 C 
ATOM     26  C   UNL     1      40.856  55.108  62.764  1.00  0.00     0.016 C 
ATOM     27  C   UNL     1      41.125  55.122  59.444  1.00  0.00     0.063 C 
ATOM     28  C   UNL     1      38.910  54.387  60.430  1.00  0.00     0.033 C 
ATOM     29  C   UNL     1      39.730  54.562  59.144  1.00  0.00     0.118 C 
BRANCH  29  30
ATOM     30  O   UNL     1      39.054  55.396  58.232  1.00  0.00    -0.393 OA
ATOM     31  H   UNL     1      38.873  54.860  57.411  1.00  0.00     0.210 HD
ENDBRANCH  29  30
ENDBRANCH   1  11
TORSDOF 6
ENDMDL
MODEL 8
REMARK VINA RESULT:    -9.147      2.684      4.829
REMARK INTER + INTRA:         -13.137
REMARK INTER:                 -12.819
REMARK INTRA:                  -0.318
REMARK UNBOUND:                -1.048
REMARK SMILES CC[C@H](C=C[C@H](C)[C@@H]1CC[C@H]2[C@H]3CC=C4C[C@H](O)CC[C@@]4(C)[C@H]3CC[C@]21C)C(C)C
REMARK SMILES IDX 6 1 7 2 5 3 4 4 3 5 2 6 1 7 28 8 29 9 30 10 8 11 9 12 26 13
REMARK SMILES IDX 10 14 11 15 25 16 27 17 12 18 24 19 23 20 13 21 21 22 14 23
REMARK SMILES IDX 15 24 20 25 22 26 16 27 19 28 17 29 18 30
REMARK H PARENT 18 31
REMARK Flexibility Score: inf
ROOT
ATOM      1  C   UNL     1      47.716  49.197  58.728  1.00  0.00     0.012 C 
ATOM      2  C   UNL     1      49.135  49.524  59.233  1.00  0.00     0.012 C 
ENDROOT
BRANCH   1   3
ATOM      3  C   UNL     1      47.433  47.740  59.054  1.00  0.00    -0.028 C 
ATOM      4  C   UNL     1      46.709  46.975  58.217  1.00  0.00    -0.027 C 
BRANCH   4   5
ATOM      5  C   UNL     1      46.403  45.513  58.487  1.00  0.00     0.014 C 
BRANCH   5   6
ATOM      6  C   UNL     1      45.022  45.352  59.174  1.00  0.00     0.004 C 
ATOM      7  C   UNL     1      45.135  45.159  60.688  1.00  0.00     0.004 C 
ENDBRANCH   5   6
BRANCH   5   8
ATOM      8  C   UNL     1      46.532  44.664  57.182  1.00  0.00    -0.011 C 
ATOM      9  C   UNL     1      46.452  45.534  55.913  1.00  0.00     0.008 C 
ATOM     10  C   UNL     1      45.438  43.577  57.116  1.00  0.00     0.008 C 
ENDBRANCH   5   8
ENDBRANCH   4   5
ENDBRANCH   1   3
BRANCH   1  11
ATOM     11  C   UNL     1      46.649  50.158  59.362  1.00  0.00     0.002 C 
ATOM     12  C   UNL     1      47.225  51.507  59.807  1.00  0.00     0.005 C 
ATOM     13  C   UNL     1      45.839  49.640  60.617  1.00  0.00    -0.026 C 
ATOM     14  C   UNL     1      46.182  52.087  60.740  1.00  0.00     0.005 C 
ATOM     15  C   UNL     1      45.696  50.890  61.551  1.00  0.00    -0.001 C 
ATOM     16  C   UNL     1      44.451  49.099  60.174  1.00  0.00     0.007 C 
ATOM     17  C   UNL     1      46.576  48.535  61.419  1.00  0.00     0.012 C 
ATOM     18  C   UNL     1      44.298  51.061  62.233  1.00  0.00     0.000 C 
ATOM     19  C   UNL     1      43.442  50.230  59.953  1.00  0.00     0.005 C 
ATOM     20  C   UNL     1      43.043  50.887  61.295  1.00  0.00     0.003 C 
ATOM     21  C   UNL     1      44.242  52.325  63.108  1.00  0.00     0.031 C 
ATOM     22  C   UNL     1      42.077  52.161  61.180  1.00  0.00    -0.008 C 
ATOM     23  C   UNL     1      43.834  53.527  62.317  1.00  0.00    -0.027 C 
ATOM     24  C   UNL     1      42.841  53.475  61.410  1.00  0.00    -0.065 C 
ATOM     25  C   UNL     1      41.337  52.210  59.797  1.00  0.00     0.014 C 
ATOM     26  C   UNL     1      40.985  52.049  62.284  1.00  0.00     0.016 C 
ATOM     27  C   UNL     1      42.278  54.802  60.924  1.00  0.00     0.063 C 
ATOM     28  C   UNL     1      40.576  53.516  59.556  1.00  0.00     0.033 C 
ATOM     29  C   UNL     1      41.557  54.696  59.575  1.00  0.00     0.118 C 
BRANCH  29  30
ATOM     30  O   UNL     1      40.891  55.902  59.281  1.00  0.00    -0.393 OA
ATOM     31  H   UNL     1      40.168  55.695  58.626  1.00  0.00     0.210 HD
ENDBRANCH  29  30
ENDBRANCH   1  11
TORSDOF 6
ENDMDL
MODEL 9
REMARK VINA RESULT:    -9.108      2.608      5.155
REMARK INTER + INTRA:         -13.085
REMARK INTER:                 -11.994
REMARK INTRA:                  -1.091
REMARK UNBOUND:                -1.048
REMARK SMILES CC[C@H](C=C[C@H](C)[C@@H]1CC[C@H]2[C@H]3CC=C4C[C@H](O)CC[C@@]4(C)[C@H]3CC[C@]21C)C(C)C
REMARK SMILES IDX 6 1 7 2 5 3 4 4 3 5 2 6 1 7 28 8 29 9 30 10 8 11 9 12 26 13
REMARK SMILES IDX 10 14 11 15 25 16 27 17 12 18 24 19 23 20 13 21 21 22 14 23
REMARK SMILES IDX 15 24 20 25 22 26 16 27 19 28 17 29 18 30
REMARK H PARENT 18 31
REMARK Flexibility Score: inf
ROOT
ATOM      1  C   UNL     1      46.223  47.835  59.882  1.00  0.00     0.012 C 
ATOM      2  C   UNL     1      46.463  46.588  60.756  1.00  0.00     0.012 C 
ENDROOT
BRANCH   1   3
ATOM      3  C   UNL     1      45.759  47.360  58.515  1.00  0.00    -0.028 C 
ATOM      4  C   UNL     1      46.636  46.870  57.622  1.00  0.00    -0.027 C 
BRANCH   4   5
ATOM      5  C   UNL     1      46.228  46.373  56.246  1.00  0.00     0.014 C 
BRANCH   5   6
ATOM      6  C   UNL     1      47.055  47.071  55.136  1.00  0.00     0.004 C 
ATOM      7  C   UNL     1      47.634  48.414  55.587  1.00  0.00     0.004 C 
ENDBRANCH   5   6
BRANCH   5   8
ATOM      8  C   UNL     1      46.302  44.815  56.169  1.00  0.00    -0.011 C 
ATOM      9  C   UNL     1      44.922  44.179  55.912  1.00  0.00     0.008 C 
ATOM     10  C   UNL     1      46.895  44.221  57.465  1.00  0.00     0.008 C 
ENDBRANCH   5   8
ENDBRANCH   4   5
ENDBRANCH   1   3
BRANCH   1  11
ATOM     11  C   UNL     1      45.188  48.809  60.548  1.00  0.00     0.002 C 
ATOM     12  C   UNL     1      43.855  48.896  59.798  1.00  0.00     0.005 C 
ATOM     13  C   UNL     1      45.621  50.315  60.761  1.00  0.00    -0.026 C 
ATOM     14  C   UNL     1      43.191  50.150  60.327  1.00  0.00     0.005 C 
ATOM     15  C   UNL     1      44.332  51.153  60.455  1.00  0.00    -0.001 C 
ATOM     16  C   UNL     1      46.107  50.532  62.221  1.00  0.00     0.007 C 
ATOM     17  C   UNL     1      46.731  50.786  59.786  1.00  0.00     0.012 C 
ATOM     18  C   UNL     1      44.068  52.354  61.424  1.00  0.00     0.000 C 
ATOM     19  C   UNL     1      44.937  50.700  63.194  1.00  0.00     0.005 C 
ATOM     20  C   UNL     1      44.213  52.047  62.964  1.00  0.00     0.003 C 
ATOM     21  C   UNL     1      42.772  53.101  61.064  1.00  0.00     0.031 C 
ATOM     22  C   UNL     1      42.897  52.285  63.848  1.00  0.00    -0.008 C 
ATOM     23  C   UNL     1      41.581  52.495  61.735  1.00  0.00    -0.027 C 
ATOM     24  C   UNL     1      41.616  52.099  63.020  1.00  0.00    -0.065 C 
ATOM     25  C   UNL     1      42.862  51.346  65.105  1.00  0.00     0.014 C 
ATOM     26  C   UNL     1      42.916  53.752  64.369  1.00  0.00     0.016 C 
ATOM     27  C   UNL     1      40.281  51.827  63.698  1.00  0.00     0.063 C 
ATOM     28  C   UNL     1      41.529  51.382  65.857  1.00  0.00     0.033 C 
ATOM     29  C   UNL     1      40.399  50.919  64.927  1.00  0.00     0.118 C 
BRANCH  29  30
ATOM     30  O   UNL     1      39.173  50.871  65.619  1.00  0.00    -0.393 OA
ATOM     31  H   UNL     1      39.251  50.170  66.323  1.00  0.00     0.210 HD
ENDBRANCH  29  30
ENDBRANCH   1  11
TORSDOF 6
ENDMDL
