MODEL 1
REMARK VINA RESULT:    -4.684      0.000      0.000
REMARK INTER + INTRA:          -5.343
REMARK INTER:                  -5.094
REMARK INTRA:                  -0.249
REMARK UNBOUND:                -0.249
REMARK SMILES O=C([O-])c1ccccc1O
REMARK SMILES IDX 4 1 9 2 5 3 8 4 6 5 7 6 2 7 1 8 3 9 10 10
REMARK H PARENT 10 11
REMARK Flexibility Score: inf
ROOT
ATOM      1  C   UNL     1      25.377  12.916  17.485  1.00  0.00     0.039 A 
ATOM      2  C   UNL     1      25.773  11.692  18.083  1.00  0.00     0.124 A 
ATOM      3  C   UNL     1      25.737  14.125  18.110  1.00  0.00     0.014 A 
ATOM      4  C   UNL     1      26.562  11.709  19.241  1.00  0.00     0.047 A 
ATOM      5  C   UNL     1      26.507  14.125  19.275  1.00  0.00     0.001 A 
ATOM      6  C   UNL     1      26.926  12.918  19.835  1.00  0.00     0.004 A 
ENDROOT
BRANCH   1   7
ATOM      7  C   UNL     1      24.633  12.971  16.209  1.00  0.00     0.075 C 
ATOM      8  O   UNL     1      24.988  12.252  15.237  1.00  0.00    -0.545 OA
ATOM      9  O   UNL     1      23.497  13.761  16.081  1.00  0.00    -0.545 OA
ENDBRANCH   1   7
BRANCH   2  10
ATOM     10  O   UNL     1      25.377  10.449  17.585  1.00  0.00    -0.507 OA
ATOM     11  H   UNL     1      24.444  10.258  17.246  1.00  0.00     0.293 HD
ENDBRANCH   2  10
TORSDOF 2
ENDMDL
MODEL 2
REMARK VINA RESULT:    -4.004      1.891      3.391
REMARK INTER + INTRA:          -4.604
REMARK INTER:                  -4.387
REMARK INTRA:                  -0.217
REMARK UNBOUND:                -0.249
REMARK SMILES O=C([O-])c1ccccc1O
REMARK SMILES IDX 4 1 9 2 5 3 8 4 6 5 7 6 2 7 1 8 3 9 10 10
REMARK H PARENT 10 11
REMARK Flexibility Score: inf
ROOT
ATOM      1  C   UNL     1      25.790  12.874  17.892  1.00  0.00     0.039 A 
ATOM      2  C   UNL     1      25.406  11.665  17.258  1.00  0.00     0.124 A 
ATOM      3  C   UNL     1      25.487  14.097  17.264  1.00  0.00     0.014 A 
ATOM      4  C   UNL     1      24.683  11.710  16.058  1.00  0.00     0.047 A 
ATOM      5  C   UNL     1      24.784  14.125  16.058  1.00  0.00     0.001 A 
ATOM      6  C   UNL     1      24.374  12.933  15.461  1.00  0.00     0.004 A 
ENDROOT
BRANCH   1   7
ATOM      7  C   UNL     1      26.463  12.901  19.208  1.00  0.00     0.075 C 
ATOM      8  O   UNL     1      27.086  11.887  19.621  1.00  0.00    -0.545 OA
ATOM      9  O   UNL     1      26.478  14.058  19.976  1.00  0.00    -0.545 OA
ENDBRANCH   1   7
BRANCH   2  10
ATOM     10  O   UNL     1      25.752  10.409  17.761  1.00  0.00    -0.507 OA
ATOM     11  H   UNL     1      26.321   9.744  17.255  1.00  0.00     0.293 HD
ENDBRANCH   2  10
TORSDOF 2
ENDMDL
MODEL 3
REMARK VINA RESULT:    -3.733     16.520     17.638
REMARK INTER + INTRA:          -4.309
REMARK INTER:                  -4.059
REMARK INTRA:                  -0.250
REMARK UNBOUND:                -0.249
REMARK SMILES O=C([O-])c1ccccc1O
REMARK SMILES IDX 4 1 9 2 5 3 8 4 6 5 7 6 2 7 1 8 3 9 10 10
REMARK H PARENT 10 11
REMARK Flexibility Score: inf
ROOT
ATOM      1  C   UNL     1      18.713  -3.118  13.321  1.00  0.00     0.039 A 
ATOM      2  C   UNL     1      19.741  -2.258  13.787  1.00  0.00     0.124 A 
ATOM      3  C   UNL     1      18.214  -4.111  14.184  1.00  0.00     0.014 A 
ATOM      4  C   UNL     1      20.193  -2.371  15.108  1.00  0.00     0.047 A 
ATOM      5  C   UNL     1      18.691  -4.225  15.492  1.00  0.00     0.001 A 
ATOM      6  C   UNL     1      19.672  -3.350  15.957  1.00  0.00     0.004 A 
ENDROOT
BRANCH   1   7
ATOM      7  C   UNL     1      18.118  -2.986  11.974  1.00  0.00     0.075 C 
ATOM      8  O   UNL     1      17.880  -1.845  11.496  1.00  0.00    -0.545 OA
ATOM      9  O   UNL     1      17.875  -4.107  11.191  1.00  0.00    -0.545 OA
ENDBRANCH   1   7
BRANCH   2  10
ATOM     10  O   UNL     1      20.359  -1.312  12.967  1.00  0.00    -0.507 OA
ATOM     11  H   UNL     1      20.731  -1.527  12.052  1.00  0.00     0.293 HD
ENDBRANCH   2  10
TORSDOF 2
ENDMDL
MODEL 4
REMARK VINA RESULT:    -3.640     16.312     17.645
REMARK INTER + INTRA:          -4.208
REMARK INTER:                  -3.961
REMARK INTRA:                  -0.247
REMARK UNBOUND:                -0.249
REMARK SMILES O=C([O-])c1ccccc1O
REMARK SMILES IDX 4 1 9 2 5 3 8 4 6 5 7 6 2 7 1 8 3 9 10 10
REMARK H PARENT 10 11
REMARK Flexibility Score: inf
ROOT
ATOM      1  C   UNL     1      19.368  -2.895  14.447  1.00  0.00     0.039 A 
ATOM      2  C   UNL     1      18.371  -3.721  13.868  1.00  0.00     0.124 A 
ATOM      3  C   UNL     1      19.884  -1.823  13.695  1.00  0.00     0.014 A 
ATOM      4  C   UNL     1      17.875  -3.419  12.592  1.00  0.00     0.047 A 
ATOM      5  C   UNL     1      19.395  -1.548  12.416  1.00  0.00     0.001 A 
ATOM      6  C   UNL     1      18.385  -2.339  11.869  1.00  0.00     0.004 A 
ENDROOT
BRANCH   1   7
ATOM      7  C   UNL     1      19.861  -3.094  15.826  1.00  0.00     0.075 C 
ATOM      8  O   UNL     1      20.088  -4.257  16.256  1.00  0.00    -0.545 OA
ATOM      9  O   UNL     1      20.144  -2.008  16.645  1.00  0.00    -0.545 OA
ENDBRANCH   1   7
BRANCH   2  10
ATOM     10  O   UNL     1      17.875  -4.860  14.504  1.00  0.00    -0.507 OA
ATOM     11  H   UNL     1      17.540  -4.863  15.458  1.00  0.00     0.293 HD
ENDBRANCH   2  10
TORSDOF 2
ENDMDL
MODEL 5
REMARK VINA RESULT:    -3.395     16.951     18.321
REMARK INTER + INTRA:          -3.941
REMARK INTER:                  -3.718
REMARK INTRA:                  -0.223
REMARK UNBOUND:                -0.249
REMARK SMILES O=C([O-])c1ccccc1O
REMARK SMILES IDX 4 1 9 2 5 3 8 4 6 5 7 6 2 7 1 8 3 9 10 10
REMARK H PARENT 10 11
REMARK Flexibility Score: inf
ROOT
ATOM      1  C   UNL     1      19.250  -3.711  15.116  1.00  0.00     0.039 A 
ATOM      2  C   UNL     1      18.664  -3.510  13.840  1.00  0.00     0.124 A 
ATOM      3  C   UNL     1      19.096  -4.961  15.746  1.00  0.00     0.014 A 
ATOM      4  C   UNL     1      18.001  -4.569  13.206  1.00  0.00     0.047 A 
ATOM      5  C   UNL     1      18.414  -6.001  15.110  1.00  0.00     0.001 A 
ATOM      6  C   UNL     1      17.876  -5.808  13.838  1.00  0.00     0.004 A 
ENDROOT
BRANCH   1   7
ATOM      7  C   UNL     1      20.051  -2.670  15.795  1.00  0.00     0.075 C 
ATOM      8  O   UNL     1      19.810  -2.368  16.995  1.00  0.00    -0.545 OA
ATOM      9  O   UNL     1      21.118  -2.059  15.149  1.00  0.00    -0.545 OA
ENDBRANCH   1   7
BRANCH   2  10
ATOM     10  O   UNL     1      18.686  -2.275  13.190  1.00  0.00    -0.507 OA
ATOM     11  H   UNL     1      19.304  -1.519  13.452  1.00  0.00     0.293 HD
ENDBRANCH   2  10
TORSDOF 2
ENDMDL
MODEL 6
REMARK VINA RESULT:    -3.300     16.280     17.503
REMARK INTER + INTRA:          -3.838
REMARK INTER:                  -3.601
REMARK INTRA:                  -0.237
REMARK UNBOUND:                -0.249
REMARK SMILES O=C([O-])c1ccccc1O
REMARK SMILES IDX 4 1 9 2 5 3 8 4 6 5 7 6 2 7 1 8 3 9 10 10
REMARK H PARENT 10 11
REMARK Flexibility Score: inf
ROOT
ATOM      1  C   UNL     1      18.525  -2.244  11.583  1.00  0.00     0.039 A 
ATOM      2  C   UNL     1      19.353  -1.485  12.449  1.00  0.00     0.124 A 
ATOM      3  C   UNL     1      18.164  -1.699  10.337  1.00  0.00     0.014 A 
ATOM      4  C   UNL     1      19.844  -0.242  12.026  1.00  0.00     0.047 A 
ATOM      5  C   UNL     1      18.644  -0.449   9.939  1.00  0.00     0.001 A 
ATOM      6  C   UNL     1      19.491   0.274  10.778  1.00  0.00     0.004 A 
ENDROOT
BRANCH   1   7
ATOM      7  C   UNL     1      18.058  -3.605  11.923  1.00  0.00     0.075 C 
ATOM      8  O   UNL     1      17.878  -4.458  11.013  1.00  0.00    -0.545 OA
ATOM      9  O   UNL     1      17.875  -3.985  13.247  1.00  0.00    -0.545 OA
ENDBRANCH   1   7
BRANCH   2  10
ATOM     10  O   UNL     1      19.679  -1.908  13.739  1.00  0.00    -0.507 OA
ATOM     11  H   UNL     1      20.098  -2.805  13.941  1.00  0.00     0.293 HD
ENDBRANCH   2  10
TORSDOF 2
ENDMDL
MODEL 7
REMARK VINA RESULT:    -3.250     15.979     17.073
REMARK INTER + INTRA:          -3.784
REMARK INTER:                  -3.533
REMARK INTRA:                  -0.250
REMARK UNBOUND:                -0.249
REMARK SMILES O=C([O-])c1ccccc1O
REMARK SMILES IDX 4 1 9 2 5 3 8 4 6 5 7 6 2 7 1 8 3 9 10 10
REMARK H PARENT 10 11
REMARK Flexibility Score: inf
ROOT
ATOM      1  C   UNL     1      19.495  -2.257  13.595  1.00  0.00     0.039 A 
ATOM      2  C   UNL     1      18.654  -3.399  13.562  1.00  0.00     0.124 A 
ATOM      3  C   UNL     1      20.168  -1.942  14.790  1.00  0.00     0.014 A 
ATOM      4  C   UNL     1      18.560  -4.223  14.691  1.00  0.00     0.047 A 
ATOM      5  C   UNL     1      20.047  -2.763  15.914  1.00  0.00     0.001 A 
ATOM      6  C   UNL     1      19.251  -3.907  15.862  1.00  0.00     0.004 A 
ENDROOT
BRANCH   1   7
ATOM      7  C   UNL     1      19.721  -1.403  12.409  1.00  0.00     0.075 C 
ATOM      8  O   UNL     1      19.800  -0.152  12.535  1.00  0.00    -0.545 OA
ATOM      9  O   UNL     1      19.915  -1.966  11.154  1.00  0.00    -0.545 OA
ENDBRANCH   1   7
BRANCH   2  10
ATOM     10  O   UNL     1      17.876  -3.728  12.451  1.00  0.00    -0.507 OA
ATOM     11  H   UNL     1      18.077  -4.510  11.843  1.00  0.00     0.293 HD
ENDBRANCH   2  10
TORSDOF 2
ENDMDL
MODEL 8
REMARK VINA RESULT:    -3.010     15.717     17.012
REMARK INTER + INTRA:          -3.523
REMARK INTER:                  -3.280
REMARK INTRA:                  -0.243
REMARK UNBOUND:                -0.249
REMARK SMILES O=C([O-])c1ccccc1O
REMARK SMILES IDX 4 1 9 2 5 3 8 4 6 5 7 6 2 7 1 8 3 9 10 10
REMARK H PARENT 10 11
REMARK Flexibility Score: inf
ROOT
ATOM      1  C   UNL     1      19.246  -1.588  12.269  1.00  0.00     0.039 A 
ATOM      2  C   UNL     1      18.818  -2.139  11.033  1.00  0.00     0.124 A 
ATOM      3  C   UNL     1      19.626  -0.233  12.314  1.00  0.00     0.014 A 
ATOM      4  C   UNL     1      18.723  -1.316   9.903  1.00  0.00     0.047 A 
ATOM      5  C   UNL     1      19.545   0.569  11.174  1.00  0.00     0.001 A 
ATOM      6  C   UNL     1      19.085   0.031   9.972  1.00  0.00     0.004 A 
ENDROOT
BRANCH   1   7
ATOM      7  C   UNL     1      19.271  -2.373  13.521  1.00  0.00     0.075 C 
ATOM      8  O   UNL     1      18.432  -3.294  13.708  1.00  0.00    -0.545 OA
ATOM      9  O   UNL     1      20.255  -2.155  14.478  1.00  0.00    -0.545 OA
ENDBRANCH   1   7
BRANCH   2  10
ATOM     10  O   UNL     1      18.517  -3.493  10.878  1.00  0.00    -0.507 OA
ATOM     11  H   UNL     1      18.519  -3.964   9.983  1.00  0.00     0.293 HD
ENDBRANCH   2  10
TORSDOF 2
ENDMDL
MODEL 9
REMARK VINA RESULT:    -2.918      9.414     10.289
REMARK INTER + INTRA:          -3.422
REMARK INTER:                  -3.171
REMARK INTRA:                  -0.251
REMARK UNBOUND:                -0.249
REMARK SMILES O=C([O-])c1ccccc1O
REMARK SMILES IDX 4 1 9 2 5 3 8 4 6 5 7 6 2 7 1 8 3 9 10 10
REMARK H PARENT 10 11
REMARK Flexibility Score: inf
ROOT
ATOM      1  C   UNL     1      19.328   9.611  10.543  1.00  0.00     0.039 A 
ATOM      2  C   UNL     1      20.559   8.914  10.649  1.00  0.00     0.124 A 
ATOM      3  C   UNL     1      18.128   8.875  10.533  1.00  0.00     0.014 A 
ATOM      4  C   UNL     1      20.556   7.522  10.804  1.00  0.00     0.047 A 
ATOM      5  C   UNL     1      18.144   7.484  10.667  1.00  0.00     0.001 A 
ATOM      6  C   UNL     1      19.355   6.810  10.812  1.00  0.00     0.004 A 
ENDROOT
BRANCH   1   7
ATOM      7  C   UNL     1      19.254  11.086  10.481  1.00  0.00     0.075 C 
ATOM      8  O   UNL     1      18.302  11.648   9.875  1.00  0.00    -0.545 OA
ATOM      9  O   UNL     1      20.188  11.874  11.142  1.00  0.00    -0.545 OA
ENDBRANCH   1   7
BRANCH   2  10
ATOM     10  O   UNL     1      21.795   9.557  10.569  1.00  0.00    -0.507 OA
ATOM     11  H   UNL     1      22.679   9.082  10.700  1.00  0.00     0.293 HD
ENDBRANCH   2  10
TORSDOF 2
ENDMDL
