MODEL 1
REMARK VINA RESULT:    -5.473      0.000      0.000
REMARK INTER + INTRA:          -9.662
REMARK INTER:                  -7.713
REMARK INTRA:                  -1.948
REMARK UNBOUND:                -1.948
REMARK SMILES O=C(C=Cc1ccc(O)cc1)CC(=O)C=Cc1ccc(O)cc1
REMARK SMILES IDX 12 1 2 2 1 3 3 4 4 5 5 6 6 7 7 8 8 9 11 10 10 11 9 12 13 14
REMARK SMILES IDX 14 15 15 16 16 17 17 18 18 19 23 20 19 21 22 22 20 23 21 24
REMARK H PARENT 9 13 21 25
REMARK Flexibility Score: inf
ROOT
ATOM      1  C   UNL     1      52.158 -28.326 -28.816  1.00  0.00     0.160 C 
ENDROOT
BRANCH   1   2
ATOM      2  C   UNL     1      50.772 -28.426 -28.238  1.00  0.00     0.163 C 
ATOM      3  O   UNL     1      50.286 -27.412 -27.668  1.00  0.00    -0.294 OA
BRANCH   2   4
ATOM      4  C   UNL     1      49.962 -29.665 -28.265  1.00  0.00     0.048 C 
ATOM      5  C   UNL     1      48.978 -29.894 -29.146  1.00  0.00     0.012 C 
BRANCH   5   6
ATOM      6  C   UNL     1      48.169 -31.138 -29.167  1.00  0.00    -0.025 A 
ATOM      7  C   UNL     1      46.772 -31.129 -29.359  1.00  0.00     0.012 A 
ATOM      8  C   UNL     1      46.050 -32.328 -29.356  1.00  0.00     0.047 A 
ATOM      9  C   UNL     1      46.706 -33.545 -29.153  1.00  0.00     0.115 A 
ATOM     10  C   UNL     1      48.815 -32.366 -28.947  1.00  0.00     0.012 A 
ATOM     11  C   UNL     1      48.090 -33.561 -28.946  1.00  0.00     0.047 A 
BRANCH   9  12
ATOM     12  O   UNL     1      45.974 -34.730 -29.155  1.00  0.00    -0.508 OA
ATOM     13  H   UNL     1      44.961 -34.728 -29.172  1.00  0.00     0.293 HD
ENDBRANCH   9  12
ENDBRANCH   5   6
ENDBRANCH   2   4
ENDBRANCH   1   2
BRANCH   1  14
ATOM     14  C   UNL     1      52.142 -28.634 -30.284  1.00  0.00     0.163 C 
ATOM     15  O   UNL     1      52.107 -29.837 -30.660  1.00  0.00    -0.294 OA
BRANCH  14  16
ATOM     16  C   UNL     1      52.261 -27.533 -31.267  1.00  0.00     0.048 C 
ATOM     17  C   UNL     1      51.248 -26.998 -31.966  1.00  0.00     0.012 C 
BRANCH  17  18
ATOM     18  C   UNL     1      49.814 -27.282 -31.748  1.00  0.00    -0.025 A 
ATOM     19  C   UNL     1      49.181 -28.256 -32.533  1.00  0.00     0.012 A 
ATOM     20  C   UNL     1      49.051 -26.528 -30.839  1.00  0.00     0.012 A 
ATOM     21  C   UNL     1      47.814 -28.510 -32.377  1.00  0.00     0.047 A 
ATOM     22  C   UNL     1      47.685 -26.783 -30.684  1.00  0.00     0.047 A 
ATOM     23  C   UNL     1      47.064 -27.778 -31.451  1.00  0.00     0.115 A 
BRANCH  23  24
ATOM     24  O   UNL     1      45.704 -28.043 -31.305  1.00  0.00    -0.508 OA
ATOM     25  H   UNL     1      45.297 -28.235 -30.397  1.00  0.00     0.293 HD
ENDBRANCH  23  24
ENDBRANCH  17  18
ENDBRANCH  14  16
ENDBRANCH   1  14
TORSDOF 8
ENDMDL
MODEL 2
REMARK VINA RESULT:    -5.401     12.374     13.842
REMARK INTER + INTRA:          -9.560
REMARK INTER:                  -7.386
REMARK INTRA:                  -2.173
REMARK UNBOUND:                -1.948
REMARK SMILES O=C(C=Cc1ccc(O)cc1)CC(=O)C=Cc1ccc(O)cc1
REMARK SMILES IDX 12 1 2 2 1 3 3 4 4 5 5 6 6 7 7 8 8 9 11 10 10 11 9 12 13 14
REMARK SMILES IDX 14 15 15 16 16 17 17 18 18 19 23 20 19 21 22 22 20 23 21 24
REMARK H PARENT 9 13 21 25
REMARK Flexibility Score: inf
ROOT
ATOM      1  C   UNL     1      56.105 -41.348 -29.651  1.00  0.00     0.160 C 
ENDROOT
BRANCH   1   2
ATOM      2  C   UNL     1      56.094 -42.059 -28.324  1.00  0.00     0.163 C 
ATOM      3  O   UNL     1      57.103 -42.743 -28.004  1.00  0.00    -0.294 OA
BRANCH   2   4
ATOM      4  C   UNL     1      54.944 -42.033 -27.393  1.00  0.00     0.048 C 
ATOM      5  C   UNL     1      54.189 -43.105 -27.109  1.00  0.00     0.012 C 
BRANCH   5   6
ATOM      6  C   UNL     1      53.036 -43.072 -26.176  1.00  0.00    -0.025 A 
ATOM      7  C   UNL     1      52.085 -44.112 -26.111  1.00  0.00     0.012 A 
ATOM      8  C   UNL     1      51.006 -44.029 -25.224  1.00  0.00     0.047 A 
ATOM      9  C   UNL     1      50.854 -42.910 -24.402  1.00  0.00     0.115 A 
ATOM     10  C   UNL     1      52.863 -41.944 -25.356  1.00  0.00     0.012 A 
ATOM     11  C   UNL     1      51.785 -41.866 -24.471  1.00  0.00     0.047 A 
BRANCH   9  12
ATOM     12  O   UNL     1      49.776 -42.842 -23.523  1.00  0.00    -0.508 OA
ATOM     13  H   UNL     1      49.467 -43.652 -22.999  1.00  0.00     0.293 HD
ENDBRANCH   9  12
ENDBRANCH   5   6
ENDBRANCH   2   4
ENDBRANCH   1   2
BRANCH   1  14
ATOM     14  C   UNL     1      55.189 -42.030 -30.624  1.00  0.00     0.163 C 
ATOM     15  O   UNL     1      55.113 -43.288 -30.619  1.00  0.00    -0.294 OA
BRANCH  14  16
ATOM     16  C   UNL     1      54.464 -41.227 -31.635  1.00  0.00     0.048 C 
ATOM     17  C   UNL     1      53.133 -41.054 -31.685  1.00  0.00     0.012 C 
BRANCH  17  18
ATOM     18  C   UNL     1      52.175 -41.479 -30.643  1.00  0.00    -0.025 A 
ATOM     19  C   UNL     1      51.368 -42.603 -30.871  1.00  0.00     0.012 A 
ATOM     20  C   UNL     1      51.989 -40.722 -29.473  1.00  0.00     0.012 A 
ATOM     21  C   UNL     1      50.422 -42.996 -29.918  1.00  0.00     0.047 A 
ATOM     22  C   UNL     1      51.042 -41.117 -28.522  1.00  0.00     0.047 A 
ATOM     23  C   UNL     1      50.258 -42.258 -28.742  1.00  0.00     0.115 A 
BRANCH  23  24
ATOM     24  O   UNL     1      49.313 -42.662 -27.802  1.00  0.00    -0.508 OA
ATOM     25  H   UNL     1      48.889 -42.002 -27.160  1.00  0.00     0.293 HD
ENDBRANCH  23  24
ENDBRANCH  17  18
ENDBRANCH  14  16
ENDBRANCH   1  14
TORSDOF 8
ENDMDL
MODEL 3
REMARK VINA RESULT:    -5.390     12.382     14.005
REMARK INTER + INTRA:          -9.544
REMARK INTER:                  -7.157
REMARK INTRA:                  -2.387
REMARK UNBOUND:                -1.948
REMARK SMILES O=C(C=Cc1ccc(O)cc1)CC(=O)C=Cc1ccc(O)cc1
REMARK SMILES IDX 12 1 2 2 1 3 3 4 4 5 5 6 6 7 7 8 8 9 11 10 10 11 9 12 13 14
REMARK SMILES IDX 14 15 15 16 16 17 17 18 18 19 23 20 19 21 22 22 20 23 21 24
REMARK H PARENT 9 13 21 25
REMARK Flexibility Score: inf
ROOT
ATOM      1  C   UNL     1      57.516 -37.558 -24.461  1.00  0.00     0.160 C 
ENDROOT
BRANCH   1   2
ATOM      2  C   UNL     1      57.685 -37.654 -25.954  1.00  0.00     0.163 C 
ATOM      3  O   UNL     1      58.056 -36.627 -26.582  1.00  0.00    -0.294 OA
BRANCH   2   4
ATOM      4  C   UNL     1      57.399 -38.882 -26.731  1.00  0.00     0.048 C 
ATOM      5  C   UNL     1      56.418 -38.976 -27.641  1.00  0.00     0.012 C 
BRANCH   5   6
ATOM      6  C   UNL     1      56.134 -40.210 -28.415  1.00  0.00    -0.025 A 
ATOM      7  C   UNL     1      54.888 -40.448 -29.030  1.00  0.00     0.012 A 
ATOM      8  C   UNL     1      54.663 -41.633 -29.738  1.00  0.00     0.047 A 
ATOM      9  C   UNL     1      55.669 -42.598 -29.834  1.00  0.00     0.115 A 
ATOM     10  C   UNL     1      57.132 -41.195 -28.503  1.00  0.00     0.012 A 
ATOM     11  C   UNL     1      56.904 -42.378 -29.212  1.00  0.00     0.047 A 
BRANCH   9  12
ATOM     12  O   UNL     1      55.431 -43.773 -30.543  1.00  0.00    -0.508 OA
ATOM     13  H   UNL     1      55.969 -44.013 -31.367  1.00  0.00     0.293 HD
ENDBRANCH   9  12
ENDBRANCH   5   6
ENDBRANCH   2   4
ENDBRANCH   1   2
BRANCH   1  14
ATOM     14  C   UNL     1      56.062 -37.565 -24.092  1.00  0.00     0.163 C 
ATOM     15  O   UNL     1      55.236 -36.965 -24.832  1.00  0.00    -0.294 OA
BRANCH  14  16
ATOM     16  C   UNL     1      55.630 -38.193 -22.823  1.00  0.00     0.048 C 
ATOM     17  C   UNL     1      55.070 -39.408 -22.704  1.00  0.00     0.012 C 
BRANCH  17  18
ATOM     18  C   UNL     1      54.951 -40.405 -23.789  1.00  0.00    -0.025 A 
ATOM     19  C   UNL     1      53.695 -40.650 -24.361  1.00  0.00     0.012 A 
ATOM     20  C   UNL     1      56.053 -41.182 -24.188  1.00  0.00     0.012 A 
ATOM     21  C   UNL     1      53.550 -41.622 -25.357  1.00  0.00     0.047 A 
ATOM     22  C   UNL     1      55.906 -42.153 -25.183  1.00  0.00     0.047 A 
ATOM     23  C   UNL     1      54.654 -42.373 -25.773  1.00  0.00     0.115 A 
BRANCH  23  24
ATOM     24  O   UNL     1      54.496 -43.336 -26.766  1.00  0.00    -0.508 OA
ATOM     25  H   UNL     1      54.359 -44.314 -26.537  1.00  0.00     0.293 HD
ENDBRANCH  23  24
ENDBRANCH  17  18
ENDBRANCH  14  16
ENDBRANCH   1  14
TORSDOF 8
ENDMDL
MODEL 4
REMARK VINA RESULT:    -5.301     11.625     14.442
REMARK INTER + INTRA:          -9.419
REMARK INTER:                  -7.107
REMARK INTRA:                  -2.311
REMARK UNBOUND:                -1.948
REMARK SMILES O=C(C=Cc1ccc(O)cc1)CC(=O)C=Cc1ccc(O)cc1
REMARK SMILES IDX 12 1 2 2 1 3 3 4 4 5 5 6 6 7 7 8 8 9 11 10 10 11 9 12 13 14
REMARK SMILES IDX 14 15 15 16 16 17 17 18 18 19 23 20 19 21 22 22 20 23 21 24
REMARK H PARENT 9 13 21 25
REMARK Flexibility Score: inf
ROOT
ATOM      1  C   UNL     1      55.827 -41.897 -29.461  1.00  0.00     0.160 C 
ENDROOT
BRANCH   1   2
ATOM      2  C   UNL     1      56.052 -40.428 -29.703  1.00  0.00     0.163 C 
ATOM      3  O   UNL     1      56.254 -40.040 -30.885  1.00  0.00    -0.294 OA
BRANCH   2   4
ATOM      4  C   UNL     1      56.091 -39.418 -28.621  1.00  0.00     0.048 C 
ATOM      5  C   UNL     1      56.717 -39.604 -27.450  1.00  0.00     0.012 C 
BRANCH   5   6
ATOM      6  C   UNL     1      56.751 -38.589 -26.368  1.00  0.00    -0.025 A 
ATOM      7  C   UNL     1      57.872 -38.412 -25.531  1.00  0.00     0.012 A 
ATOM      8  C   UNL     1      57.850 -37.451 -24.515  1.00  0.00     0.047 A 
ATOM      9  C   UNL     1      56.713 -36.665 -24.312  1.00  0.00     0.115 A 
ATOM     10  C   UNL     1      55.607 -37.805 -26.143  1.00  0.00     0.012 A 
ATOM     11  C   UNL     1      55.590 -36.846 -25.127  1.00  0.00     0.047 A 
BRANCH   9  12
ATOM     12  O   UNL     1      56.708 -35.711 -23.297  1.00  0.00    -0.508 OA
ATOM     13  H   UNL     1      56.303 -34.793 -23.434  1.00  0.00     0.293 HD
ENDBRANCH   9  12
ENDBRANCH   5   6
ENDBRANCH   2   4
ENDBRANCH   1   2
BRANCH   1  14
ATOM     14  C   UNL     1      54.381 -42.169 -29.167  1.00  0.00     0.163 C 
ATOM     15  O   UNL     1      53.523 -41.287 -29.434  1.00  0.00    -0.294 OA
BRANCH  14  16
ATOM     16  C   UNL     1      53.995 -43.426 -28.485  1.00  0.00     0.048 C 
ATOM     17  C   UNL     1      54.149 -43.682 -27.177  1.00  0.00     0.012 C 
BRANCH  17  18
ATOM     18  C   UNL     1      54.559 -42.697 -26.154  1.00  0.00    -0.025 A 
ATOM     19  C   UNL     1      55.853 -42.764 -25.618  1.00  0.00     0.012 A 
ATOM     20  C   UNL     1      53.647 -41.760 -25.638  1.00  0.00     0.012 A 
ATOM     21  C   UNL     1      56.248 -41.871 -24.615  1.00  0.00     0.047 A 
ATOM     22  C   UNL     1      54.044 -40.869 -24.636  1.00  0.00     0.047 A 
ATOM     23  C   UNL     1      55.347 -40.920 -24.125  1.00  0.00     0.115 A 
BRANCH  23  24
ATOM     24  O   UNL     1      55.754 -40.037 -23.128  1.00  0.00    -0.508 OA
ATOM     25  H   UNL     1      55.850 -39.044 -23.307  1.00  0.00     0.293 HD
ENDBRANCH  23  24
ENDBRANCH  17  18
ENDBRANCH  14  16
ENDBRANCH   1  14
TORSDOF 8
ENDMDL
MODEL 5
REMARK VINA RESULT:    -5.268     12.141     13.378
REMARK INTER + INTRA:          -9.372
REMARK INTER:                  -7.144
REMARK INTRA:                  -2.229
REMARK UNBOUND:                -1.948
REMARK SMILES O=C(C=Cc1ccc(O)cc1)CC(=O)C=Cc1ccc(O)cc1
REMARK SMILES IDX 12 1 2 2 1 3 3 4 4 5 5 6 6 7 7 8 8 9 11 10 10 11 9 12 13 14
REMARK SMILES IDX 14 15 15 16 16 17 17 18 18 19 23 20 19 21 22 22 20 23 21 24
REMARK H PARENT 9 13 21 25
REMARK Flexibility Score: inf
ROOT
ATOM      1  C   UNL     1      56.247 -40.011 -30.973  1.00  0.00     0.160 C 
ENDROOT
BRANCH   1   2
ATOM      2  C   UNL     1      55.195 -40.751 -31.755  1.00  0.00     0.163 C 
ATOM      3  O   UNL     1      55.272 -40.750 -33.013  1.00  0.00    -0.294 OA
BRANCH   2   4
ATOM      4  C   UNL     1      54.048 -41.446 -31.127  1.00  0.00     0.048 C 
ATOM      5  C   UNL     1      52.780 -41.018 -31.212  1.00  0.00     0.012 C 
BRANCH   5   6
ATOM      6  C   UNL     1      51.634 -41.718 -30.578  1.00  0.00    -0.025 A 
ATOM      7  C   UNL     1      50.484 -41.035 -30.131  1.00  0.00     0.012 A 
ATOM      8  C   UNL     1      49.436 -41.737 -29.527  1.00  0.00     0.047 A 
ATOM      9  C   UNL     1      49.523 -43.120 -29.350  1.00  0.00     0.115 A 
ATOM     10  C   UNL     1      51.719 -43.106 -30.379  1.00  0.00     0.012 A 
ATOM     11  C   UNL     1      50.669 -43.803 -29.775  1.00  0.00     0.047 A 
BRANCH   9  12
ATOM     12  O   UNL     1      48.471 -43.805 -28.748  1.00  0.00    -0.508 OA
ATOM     13  H   UNL     1      48.505 -44.807 -28.601  1.00  0.00     0.293 HD
ENDBRANCH   9  12
ENDBRANCH   5   6
ENDBRANCH   2   4
ENDBRANCH   1   2
BRANCH   1  14
ATOM     14  C   UNL     1      57.026 -40.957 -30.108  1.00  0.00     0.163 C 
ATOM     15  O   UNL     1      57.153 -42.157 -30.468  1.00  0.00    -0.294 OA
BRANCH  14  16
ATOM     16  C   UNL     1      57.554 -40.493 -28.805  1.00  0.00     0.048 C 
ATOM     17  C   UNL     1      56.836 -40.347 -27.679  1.00  0.00     0.012 C 
BRANCH  17  18
ATOM     18  C   UNL     1      55.441 -40.795 -27.491  1.00  0.00    -0.025 A 
ATOM     19  C   UNL     1      54.395 -39.880 -27.682  1.00  0.00     0.012 A 
ATOM     20  C   UNL     1      55.147 -42.090 -27.029  1.00  0.00     0.012 A 
ATOM     21  C   UNL     1      53.069 -40.268 -27.464  1.00  0.00     0.047 A 
ATOM     22  C   UNL     1      53.820 -42.476 -26.812  1.00  0.00     0.047 A 
ATOM     23  C   UNL     1      52.777 -41.566 -27.033  1.00  0.00     0.115 A 
BRANCH  23  24
ATOM     24  O   UNL     1      51.452 -41.939 -26.822  1.00  0.00    -0.508 OA
ATOM     25  H   UNL     1      51.026 -42.698 -27.341  1.00  0.00     0.293 HD
ENDBRANCH  23  24
ENDBRANCH  17  18
ENDBRANCH  14  16
ENDBRANCH   1  14
TORSDOF 8
ENDMDL
MODEL 6
REMARK VINA RESULT:    -5.242      2.839      5.554
REMARK INTER + INTRA:          -9.336
REMARK INTER:                  -7.858
REMARK INTRA:                  -1.477
REMARK UNBOUND:                -1.948
REMARK SMILES O=C(C=Cc1ccc(O)cc1)CC(=O)C=Cc1ccc(O)cc1
REMARK SMILES IDX 12 1 2 2 1 3 3 4 4 5 5 6 6 7 7 8 8 9 11 10 10 11 9 12 13 14
REMARK SMILES IDX 14 15 15 16 16 17 17 18 18 19 23 20 19 21 22 22 20 23 21 24
REMARK H PARENT 9 13 21 25
REMARK Flexibility Score: inf
ROOT
ATOM      1  C   UNL     1      48.740 -27.998 -30.313  1.00  0.00     0.160 C 
ENDROOT
BRANCH   1   2
ATOM      2  C   UNL     1      47.809 -28.605 -31.330  1.00  0.00     0.163 C 
ATOM      3  O   UNL     1      48.204 -28.697 -32.523  1.00  0.00    -0.294 OA
BRANCH   2   4
ATOM      4  C   UNL     1      46.437 -29.061 -31.011  1.00  0.00     0.048 C 
ATOM      5  C   UNL     1      45.343 -28.301 -31.168  1.00  0.00     0.012 C 
BRANCH   5   6
ATOM      6  C   UNL     1      43.970 -28.763 -30.845  1.00  0.00    -0.025 A 
ATOM      7  C   UNL     1      42.850 -28.411 -31.626  1.00  0.00     0.012 A 
ATOM      8  C   UNL     1      41.573 -28.860 -31.272  1.00  0.00     0.047 A 
ATOM      9  C   UNL     1      41.394 -29.652 -30.135  1.00  0.00     0.115 A 
ATOM     10  C   UNL     1      43.775 -29.545 -29.694  1.00  0.00     0.012 A 
ATOM     11  C   UNL     1      42.498 -29.991 -29.345  1.00  0.00     0.047 A 
BRANCH   9  12
ATOM     12  O   UNL     1      40.116 -30.092 -29.797  1.00  0.00    -0.508 OA
ATOM     13  H   UNL     1      39.304 -29.498 -29.908  1.00  0.00     0.293 HD
ENDBRANCH   9  12
ENDBRANCH   5   6
ENDBRANCH   2   4
ENDBRANCH   1   2
BRANCH   1  14
ATOM     14  C   UNL     1      49.533 -29.066 -29.619  1.00  0.00     0.163 C 
ATOM     15  O   UNL     1      50.216 -29.870 -30.307  1.00  0.00    -0.294 OA
BRANCH  14  16
ATOM     16  C   UNL     1      49.430 -29.218 -28.150  1.00  0.00     0.048 C 
ATOM     17  C   UNL     1      48.728 -30.167 -27.511  1.00  0.00     0.012 C 
BRANCH  17  18
ATOM     18  C   UNL     1      48.085 -31.333 -28.152  1.00  0.00    -0.025 A 
ATOM     19  C   UNL     1      46.702 -31.312 -28.385  1.00  0.00     0.012 A 
ATOM     20  C   UNL     1      48.815 -32.499 -28.442  1.00  0.00     0.012 A 
ATOM     21  C   UNL     1      46.065 -32.423 -28.948  1.00  0.00     0.047 A 
ATOM     22  C   UNL     1      48.175 -33.608 -29.006  1.00  0.00     0.047 A 
ATOM     23  C   UNL     1      46.798 -33.571 -29.263  1.00  0.00     0.115 A 
BRANCH  23  24
ATOM     24  O   UNL     1      46.151 -34.669 -29.825  1.00  0.00    -0.508 OA
ATOM     25  H   UNL     1      46.335 -35.613 -29.505  1.00  0.00     0.293 HD
ENDBRANCH  23  24
ENDBRANCH  17  18
ENDBRANCH  14  16
ENDBRANCH   1  14
TORSDOF 8
ENDMDL
MODEL 7
REMARK VINA RESULT:    -5.240     11.578     13.278
REMARK INTER + INTRA:          -9.332
REMARK INTER:                  -6.869
REMARK INTRA:                  -2.464
REMARK UNBOUND:                -1.948
REMARK SMILES O=C(C=Cc1ccc(O)cc1)CC(=O)C=Cc1ccc(O)cc1
REMARK SMILES IDX 12 1 2 2 1 3 3 4 4 5 5 6 6 7 7 8 8 9 11 10 10 11 9 12 13 14
REMARK SMILES IDX 14 15 15 16 16 17 17 18 18 19 23 20 19 21 22 22 20 23 21 24
REMARK H PARENT 9 13 21 25
REMARK Flexibility Score: inf
ROOT
ATOM      1  C   UNL     1      57.386 -38.126 -25.846  1.00  0.00     0.160 C 
ENDROOT
BRANCH   1   2
ATOM      2  C   UNL     1      56.906 -37.912 -27.257  1.00  0.00     0.163 C 
ATOM      3  O   UNL     1      57.193 -36.826 -27.828  1.00  0.00    -0.294 OA
BRANCH   2   4
ATOM      4  C   UNL     1      56.079 -38.892 -27.996  1.00  0.00     0.048 C 
ATOM      5  C   UNL     1      54.787 -39.131 -27.727  1.00  0.00     0.012 C 
BRANCH   5   6
ATOM      6  C   UNL     1      53.963 -40.116 -28.469  1.00  0.00    -0.025 A 
ATOM      7  C   UNL     1      52.553 -40.089 -28.454  1.00  0.00     0.012 A 
ATOM      8  C   UNL     1      51.819 -41.049 -29.159  1.00  0.00     0.047 A 
ATOM      9  C   UNL     1      52.476 -42.051 -29.877  1.00  0.00     0.115 A 
ATOM     10  C   UNL     1      54.613 -41.139 -29.180  1.00  0.00     0.012 A 
ATOM     11  C   UNL     1      53.876 -42.096 -29.884  1.00  0.00     0.047 A 
BRANCH   9  12
ATOM     12  O   UNL     1      51.732 -42.999 -30.575  1.00  0.00    -0.508 OA
ATOM     13  H   UNL     1      51.949 -43.241 -31.534  1.00  0.00     0.293 HD
ENDBRANCH   9  12
ENDBRANCH   5   6
ENDBRANCH   2   4
ENDBRANCH   1   2
BRANCH   1  14
ATOM     14  C   UNL     1      56.317 -37.754 -24.862  1.00  0.00     0.163 C 
ATOM     15  O   UNL     1      55.469 -36.877 -25.176  1.00  0.00    -0.294 OA
BRANCH  14  16
ATOM     16  C   UNL     1      56.328 -38.351 -23.507  1.00  0.00     0.048 C 
ATOM     17  C   UNL     1      55.726 -39.498 -23.154  1.00  0.00     0.012 C 
BRANCH  17  18
ATOM     18  C   UNL     1      55.104 -40.459 -24.088  1.00  0.00    -0.025 A 
ATOM     19  C   UNL     1      53.707 -40.498 -24.202  1.00  0.00     0.012 A 
ATOM     20  C   UNL     1      55.878 -41.401 -24.788  1.00  0.00     0.012 A 
ATOM     21  C   UNL     1      53.093 -41.431 -25.045  1.00  0.00     0.047 A 
ATOM     22  C   UNL     1      55.263 -42.332 -25.630  1.00  0.00     0.047 A 
ATOM     23  C   UNL     1      53.868 -42.347 -25.763  1.00  0.00     0.115 A 
BRANCH  23  24
ATOM     24  O   UNL     1      53.243 -43.269 -26.599  1.00  0.00    -0.508 OA
ATOM     25  H   UNL     1      52.300 -43.122 -26.939  1.00  0.00     0.293 HD
ENDBRANCH  23  24
ENDBRANCH  17  18
ENDBRANCH  14  16
ENDBRANCH   1  14
TORSDOF 8
ENDMDL
MODEL 8
REMARK VINA RESULT:    -5.195     12.185     13.842
REMARK INTER + INTRA:          -9.270
REMARK INTER:                  -6.745
REMARK INTRA:                  -2.524
REMARK UNBOUND:                -1.948
REMARK SMILES O=C(C=Cc1ccc(O)cc1)CC(=O)C=Cc1ccc(O)cc1
REMARK SMILES IDX 12 1 2 2 1 3 3 4 4 5 5 6 6 7 7 8 8 9 11 10 10 11 9 12 13 14
REMARK SMILES IDX 14 15 15 16 16 17 17 18 18 19 23 20 19 21 22 22 20 23 21 24
REMARK H PARENT 9 13 21 25
REMARK Flexibility Score: inf
ROOT
ATOM      1  C   UNL     1      56.854 -40.496 -27.915  1.00  0.00     0.160 C 
ENDROOT
BRANCH   1   2
ATOM      2  C   UNL     1      56.060 -40.348 -29.186  1.00  0.00     0.163 C 
ATOM      3  O   UNL     1      56.418 -39.472 -30.017  1.00  0.00    -0.294 OA
BRANCH   2   4
ATOM      4  C   UNL     1      54.853 -41.150 -29.492  1.00  0.00     0.048 C 
ATOM      5  C   UNL     1      53.602 -40.738 -29.244  1.00  0.00     0.012 C 
BRANCH   5   6
ATOM      6  C   UNL     1      52.396 -41.547 -29.552  1.00  0.00    -0.025 A 
ATOM      7  C   UNL     1      52.468 -42.793 -30.209  1.00  0.00     0.012 A 
ATOM      8  C   UNL     1      51.301 -43.512 -30.490  1.00  0.00     0.047 A 
ATOM      9  C   UNL     1      50.052 -42.997 -30.133  1.00  0.00     0.115 A 
ATOM     10  C   UNL     1      51.134 -41.031 -29.213  1.00  0.00     0.012 A 
ATOM     11  C   UNL     1      49.971 -41.753 -29.496  1.00  0.00     0.047 A 
BRANCH   9  12
ATOM     12  O   UNL     1      48.900 -43.725 -30.418  1.00  0.00    -0.508 OA
ATOM     13  H   UNL     1      48.672 -44.575 -29.917  1.00  0.00     0.293 HD
ENDBRANCH   9  12
ENDBRANCH   5   6
ENDBRANCH   2   4
ENDBRANCH   1   2
BRANCH   1  14
ATOM     14  C   UNL     1      56.179 -39.779 -26.783  1.00  0.00     0.163 C 
ATOM     15  O   UNL     1      55.536 -38.722 -27.021  1.00  0.00    -0.294 OA
BRANCH  14  16
ATOM     16  C   UNL     1      56.354 -40.269 -25.397  1.00  0.00     0.048 C 
ATOM     17  C   UNL     1      55.549 -41.142 -24.771  1.00  0.00     0.012 C 
BRANCH  17  18
ATOM     18  C   UNL     1      54.456 -41.907 -25.407  1.00  0.00    -0.025 A 
ATOM     19  C   UNL     1      53.126 -41.535 -25.164  1.00  0.00     0.012 A 
ATOM     20  C   UNL     1      54.721 -43.058 -26.170  1.00  0.00     0.012 A 
ATOM     21  C   UNL     1      52.075 -42.273 -25.718  1.00  0.00     0.047 A 
ATOM     22  C   UNL     1      53.668 -43.794 -26.724  1.00  0.00     0.047 A 
ATOM     23  C   UNL     1      52.342 -43.400 -26.501  1.00  0.00     0.115 A 
BRANCH  23  24
ATOM     24  O   UNL     1      51.285 -44.124 -27.048  1.00  0.00    -0.508 OA
ATOM     25  H   UNL     1      51.273 -44.386 -28.027  1.00  0.00     0.293 HD
ENDBRANCH  23  24
ENDBRANCH  17  18
ENDBRANCH  14  16
ENDBRANCH   1  14
TORSDOF 8
ENDMDL
MODEL 9
REMARK VINA RESULT:    -5.183     13.192     14.575
REMARK INTER + INTRA:          -9.252
REMARK INTER:                  -7.644
REMARK INTRA:                  -1.608
REMARK UNBOUND:                -1.948
REMARK SMILES O=C(C=Cc1ccc(O)cc1)CC(=O)C=Cc1ccc(O)cc1
REMARK SMILES IDX 12 1 2 2 1 3 3 4 4 5 5 6 6 7 7 8 8 9 11 10 10 11 9 12 13 14
REMARK SMILES IDX 14 15 15 16 16 17 17 18 18 19 23 20 19 21 22 22 20 23 21 24
REMARK H PARENT 9 13 21 25
REMARK Flexibility Score: inf
ROOT
ATOM      1  C   UNL     1      54.138 -41.657 -27.345  1.00  0.00     0.160 C 
ENDROOT
BRANCH   1   2
ATOM      2  C   UNL     1      53.348 -42.887 -26.985  1.00  0.00     0.163 C 
ATOM      3  O   UNL     1      53.317 -43.841 -27.807  1.00  0.00    -0.294 OA
BRANCH   2   4
ATOM      4  C   UNL     1      52.569 -43.019 -25.733  1.00  0.00     0.048 C 
ATOM      5  C   UNL     1      51.999 -41.986 -25.096  1.00  0.00     0.012 C 
BRANCH   5   6
ATOM      6  C   UNL     1      51.221 -42.125 -23.840  1.00  0.00    -0.025 A 
ATOM      7  C   UNL     1      50.291 -43.165 -23.636  1.00  0.00     0.012 A 
ATOM      8  C   UNL     1      49.571 -43.246 -22.440  1.00  0.00     0.047 A 
ATOM      9  C   UNL     1      49.757 -42.289 -21.439  1.00  0.00     0.115 A 
ATOM     10  C   UNL     1      51.387 -41.158 -22.834  1.00  0.00     0.012 A 
ATOM     11  C   UNL     1      50.666 -41.243 -21.640  1.00  0.00     0.047 A 
BRANCH   9  12
ATOM     12  O   UNL     1      49.034 -42.383 -20.252  1.00  0.00    -0.508 OA
ATOM     13  H   UNL     1      48.202 -41.828 -20.093  1.00  0.00     0.293 HD
ENDBRANCH   9  12
ENDBRANCH   5   6
ENDBRANCH   2   4
ENDBRANCH   1   2
BRANCH   1  14
ATOM     14  C   UNL     1      55.591 -41.850 -27.026  1.00  0.00     0.163 C 
ATOM     15  O   UNL     1      56.460 -41.378 -27.807  1.00  0.00    -0.294 OA
BRANCH  14  16
ATOM     16  C   UNL     1      55.984 -42.667 -25.856  1.00  0.00     0.048 C 
ATOM     17  C   UNL     1      56.281 -42.191 -24.636  1.00  0.00     0.012 C 
BRANCH  17  18
ATOM     18  C   UNL     1      56.094 -40.794 -24.194  1.00  0.00    -0.025 A 
ATOM     19  C   UNL     1      57.143 -39.877 -24.357  1.00  0.00     0.012 A 
ATOM     20  C   UNL     1      54.925 -40.391 -23.525  1.00  0.00     0.012 A 
ATOM     21  C   UNL     1      57.006 -38.560 -23.904  1.00  0.00     0.047 A 
ATOM     22  C   UNL     1      54.790 -39.074 -23.073  1.00  0.00     0.047 A 
ATOM     23  C   UNL     1      55.830 -38.155 -23.265  1.00  0.00     0.115 A 
BRANCH  23  24
ATOM     24  O   UNL     1      55.707 -36.841 -22.821  1.00  0.00    -0.508 OA
ATOM     25  H   UNL     1      55.855 -36.594 -21.849  1.00  0.00     0.293 HD
ENDBRANCH  23  24
ENDBRANCH  17  18
ENDBRANCH  14  16
ENDBRANCH   1  14
TORSDOF 8
ENDMDL
