MODEL 1
REMARK VINA RESULT:    -3.790      0.000      0.000
REMARK INTER + INTRA:          -5.753
REMARK INTER:                  -5.341
REMARK INTRA:                  -0.412
REMARK UNBOUND:                -0.412
REMARK SMILES CCCCCCCCC(=O)[O-]
REMARK SMILES IDX 6 1 7 2 8 3 9 4 10 5 11 6 5 7 4 8 3 9 2 10 1 11
REMARK H PARENT
REMARK Flexibility Score: inf
ROOT
ATOM      1  C   UNL     1      27.175  28.317 -19.053  1.00  0.00     0.000 C 
ENDROOT
BRANCH   1   2
ATOM      2  C   UNL     1      27.079  28.084 -17.538  1.00  0.00     0.006 C 
BRANCH   2   3
ATOM      3  C   UNL     1      25.688  27.595 -17.112  1.00  0.00     0.053 C 
BRANCH   3   4
ATOM      4  C   UNL     1      25.191  28.321 -15.900  1.00  0.00     0.041 C 
ATOM      5  O   UNL     1      24.863  27.679 -14.867  1.00  0.00    -0.550 OA
ATOM      6  O   UNL     1      25.058  29.704 -15.921  1.00  0.00    -0.550 OA
ENDBRANCH   3   4
ENDBRANCH   2   3
ENDBRANCH   1   2
BRANCH   1   7
ATOM      7  C   UNL     1      27.749  29.708 -19.359  1.00  0.00     0.000 C 
BRANCH   7   8
ATOM      8  C   UNL     1      27.330  30.769 -18.327  1.00  0.00    -0.000 C 
BRANCH   8   9
ATOM      9  C   UNL     1      28.367  31.881 -18.073  1.00  0.00    -0.000 C 
BRANCH   9  10
ATOM     10  C   UNL     1      29.654  31.420 -17.366  1.00  0.00    -0.003 C 
ATOM     11  C   UNL     1      30.630  32.564 -17.102  1.00  0.00     0.004 C 
ENDBRANCH   9  10
ENDBRANCH   8   9
ENDBRANCH   7   8
ENDBRANCH   1   7
TORSDOF 7
ENDMDL
MODEL 2
REMARK VINA RESULT:    -3.763      1.316      2.400
REMARK INTER + INTRA:          -5.714
REMARK INTER:                  -5.044
REMARK INTRA:                  -0.670
REMARK UNBOUND:                -0.412
REMARK SMILES CCCCCCCCC(=O)[O-]
REMARK SMILES IDX 6 1 7 2 8 3 9 4 10 5 11 6 5 7 4 8 3 9 2 10 1 11
REMARK H PARENT
REMARK Flexibility Score: inf
ROOT
ATOM      1  C   UNL     1      25.136  27.062 -18.966  1.00  0.00     0.000 C 
ENDROOT
BRANCH   1   2
ATOM      2  C   UNL     1      24.561  27.318 -17.566  1.00  0.00     0.006 C 
BRANCH   2   3
ATOM      3  C   UNL     1      25.624  27.838 -16.587  1.00  0.00     0.053 C 
BRANCH   3   4
ATOM      4  C   UNL     1      25.215  29.137 -15.963  1.00  0.00     0.041 C 
ATOM      5  O   UNL     1      25.282  30.206 -16.624  1.00  0.00    -0.550 OA
ATOM      6  O   UNL     1      24.794  29.172 -14.639  1.00  0.00    -0.550 OA
ENDBRANCH   3   4
ENDBRANCH   2   3
ENDBRANCH   1   2
BRANCH   1   7
ATOM      7  C   UNL     1      26.664  27.216 -18.969  1.00  0.00     0.000 C 
BRANCH   7   8
ATOM      8  C   UNL     1      27.168  28.174 -20.063  1.00  0.00    -0.000 C 
BRANCH   8   9
ATOM      9  C   UNL     1      27.428  29.621 -19.597  1.00  0.00    -0.000 C 
BRANCH   9  10
ATOM     10  C   UNL     1      28.286  29.749 -18.326  1.00  0.00    -0.003 C 
ATOM     11  C   UNL     1      28.562  31.200 -17.938  1.00  0.00     0.004 C 
ENDBRANCH   9  10
ENDBRANCH   8   9
ENDBRANCH   7   8
ENDBRANCH   1   7
TORSDOF 7
ENDMDL
MODEL 3
REMARK VINA RESULT:    -3.655      2.697      4.803
REMARK INTER + INTRA:          -5.563
REMARK INTER:                  -4.930
REMARK INTRA:                  -0.633
REMARK UNBOUND:                -0.412
REMARK SMILES CCCCCCCCC(=O)[O-]
REMARK SMILES IDX 6 1 7 2 8 3 9 4 10 5 11 6 5 7 4 8 3 9 2 10 1 11
REMARK H PARENT
REMARK Flexibility Score: inf
ROOT
ATOM      1  C   UNL     1      27.573  28.769 -19.490  1.00  0.00     0.000 C 
ENDROOT
BRANCH   1   2
ATOM      2  C   UNL     1      27.164  30.244 -19.371  1.00  0.00     0.006 C 
BRANCH   2   3
ATOM      3  C   UNL     1      27.403  30.803 -17.962  1.00  0.00     0.053 C 
BRANCH   3   4
ATOM      4  C   UNL     1      28.679  31.583 -17.883  1.00  0.00     0.041 C 
ATOM      5  O   UNL     1      29.774  30.989 -17.702  1.00  0.00    -0.550 OA
ATOM      6  O   UNL     1      28.655  32.969 -17.975  1.00  0.00    -0.550 OA
ENDBRANCH   3   4
ENDBRANCH   2   3
ENDBRANCH   1   2
BRANCH   1   7
ATOM      7  C   UNL     1      27.212  27.995 -18.214  1.00  0.00     0.000 C 
BRANCH   7   8
ATOM      8  C   UNL     1      25.944  27.137 -18.372  1.00  0.00    -0.000 C 
BRANCH   8   9
ATOM      9  C   UNL     1      24.805  27.464 -17.384  1.00  0.00    -0.000 C 
BRANCH   9  10
ATOM     10  C   UNL     1      25.259  27.743 -15.941  1.00  0.00    -0.003 C 
ATOM     11  C   UNL     1      24.955  29.169 -15.487  1.00  0.00     0.004 C 
ENDBRANCH   9  10
ENDBRANCH   8   9
ENDBRANCH   7   8
ENDBRANCH   1   7
TORSDOF 7
ENDMDL
MODEL 4
REMARK VINA RESULT:    -3.593     13.710     15.027
REMARK INTER + INTRA:          -5.475
REMARK INTER:                  -4.995
REMARK INTRA:                  -0.480
REMARK UNBOUND:                -0.412
REMARK SMILES CCCCCCCCC(=O)[O-]
REMARK SMILES IDX 6 1 7 2 8 3 9 4 10 5 11 6 5 7 4 8 3 9 2 10 1 11
REMARK H PARENT
REMARK Flexibility Score: inf
ROOT
ATOM      1  C   UNL     1      33.521  14.110 -16.087  1.00  0.00     0.000 C 
ENDROOT
BRANCH   1   2
ATOM      2  C   UNL     1      32.196  14.368 -16.818  1.00  0.00     0.006 C 
BRANCH   2   3
ATOM      3  C   UNL     1      30.981  14.229 -15.889  1.00  0.00     0.053 C 
BRANCH   3   4
ATOM      4  C   UNL     1      29.844  15.100 -16.327  1.00  0.00     0.041 C 
ATOM      5  O   UNL     1      29.623  15.284 -17.553  1.00  0.00    -0.550 OA
ATOM      6  O   UNL     1      29.049  15.735 -15.382  1.00  0.00    -0.550 OA
ENDBRANCH   3   4
ENDBRANCH   2   3
ENDBRANCH   1   2
BRANCH   1   7
ATOM      7  C   UNL     1      34.661  14.927 -16.711  1.00  0.00     0.000 C 
BRANCH   7   8
ATOM      8  C   UNL     1      34.201  15.777 -17.909  1.00  0.00    -0.000 C 
BRANCH   8   9
ATOM      9  C   UNL     1      34.665  17.247 -17.885  1.00  0.00    -0.000 C 
BRANCH   9  10
ATOM     10  C   UNL     1      33.676  18.250 -18.503  1.00  0.00    -0.003 C 
ATOM     11  C   UNL     1      32.301  17.642 -18.772  1.00  0.00     0.004 C 
ENDBRANCH   9  10
ENDBRANCH   8   9
ENDBRANCH   7   8
ENDBRANCH   1   7
TORSDOF 7
ENDMDL
MODEL 5
REMARK VINA RESULT:    -3.586     22.195     23.378
REMARK INTER + INTRA:          -5.465
REMARK INTER:                  -5.124
REMARK INTRA:                  -0.341
REMARK UNBOUND:                -0.412
REMARK SMILES CCCCCCCCC(=O)[O-]
REMARK SMILES IDX 6 1 7 2 8 3 9 4 10 5 11 6 5 7 4 8 3 9 2 10 1 11
REMARK H PARENT
REMARK Flexibility Score: inf
ROOT
ATOM      1  C   UNL     1      35.364  15.105  -3.624  1.00  0.00     0.000 C 
ENDROOT
BRANCH   1   2
ATOM      2  C   UNL     1      36.461  14.687  -4.614  1.00  0.00     0.006 C 
BRANCH   2   3
ATOM      3  C   UNL     1      37.477  13.725  -3.983  1.00  0.00     0.053 C 
BRANCH   3   4
ATOM      4  C   UNL     1      38.285  14.393  -2.913  1.00  0.00     0.041 C 
ATOM      5  O   UNL     1      39.189  15.213  -3.221  1.00  0.00    -0.550 OA
ATOM      6  O   UNL     1      38.063  14.084  -1.577  1.00  0.00    -0.550 OA
ENDBRANCH   3   4
ENDBRANCH   2   3
ENDBRANCH   1   2
BRANCH   1   7
ATOM      7  C   UNL     1      34.575  13.884  -3.131  1.00  0.00     0.000 C 
BRANCH   7   8
ATOM      8  C   UNL     1      33.796  14.158  -1.832  1.00  0.00    -0.000 C 
BRANCH   8   9
ATOM      9  C   UNL     1      32.485  13.361  -1.673  1.00  0.00    -0.000 C 
BRANCH   9  10
ATOM     10  C   UNL     1      31.503  13.928  -0.634  1.00  0.00    -0.003 C 
ATOM     11  C   UNL     1      31.730  15.410  -0.346  1.00  0.00     0.004 C 
ENDBRANCH   9  10
ENDBRANCH   8   9
ENDBRANCH   7   8
ENDBRANCH   1   7
TORSDOF 7
ENDMDL
MODEL 6
REMARK VINA RESULT:    -3.472      2.081      4.345
REMARK INTER + INTRA:          -5.304
REMARK INTER:                  -4.507
REMARK INTRA:                  -0.797
REMARK UNBOUND:                -0.412
REMARK SMILES CCCCCCCCC(=O)[O-]
REMARK SMILES IDX 6 1 7 2 8 3 9 4 10 5 11 6 5 7 4 8 3 9 2 10 1 11
REMARK H PARENT
REMARK Flexibility Score: inf
ROOT
ATOM      1  C   UNL     1      27.496  29.547 -18.193  1.00  0.00     0.000 C 
ENDROOT
BRANCH   1   2
ATOM      2  C   UNL     1      26.406  30.409 -17.539  1.00  0.00     0.006 C 
BRANCH   2   3
ATOM      3  C   UNL     1      25.117  29.617 -17.277  1.00  0.00     0.053 C 
BRANCH   3   4
ATOM      4  C   UNL     1      25.207  28.807 -16.021  1.00  0.00     0.041 C 
ATOM      5  O   UNL     1      24.969  29.339 -14.905  1.00  0.00    -0.550 OA
ATOM      6  O   UNL     1      25.589  27.472 -16.078  1.00  0.00    -0.550 OA
ENDBRANCH   3   4
ENDBRANCH   2   3
ENDBRANCH   1   2
BRANCH   1   7
ATOM      7  C   UNL     1      26.997  28.938 -19.511  1.00  0.00     0.000 C 
BRANCH   7   8
ATOM      8  C   UNL     1      27.355  27.449 -19.656  1.00  0.00    -0.000 C 
BRANCH   8   9
ATOM      9  C   UNL     1      26.196  26.467 -19.385  1.00  0.00    -0.000 C 
BRANCH   9  10
ATOM     10  C   UNL     1      24.824  26.920 -19.914  1.00  0.00    -0.003 C 
ATOM     11  C   UNL     1      23.684  26.626 -18.942  1.00  0.00     0.004 C 
ENDBRANCH   9  10
ENDBRANCH   8   9
ENDBRANCH   7   8
ENDBRANCH   1   7
TORSDOF 7
ENDMDL
MODEL 7
REMARK VINA RESULT:    -3.470     13.836     15.558
REMARK INTER + INTRA:          -5.302
REMARK INTER:                  -4.806
REMARK INTRA:                  -0.496
REMARK UNBOUND:                -0.412
REMARK SMILES CCCCCCCCC(=O)[O-]
REMARK SMILES IDX 6 1 7 2 8 3 9 4 10 5 11 6 5 7 4 8 3 9 2 10 1 11
REMARK H PARENT
REMARK Flexibility Score: inf
ROOT
ATOM      1  C   UNL     1      34.654  14.876 -16.782  1.00  0.00     0.000 C 
ENDROOT
BRANCH   1   2
ATOM      2  C   UNL     1      33.987  15.678 -17.908  1.00  0.00     0.006 C 
BRANCH   2   3
ATOM      3  C   UNL     1      34.462  17.138 -17.943  1.00  0.00     0.053 C 
BRANCH   3   4
ATOM      4  C   UNL     1      33.465  18.030 -18.617  1.00  0.00     0.041 C 
ATOM      5  O   UNL     1      33.327  19.223 -18.240  1.00  0.00    -0.550 OA
ATOM      6  O   UNL     1      32.665  17.534 -19.639  1.00  0.00    -0.550 OA
ENDBRANCH   3   4
ENDBRANCH   2   3
ENDBRANCH   1   2
BRANCH   1   7
ATOM      7  C   UNL     1      33.614  14.062 -15.998  1.00  0.00     0.000 C 
BRANCH   7   8
ATOM      8  C   UNL     1      32.227  14.062 -16.664  1.00  0.00    -0.000 C 
BRANCH   8   9
ATOM      9  C   UNL     1      31.035  14.191 -15.694  1.00  0.00    -0.000 C 
BRANCH   9  10
ATOM     10  C   UNL     1      29.873  15.060 -16.206  1.00  0.00    -0.003 C 
ATOM     11  C   UNL     1      30.158  15.695 -17.565  1.00  0.00     0.004 C 
ENDBRANCH   9  10
ENDBRANCH   8   9
ENDBRANCH   7   8
ENDBRANCH   1   7
TORSDOF 7
ENDMDL
MODEL 8
REMARK VINA RESULT:    -3.438      2.676      5.005
REMARK INTER + INTRA:          -5.257
REMARK INTER:                  -4.494
REMARK INTRA:                  -0.763
REMARK UNBOUND:                -0.412
REMARK SMILES CCCCCCCCC(=O)[O-]
REMARK SMILES IDX 6 1 7 2 8 3 9 4 10 5 11 6 5 7 4 8 3 9 2 10 1 11
REMARK H PARENT
REMARK Flexibility Score: inf
ROOT
ATOM      1  C   UNL     1      24.685  30.115 -17.820  1.00  0.00     0.000 C 
ENDROOT
BRANCH   1   2
ATOM      2  C   UNL     1      25.754  31.063 -18.383  1.00  0.00     0.006 C 
BRANCH   2   3
ATOM      3  C   UNL     1      26.989  31.153 -17.476  1.00  0.00     0.053 C 
BRANCH   3   4
ATOM      4  C   UNL     1      28.245  30.799 -18.210  1.00  0.00     0.041 C 
ATOM      5  O   UNL     1      28.197  30.052 -19.223  1.00  0.00    -0.550 OA
ATOM      6  O   UNL     1      29.473  31.265 -17.757  1.00  0.00    -0.550 OA
ENDBRANCH   3   4
ENDBRANCH   2   3
ENDBRANCH   1   2
BRANCH   1   7
ATOM      7  C   UNL     1      25.162  29.466 -16.512  1.00  0.00     0.000 C 
BRANCH   7   8
ATOM      8  C   UNL     1      25.317  27.939 -16.623  1.00  0.00    -0.000 C 
BRANCH   8   9
ATOM      9  C   UNL     1      26.584  27.461 -17.361  1.00  0.00    -0.000 C 
BRANCH   9  10
ATOM     10  C   UNL     1      26.359  27.016 -18.816  1.00  0.00    -0.003 C 
ATOM     11  C   UNL     1      24.900  26.677 -19.116  1.00  0.00     0.004 C 
ENDBRANCH   9  10
ENDBRANCH   8   9
ENDBRANCH   7   8
ENDBRANCH   1   7
TORSDOF 7
ENDMDL
MODEL 9
REMARK VINA RESULT:    -3.370     22.032     22.811
REMARK INTER + INTRA:          -5.161
REMARK INTER:                  -4.743
REMARK INTRA:                  -0.418
REMARK UNBOUND:                -0.412
REMARK SMILES CCCCCCCCC(=O)[O-]
REMARK SMILES IDX 6 1 7 2 8 3 9 4 10 5 11 6 5 7 4 8 3 9 2 10 1 11
REMARK H PARENT
REMARK Flexibility Score: inf
ROOT
ATOM      1  C   UNL     1      34.619  14.597  -2.858  1.00  0.00     0.000 C 
ENDROOT
BRANCH   1   2
ATOM      2  C   UNL     1      34.005  14.540  -1.452  1.00  0.00     0.006 C 
BRANCH   2   3
ATOM      3  C   UNL     1      32.873  13.508  -1.352  1.00  0.00     0.053 C 
BRANCH   3   4
ATOM      4  C   UNL     1      31.681  14.059  -0.633  1.00  0.00     0.041 C 
ATOM      5  O   UNL     1      30.820  13.281  -0.145  1.00  0.00    -0.550 OA
ATOM      6  O   UNL     1      31.501  15.433  -0.532  1.00  0.00    -0.550 OA
ENDBRANCH   3   4
ENDBRANCH   2   3
ENDBRANCH   1   2
BRANCH   1   7
ATOM      7  C   UNL     1      34.289  13.326  -3.653  1.00  0.00     0.000 C 
BRANCH   7   8
ATOM      8  C   UNL     1      35.034  13.250  -4.998  1.00  0.00    -0.000 C 
BRANCH   8   9
ATOM      9  C   UNL     1      36.392  13.980  -5.036  1.00  0.00    -0.000 C 
BRANCH   9  10
ATOM     10  C   UNL     1      37.555  13.223  -4.370  1.00  0.00    -0.003 C 
ATOM     11  C   UNL     1      38.313  14.073  -3.353  1.00  0.00     0.004 C 
ENDBRANCH   9  10
ENDBRANCH   8   9
ENDBRANCH   7   8
ENDBRANCH   1   7
TORSDOF 7
ENDMDL
