MODEL 1
REMARK VINA RESULT:    -5.715      0.000      0.000
REMARK INTER + INTRA:          -5.715
REMARK INTER:                  -5.715
REMARK INTRA:                   0.000
REMARK UNBOUND:                 0.000
REMARK SMILES C=C1CCC[C@@]2(C)CC(=O)C(=C(C)C)C[C@@H]12
REMARK SMILES IDX 13 1 12 2 11 3 15 4 16 5 2 6 1 7 3 8 4 9 5 10 6 11 8 12 9 13
REMARK SMILES IDX 10 14 7 15 14 16
REMARK H PARENT
REMARK Flexibility Score: inf
ROOT
ATOM      1  C   UNL     1     124.706 119.723 100.986  1.00  0.00     0.039 C 
ATOM      2  C   UNL     1     125.338 121.039 100.594  1.00  0.00    -0.070 C 
ATOM      3  C   UNL     1     126.687 121.159 100.428  1.00  0.00    -0.006 C 
ATOM      4  C   UNL     1     127.334 122.462 100.002  1.00  0.00     0.047 C 
ATOM      5  C   UNL     1     128.580 122.264  99.101  1.00  0.00     0.025 C 
ATOM      6  C   UNL     1     129.280 123.603  98.937  1.00  0.00    -0.073 C 
ATOM      7  C   UNL     1     129.073 124.352  97.843  1.00  0.00     0.008 C 
ATOM      8  C   UNL     1     130.087 124.148 100.097  1.00  0.00     0.031 C 
ATOM      9  C   UNL     1     131.012 123.079 100.695  1.00  0.00     0.005 C 
ATOM     10  C   UNL     1     130.297 121.734 100.923  1.00  0.00     0.008 C 
ATOM     11  C   UNL     1     129.589 121.201  99.641  1.00  0.00    -0.018 C 
ATOM     12  C   UNL     1     128.854 119.870  99.953  1.00  0.00     0.088 C 
ATOM     13  C   UNL     1     127.626 120.071 100.781  1.00  0.00     0.159 C 
ATOM     14  O   UNL     1     127.414 119.314 101.767  1.00  0.00    -0.295 OA
ATOM     15  C   UNL     1     130.648 120.883  98.550  1.00  0.00     0.012 C 
ATOM     16  C   UNL     1     124.411 122.207 100.356  1.00  0.00     0.039 C 
ENDROOT
TORSDOF 0
ENDMDL
MODEL 2
REMARK VINA RESULT:    -5.678      2.737      4.949
REMARK INTER + INTRA:          -5.678
REMARK INTER:                  -5.678
REMARK INTRA:                   0.000
REMARK UNBOUND:                 0.000
REMARK SMILES C=C1CCC[C@@]2(C)CC(=O)C(=C(C)C)C[C@@H]12
REMARK SMILES IDX 13 1 12 2 11 3 15 4 16 5 2 6 1 7 3 8 4 9 5 10 6 11 8 12 9 13
REMARK SMILES IDX 10 14 7 15 14 16
REMARK H PARENT
REMARK Flexibility Score: inf
ROOT
ATOM      1  C   UNL     1     132.278 118.606  98.812  1.00  0.00     0.039 C 
ATOM      2  C   UNL     1     132.628 120.059  98.585  1.00  0.00    -0.070 C 
ATOM      3  C   UNL     1     131.703 121.047  98.749  1.00  0.00    -0.006 C 
ATOM      4  C   UNL     1     132.046 122.512  98.559  1.00  0.00     0.047 C 
ATOM      5  C   UNL     1     131.271 123.454  99.516  1.00  0.00     0.025 C 
ATOM      6  C   UNL     1     131.505 124.891  99.079  1.00  0.00    -0.073 C 
ATOM      7  C   UNL     1     132.431 125.648  99.689  1.00  0.00     0.008 C 
ATOM      8  C   UNL     1     130.792 125.402  97.845  1.00  0.00     0.031 C 
ATOM      9  C   UNL     1     129.301 125.036  97.861  1.00  0.00     0.005 C 
ATOM     10  C   UNL     1     129.055 123.564  98.242  1.00  0.00     0.008 C 
ATOM     11  C   UNL     1     129.737 123.165  99.585  1.00  0.00    -0.018 C 
ATOM     12  C   UNL     1     129.486 121.663  99.884  1.00  0.00     0.088 C 
ATOM     13  C   UNL     1     130.272 120.759  98.992  1.00  0.00     0.159 C 
ATOM     14  O   UNL     1     129.703 119.768  98.458  1.00  0.00    -0.295 OA
ATOM     15  C   UNL     1     129.106 123.968 100.755  1.00  0.00     0.012 C 
ATOM     16  C   UNL     1     134.056 120.374  98.204  1.00  0.00     0.039 C 
ENDROOT
TORSDOF 0
ENDMDL
MODEL 3
REMARK VINA RESULT:    -5.492      2.895      4.898
REMARK INTER + INTRA:          -5.492
REMARK INTER:                  -5.492
REMARK INTRA:                   0.000
REMARK UNBOUND:                 0.000
REMARK SMILES C=C1CCC[C@@]2(C)CC(=O)C(=C(C)C)C[C@@H]12
REMARK SMILES IDX 13 1 12 2 11 3 15 4 16 5 2 6 1 7 3 8 4 9 5 10 6 11 8 12 9 13
REMARK SMILES IDX 10 14 7 15 14 16
REMARK H PARENT
REMARK Flexibility Score: inf
ROOT
ATOM      1  C   UNL     1     129.282 125.284  97.727  1.00  0.00     0.039 C 
ATOM      2  C   UNL     1     130.540 124.589  98.196  1.00  0.00    -0.070 C 
ATOM      3  C   UNL     1     130.520 123.295  98.626  1.00  0.00    -0.006 C 
ATOM      4  C   UNL     1     131.777 122.572  99.067  1.00  0.00     0.047 C 
ATOM      5  C   UNL     1     131.772 121.062  98.719  1.00  0.00     0.025 C 
ATOM      6  C   UNL     1     132.952 120.399  99.412  1.00  0.00    -0.073 C 
ATOM      7  C   UNL     1     134.093 120.166  98.745  1.00  0.00     0.008 C 
ATOM      8  C   UNL     1     132.875 120.153 100.904  1.00  0.00     0.031 C 
ATOM      9  C   UNL     1     131.535 119.518 101.304  1.00  0.00     0.005 C 
ATOM     10  C   UNL     1     130.327 120.221 100.656  1.00  0.00     0.008 C 
ATOM     11  C   UNL     1     130.449 120.327  99.106  1.00  0.00    -0.018 C 
ATOM     12  C   UNL     1     129.225 121.082  98.526  1.00  0.00     0.088 C 
ATOM     13  C   UNL     1     129.258 122.547  98.822  1.00  0.00     0.159 C 
ATOM     14  O   UNL     1     128.213 123.119  99.236  1.00  0.00    -0.295 OA
ATOM     15  C   UNL     1     130.438 118.906  98.480  1.00  0.00     0.012 C 
ATOM     16  C   UNL     1     131.828 125.376  98.133  1.00  0.00     0.039 C 
ENDROOT
TORSDOF 0
ENDMDL
MODEL 4
REMARK VINA RESULT:    -5.484     11.646     13.835
REMARK INTER + INTRA:          -5.484
REMARK INTER:                  -5.484
REMARK INTRA:                   0.000
REMARK UNBOUND:                 0.000
REMARK SMILES C=C1CCC[C@@]2(C)CC(=O)C(=C(C)C)C[C@@H]12
REMARK SMILES IDX 13 1 12 2 11 3 15 4 16 5 2 6 1 7 3 8 4 9 5 10 6 11 8 12 9 13
REMARK SMILES IDX 10 14 7 15 14 16
REMARK H PARENT
REMARK Flexibility Score: inf
ROOT
ATOM      1  C   UNL     1     114.546 127.099 109.817  1.00  0.00     0.039 C 
ATOM      2  C   UNL     1     116.025 127.399 109.738  1.00  0.00    -0.070 C 
ATOM      3  C   UNL     1     116.877 126.598 109.037  1.00  0.00    -0.006 C 
ATOM      4  C   UNL     1     118.358 126.903 108.918  1.00  0.00     0.047 C 
ATOM      5  C   UNL     1     118.963 126.488 107.552  1.00  0.00     0.025 C 
ATOM      6  C   UNL     1     120.476 126.613 107.633  1.00  0.00    -0.073 C 
ATOM      7  C   UNL     1     121.097 127.702 107.154  1.00  0.00     0.008 C 
ATOM      8  C   UNL     1     121.253 125.566 108.403  1.00  0.00     0.031 C 
ATOM      9  C   UNL     1     120.807 124.145 108.033  1.00  0.00     0.005 C 
ATOM     10  C   UNL     1     119.275 123.990 108.008  1.00  0.00     0.008 C 
ATOM     11  C   UNL     1     118.575 125.044 107.100  1.00  0.00    -0.018 C 
ATOM     12  C   UNL     1     117.035 124.858 107.157  1.00  0.00     0.088 C 
ATOM     13  C   UNL     1     116.449 125.305 108.457  1.00  0.00     0.159 C 
ATOM     14  O   UNL     1     115.603 124.572 109.039  1.00  0.00    -0.295 OA
ATOM     15  C   UNL     1     118.998 124.828 105.621  1.00  0.00     0.012 C 
ATOM     16  C   UNL     1     116.516 128.646 110.436  1.00  0.00     0.039 C 
ENDROOT
TORSDOF 0
ENDMDL
MODEL 5
REMARK VINA RESULT:    -5.385     10.976     14.335
REMARK INTER + INTRA:          -5.385
REMARK INTER:                  -5.385
REMARK INTRA:                   0.000
REMARK UNBOUND:                 0.000
REMARK SMILES C=C1CCC[C@@]2(C)CC(=O)C(=C(C)C)C[C@@H]12
REMARK SMILES IDX 13 1 12 2 11 3 15 4 16 5 2 6 1 7 3 8 4 9 5 10 6 11 8 12 9 13
REMARK SMILES IDX 10 14 7 15 14 16
REMARK H PARENT
REMARK Flexibility Score: inf
ROOT
ATOM      1  C   UNL     1     121.300 125.294 105.693  1.00  0.00     0.039 C 
ATOM      2  C   UNL     1     120.433 126.138 106.599  1.00  0.00    -0.070 C 
ATOM      3  C   UNL     1     119.174 125.746 106.946  1.00  0.00    -0.006 C 
ATOM      4  C   UNL     1     118.303 126.562 107.881  1.00  0.00     0.047 C 
ATOM      5  C   UNL     1     117.388 125.695 108.784  1.00  0.00     0.025 C 
ATOM      6  C   UNL     1     116.401 126.607 109.494  1.00  0.00    -0.073 C 
ATOM      7  C   UNL     1     116.629 127.010 110.754  1.00  0.00     0.008 C 
ATOM      8  C   UNL     1     115.242 127.179 108.706  1.00  0.00     0.031 C 
ATOM      9  C   UNL     1     114.538 126.100 107.871  1.00  0.00     0.005 C 
ATOM     10  C   UNL     1     115.527 125.208 107.097  1.00  0.00     0.008 C 
ATOM     11  C   UNL     1     116.617 124.576 108.014  1.00  0.00    -0.018 C 
ATOM     12  C   UNL     1     117.602 123.729 107.166  1.00  0.00     0.088 C 
ATOM     13  C   UNL     1     118.515 124.570 106.334  1.00  0.00     0.159 C 
ATOM     14  O   UNL     1     118.706 124.267 105.125  1.00  0.00    -0.295 OA
ATOM     15  C   UNL     1     115.952 123.607 109.030  1.00  0.00     0.012 C 
ATOM     16  C   UNL     1     121.033 127.416 107.136  1.00  0.00     0.039 C 
ENDROOT
TORSDOF 0
ENDMDL
MODEL 6
REMARK VINA RESULT:    -5.330     11.346     13.948
REMARK INTER + INTRA:          -5.330
REMARK INTER:                  -5.330
REMARK INTRA:                   0.000
REMARK UNBOUND:                 0.000
REMARK SMILES C=C1CCC[C@@]2(C)CC(=O)C(=C(C)C)C[C@@H]12
REMARK SMILES IDX 13 1 12 2 11 3 15 4 16 5 2 6 1 7 3 8 4 9 5 10 6 11 8 12 9 13
REMARK SMILES IDX 10 14 7 15 14 16
REMARK H PARENT
REMARK Flexibility Score: inf
ROOT
ATOM      1  C   UNL     1     114.217 127.071 109.314  1.00  0.00     0.039 C 
ATOM      2  C   UNL     1     115.058 126.517 108.188  1.00  0.00    -0.070 C 
ATOM      3  C   UNL     1     116.408 126.368 108.314  1.00  0.00    -0.006 C 
ATOM      4  C   UNL     1     117.262 125.781 107.207  1.00  0.00     0.047 C 
ATOM      5  C   UNL     1     118.459 124.947 107.731  1.00  0.00     0.025 C 
ATOM      6  C   UNL     1     119.371 124.617 106.561  1.00  0.00    -0.073 C 
ATOM      7  C   UNL     1     119.292 123.425 105.949  1.00  0.00     0.008 C 
ATOM      8  C   UNL     1     120.256 125.709 105.997  1.00  0.00     0.031 C 
ATOM      9  C   UNL     1     120.991 126.471 107.109  1.00  0.00     0.005 C 
ATOM     10  C   UNL     1     120.063 126.865 108.273  1.00  0.00     0.008 C 
ATOM     11  C   UNL     1     119.278 125.653 108.858  1.00  0.00    -0.018 C 
ATOM     12  C   UNL     1     118.333 126.128 109.994  1.00  0.00     0.088 C 
ATOM     13  C   UNL     1     117.155 126.890 109.480  1.00  0.00     0.159 C 
ATOM     14  O   UNL     1     116.819 127.966 110.047  1.00  0.00    -0.295 OA
ATOM     15  C   UNL     1     120.271 124.642 109.495  1.00  0.00     0.012 C 
ATOM     16  C   UNL     1     114.337 126.097 106.928  1.00  0.00     0.039 C 
ENDROOT
TORSDOF 0
ENDMDL
MODEL 7
REMARK VINA RESULT:    -5.300      3.077      5.465
REMARK INTER + INTRA:          -5.300
REMARK INTER:                  -5.300
REMARK INTRA:                   0.000
REMARK UNBOUND:                 0.000
REMARK SMILES C=C1CCC[C@@]2(C)CC(=O)C(=C(C)C)C[C@@H]12
REMARK SMILES IDX 13 1 12 2 11 3 15 4 16 5 2 6 1 7 3 8 4 9 5 10 6 11 8 12 9 13
REMARK SMILES IDX 10 14 7 15 14 16
REMARK H PARENT
REMARK Flexibility Score: inf
ROOT
ATOM      1  C   UNL     1     131.665 125.948  97.910  1.00  0.00     0.039 C 
ATOM      2  C   UNL     1     130.693 124.797  98.029  1.00  0.00    -0.070 C 
ATOM      3  C   UNL     1     131.107 123.551  98.400  1.00  0.00    -0.006 C 
ATOM      4  C   UNL     1     130.141 122.394  98.558  1.00  0.00     0.047 C 
ATOM      5  C   UNL     1     130.536 121.413  99.692  1.00  0.00     0.025 C 
ATOM      6  C   UNL     1     129.649 120.182  99.601  1.00  0.00    -0.073 C 
ATOM      7  C   UNL     1     128.567 120.061 100.385  1.00  0.00     0.008 C 
ATOM      8  C   UNL     1     129.916 119.172  98.505  1.00  0.00     0.031 C 
ATOM      9  C   UNL     1     131.407 118.821  98.409  1.00  0.00     0.005 C 
ATOM     10  C   UNL     1     132.314 120.066  98.438  1.00  0.00     0.008 C 
ATOM     11  C   UNL     1     132.039 120.987  99.664  1.00  0.00    -0.018 C 
ATOM     12  C   UNL     1     132.953 122.239  99.606  1.00  0.00     0.088 C 
ATOM     13  C   UNL     1     132.539 123.205  98.544  1.00  0.00     0.159 C 
ATOM     14  O   UNL     1     133.415 123.705  97.787  1.00  0.00    -0.295 OA
ATOM     15  C   UNL     1     132.392 120.234 100.977  1.00  0.00     0.012 C 
ATOM     16  C   UNL     1     129.236 125.091  97.757  1.00  0.00     0.039 C 
ENDROOT
TORSDOF 0
ENDMDL
MODEL 8
REMARK VINA RESULT:    -5.292      8.663     10.562
REMARK INTER + INTRA:          -5.292
REMARK INTER:                  -5.292
REMARK INTRA:                   0.000
REMARK UNBOUND:                 0.000
REMARK SMILES C=C1CCC[C@@]2(C)CC(=O)C(=C(C)C)C[C@@H]12
REMARK SMILES IDX 13 1 12 2 11 3 15 4 16 5 2 6 1 7 3 8 4 9 5 10 6 11 8 12 9 13
REMARK SMILES IDX 10 14 7 15 14 16
REMARK H PARENT
REMARK Flexibility Score: inf
ROOT
ATOM      1  C   UNL     1     133.863 125.677 110.525  1.00  0.00     0.039 C 
ATOM      2  C   UNL     1     133.213 125.728 109.162  1.00  0.00    -0.070 C 
ATOM      3  C   UNL     1     131.859 125.666 109.016  1.00  0.00    -0.006 C 
ATOM      4  C   UNL     1     131.189 125.751 107.659  1.00  0.00     0.047 C 
ATOM      5  C   UNL     1     129.819 126.476 107.693  1.00  0.00     0.025 C 
ATOM      6  C   UNL     1     129.137 126.290 106.348  1.00  0.00    -0.073 C 
ATOM      7  C   UNL     1     129.199 127.250 105.412  1.00  0.00     0.008 C 
ATOM      8  C   UNL     1     128.523 124.945 106.023  1.00  0.00     0.031 C 
ATOM      9  C   UNL     1     127.670 124.416 107.184  1.00  0.00     0.005 C 
ATOM     10  C   UNL     1     128.377 124.543 108.547  1.00  0.00     0.008 C 
ATOM     11  C   UNL     1     128.874 125.990 108.838  1.00  0.00    -0.018 C 
ATOM     12  C   UNL     1     129.613 126.036 110.201  1.00  0.00     0.088 C 
ATOM     13  C   UNL     1     130.954 125.378 110.151  1.00  0.00     0.159 C 
ATOM     14  O   UNL     1     131.291 124.587 111.074  1.00  0.00    -0.295 OA
ATOM     15  C   UNL     1     127.659 126.951 108.955  1.00  0.00     0.012 C 
ATOM     16  C   UNL     1     134.125 125.889 107.967  1.00  0.00     0.039 C 
ENDROOT
TORSDOF 0
ENDMDL
MODEL 9
REMARK VINA RESULT:    -5.182     10.579     13.904
REMARK INTER + INTRA:          -5.182
REMARK INTER:                  -5.182
REMARK INTRA:                   0.000
REMARK UNBOUND:                 0.000
REMARK SMILES C=C1CCC[C@@]2(C)CC(=O)C(=C(C)C)C[C@@H]12
REMARK SMILES IDX 13 1 12 2 11 3 15 4 16 5 2 6 1 7 3 8 4 9 5 10 6 11 8 12 9 13
REMARK SMILES IDX 10 14 7 15 14 16
REMARK H PARENT
REMARK Flexibility Score: inf
ROOT
ATOM      1  C   UNL     1     121.413 124.659 105.298  1.00  0.00     0.039 C 
ATOM      2  C   UNL     1     119.913 124.515 105.423  1.00  0.00    -0.070 C 
ATOM      3  C   UNL     1     119.252 124.912 106.548  1.00  0.00    -0.006 C 
ATOM      4  C   UNL     1     117.745 124.807 106.676  1.00  0.00     0.047 C 
ATOM      5  C   UNL     1     117.117 125.955 107.507  1.00  0.00     0.025 C 
ATOM      6  C   UNL     1     115.658 125.622 107.773  1.00  0.00    -0.073 C 
ATOM      7  C   UNL     1     114.687 126.148 107.010  1.00  0.00     0.008 C 
ATOM      8  C   UNL     1     115.330 124.566 108.807  1.00  0.00     0.031 C 
ATOM      9  C   UNL     1     116.122 124.779 110.105  1.00  0.00     0.005 C 
ATOM     10  C   UNL     1     117.616 125.057 109.851  1.00  0.00     0.008 C 
ATOM     11  C   UNL     1     117.851 126.234 108.857  1.00  0.00    -0.018 C 
ATOM     12  C   UNL     1     119.371 126.429 108.613  1.00  0.00     0.088 C 
ATOM     13  C   UNL     1     119.962 125.346 107.771  1.00  0.00     0.159 C 
ATOM     14  O   UNL     1     121.054 124.818 108.118  1.00  0.00    -0.295 OA
ATOM     15  C   UNL     1     117.323 127.557 109.476  1.00  0.00     0.012 C 
ATOM     16  C   UNL     1     119.172 123.948 104.235  1.00  0.00     0.039 C 
ENDROOT
TORSDOF 0
ENDMDL
