MODEL 1
REMARK VINA RESULT:    -7.483      0.000      0.000
REMARK INTER + INTRA:         -13.167
REMARK INTER:                 -11.202
REMARK INTRA:                  -1.965
REMARK UNBOUND:                -1.965
REMARK SMILES C=C(CC[C@H](C(=O)[O-])[C@H]1[C@@H](O)C[C@]2(C)C3=C(CC[C@]12C)[C@@]1(C)CC[C@H](OC(C)=O)C(C)(C)[C@@H]1CC3)C(C)C
REMARK SMILES IDX 4 1 5 2 6 3 7 4 8 5 9 6 10 7 19 8 12 9 13 10 18 11 20 12
REMARK SMILES IDX 14 13 15 14 17 15 16 16 35 17 21 18 34 19 33 20 23 21 22 22
REMARK SMILES IDX 30 23 24 24 25 25 31 26 32 27 11 28 26 30 27 31 29 32 28 33
REMARK SMILES IDX 3 34 2 35 1 36 36 37 37 38 38 39
REMARK H PARENT 11 29
REMARK Flexibility Score: inf
ROOT
ATOM      1  C   UNL     1      15.003 -34.336  20.660  1.00  0.00     0.014 C 
ENDROOT
BRANCH   1   2
ATOM      2  C   UNL     1      14.993 -33.118  21.627  1.00  0.00     0.042 C 
BRANCH   2   3
ATOM      3  C   UNL     1      13.864 -32.161  21.301  1.00  0.00     0.045 C 
ATOM      4  O   UNL     1      13.405 -32.054  20.135  1.00  0.00    -0.550 OA
ATOM      5  O   UNL     1      13.263 -31.440  22.327  1.00  0.00    -0.550 OA
ENDBRANCH   2   3
BRANCH   2   6
ATOM      6  C   UNL     1      16.426 -32.507  21.878  1.00  0.00     0.033 C 
ATOM      7  C   UNL     1      16.621 -31.001  21.747  1.00  0.00     0.119 C 
ATOM      8  C   UNL     1      17.219 -32.930  23.166  1.00  0.00    -0.017 C 
ATOM      9  C   UNL     1      18.072 -30.810  22.156  1.00  0.00     0.043 C 
ATOM     10  C   UNL     1      18.365 -31.816  23.307  1.00  0.00    -0.003 C 
ATOM     11  C   UNL     1      17.824 -34.346  22.958  1.00  0.00     0.012 C 
ATOM     12  C   UNL     1      16.273 -33.002  24.403  1.00  0.00     0.013 C 
ATOM     13  C   UNL     1      18.316 -31.036  24.652  1.00  0.00     0.017 C 
ATOM     14  C   UNL     1      19.816 -32.363  23.202  1.00  0.00    -0.064 C 
ATOM     15  C   UNL     1      18.984 -34.588  23.912  1.00  0.00     0.032 C 
ATOM     16  C   UNL     1      20.126 -33.644  23.586  1.00  0.00    -0.064 C 
ATOM     17  C   UNL     1      20.907 -31.405  22.719  1.00  0.00     0.032 C 
ATOM     18  C   UNL     1      21.575 -34.029  23.993  1.00  0.00    -0.008 C 
ATOM     19  C   UNL     1      22.306 -31.710  23.242  1.00  0.00     0.009 C 
ATOM     20  C   UNL     1      22.585 -33.217  23.104  1.00  0.00     0.009 C 
ATOM     21  C   UNL     1      21.842 -35.545  23.768  1.00  0.00     0.015 C 
ATOM     22  C   UNL     1      21.668 -33.717  25.512  1.00  0.00     0.016 C 
ATOM     23  C   UNL     1      24.114 -33.626  23.174  1.00  0.00     0.005 C 
ATOM     24  C   UNL     1      23.308 -35.942  23.967  1.00  0.00     0.047 C 
ATOM     25  C   UNL     1      24.239 -35.173  23.018  1.00  0.00     0.182 C 
ATOM     26  C   UNL     1      24.867 -32.989  21.969  1.00  0.00     0.015 C 
ATOM     27  C   UNL     1      24.836 -33.140  24.463  1.00  0.00     0.015 C 
BRANCH   7  28
ATOM     28  O   UNL     1      15.787 -30.285  22.617  1.00  0.00    -0.393 OA
ATOM     29  H   UNL     1      16.147 -29.362  22.664  1.00  0.00     0.210 HD
ENDBRANCH   7  28
BRANCH  25  30
ATOM     30  O   UNL     1      25.593 -35.583  23.238  1.00  0.00    -0.462 OA
BRANCH  30  31
ATOM     31  C   UNL     1      26.271 -36.496  22.423  1.00  0.00     0.302 C 
ATOM     32  O   UNL     1      26.247 -37.731  22.674  1.00  0.00    -0.253 OA
ATOM     33  C   UNL     1      27.049 -35.991  21.256  1.00  0.00     0.139 C 
ENDBRANCH  30  31
ENDBRANCH  25  30
ENDBRANCH   2   6
ENDBRANCH   1   2
BRANCH   1  34
ATOM     34  C   UNL     1      15.895 -34.184  19.413  1.00  0.00     0.031 C 
BRANCH  34  35
ATOM     35  C   UNL     1      17.138 -35.038  19.530  1.00  0.00    -0.075 C 
ATOM     36  C   UNL     1      18.342 -34.475  19.321  1.00  0.00     0.008 C 
BRANCH  35  37
ATOM     37  C   UNL     1      17.012 -36.516  19.873  1.00  0.00     0.008 C 
ATOM     38  C   UNL     1      17.963 -36.907  21.011  1.00  0.00     0.012 C 
ATOM     39  C   UNL     1      17.234 -37.395  18.637  1.00  0.00     0.012 C 
ENDBRANCH  35  37
ENDBRANCH  34  35
ENDBRANCH   1  34
TORSDOF 9
ENDMDL
MODEL 2
REMARK VINA RESULT:    -7.351      2.684      9.379
REMARK INTER + INTRA:         -12.969
REMARK INTER:                 -11.001
REMARK INTRA:                  -1.969
REMARK UNBOUND:                -1.965
REMARK SMILES C=C(CC[C@H](C(=O)[O-])[C@H]1[C@@H](O)C[C@]2(C)C3=C(CC[C@]12C)[C@@]1(C)CC[C@H](OC(C)=O)C(C)(C)[C@@H]1CC3)C(C)C
REMARK SMILES IDX 4 1 5 2 6 3 7 4 8 5 9 6 10 7 19 8 12 9 13 10 18 11 20 12
REMARK SMILES IDX 14 13 15 14 17 15 16 16 35 17 21 18 34 19 33 20 23 21 22 22
REMARK SMILES IDX 30 23 24 24 25 25 31 26 32 27 11 28 26 30 27 31 29 32 28 33
REMARK SMILES IDX 3 34 2 35 1 36 36 37 37 38 38 39
REMARK H PARENT 11 29
REMARK Flexibility Score: inf
ROOT
ATOM      1  C   UNL     1      22.917 -31.699  27.349  1.00  0.00     0.014 C 
ENDROOT
BRANCH   1   2
ATOM      2  C   UNL     1      22.792 -32.952  26.437  1.00  0.00     0.042 C 
BRANCH   2   3
ATOM      3  C   UNL     1      24.126 -33.647  26.261  1.00  0.00     0.045 C 
ATOM      4  O   UNL     1      24.221 -34.901  26.251  1.00  0.00    -0.550 OA
ATOM      5  O   UNL     1      25.266 -32.886  26.024  1.00  0.00    -0.550 OA
ENDBRANCH   2   3
BRANCH   2   6
ATOM      6  C   UNL     1      21.917 -32.701  25.147  1.00  0.00     0.033 C 
ATOM      7  C   UNL     1      22.617 -32.502  23.807  1.00  0.00     0.119 C 
ATOM      8  C   UNL     1      20.699 -33.648  24.856  1.00  0.00    -0.017 C 
ATOM      9  C   UNL     1      21.457 -32.396  22.832  1.00  0.00     0.043 C 
ATOM     10  C   UNL     1      20.356 -33.387  23.311  1.00  0.00    -0.003 C 
ATOM     11  C   UNL     1      19.511 -33.257  25.777  1.00  0.00     0.012 C 
ATOM     12  C   UNL     1      21.063 -35.133  25.166  1.00  0.00     0.013 C 
ATOM     13  C   UNL     1      20.441 -34.664  22.428  1.00  0.00     0.017 C 
ATOM     14  C   UNL     1      18.940 -32.801  23.052  1.00  0.00    -0.064 C 
ATOM     15  C   UNL     1      18.193 -33.765  25.211  1.00  0.00     0.032 C 
ATOM     16  C   UNL     1      17.892 -33.066  23.898  1.00  0.00    -0.064 C 
ATOM     17  C   UNL     1      18.731 -31.972  21.783  1.00  0.00     0.032 C 
ATOM     18  C   UNL     1      16.421 -32.962  23.408  1.00  0.00    -0.008 C 
ATOM     19  C   UNL     1      17.311 -31.994  21.230  1.00  0.00     0.009 C 
ATOM     20  C   UNL     1      16.311 -31.779  22.380  1.00  0.00     0.009 C 
ATOM     21  C   UNL     1      15.450 -32.671  24.588  1.00  0.00     0.015 C 
ATOM     22  C   UNL     1      16.091 -34.359  22.813  1.00  0.00     0.016 C 
ATOM     23  C   UNL     1      14.858 -31.332  21.932  1.00  0.00     0.005 C 
ATOM     24  C   UNL     1      14.018 -32.366  24.138  1.00  0.00     0.047 C 
ATOM     25  C   UNL     1      13.964 -31.153  23.197  1.00  0.00     0.182 C 
ATOM     26  C   UNL     1      14.946 -29.939  21.241  1.00  0.00     0.015 C 
ATOM     27  C   UNL     1      14.189 -32.299  20.914  1.00  0.00     0.015 C 
BRANCH   7  28
ATOM     28  O   UNL     1      23.422 -33.598  23.466  1.00  0.00    -0.393 OA
ATOM     29  H   UNL     1      24.355 -33.264  23.421  1.00  0.00     0.210 HD
ENDBRANCH   7  28
BRANCH  25  30
ATOM     30  O   UNL     1      12.608 -30.906  22.811  1.00  0.00    -0.462 OA
BRANCH  30  31
ATOM     31  C   UNL     1      11.956 -29.683  23.004  1.00  0.00     0.302 C 
ATOM     32  O   UNL     1      11.002 -29.332  22.257  1.00  0.00    -0.253 OA
ATOM     33  C   UNL     1      12.414 -28.779  24.097  1.00  0.00     0.139 C 
ENDBRANCH  30  31
ENDBRANCH  25  30
ENDBRANCH   2   6
ENDBRANCH   1   2
BRANCH   1  34
ATOM     34  C   UNL     1      22.146 -30.453  26.873  1.00  0.00     0.031 C 
BRANCH  34  35
ATOM     35  C   UNL     1      20.908 -30.230  27.712  1.00  0.00    -0.075 C 
ATOM     36  C   UNL     1      20.833 -30.793  28.931  1.00  0.00     0.008 C 
BRANCH  35  37
ATOM     37  C   UNL     1      19.766 -29.382  27.167  1.00  0.00     0.008 C 
ATOM     38  C   UNL     1      18.865 -28.868  28.297  1.00  0.00     0.012 C 
ATOM     39  C   UNL     1      18.956 -30.151  26.117  1.00  0.00     0.012 C 
ENDBRANCH  35  37
ENDBRANCH  34  35
ENDBRANCH   1  34
TORSDOF 9
ENDMDL
MODEL 3
REMARK VINA RESULT:    -7.207      3.313      8.517
REMARK INTER + INTRA:         -12.753
REMARK INTER:                  -9.923
REMARK INTRA:                  -2.830
REMARK UNBOUND:                -1.965
REMARK SMILES C=C(CC[C@H](C(=O)[O-])[C@H]1[C@@H](O)C[C@]2(C)C3=C(CC[C@]12C)[C@@]1(C)CC[C@H](OC(C)=O)C(C)(C)[C@@H]1CC3)C(C)C
REMARK SMILES IDX 4 1 5 2 6 3 7 4 8 5 9 6 10 7 19 8 12 9 13 10 18 11 20 12
REMARK SMILES IDX 14 13 15 14 17 15 16 16 35 17 21 18 34 19 33 20 23 21 22 22
REMARK SMILES IDX 30 23 24 24 25 25 31 26 32 27 11 28 26 30 27 31 29 32 28 33
REMARK SMILES IDX 3 34 2 35 1 36 36 37 37 38 38 39
REMARK H PARENT 11 29
REMARK Flexibility Score: inf
ROOT
ATOM      1  C   UNL     1      25.935 -30.659  24.973  1.00  0.00     0.014 C 
ENDROOT
BRANCH   1   2
ATOM      2  C   UNL     1      25.088 -29.718  25.877  1.00  0.00     0.042 C 
BRANCH   2   3
ATOM      3  C   UNL     1      25.911 -29.154  27.017  1.00  0.00     0.045 C 
ATOM      4  O   UNL     1      26.784 -29.844  27.605  1.00  0.00    -0.550 OA
ATOM      5  O   UNL     1      25.760 -27.819  27.373  1.00  0.00    -0.550 OA
ENDBRANCH   2   3
BRANCH   2   6
ATOM      6  C   UNL     1      23.660 -30.296  26.216  1.00  0.00     0.033 C 
ATOM      7  C   UNL     1      23.228 -30.390  27.675  1.00  0.00     0.119 C 
ATOM      8  C   UNL     1      22.412 -29.751  25.435  1.00  0.00    -0.017 C 
ATOM      9  C   UNL     1      21.795 -30.886  27.573  1.00  0.00     0.043 C 
ATOM     10  C   UNL     1      21.158 -30.210  26.324  1.00  0.00    -0.003 C 
ATOM     11  C   UNL     1      22.369 -30.390  24.019  1.00  0.00     0.012 C 
ATOM     12  C   UNL     1      22.504 -28.205  25.249  1.00  0.00     0.013 C 
ATOM     13  C   UNL     1      20.275 -29.028  26.816  1.00  0.00     0.017 C 
ATOM     14  C   UNL     1      20.180 -31.185  25.611  1.00  0.00    -0.064 C 
ATOM     15  C   UNL     1      20.969 -30.312  23.428  1.00  0.00     0.032 C 
ATOM     16  C   UNL     1      20.015 -31.161  24.248  1.00  0.00    -0.064 C 
ATOM     17  C   UNL     1      19.350 -32.129  26.483  1.00  0.00     0.032 C 
ATOM     18  C   UNL     1      18.719 -31.707  23.588  1.00  0.00    -0.008 C 
ATOM     19  C   UNL     1      18.012 -32.545  25.884  1.00  0.00     0.009 C 
ATOM     20  C   UNL     1      18.213 -32.945  24.412  1.00  0.00     0.009 C 
ATOM     21  C   UNL     1      18.980 -32.171  22.126  1.00  0.00     0.015 C 
ATOM     22  C   UNL     1      17.734 -30.505  23.572  1.00  0.00     0.016 C 
ATOM     23  C   UNL     1      17.043 -33.812  23.786  1.00  0.00     0.005 C 
ATOM     24  C   UNL     1      17.787 -32.895  21.495  1.00  0.00     0.047 C 
ATOM     25  C   UNL     1      17.387 -34.140  22.300  1.00  0.00     0.182 C 
ATOM     26  C   UNL     1      16.958 -35.172  24.540  1.00  0.00     0.015 C 
ATOM     27  C   UNL     1      15.641 -33.147  23.896  1.00  0.00     0.015 C 
BRANCH   7  28
ATOM     28  O   UNL     1      23.250 -29.141  28.311  1.00  0.00    -0.393 OA
ATOM     29  H   UNL     1      24.203 -28.871  28.378  1.00  0.00     0.210 HD
ENDBRANCH   7  28
BRANCH  25  30
ATOM     30  O   UNL     1      16.275 -34.784  21.669  1.00  0.00    -0.462 OA
BRANCH  30  31
ATOM     31  C   UNL     1      16.322 -35.330  20.381  1.00  0.00     0.302 C 
ATOM     32  O   UNL     1      15.726 -34.775  19.419  1.00  0.00    -0.253 OA
ATOM     33  C   UNL     1      17.072 -36.599  20.157  1.00  0.00     0.139 C 
ENDBRANCH  30  31
ENDBRANCH  25  30
ENDBRANCH   2   6
ENDBRANCH   1   2
BRANCH   1  34
ATOM     34  C   UNL     1      25.694 -32.167  25.177  1.00  0.00     0.031 C 
BRANCH  34  35
ATOM     35  C   UNL     1      24.984 -32.767  23.984  1.00  0.00    -0.075 C 
ATOM     36  C   UNL     1      25.308 -32.344  22.749  1.00  0.00     0.008 C 
BRANCH  35  37
ATOM     37  C   UNL     1      23.916 -33.831  24.194  1.00  0.00     0.008 C 
ATOM     38  C   UNL     1      22.851 -33.776  23.091  1.00  0.00     0.012 C 
ATOM     39  C   UNL     1      23.281 -33.713  25.585  1.00  0.00     0.012 C 
ENDBRANCH  35  37
ENDBRANCH  34  35
ENDBRANCH   1  34
TORSDOF 9
ENDMDL
MODEL 4
REMARK VINA RESULT:    -7.205      3.744      6.377
REMARK INTER + INTRA:         -12.751
REMARK INTER:                 -11.789
REMARK INTRA:                  -0.961
REMARK UNBOUND:                -1.965
REMARK SMILES C=C(CC[C@H](C(=O)[O-])[C@H]1[C@@H](O)C[C@]2(C)C3=C(CC[C@]12C)[C@@]1(C)CC[C@H](OC(C)=O)C(C)(C)[C@@H]1CC3)C(C)C
REMARK SMILES IDX 4 1 5 2 6 3 7 4 8 5 9 6 10 7 19 8 12 9 13 10 18 11 20 12
REMARK SMILES IDX 14 13 15 14 17 15 16 16 35 17 21 18 34 19 33 20 23 21 22 22
REMARK SMILES IDX 30 23 24 24 25 25 31 26 32 27 11 28 26 30 27 31 29 32 28 33
REMARK SMILES IDX 3 34 2 35 1 36 36 37 37 38 38 39
REMARK H PARENT 11 29
REMARK Flexibility Score: inf
ROOT
ATOM      1  C   UNL     1      14.078 -32.462  20.905  1.00  0.00     0.014 C 
ENDROOT
BRANCH   1   2
ATOM      2  C   UNL     1      15.567 -32.870  20.717  1.00  0.00     0.042 C 
BRANCH   2   3
ATOM      3  C   UNL     1      15.692 -34.223  20.048  1.00  0.00     0.045 C 
ATOM      4  O   UNL     1      15.118 -35.243  20.509  1.00  0.00    -0.550 OA
ATOM      5  O   UNL     1      16.390 -34.330  18.849  1.00  0.00    -0.550 OA
ENDBRANCH   2   3
BRANCH   2   6
ATOM      6  C   UNL     1      16.456 -32.595  21.992  1.00  0.00     0.033 C 
ATOM      7  C   UNL     1      16.167 -33.367  23.275  1.00  0.00     0.119 C 
ATOM      8  C   UNL     1      18.019 -32.583  21.843  1.00  0.00    -0.017 C 
ATOM      9  C   UNL     1      17.274 -32.902  24.206  1.00  0.00     0.043 C 
ATOM     10  C   UNL     1      18.560 -32.725  23.347  1.00  0.00    -0.003 C 
ATOM     11  C   UNL     1      18.466 -31.241  21.202  1.00  0.00     0.012 C 
ATOM     12  C   UNL     1      18.497 -33.733  20.904  1.00  0.00     0.013 C 
ATOM     13  C   UNL     1      19.462 -33.972  23.571  1.00  0.00     0.017 C 
ATOM     14  C   UNL     1      19.396 -31.516  23.851  1.00  0.00    -0.064 C 
ATOM     15  C   UNL     1      19.932 -30.958  21.496  1.00  0.00     0.032 C 
ATOM     16  C   UNL     1      20.128 -30.743  22.985  1.00  0.00    -0.064 C 
ATOM     17  C   UNL     1      19.434 -31.254  25.358  1.00  0.00     0.032 C 
ATOM     18  C   UNL     1      21.344 -29.914  23.483  1.00  0.00    -0.008 C 
ATOM     19  C   UNL     1      20.700 -30.566  25.857  1.00  0.00     0.009 C 
ATOM     20  C   UNL     1      21.038 -29.385  24.931  1.00  0.00     0.009 C 
ATOM     21  C   UNL     1      21.608 -28.687  22.564  1.00  0.00     0.015 C 
ATOM     22  C   UNL     1      22.557 -30.881  23.400  1.00  0.00     0.016 C 
ATOM     23  C   UNL     1      22.033 -28.315  25.544  1.00  0.00     0.005 C 
ATOM     24  C   UNL     1      22.668 -27.729  23.116  1.00  0.00     0.047 C 
ATOM     25  C   UNL     1      22.279 -27.184  24.497  1.00  0.00     0.182 C 
ATOM     26  C   UNL     1      21.363 -27.646  26.780  1.00  0.00     0.015 C 
ATOM     27  C   UNL     1      23.381 -28.917  26.033  1.00  0.00     0.015 C 
BRANCH   7  28
ATOM     28  O   UNL     1      16.259 -34.752  23.086  1.00  0.00    -0.393 OA
ATOM     29  H   UNL     1      15.349 -35.122  23.229  1.00  0.00     0.210 HD
ENDBRANCH   7  28
BRANCH  25  30
ATOM     30  O   UNL     1      23.295 -26.292  24.965  1.00  0.00    -0.462 OA
BRANCH  30  31
ATOM     31  C   UNL     1      23.095 -24.921  25.163  1.00  0.00     0.302 C 
ATOM     32  O   UNL     1      23.342 -24.385  26.278  1.00  0.00    -0.253 OA
ATOM     33  C   UNL     1      22.563 -24.094  24.043  1.00  0.00     0.139 C 
ENDBRANCH  30  31
ENDBRANCH  25  30
ENDBRANCH   2   6
ENDBRANCH   1   2
BRANCH   1  34
ATOM     34  C   UNL     1      13.802 -30.946  20.907  1.00  0.00     0.031 C 
BRANCH  34  35
ATOM     35  C   UNL     1      12.971 -30.550  22.106  1.00  0.00    -0.075 C 
ATOM     36  C   UNL     1      11.629 -30.566  22.008  1.00  0.00     0.008 C 
BRANCH  35  37
ATOM     37  C   UNL     1      13.658 -30.133  23.399  1.00  0.00     0.008 C 
ATOM     38  C   UNL     1      12.809 -29.121  24.180  1.00  0.00     0.012 C 
ATOM     39  C   UNL     1      15.065 -29.587  23.130  1.00  0.00     0.012 C 
ENDBRANCH  35  37
ENDBRANCH  34  35
ENDBRANCH   1  34
TORSDOF 9
ENDMDL
MODEL 5
REMARK VINA RESULT:    -7.195      3.381      5.797
REMARK INTER + INTRA:         -12.736
REMARK INTER:                 -11.286
REMARK INTRA:                  -1.450
REMARK UNBOUND:                -1.965
REMARK SMILES C=C(CC[C@H](C(=O)[O-])[C@H]1[C@@H](O)C[C@]2(C)C3=C(CC[C@]12C)[C@@]1(C)CC[C@H](OC(C)=O)C(C)(C)[C@@H]1CC3)C(C)C
REMARK SMILES IDX 4 1 5 2 6 3 7 4 8 5 9 6 10 7 19 8 12 9 13 10 18 11 20 12
REMARK SMILES IDX 14 13 15 14 17 15 16 16 35 17 21 18 34 19 33 20 23 21 22 22
REMARK SMILES IDX 30 23 24 24 25 25 31 26 32 27 11 28 26 30 27 31 29 32 28 33
REMARK SMILES IDX 3 34 2 35 1 36 36 37 37 38 38 39
REMARK H PARENT 11 29
REMARK Flexibility Score: inf
ROOT
ATOM      1  C   UNL     1      15.145 -30.523  21.625  1.00  0.00     0.014 C 
ENDROOT
BRANCH   1   2
ATOM      2  C   UNL     1      15.915 -31.809  21.209  1.00  0.00     0.042 C 
BRANCH   2   3
ATOM      3  C   UNL     1      14.975 -32.869  20.672  1.00  0.00     0.045 C 
ATOM      4  O   UNL     1      13.734 -32.816  20.875  1.00  0.00    -0.550 OA
ATOM      5  O   UNL     1      15.480 -33.884  19.867  1.00  0.00    -0.550 OA
ENDBRANCH   2   3
BRANCH   2   6
ATOM      6  C   UNL     1      17.003 -32.254  22.261  1.00  0.00     0.033 C 
ATOM      7  C   UNL     1      16.780 -33.536  23.057  1.00  0.00     0.119 C 
ATOM      8  C   UNL     1      18.513 -32.273  21.835  1.00  0.00    -0.017 C 
ATOM      9  C   UNL     1      18.063 -33.663  23.861  1.00  0.00     0.043 C 
ATOM     10  C   UNL     1      19.230 -33.171  22.955  1.00  0.00    -0.003 C 
ATOM     11  C   UNL     1      19.066 -30.821  21.830  1.00  0.00     0.012 C 
ATOM     12  C   UNL     1      18.676 -32.841  20.391  1.00  0.00     0.013 C 
ATOM     13  C   UNL     1      19.954 -34.423  22.383  1.00  0.00     0.017 C 
ATOM     14  C   UNL     1      20.301 -32.423  23.797  1.00  0.00    -0.064 C 
ATOM     15  C   UNL     1      20.585 -30.816  21.930  1.00  0.00     0.032 C 
ATOM     16  C   UNL     1      21.015 -31.374  23.274  1.00  0.00    -0.064 C 
ATOM     17  C   UNL     1      20.587 -32.939  25.208  1.00  0.00     0.032 C 
ATOM     18  C   UNL     1      22.400 -30.978  23.857  1.00  0.00    -0.008 C 
ATOM     19  C   UNL     1      21.999 -32.669  25.715  1.00  0.00     0.009 C 
ATOM     20  C   UNL     1      22.381 -31.210  25.411  1.00  0.00     0.009 C 
ATOM     21  C   UNL     1      22.717 -29.478  23.594  1.00  0.00     0.015 C 
ATOM     22  C   UNL     1      23.429 -31.856  23.093  1.00  0.00     0.016 C 
ATOM     23  C   UNL     1      23.602 -30.647  26.249  1.00  0.00     0.005 C 
ATOM     24  C   UNL     1      23.977 -28.987  24.314  1.00  0.00     0.047 C 
ATOM     25  C   UNL     1      23.869 -29.167  25.835  1.00  0.00     0.182 C 
ATOM     26  C   UNL     1      23.219 -30.630  27.758  1.00  0.00     0.015 C 
ATOM     27  C   UNL     1      24.897 -31.499  26.123  1.00  0.00     0.015 C 
BRANCH   7  28
ATOM     28  O   UNL     1      16.634 -34.653  22.223  1.00  0.00    -0.393 OA
ATOM     29  H   UNL     1      17.529 -35.074  22.149  1.00  0.00     0.210 HD
ENDBRANCH   7  28
BRANCH  25  30
ATOM     30  O   UNL     1      25.064 -28.688  26.461  1.00  0.00    -0.462 OA
BRANCH  30  31
ATOM     31  C   UNL     1      25.117 -27.542  27.261  1.00  0.00     0.302 C 
ATOM     32  O   UNL     1      25.038 -26.391  26.751  1.00  0.00    -0.253 OA
ATOM     33  C   UNL     1      25.292 -27.690  28.734  1.00  0.00     0.139 C 
ENDBRANCH  30  31
ENDBRANCH  25  30
ENDBRANCH   2   6
ENDBRANCH   1   2
BRANCH   1  34
ATOM     34  C   UNL     1      15.073 -30.256  23.141  1.00  0.00     0.031 C 
BRANCH  34  35
ATOM     35  C   UNL     1      13.778 -30.778  23.721  1.00  0.00    -0.075 C 
ATOM     36  C   UNL     1      13.732 -32.039  24.189  1.00  0.00     0.008 C 
BRANCH  35  37
ATOM     37  C   UNL     1      12.549 -29.880  23.762  1.00  0.00     0.008 C 
ATOM     38  C   UNL     1      11.864 -29.811  22.391  1.00  0.00     0.012 C 
ATOM     39  C   UNL     1      12.902 -28.480  24.277  1.00  0.00     0.012 C 
ENDBRANCH  35  37
ENDBRANCH  34  35
ENDBRANCH   1  34
TORSDOF 9
ENDMDL
MODEL 6
REMARK VINA RESULT:    -7.055      3.129      4.746
REMARK INTER + INTRA:         -12.526
REMARK INTER:                  -9.901
REMARK INTRA:                  -2.625
REMARK UNBOUND:                -1.965
REMARK SMILES C=C(CC[C@H](C(=O)[O-])[C@H]1[C@@H](O)C[C@]2(C)C3=C(CC[C@]12C)[C@@]1(C)CC[C@H](OC(C)=O)C(C)(C)[C@@H]1CC3)C(C)C
REMARK SMILES IDX 4 1 5 2 6 3 7 4 8 5 9 6 10 7 19 8 12 9 13 10 18 11 20 12
REMARK SMILES IDX 14 13 15 14 17 15 16 16 35 17 21 18 34 19 33 20 23 21 22 22
REMARK SMILES IDX 30 23 24 24 25 25 31 26 32 27 11 28 26 30 27 31 29 32 28 33
REMARK SMILES IDX 3 34 2 35 1 36 36 37 37 38 38 39
REMARK H PARENT 11 29
REMARK Flexibility Score: inf
ROOT
ATOM      1  C   UNL     1      18.002 -36.408  21.991  1.00  0.00     0.014 C 
ENDROOT
BRANCH   1   2
ATOM      2  C   UNL     1      17.195 -35.085  21.861  1.00  0.00     0.042 C 
BRANCH   2   3
ATOM      3  C   UNL     1      16.185 -35.159  20.734  1.00  0.00     0.045 C 
ATOM      4  O   UNL     1      16.360 -35.908  19.739  1.00  0.00    -0.550 OA
ATOM      5  O   UNL     1      14.995 -34.446  20.836  1.00  0.00    -0.550 OA
ENDBRANCH   2   3
BRANCH   2   6
ATOM      6  C   UNL     1      18.094 -33.792  21.959  1.00  0.00     0.033 C 
ATOM      7  C   UNL     1      18.176 -32.855  20.758  1.00  0.00     0.119 C 
ATOM      8  C   UNL     1      17.958 -32.862  23.217  1.00  0.00    -0.017 C 
ATOM      9  C   UNL     1      19.034 -31.713  21.277  1.00  0.00     0.043 C 
ATOM     10  C   UNL     1      18.652 -31.487  22.769  1.00  0.00    -0.003 C 
ATOM     11  C   UNL     1      18.701 -33.509  24.419  1.00  0.00     0.012 C 
ATOM     12  C   UNL     1      16.462 -32.695  23.626  1.00  0.00     0.013 C 
ATOM     13  C   UNL     1      17.703 -30.257  22.840  1.00  0.00     0.017 C 
ATOM     14  C   UNL     1      19.903 -31.091  23.602  1.00  0.00    -0.064 C 
ATOM     15  C   UNL     1      19.038 -32.467  25.475  1.00  0.00     0.032 C 
ATOM     16  C   UNL     1      20.035 -31.469  24.915  1.00  0.00    -0.064 C 
ATOM     17  C   UNL     1      20.954 -30.204  22.933  1.00  0.00     0.032 C 
ATOM     18  C   UNL     1      20.951 -30.677  25.888  1.00  0.00    -0.008 C 
ATOM     19  C   UNL     1      21.751 -29.323  23.888  1.00  0.00     0.009 C 
ATOM     20  C   UNL     1      22.206 -30.160  25.096  1.00  0.00     0.009 C 
ATOM     21  C   UNL     1      21.451 -31.576  27.055  1.00  0.00     0.015 C 
ATOM     22  C   UNL     1      20.052 -29.549  26.466  1.00  0.00     0.016 C 
ATOM     23  C   UNL     1      23.395 -29.535  25.937  1.00  0.00     0.005 C 
ATOM     24  C   UNL     1      22.510 -30.903  27.933  1.00  0.00     0.047 C 
ATOM     25  C   UNL     1      23.745 -30.491  27.120  1.00  0.00     0.182 C 
ATOM     26  C   UNL     1      24.664 -29.449  25.037  1.00  0.00     0.015 C 
ATOM     27  C   UNL     1      23.111 -28.096  26.454  1.00  0.00     0.015 C 
BRANCH   7  28
ATOM     28  O   UNL     1      16.916 -32.368  20.386  1.00  0.00    -0.393 OA
ATOM     29  H   UNL     1      17.017 -31.391  20.245  1.00  0.00     0.210 HD
ENDBRANCH   7  28
BRANCH  25  30
ATOM     30  O   UNL     1      24.705 -29.874  27.984  1.00  0.00    -0.462 OA
BRANCH  30  31
ATOM     31  C   UNL     1      25.962 -30.420  28.264  1.00  0.00     0.302 C 
ATOM     32  O   UNL     1      26.740 -29.867  29.089  1.00  0.00    -0.253 OA
ATOM     33  C   UNL     1      26.391 -31.660  27.557  1.00  0.00     0.139 C 
ENDBRANCH  30  31
ENDBRANCH  25  30
ENDBRANCH   2   6
ENDBRANCH   1   2
BRANCH   1  34
ATOM     34  C   UNL     1      19.535 -36.251  21.991  1.00  0.00     0.031 C 
BRANCH  34  35
ATOM     35  C   UNL     1      20.126 -36.720  23.302  1.00  0.00    -0.075 C 
ATOM     36  C   UNL     1      19.502 -37.692  23.991  1.00  0.00     0.008 C 
BRANCH  35  37
ATOM     37  C   UNL     1      21.407 -36.086  23.825  1.00  0.00     0.008 C 
ATOM     38  C   UNL     1      21.333 -35.846  25.339  1.00  0.00     0.012 C 
ATOM     39  C   UNL     1      21.733 -34.790  23.073  1.00  0.00     0.012 C 
ENDBRANCH  35  37
ENDBRANCH  34  35
ENDBRANCH   1  34
TORSDOF 9
ENDMDL
MODEL 7
REMARK VINA RESULT:    -6.938      4.334      7.380
REMARK INTER + INTRA:         -12.351
REMARK INTER:                 -10.548
REMARK INTRA:                  -1.803
REMARK UNBOUND:                -1.965
REMARK SMILES C=C(CC[C@H](C(=O)[O-])[C@H]1[C@@H](O)C[C@]2(C)C3=C(CC[C@]12C)[C@@]1(C)CC[C@H](OC(C)=O)C(C)(C)[C@@H]1CC3)C(C)C
REMARK SMILES IDX 4 1 5 2 6 3 7 4 8 5 9 6 10 7 19 8 12 9 13 10 18 11 20 12
REMARK SMILES IDX 14 13 15 14 17 15 16 16 35 17 21 18 34 19 33 20 23 21 22 22
REMARK SMILES IDX 30 23 24 24 25 25 31 26 32 27 11 28 26 30 27 31 29 32 28 33
REMARK SMILES IDX 3 34 2 35 1 36 36 37 37 38 38 39
REMARK H PARENT 11 29
REMARK Flexibility Score: inf
ROOT
ATOM      1  C   UNL     1      15.948 -33.230  24.771  1.00  0.00     0.014 C 
ENDROOT
BRANCH   1   2
ATOM      2  C   UNL     1      17.232 -33.915  24.223  1.00  0.00     0.042 C 
BRANCH   2   3
ATOM      3  C   UNL     1      17.362 -35.337  24.731  1.00  0.00     0.045 C 
ATOM      4  O   UNL     1      16.825 -35.705  25.807  1.00  0.00    -0.550 OA
ATOM      5  O   UNL     1      18.023 -36.281  23.953  1.00  0.00    -0.550 OA
ENDBRANCH   2   3
BRANCH   2   6
ATOM      6  C   UNL     1      18.509 -32.991  24.286  1.00  0.00     0.033 C 
ATOM      7  C   UNL     1      19.710 -33.445  25.109  1.00  0.00     0.119 C 
ATOM      8  C   UNL     1      19.100 -32.415  22.950  1.00  0.00    -0.017 C 
ATOM      9  C   UNL     1      20.738 -32.360  24.836  1.00  0.00     0.043 C 
ATOM     10  C   UNL     1      20.578 -31.934  23.347  1.00  0.00    -0.003 C 
ATOM     11  C   UNL     1      18.224 -31.226  22.469  1.00  0.00     0.012 C 
ATOM     12  C   UNL     1      19.084 -33.495  21.825  1.00  0.00     0.013 C 
ATOM     13  C   UNL     1      21.703 -32.627  22.526  1.00  0.00     0.017 C 
ATOM     14  C   UNL     1      20.828 -30.408  23.182  1.00  0.00    -0.064 C 
ATOM     15  C   UNL     1      18.998 -30.332  21.511  1.00  0.00     0.032 C 
ATOM     16  C   UNL     1      20.154 -29.672  22.241  1.00  0.00    -0.064 C 
ATOM     17  C   UNL     1      21.905 -29.764  24.057  1.00  0.00     0.032 C 
ATOM     18  C   UNL     1      20.736 -28.338  21.700  1.00  0.00    -0.008 C 
ATOM     19  C   UNL     1      22.572 -28.534  23.450  1.00  0.00     0.009 C 
ATOM     20  C   UNL     1      21.494 -27.605  22.865  1.00  0.00     0.009 C 
ATOM     21  C   UNL     1      19.610 -27.395  21.186  1.00  0.00     0.015 C 
ATOM     22  C   UNL     1      21.642 -28.744  20.505  1.00  0.00     0.016 C 
ATOM     23  C   UNL     1      21.961 -26.112  22.609  1.00  0.00     0.005 C 
ATOM     24  C   UNL     1      20.108 -25.992  20.823  1.00  0.00     0.047 C 
ATOM     25  C   UNL     1      20.769 -25.296  22.020  1.00  0.00     0.182 C 
ATOM     26  C   UNL     1      22.329 -25.454  23.972  1.00  0.00     0.015 C 
ATOM     27  C   UNL     1      23.216 -25.994  21.699  1.00  0.00     0.015 C 
BRANCH   7  28
ATOM     28  O   UNL     1      20.205 -34.683  24.678  1.00  0.00    -0.393 OA
ATOM     29  H   UNL     1      19.968 -35.345  25.378  1.00  0.00     0.210 HD
ENDBRANCH   7  28
BRANCH  25  30
ATOM     30  O   UNL     1      21.210 -23.991  21.633  1.00  0.00    -0.462 OA
BRANCH  30  31
ATOM     31  C   UNL     1      20.979 -22.836  22.389  1.00  0.00     0.302 C 
ATOM     32  O   UNL     1      21.936 -22.109  22.771  1.00  0.00    -0.253 OA
ATOM     33  C   UNL     1      19.581 -22.478  22.761  1.00  0.00     0.139 C 
ENDBRANCH  30  31
ENDBRANCH  25  30
ENDBRANCH   2   6
ENDBRANCH   1   2
BRANCH   1  34
ATOM     34  C   UNL     1      14.686 -33.396  23.902  1.00  0.00     0.031 C 
BRANCH  34  35
ATOM     35  C   UNL     1      14.478 -32.190  23.015  1.00  0.00    -0.075 C 
ATOM     36  C   UNL     1      14.103 -31.024  23.572  1.00  0.00     0.008 C 
BRANCH  35  37
ATOM     37  C   UNL     1      14.688 -32.310  21.512  1.00  0.00     0.008 C 
ATOM     38  C   UNL     1      13.475 -31.781  20.736  1.00  0.00     0.012 C 
ATOM     39  C   UNL     1      15.017 -33.752  21.111  1.00  0.00     0.012 C 
ENDBRANCH  35  37
ENDBRANCH  34  35
ENDBRANCH   1  34
TORSDOF 9
ENDMDL
MODEL 8
REMARK VINA RESULT:    -6.896      3.779      9.009
REMARK INTER + INTRA:         -12.288
REMARK INTER:                 -10.365
REMARK INTRA:                  -1.923
REMARK UNBOUND:                -1.965
REMARK SMILES C=C(CC[C@H](C(=O)[O-])[C@H]1[C@@H](O)C[C@]2(C)C3=C(CC[C@]12C)[C@@]1(C)CC[C@H](OC(C)=O)C(C)(C)[C@@H]1CC3)C(C)C
REMARK SMILES IDX 4 1 5 2 6 3 7 4 8 5 9 6 10 7 19 8 12 9 13 10 18 11 20 12
REMARK SMILES IDX 14 13 15 14 17 15 16 16 35 17 21 18 34 19 33 20 23 21 22 22
REMARK SMILES IDX 30 23 24 24 25 25 31 26 32 27 11 28 26 30 27 31 29 32 28 33
REMARK SMILES IDX 3 34 2 35 1 36 36 37 37 38 38 39
REMARK H PARENT 11 29
REMARK Flexibility Score: inf
ROOT
ATOM      1  C   UNL     1      23.198 -26.751  26.004  1.00  0.00     0.014 C 
ENDROOT
BRANCH   1   2
ATOM      2  C   UNL     1      23.368 -28.121  26.720  1.00  0.00     0.042 C 
BRANCH   2   3
ATOM      3  C   UNL     1      24.656 -28.176  27.515  1.00  0.00     0.045 C 
ATOM      4  O   UNL     1      25.695 -27.580  27.130  1.00  0.00    -0.550 OA
ATOM      5  O   UNL     1      24.675 -28.833  28.741  1.00  0.00    -0.550 OA
ENDBRANCH   2   3
BRANCH   2   6
ATOM      6  C   UNL     1      23.017 -29.354  25.800  1.00  0.00     0.033 C 
ATOM      7  C   UNL     1      24.154 -30.161  25.181  1.00  0.00     0.119 C 
ATOM      8  C   UNL     1      21.971 -30.410  26.305  1.00  0.00    -0.017 C 
ATOM      9  C   UNL     1      23.422 -31.288  24.472  1.00  0.00     0.043 C 
ATOM     10  C   UNL     1      22.208 -31.685  25.362  1.00  0.00    -0.003 C 
ATOM     11  C   UNL     1      20.537 -29.836  26.137  1.00  0.00     0.012 C 
ATOM     12  C   UNL     1      22.178 -30.716  27.821  1.00  0.00     0.013 C 
ATOM     13  C   UNL     1      22.586 -32.977  26.141  1.00  0.00     0.017 C 
ATOM     14  C   UNL     1      20.987 -32.077  24.483  1.00  0.00    -0.064 C 
ATOM     15  C   UNL     1      19.503 -30.952  26.119  1.00  0.00     0.032 C 
ATOM     16  C   UNL     1      19.702 -31.822  24.892  1.00  0.00    -0.064 C 
ATOM     17  C   UNL     1      21.260 -32.821  23.175  1.00  0.00     0.032 C 
ATOM     18  C   UNL     1      18.507 -32.642  24.335  1.00  0.00    -0.008 C 
ATOM     19  C   UNL     1      20.132 -33.737  22.712  1.00  0.00     0.009 C 
ATOM     20  C   UNL     1      18.790 -32.993  22.829  1.00  0.00     0.009 C 
ATOM     21  C   UNL     1      17.182 -31.830  24.402  1.00  0.00     0.015 C 
ATOM     22  C   UNL     1      18.392 -33.879  25.268  1.00  0.00     0.016 C 
ATOM     23  C   UNL     1      17.601 -33.617  21.988  1.00  0.00     0.005 C 
ATOM     24  C   UNL     1      16.011 -32.514  23.689  1.00  0.00     0.047 C 
ATOM     25  C   UNL     1      16.315 -32.761  22.205  1.00  0.00     0.182 C 
ATOM     26  C   UNL     1      17.950 -33.529  20.473  1.00  0.00     0.015 C 
ATOM     27  C   UNL     1      17.327 -35.115  22.301  1.00  0.00     0.015 C 
BRANCH   7  28
ATOM     28  O   UNL     1      25.012 -30.693  26.153  1.00  0.00    -0.393 OA
ATOM     29  H   UNL     1      25.608 -29.955  26.444  1.00  0.00     0.210 HD
ENDBRANCH   7  28
BRANCH  25  30
ATOM     30  O   UNL     1      15.191 -33.394  21.584  1.00  0.00    -0.462 OA
BRANCH  30  31
ATOM     31  C   UNL     1      14.287 -32.727  20.750  1.00  0.00     0.302 C 
ATOM     32  O   UNL     1      13.923 -33.233  19.653  1.00  0.00    -0.253 OA
ATOM     33  C   UNL     1      13.767 -31.392  21.160  1.00  0.00     0.139 C 
ENDBRANCH  30  31
ENDBRANCH  25  30
ENDBRANCH   2   6
ENDBRANCH   1   2
BRANCH   1  34
ATOM     34  C   UNL     1      21.994 -26.648  25.048  1.00  0.00     0.031 C 
BRANCH  34  35
ATOM     35  C   UNL     1      22.445 -26.302  23.646  1.00  0.00    -0.075 C 
ATOM     36  C   UNL     1      22.464 -25.012  23.265  1.00  0.00     0.008 C 
BRANCH  35  37
ATOM     37  C   UNL     1      22.864 -27.410  22.690  1.00  0.00     0.008 C 
ATOM     38  C   UNL     1      23.272 -26.843  21.324  1.00  0.00     0.012 C 
ATOM     39  C   UNL     1      21.760 -28.464  22.546  1.00  0.00     0.012 C 
ENDBRANCH  35  37
ENDBRANCH  34  35
ENDBRANCH   1  34
TORSDOF 9
ENDMDL
MODEL 9
REMARK VINA RESULT:    -6.689      2.907      9.348
REMARK INTER + INTRA:         -11.978
REMARK INTER:                  -9.241
REMARK INTRA:                  -2.737
REMARK UNBOUND:                -1.965
REMARK SMILES C=C(CC[C@H](C(=O)[O-])[C@H]1[C@@H](O)C[C@]2(C)C3=C(CC[C@]12C)[C@@]1(C)CC[C@H](OC(C)=O)C(C)(C)[C@@H]1CC3)C(C)C
REMARK SMILES IDX 4 1 5 2 6 3 7 4 8 5 9 6 10 7 19 8 12 9 13 10 18 11 20 12
REMARK SMILES IDX 14 13 15 14 17 15 16 16 35 17 21 18 34 19 33 20 23 21 22 22
REMARK SMILES IDX 30 23 24 24 25 25 31 26 32 27 11 28 26 30 27 31 29 32 28 33
REMARK SMILES IDX 3 34 2 35 1 36 36 37 37 38 38 39
REMARK H PARENT 11 29
REMARK Flexibility Score: inf
ROOT
ATOM      1  C   UNL     1      24.652 -30.276  28.048  1.00  0.00     0.014 C 
ENDROOT
BRANCH   1   2
ATOM      2  C   UNL     1      25.169 -31.081  26.822  1.00  0.00     0.042 C 
BRANCH   2   3
ATOM      3  C   UNL     1      26.668 -30.935  26.654  1.00  0.00     0.045 C 
ATOM      4  O   UNL     1      27.270 -29.883  26.992  1.00  0.00    -0.550 OA
ATOM      5  O   UNL     1      27.411 -32.015  26.191  1.00  0.00    -0.550 OA
ENDBRANCH   2   3
BRANCH   2   6
ATOM      6  C   UNL     1      24.265 -30.916  25.539  1.00  0.00     0.033 C 
ATOM      7  C   UNL     1      24.832 -30.189  24.324  1.00  0.00     0.119 C 
ATOM      8  C   UNL     1      23.510 -32.170  24.972  1.00  0.00    -0.017 C 
ATOM      9  C   UNL     1      23.721 -30.330  23.297  1.00  0.00     0.043 C 
ATOM     10  C   UNL     1      23.091 -31.741  23.485  1.00  0.00    -0.003 C 
ATOM     11  C   UNL     1      22.263 -32.463  25.852  1.00  0.00     0.012 C 
ATOM     12  C   UNL     1      24.421 -33.435  25.016  1.00  0.00     0.013 C 
ATOM     13  C   UNL     1      23.665 -32.673  22.380  1.00  0.00     0.017 C 
ATOM     14  C   UNL     1      21.558 -31.696  23.230  1.00  0.00    -0.064 C 
ATOM     15  C   UNL     1      21.246 -33.302  25.093  1.00  0.00     0.032 C 
ATOM     16  C   UNL     1      20.696 -32.511  23.921  1.00  0.00    -0.064 C 
ATOM     17  C   UNL     1      21.044 -30.762  22.133  1.00  0.00     0.032 C 
ATOM     18  C   UNL     1      19.300 -32.873  23.343  1.00  0.00    -0.008 C 
ATOM     19  C   UNL     1      19.743 -31.205  21.473  1.00  0.00     0.009 C 
ATOM     20  C   UNL     1      18.739 -31.633  22.558  1.00  0.00     0.009 C 
ATOM     21  C   UNL     1      18.293 -33.227  24.475  1.00  0.00     0.015 C 
ATOM     22  C   UNL     1      19.538 -34.131  22.463  1.00  0.00     0.016 C 
ATOM     23  C   UNL     1      17.226 -31.687  22.089  1.00  0.00     0.005 C 
ATOM     24  C   UNL     1      16.855 -33.401  23.978  1.00  0.00     0.047 C 
ATOM     25  C   UNL     1      16.333 -32.132  23.289  1.00  0.00     0.182 C 
ATOM     26  C   UNL     1      16.765 -30.254  21.691  1.00  0.00     0.015 C 
ATOM     27  C   UNL     1      16.984 -32.598  20.852  1.00  0.00     0.015 C 
BRANCH   7  28
ATOM     28  O   UNL     1      25.999 -30.800  23.844  1.00  0.00    -0.393 OA
ATOM     29  H   UNL     1      25.765 -31.742  23.640  1.00  0.00     0.210 HD
ENDBRANCH   7  28
BRANCH  25  30
ATOM     30  O   UNL     1      14.988 -32.342  22.850  1.00  0.00    -0.462 OA
BRANCH  30  31
ATOM     31  C   UNL     1      13.861 -31.917  23.563  1.00  0.00     0.302 C 
ATOM     32  O   UNL     1      13.466 -32.545  24.583  1.00  0.00    -0.253 OA
ATOM     33  C   UNL     1      13.111 -30.719  23.093  1.00  0.00     0.139 C 
ENDBRANCH  30  31
ENDBRANCH  25  30
ENDBRANCH   2   6
ENDBRANCH   1   2
BRANCH   1  34
ATOM     34  C   UNL     1      23.641 -29.159  27.727  1.00  0.00     0.031 C 
BRANCH  34  35
ATOM     35  C   UNL     1      22.221 -29.642  27.922  1.00  0.00    -0.075 C 
ATOM     36  C   UNL     1      21.975 -30.601  28.833  1.00  0.00     0.008 C 
BRANCH  35  37
ATOM     37  C   UNL     1      21.097 -29.047  27.086  1.00  0.00     0.008 C 
ATOM     38  C   UNL     1      19.913 -30.016  26.973  1.00  0.00     0.012 C 
ATOM     39  C   UNL     1      21.600 -28.621  25.702  1.00  0.00     0.012 C 
ENDBRANCH  35  37
ENDBRANCH  34  35
ENDBRANCH   1  34
TORSDOF 9
ENDMDL
