MODEL 1
REMARK VINA RESULT:    -4.291      0.000      0.000
REMARK INTER + INTRA:          -8.187
REMARK INTER:                  -6.799
REMARK INTRA:                  -1.388
REMARK UNBOUND:                -1.388
REMARK SMILES CCCCCCCCCCCC(=O)[O-]
REMARK SMILES IDX 7 1 8 2 9 3 10 4 11 5 12 6 13 7 14 8 6 9 5 10 4 11 3 12 2 13
REMARK SMILES IDX 1 14
REMARK H PARENT
REMARK Flexibility Score: inf
ROOT
ATOM      1  C   UNL     1      20.543  16.449  35.988  1.00  0.00     0.000 C 
ENDROOT
BRANCH   1   2
ATOM      2  C   UNL     1      19.894  16.023  34.659  1.00  0.00     0.000 C 
BRANCH   2   3
ATOM      3  C   UNL     1      18.361  16.120  34.684  1.00  0.00     0.000 C 
BRANCH   3   4
ATOM      4  C   UNL     1      17.814  15.791  36.078  1.00  0.00     0.006 C 
BRANCH   4   5
ATOM      5  C   UNL     1      16.282  15.819  36.087  1.00  0.00     0.053 C 
BRANCH   5   6
ATOM      6  C   UNL     1      15.783  16.825  37.075  1.00  0.00     0.041 C 
ATOM      7  O   UNL     1      16.486  17.827  37.369  1.00  0.00    -0.550 OA
ATOM      8  O   UNL     1      14.561  16.632  37.707  1.00  0.00    -0.550 OA
ENDBRANCH   5   6
ENDBRANCH   4   5
ENDBRANCH   3   4
ENDBRANCH   2   3
ENDBRANCH   1   2
BRANCH   1   9
ATOM      9  C   UNL     1      21.125  17.878  36.004  1.00  0.00     0.000 C 
BRANCH   9  10
ATOM     10  C   UNL     1      20.276  18.919  36.756  1.00  0.00    -0.000 C 
BRANCH  10  11
ATOM     11  C   UNL     1      19.720  20.014  35.833  1.00  0.00    -0.000 C 
BRANCH  11  12
ATOM     12  C   UNL     1      20.147  19.776  34.379  1.00  0.00    -0.000 C 
BRANCH  12  13
ATOM     13  C   UNL     1      18.927  19.653  33.461  1.00  0.00    -0.003 C 
ATOM     14  C   UNL     1      17.627  19.771  34.252  1.00  0.00     0.004 C 
ENDBRANCH  12  13
ENDBRANCH  11  12
ENDBRANCH  10  11
ENDBRANCH   9  10
ENDBRANCH   1   9
TORSDOF 10
ENDMDL
MODEL 2
REMARK VINA RESULT:    -4.257      1.209      2.022
REMARK INTER + INTRA:          -8.134
REMARK INTER:                  -6.672
REMARK INTRA:                  -1.462
REMARK UNBOUND:                -1.388
REMARK SMILES CCCCCCCCCCCC(=O)[O-]
REMARK SMILES IDX 7 1 8 2 9 3 10 4 11 5 12 6 13 7 14 8 6 9 5 10 4 11 3 12 2 13
REMARK SMILES IDX 1 14
REMARK H PARENT
REMARK Flexibility Score: inf
ROOT
ATOM      1  C   UNL     1      18.886  16.450  33.661  1.00  0.00     0.000 C 
ENDROOT
BRANCH   1   2
ATOM      2  C   UNL     1      17.452  16.111  34.107  1.00  0.00     0.000 C 
BRANCH   2   3
ATOM      3  C   UNL     1      16.737  17.296  34.774  1.00  0.00     0.000 C 
BRANCH   3   4
ATOM      4  C   UNL     1      16.840  17.209  36.301  1.00  0.00     0.006 C 
BRANCH   4   5
ATOM      5  C   UNL     1      16.604  15.776  36.787  1.00  0.00     0.053 C 
BRANCH   5   6
ATOM      6  C   UNL     1      15.340  15.695  37.583  1.00  0.00     0.041 C 
ATOM      7  O   UNL     1      14.540  16.667  37.603  1.00  0.00    -0.550 OA
ATOM      8  O   UNL     1      15.069  14.564  38.343  1.00  0.00    -0.550 OA
ENDBRANCH   5   6
ENDBRANCH   4   5
ENDBRANCH   3   4
ENDBRANCH   2   3
ENDBRANCH   1   2
BRANCH   1   9
ATOM      9  C   UNL     1      19.995  16.026  34.646  1.00  0.00     0.000 C 
BRANCH   9  10
ATOM     10  C   UNL     1      20.549  17.157  35.531  1.00  0.00    -0.000 C 
BRANCH  10  11
ATOM     11  C   UNL     1      20.852  18.439  34.741  1.00  0.00    -0.000 C 
BRANCH  11  12
ATOM     12  C   UNL     1      20.536  19.686  35.576  1.00  0.00    -0.000 C 
BRANCH  12  13
ATOM     13  C   UNL     1      19.099  20.160  35.334  1.00  0.00    -0.003 C 
ATOM     14  C   UNL     1      18.785  20.231  33.842  1.00  0.00     0.004 C 
ENDBRANCH  12  13
ENDBRANCH  11  12
ENDBRANCH  10  11
ENDBRANCH   9  10
ENDBRANCH   1   9
TORSDOF 10
ENDMDL
MODEL 3
REMARK VINA RESULT:    -4.237      1.347      2.534
REMARK INTER + INTRA:          -8.102
REMARK INTER:                  -6.804
REMARK INTRA:                  -1.298
REMARK UNBOUND:                -1.388
REMARK SMILES CCCCCCCCCCCC(=O)[O-]
REMARK SMILES IDX 7 1 8 2 9 3 10 4 11 5 12 6 13 7 14 8 6 9 5 10 4 11 3 12 2 13
REMARK SMILES IDX 1 14
REMARK H PARENT
REMARK Flexibility Score: inf
ROOT
ATOM      1  C   UNL     1      17.602  17.672  32.918  1.00  0.00     0.000 C 
ENDROOT
BRANCH   1   2
ATOM      2  C   UNL     1      18.429  16.397  33.167  1.00  0.00     0.000 C 
BRANCH   2   3
ATOM      3  C   UNL     1      18.315  15.884  34.611  1.00  0.00     0.000 C 
BRANCH   3   4
ATOM      4  C   UNL     1      16.963  16.266  35.224  1.00  0.00     0.006 C 
BRANCH   4   5
ATOM      5  C   UNL     1      16.903  15.880  36.705  1.00  0.00     0.053 C 
BRANCH   5   6
ATOM      6  C   UNL     1      15.529  16.110  37.250  1.00  0.00     0.041 C 
ATOM      7  O   UNL     1      15.349  16.925  38.193  1.00  0.00    -0.550 OA
ATOM      8  O   UNL     1      14.453  15.387  36.750  1.00  0.00    -0.550 OA
ENDBRANCH   5   6
ENDBRANCH   4   5
ENDBRANCH   3   4
ENDBRANCH   2   3
ENDBRANCH   1   2
BRANCH   1   9
ATOM      9  C   UNL     1      18.415  18.901  32.463  1.00  0.00     0.000 C 
BRANCH   9  10
ATOM     10  C   UNL     1      18.689  19.945  33.560  1.00  0.00    -0.000 C 
BRANCH  10  11
ATOM     11  C   UNL     1      20.007  19.694  34.307  1.00  0.00    -0.000 C 
BRANCH  11  12
ATOM     12  C   UNL     1      19.877  20.065  35.789  1.00  0.00    -0.000 C 
BRANCH  12  13
ATOM     13  C   UNL     1      19.053  19.019  36.548  1.00  0.00    -0.003 C 
ATOM     14  C   UNL     1      17.763  19.624  37.094  1.00  0.00     0.004 C 
ENDBRANCH  12  13
ENDBRANCH  11  12
ENDBRANCH  10  11
ENDBRANCH   9  10
ENDBRANCH   1   9
TORSDOF 10
ENDMDL
MODEL 4
REMARK VINA RESULT:    -4.233      1.350      2.510
REMARK INTER + INTRA:          -8.096
REMARK INTER:                  -6.826
REMARK INTRA:                  -1.270
REMARK UNBOUND:                -1.388
REMARK SMILES CCCCCCCCCCCC(=O)[O-]
REMARK SMILES IDX 7 1 8 2 9 3 10 4 11 5 12 6 13 7 14 8 6 9 5 10 4 11 3 12 2 13
REMARK SMILES IDX 1 14
REMARK H PARENT
REMARK Flexibility Score: inf
ROOT
ATOM      1  C   UNL     1      19.234  17.044  33.251  1.00  0.00     0.000 C 
ENDROOT
BRANCH   1   2
ATOM      2  C   UNL     1      19.546  16.020  34.357  1.00  0.00     0.000 C 
BRANCH   2   3
ATOM      3  C   UNL     1      18.784  16.298  35.662  1.00  0.00     0.000 C 
BRANCH   3   4
ATOM      4  C   UNL     1      17.278  16.418  35.403  1.00  0.00     0.006 C 
BRANCH   4   5
ATOM      5  C   UNL     1      16.575  17.126  36.565  1.00  0.00     0.053 C 
BRANCH   5   6
ATOM      6  C   UNL     1      15.592  16.209  37.219  1.00  0.00     0.041 C 
ATOM      7  O   UNL     1      14.582  16.677  37.809  1.00  0.00    -0.550 OA
ATOM      8  O   UNL     1      15.815  14.837  37.220  1.00  0.00    -0.550 OA
ENDBRANCH   5   6
ENDBRANCH   4   5
ENDBRANCH   3   4
ENDBRANCH   2   3
ENDBRANCH   1   2
BRANCH   1   9
ATOM      9  C   UNL     1      19.871  18.435  33.448  1.00  0.00     0.000 C 
BRANCH   9  10
ATOM     10  C   UNL     1      18.883  19.615  33.421  1.00  0.00    -0.000 C 
BRANCH  10  11
ATOM     11  C   UNL     1      18.460  20.071  34.825  1.00  0.00    -0.000 C 
BRANCH  11  12
ATOM     12  C   UNL     1      19.684  20.335  35.709  1.00  0.00    -0.000 C 
BRANCH  12  13
ATOM     13  C   UNL     1      19.487  19.749  37.111  1.00  0.00    -0.003 C 
ATOM     14  C   UNL     1      20.339  20.485  38.141  1.00  0.00     0.004 C 
ENDBRANCH  12  13
ENDBRANCH  11  12
ENDBRANCH  10  11
ENDBRANCH   9  10
ENDBRANCH   1   9
TORSDOF 10
ENDMDL
MODEL 5
REMARK VINA RESULT:    -4.146      1.185      2.765
REMARK INTER + INTRA:          -7.957
REMARK INTER:                  -6.512
REMARK INTRA:                  -1.444
REMARK UNBOUND:                -1.388
REMARK SMILES CCCCCCCCCCCC(=O)[O-]
REMARK SMILES IDX 7 1 8 2 9 3 10 4 11 5 12 6 13 7 14 8 6 9 5 10 4 11 3 12 2 13
REMARK SMILES IDX 1 14
REMARK H PARENT
REMARK Flexibility Score: inf
ROOT
ATOM      1  C   UNL     1      17.676  18.427  32.820  1.00  0.00     0.000 C 
ENDROOT
BRANCH   1   2
ATOM      2  C   UNL     1      16.873  17.633  33.866  1.00  0.00     0.000 C 
BRANCH   2   3
ATOM      3  C   UNL     1      17.392  16.199  34.054  1.00  0.00     0.000 C 
BRANCH   3   4
ATOM      4  C   UNL     1      17.248  15.751  35.513  1.00  0.00     0.006 C 
BRANCH   4   5
ATOM      5  C   UNL     1      16.723  16.893  36.389  1.00  0.00     0.053 C 
BRANCH   5   6
ATOM      6  C   UNL     1      15.500  16.460  37.135  1.00  0.00     0.041 C 
ATOM      7  O   UNL     1      14.812  15.492  36.718  1.00  0.00    -0.550 OA
ATOM      8  O   UNL     1      15.093  17.158  38.266  1.00  0.00    -0.550 OA
ENDBRANCH   5   6
ENDBRANCH   4   5
ENDBRANCH   3   4
ENDBRANCH   2   3
ENDBRANCH   1   2
BRANCH   1   9
ATOM      9  C   UNL     1      18.660  19.464  33.400  1.00  0.00     0.000 C 
BRANCH   9  10
ATOM     10  C   UNL     1      18.500  19.745  34.905  1.00  0.00    -0.000 C 
BRANCH  10  11
ATOM     11  C   UNL     1      19.776  20.309  35.546  1.00  0.00    -0.000 C 
BRANCH  11  12
ATOM     12  C   UNL     1      20.885  19.250  35.586  1.00  0.00    -0.000 C 
BRANCH  12  13
ATOM     13  C   UNL     1      20.422  17.996  36.335  1.00  0.00    -0.003 C 
ATOM     14  C   UNL     1      20.793  16.729  35.571  1.00  0.00     0.004 C 
ENDBRANCH  12  13
ENDBRANCH  11  12
ENDBRANCH  10  11
ENDBRANCH   9  10
ENDBRANCH   1   9
TORSDOF 10
ENDMDL
MODEL 6
REMARK VINA RESULT:    -4.089      1.529      3.253
REMARK INTER + INTRA:          -7.868
REMARK INTER:                  -6.249
REMARK INTRA:                  -1.618
REMARK UNBOUND:                -1.388
REMARK SMILES CCCCCCCCCCCC(=O)[O-]
REMARK SMILES IDX 7 1 8 2 9 3 10 4 11 5 12 6 13 7 14 8 6 9 5 10 4 11 3 12 2 13
REMARK SMILES IDX 1 14
REMARK H PARENT
REMARK Flexibility Score: inf
ROOT
ATOM      1  C   UNL     1      18.424  19.887  35.126  1.00  0.00     0.000 C 
ENDROOT
BRANCH   1   2
ATOM      2  C   UNL     1      19.444  19.050  35.918  1.00  0.00     0.000 C 
BRANCH   2   3
ATOM      3  C   UNL     1      18.924  17.647  36.267  1.00  0.00     0.000 C 
BRANCH   3   4
ATOM      4  C   UNL     1      17.394  17.640  36.370  1.00  0.00     0.006 C 
BRANCH   4   5
ATOM      5  C   UNL     1      16.851  16.208  36.379  1.00  0.00     0.053 C 
BRANCH   5   6
ATOM      6  C   UNL     1      15.565  16.140  37.142  1.00  0.00     0.041 C 
ATOM      7  O   UNL     1      15.393  16.863  38.159  1.00  0.00    -0.550 OA
ATOM      8  O   UNL     1      14.576  15.244  36.757  1.00  0.00    -0.550 OA
ENDBRANCH   5   6
ENDBRANCH   4   5
ENDBRANCH   3   4
ENDBRANCH   2   3
ENDBRANCH   1   2
BRANCH   1   9
ATOM      9  C   UNL     1      18.873  20.297  33.709  1.00  0.00     0.000 C 
BRANCH   9  10
ATOM     10  C   UNL     1      18.706  19.211  32.631  1.00  0.00    -0.000 C 
BRANCH  10  11
ATOM     11  C   UNL     1      17.355  18.488  32.717  1.00  0.00    -0.000 C 
BRANCH  11  12
ATOM     12  C   UNL     1      17.542  16.966  32.685  1.00  0.00    -0.000 C 
BRANCH  12  13
ATOM     13  C   UNL     1      19.029  16.595  32.705  1.00  0.00    -0.003 C 
ATOM     14  C   UNL     1      19.253  15.252  33.395  1.00  0.00     0.004 C 
ENDBRANCH  12  13
ENDBRANCH  11  12
ENDBRANCH  10  11
ENDBRANCH   9  10
ENDBRANCH   1   9
TORSDOF 10
ENDMDL
MODEL 7
REMARK VINA RESULT:    -3.943      2.263      3.624
REMARK INTER + INTRA:          -7.636
REMARK INTER:                  -6.350
REMARK INTRA:                  -1.286
REMARK UNBOUND:                -1.388
REMARK SMILES CCCCCCCCCCCC(=O)[O-]
REMARK SMILES IDX 7 1 8 2 9 3 10 4 11 5 12 6 13 7 14 8 6 9 5 10 4 11 3 12 2 13
REMARK SMILES IDX 1 14
REMARK H PARENT
REMARK Flexibility Score: inf
ROOT
ATOM      1  C   UNL     1      18.517  20.029  34.398  1.00  0.00     0.000 C 
ENDROOT
BRANCH   1   2
ATOM      2  C   UNL     1      18.181  19.250  35.682  1.00  0.00     0.000 C 
BRANCH   2   3
ATOM      3  C   UNL     1      18.837  17.861  35.727  1.00  0.00     0.000 C 
BRANCH   3   4
ATOM      4  C   UNL     1      17.803  16.776  36.046  1.00  0.00     0.006 C 
BRANCH   4   5
ATOM      5  C   UNL     1      16.566  17.377  36.723  1.00  0.00     0.053 C 
BRANCH   5   6
ATOM      6  C   UNL     1      15.598  16.300  37.097  1.00  0.00     0.041 C 
ATOM      7  O   UNL     1      15.177  16.208  38.280  1.00  0.00    -0.550 OA
ATOM      8  O   UNL     1      15.198  15.366  36.149  1.00  0.00    -0.550 OA
ENDBRANCH   5   6
ENDBRANCH   4   5
ENDBRANCH   3   4
ENDBRANCH   2   3
ENDBRANCH   1   2
BRANCH   1   9
ATOM      9  C   UNL     1      18.944  19.159  33.197  1.00  0.00     0.000 C 
BRANCH   9  10
ATOM     10  C   UNL     1      17.823  18.841  32.191  1.00  0.00    -0.000 C 
BRANCH  10  11
ATOM     11  C   UNL     1      17.266  17.419  32.349  1.00  0.00    -0.000 C 
BRANCH  11  12
ATOM     12  C   UNL     1      15.786  17.451  32.751  1.00  0.00    -0.000 C 
BRANCH  12  13
ATOM     13  C   UNL     1      15.143  18.790  32.376  1.00  0.00    -0.003 C 
ATOM     14  C   UNL     1      14.174  18.628  31.208  1.00  0.00     0.004 C 
ENDBRANCH  12  13
ENDBRANCH  11  12
ENDBRANCH  10  11
ENDBRANCH   9  10
ENDBRANCH   1   9
TORSDOF 10
ENDMDL
MODEL 8
REMARK VINA RESULT:    -3.876     16.089     18.256
REMARK INTER + INTRA:          -7.530
REMARK INTER:                  -5.991
REMARK INTRA:                  -1.539
REMARK UNBOUND:                -1.388
REMARK SMILES CCCCCCCCCCCC(=O)[O-]
REMARK SMILES IDX 7 1 8 2 9 3 10 4 11 5 12 6 13 7 14 8 6 9 5 10 4 11 3 12 2 13
REMARK SMILES IDX 1 14
REMARK H PARENT
REMARK Flexibility Score: inf
ROOT
ATOM      1  C   UNL     1       7.419  32.986  27.938  1.00  0.00     0.000 C 
ENDROOT
BRANCH   1   2
ATOM      2  C   UNL     1       8.111  32.609  29.260  1.00  0.00     0.000 C 
BRANCH   2   3
ATOM      3  C   UNL     1       9.630  32.836  29.226  1.00  0.00     0.000 C 
BRANCH   3   4
ATOM      4  C   UNL     1      10.385  31.557  29.601  1.00  0.00     0.006 C 
BRANCH   4   5
ATOM      5  C   UNL     1       9.499  30.617  30.426  1.00  0.00     0.053 C 
BRANCH   5   6
ATOM      6  C   UNL     1       9.883  30.669  31.871  1.00  0.00     0.041 C 
ATOM      7  O   UNL     1      10.621  29.775  32.363  1.00  0.00    -0.550 OA
ATOM      8  O   UNL     1       9.386  31.678  32.686  1.00  0.00    -0.550 OA
ENDBRANCH   5   6
ENDBRANCH   4   5
ENDBRANCH   3   4
ENDBRANCH   2   3
ENDBRANCH   1   2
BRANCH   1   9
ATOM      9  C   UNL     1       8.286  32.814  26.674  1.00  0.00     0.000 C 
BRANCH   9  10
ATOM     10  C   UNL     1       8.111  31.471  25.941  1.00  0.00    -0.000 C 
BRANCH  10  11
ATOM     11  C   UNL     1       9.409  30.654  25.875  1.00  0.00    -0.000 C 
BRANCH  11  12
ATOM     12  C   UNL     1       9.349  29.452  26.826  1.00  0.00    -0.000 C 
BRANCH  12  13
ATOM     13  C   UNL     1       7.952  28.823  26.831  1.00  0.00    -0.003 C 
ATOM     14  C   UNL     1       7.444  28.620  28.256  1.00  0.00     0.004 C 
ENDBRANCH  12  13
ENDBRANCH  11  12
ENDBRANCH  10  11
ENDBRANCH   9  10
ENDBRANCH   1   9
TORSDOF 10
ENDMDL
MODEL 9
REMARK VINA RESULT:    -3.869      2.272      3.370
REMARK INTER + INTRA:          -7.519
REMARK INTER:                  -6.335
REMARK INTRA:                  -1.184
REMARK UNBOUND:                -1.388
REMARK SMILES CCCCCCCCCCCC(=O)[O-]
REMARK SMILES IDX 7 1 8 2 9 3 10 4 11 5 12 6 13 7 14 8 6 9 5 10 4 11 3 12 2 13
REMARK SMILES IDX 1 14
REMARK H PARENT
REMARK Flexibility Score: inf
ROOT
ATOM      1  C   UNL     1      19.114  19.601  33.360  1.00  0.00     0.000 C 
ENDROOT
BRANCH   1   2
ATOM      2  C   UNL     1      18.267  18.823  32.337  1.00  0.00     0.000 C 
BRANCH   2   3
ATOM      3  C   UNL     1      16.810  18.635  32.786  1.00  0.00     0.000 C 
BRANCH   3   4
ATOM      4  C   UNL     1      16.288  17.250  32.388  1.00  0.00     0.006 C 
BRANCH   4   5
ATOM      5  C   UNL     1      16.794  16.173  33.353  1.00  0.00     0.053 C 
BRANCH   5   6
ATOM      6  C   UNL     1      15.644  15.440  33.969  1.00  0.00     0.041 C 
ATOM      7  O   UNL     1      14.710  15.004  33.246  1.00  0.00    -0.550 OA
ATOM      8  O   UNL     1      15.580  15.281  35.348  1.00  0.00    -0.550 OA
ENDBRANCH   5   6
ENDBRANCH   4   5
ENDBRANCH   3   4
ENDBRANCH   2   3
ENDBRANCH   1   2
BRANCH   1   9
ATOM      9  C   UNL     1      20.317  18.827  33.938  1.00  0.00     0.000 C 
BRANCH   9  10
ATOM     10  C   UNL     1      20.868  19.375  35.266  1.00  0.00    -0.000 C 
BRANCH  10  11
ATOM     11  C   UNL     1      19.917  20.375  35.940  1.00  0.00    -0.000 C 
BRANCH  11  12
ATOM     12  C   UNL     1      19.197  19.732  37.131  1.00  0.00    -0.000 C 
BRANCH  12  13
ATOM     13  C   UNL     1      17.701  19.565  36.844  1.00  0.00    -0.003 C 
ATOM     14  C   UNL     1      17.370  18.126  36.461  1.00  0.00     0.004 C 
ENDBRANCH  12  13
ENDBRANCH  11  12
ENDBRANCH  10  11
ENDBRANCH   9  10
ENDBRANCH   1   9
TORSDOF 10
ENDMDL
