MODEL 1
REMARK VINA RESULT:    -3.176      0.000      0.000
REMARK INTER + INTRA:          -5.775
REMARK INTER:                  -4.847
REMARK INTRA:                  -0.927
REMARK UNBOUND:                -0.927
REMARK SMILES O=C([O-])CCCCCCCCC(=O)[O-]
REMARK SMILES IDX 7 1 6 2 5 3 4 4 2 5 1 6 3 7 8 8 9 9 10 10 11 11 12 12 13 13
REMARK SMILES IDX 14 14
REMARK H PARENT
REMARK Flexibility Score: inf
ROOT
ATOM      1  C   UNL     1     -98.859 -44.600 -12.035  1.00  0.00     0.000 C 
ENDROOT
BRANCH   1   2
ATOM      2  C   UNL     1     -98.124 -45.950 -12.101  1.00  0.00     0.000 C 
BRANCH   2   3
ATOM      3  C   UNL     1     -96.597 -45.793 -12.018  1.00  0.00     0.006 C 
BRANCH   3   4
ATOM      4  C   UNL     1     -95.870 -47.140 -11.912  1.00  0.00     0.053 C 
BRANCH   4   5
ATOM      5  C   UNL     1     -94.388 -46.934 -11.905  1.00  0.00     0.041 C 
ATOM      6  O   UNL     1     -93.849 -46.176 -12.753  1.00  0.00    -0.550 OA
ATOM      7  O   UNL     1     -93.607 -47.539 -10.928  1.00  0.00    -0.550 OA
ENDBRANCH   4   5
ENDBRANCH   3   4
ENDBRANCH   2   3
ENDBRANCH   1   2
BRANCH   1   8
ATOM      8  C   UNL     1     -97.930 -43.429 -11.667  1.00  0.00     0.000 C 
BRANCH   8   9
ATOM      9  C   UNL     1     -98.095 -42.888 -10.235  1.00  0.00     0.000 C 
BRANCH   9  10
ATOM     10  C   UNL     1     -96.874 -43.164  -9.345  1.00  0.00     0.006 C 
BRANCH  10  11
ATOM     11  C   UNL     1     -97.136 -44.346  -8.406  1.00  0.00     0.053 C 
BRANCH  11  12
ATOM     12  C   UNL     1     -96.084 -45.396  -8.580  1.00  0.00     0.041 C 
ATOM     13  O   UNL     1     -94.921 -45.075  -8.938  1.00  0.00    -0.550 OA
ATOM     14  O   UNL     1     -96.375 -46.725  -8.299  1.00  0.00    -0.550 OA
ENDBRANCH  11  12
ENDBRANCH  10  11
ENDBRANCH   9  10
ENDBRANCH   8   9
ENDBRANCH   1   8
TORSDOF 9
ENDMDL
MODEL 2
REMARK VINA RESULT:    -3.105      1.248      4.264
REMARK INTER + INTRA:          -5.666
REMARK INTER:                  -4.716
REMARK INTRA:                  -0.951
REMARK UNBOUND:                -0.927
REMARK SMILES O=C([O-])CCCCCCCCC(=O)[O-]
REMARK SMILES IDX 7 1 6 2 5 3 4 4 2 5 1 6 3 7 8 8 9 9 10 10 11 11 12 12 13 13
REMARK SMILES IDX 14 14
REMARK H PARENT
REMARK Flexibility Score: inf
ROOT
ATOM      1  C   UNL     1     -99.440 -45.440 -12.267  1.00  0.00     0.000 C 
ENDROOT
BRANCH   1   2
ATOM      2  C   UNL     1     -98.755 -44.064 -12.192  1.00  0.00     0.000 C 
BRANCH   2   3
ATOM      3  C   UNL     1     -98.696 -43.513 -10.758  1.00  0.00     0.006 C 
BRANCH   3   4
ATOM      4  C   UNL     1     -97.265 -43.200 -10.304  1.00  0.00     0.053 C 
BRANCH   4   5
ATOM      5  C   UNL     1     -96.974 -43.869  -8.998  1.00  0.00     0.041 C 
ATOM      6  O   UNL     1     -97.845 -43.892  -8.089  1.00  0.00    -0.550 OA
ATOM      7  O   UNL     1     -95.759 -44.513  -8.803  1.00  0.00    -0.550 OA
ENDBRANCH   4   5
ENDBRANCH   3   4
ENDBRANCH   2   3
ENDBRANCH   1   2
BRANCH   1   8
ATOM      8  C   UNL     1     -98.438 -46.607 -12.319  1.00  0.00     0.000 C 
BRANCH   8   9
ATOM      9  C   UNL     1     -97.848 -47.023 -10.958  1.00  0.00     0.000 C 
BRANCH   9  10
ATOM     10  C   UNL     1     -96.319 -47.165 -10.985  1.00  0.00     0.006 C 
BRANCH  10  11
ATOM     11  C   UNL     1     -95.691 -46.162 -11.959  1.00  0.00     0.053 C 
BRANCH  11  12
ATOM     12  C   UNL     1     -94.288 -46.560 -12.289  1.00  0.00     0.041 C 
ATOM     13  O   UNL     1     -93.807 -47.627 -11.827  1.00  0.00    -0.550 OA
ATOM     14  O   UNL     1     -93.527 -45.776 -13.147  1.00  0.00    -0.550 OA
ENDBRANCH  11  12
ENDBRANCH  10  11
ENDBRANCH   9  10
ENDBRANCH   8   9
ENDBRANCH   1   8
TORSDOF 9
ENDMDL
MODEL 3
REMARK VINA RESULT:    -3.080      1.038      3.777
REMARK INTER + INTRA:          -5.628
REMARK INTER:                  -4.598
REMARK INTRA:                  -1.030
REMARK UNBOUND:                -0.927
REMARK SMILES O=C([O-])CCCCCCCCC(=O)[O-]
REMARK SMILES IDX 7 1 6 2 5 3 4 4 2 5 1 6 3 7 8 8 9 9 10 10 11 11 12 12 13 13
REMARK SMILES IDX 14 14
REMARK H PARENT
REMARK Flexibility Score: inf
ROOT
ATOM      1  C   UNL     1     -98.108 -42.986 -10.535  1.00  0.00     0.000 C 
ENDROOT
BRANCH   1   2
ATOM      2  C   UNL     1     -97.758 -43.436  -9.107  1.00  0.00     0.000 C 
BRANCH   2   3
ATOM      3  C   UNL     1     -96.346 -44.037  -9.008  1.00  0.00     0.006 C 
BRANCH   3   4
ATOM      4  C   UNL     1     -96.302 -45.303  -8.142  1.00  0.00     0.053 C 
BRANCH   4   5
ATOM      5  C   UNL     1     -95.192 -46.202  -8.590  1.00  0.00     0.041 C 
ATOM      6  O   UNL     1     -95.352 -47.450  -8.600  1.00  0.00    -0.550 OA
ATOM      7  O   UNL     1     -93.998 -45.657  -9.044  1.00  0.00    -0.550 OA
ENDBRANCH   4   5
ENDBRANCH   3   4
ENDBRANCH   2   3
ENDBRANCH   1   2
BRANCH   1   8
ATOM      8  C   UNL     1     -97.371 -43.796 -11.617  1.00  0.00     0.000 C 
BRANCH   8   9
ATOM      9  C   UNL     1     -98.068 -45.100 -12.046  1.00  0.00     0.000 C 
BRANCH   9  10
ATOM     10  C   UNL     1     -97.136 -46.320 -12.008  1.00  0.00     0.006 C 
BRANCH  10  11
ATOM     11  C   UNL     1     -95.674 -45.899 -12.197  1.00  0.00     0.053 C 
BRANCH  11  12
ATOM     12  C   UNL     1     -94.782 -47.099 -12.211  1.00  0.00     0.041 C 
ATOM     13  O   UNL     1     -95.269 -48.253 -12.087  1.00  0.00    -0.550 OA
ATOM     14  O   UNL     1     -93.415 -46.947 -12.411  1.00  0.00    -0.550 OA
ENDBRANCH  11  12
ENDBRANCH  10  11
ENDBRANCH   9  10
ENDBRANCH   8   9
ENDBRANCH   1   8
TORSDOF 9
ENDMDL
MODEL 4
REMARK VINA RESULT:    -2.963      2.768      4.168
REMARK INTER + INTRA:          -5.449
REMARK INTER:                  -4.908
REMARK INTRA:                  -0.541
REMARK UNBOUND:                -0.927
REMARK SMILES O=C([O-])CCCCCCCCC(=O)[O-]
REMARK SMILES IDX 7 1 6 2 5 3 4 4 2 5 1 6 3 7 8 8 9 9 10 10 11 11 12 12 13 13
REMARK SMILES IDX 14 14
REMARK H PARENT
REMARK Flexibility Score: inf
ROOT
ATOM      1  C   UNL     1     -98.992 -43.226 -11.964  1.00  0.00     0.000 C 
ENDROOT
BRANCH   1   2
ATOM      2  C   UNL     1    -100.039 -44.267 -12.395  1.00  0.00     0.000 C 
BRANCH   2   3
ATOM      3  C   UNL     1     -99.454 -45.685 -12.497  1.00  0.00     0.006 C 
BRANCH   3   4
ATOM      4  C   UNL     1    -100.528 -46.751 -12.752  1.00  0.00     0.053 C 
BRANCH   4   5
ATOM      5  C   UNL     1     -99.905 -48.000 -13.291  1.00  0.00     0.041 C 
ATOM      6  O   UNL     1    -100.612 -48.858 -13.881  1.00  0.00    -0.550 OA
ATOM      7  O   UNL     1     -98.533 -48.193 -13.185  1.00  0.00    -0.550 OA
ENDBRANCH   4   5
ENDBRANCH   3   4
ENDBRANCH   2   3
ENDBRANCH   1   2
BRANCH   1   8
ATOM      8  C   UNL     1     -97.554 -43.775 -11.994  1.00  0.00     0.000 C 
BRANCH   8   9
ATOM      9  C   UNL     1     -96.946 -44.092 -10.615  1.00  0.00     0.000 C 
BRANCH   9  10
ATOM     10  C   UNL     1     -96.193 -45.430 -10.584  1.00  0.00     0.006 C 
BRANCH  10  11
ATOM     11  C   UNL     1     -95.951 -45.957 -12.003  1.00  0.00     0.053 C 
BRANCH  11  12
ATOM     12  C   UNL     1     -94.615 -46.623 -12.093  1.00  0.00     0.041 C 
ATOM     13  O   UNL     1     -94.447 -47.773 -11.611  1.00  0.00    -0.550 OA
ATOM     14  O   UNL     1     -93.568 -45.994 -12.755  1.00  0.00    -0.550 OA
ENDBRANCH  11  12
ENDBRANCH  10  11
ENDBRANCH   9  10
ENDBRANCH   8   9
ENDBRANCH   1   8
TORSDOF 9
ENDMDL
MODEL 5
REMARK VINA RESULT:    -2.941      2.756      3.940
REMARK INTER + INTRA:          -5.415
REMARK INTER:                  -4.580
REMARK INTRA:                  -0.835
REMARK UNBOUND:                -0.927
REMARK SMILES O=C([O-])CCCCCCCCC(=O)[O-]
REMARK SMILES IDX 7 1 6 2 5 3 4 4 2 5 1 6 3 7 8 8 9 9 10 10 11 11 12 12 13 13
REMARK SMILES IDX 14 14
REMARK H PARENT
REMARK Flexibility Score: inf
ROOT
ATOM      1  C   UNL     1     -97.309 -43.666 -11.685  1.00  0.00     0.000 C 
ENDROOT
BRANCH   1   2
ATOM      2  C   UNL     1     -97.001 -44.395 -10.366  1.00  0.00     0.000 C 
BRANCH   2   3
ATOM      3  C   UNL     1     -96.086 -45.614 -10.566  1.00  0.00     0.006 C 
BRANCH   3   4
ATOM      4  C   UNL     1     -95.794 -45.897 -12.045  1.00  0.00     0.053 C 
BRANCH   4   5
ATOM      5  C   UNL     1     -94.385 -46.373 -12.217  1.00  0.00     0.041 C 
ATOM      6  O   UNL     1     -93.632 -45.831 -13.067  1.00  0.00    -0.550 OA
ATOM      7  O   UNL     1     -93.889 -47.383 -11.401  1.00  0.00    -0.550 OA
ENDBRANCH   4   5
ENDBRANCH   3   4
ENDBRANCH   2   3
ENDBRANCH   1   2
BRANCH   1   8
ATOM      8  C   UNL     1     -98.807 -43.680 -12.041  1.00  0.00     0.000 C 
BRANCH   8   9
ATOM      9  C   UNL     1     -99.578 -44.930 -11.580  1.00  0.00     0.000 C 
BRANCH   9  10
ATOM     10  C   UNL     1     -99.613 -46.040 -12.641  1.00  0.00     0.006 C 
BRANCH  10  11
ATOM     11  C   UNL     1     -99.093 -47.363 -12.069  1.00  0.00     0.053 C 
BRANCH  11  12
ATOM     12  C   UNL     1     -99.669 -48.521 -12.820  1.00  0.00     0.041 C 
ATOM     13  O   UNL     1    -100.245 -48.337 -13.924  1.00  0.00    -0.550 OA
ATOM     14  O   UNL     1     -99.528 -49.811 -12.324  1.00  0.00    -0.550 OA
ENDBRANCH  11  12
ENDBRANCH  10  11
ENDBRANCH   9  10
ENDBRANCH   8   9
ENDBRANCH   1   8
TORSDOF 9
ENDMDL
MODEL 6
REMARK VINA RESULT:    -2.915      1.999      3.392
REMARK INTER + INTRA:          -5.376
REMARK INTER:                  -4.328
REMARK INTRA:                  -1.048
REMARK UNBOUND:                -0.927
REMARK SMILES O=C([O-])CCCCCCCCC(=O)[O-]
REMARK SMILES IDX 7 1 6 2 5 3 4 4 2 5 1 6 3 7 8 8 9 9 10 10 11 11 12 12 13 13
REMARK SMILES IDX 14 14
REMARK H PARENT
REMARK Flexibility Score: inf
ROOT
ATOM      1  C   UNL     1     -97.071 -44.527  -8.276  1.00  0.00     0.000 C 
ENDROOT
BRANCH   1   2
ATOM      2  C   UNL     1     -96.080 -45.701  -8.203  1.00  0.00     0.000 C 
BRANCH   2   3
ATOM      3  C   UNL     1     -94.836 -45.477  -9.078  1.00  0.00     0.006 C 
BRANCH   3   4
ATOM      4  C   UNL     1     -94.045 -46.769  -9.323  1.00  0.00     0.053 C 
BRANCH   4   5
ATOM      5  C   UNL     1     -94.393 -47.348 -10.659  1.00  0.00     0.041 C 
ATOM      6  O   UNL     1     -95.322 -48.191 -10.762  1.00  0.00    -0.550 OA
ATOM      7  O   UNL     1     -93.723 -46.917 -11.797  1.00  0.00    -0.550 OA
ENDBRANCH   4   5
ENDBRANCH   3   4
ENDBRANCH   2   3
ENDBRANCH   1   2
BRANCH   1   8
ATOM      8  C   UNL     1     -96.684 -43.482  -9.338  1.00  0.00     0.000 C 
BRANCH   8   9
ATOM      9  C   UNL     1     -97.746 -43.230 -10.425  1.00  0.00     0.000 C 
BRANCH   9  10
ATOM     10  C   UNL     1     -97.247 -43.562 -11.839  1.00  0.00     0.006 C 
BRANCH  10  11
ATOM     11  C   UNL     1     -96.972 -45.062 -11.986  1.00  0.00     0.053 C 
BRANCH  11  12
ATOM     12  C   UNL     1     -98.235 -45.845 -11.809  1.00  0.00     0.041 C 
ATOM     13  O   UNL     1     -98.321 -46.712 -10.900  1.00  0.00    -0.550 OA
ATOM     14  O   UNL     1     -99.335 -45.582 -12.616  1.00  0.00    -0.550 OA
ENDBRANCH  11  12
ENDBRANCH  10  11
ENDBRANCH   9  10
ENDBRANCH   8   9
ENDBRANCH   1   8
TORSDOF 9
ENDMDL
MODEL 7
REMARK VINA RESULT:    -2.880      2.038      2.836
REMARK INTER + INTRA:          -5.322
REMARK INTER:                  -4.492
REMARK INTRA:                  -0.830
REMARK UNBOUND:                -0.927
REMARK SMILES O=C([O-])CCCCCCCCC(=O)[O-]
REMARK SMILES IDX 7 1 6 2 5 3 4 4 2 5 1 6 3 7 8 8 9 9 10 10 11 11 12 12 13 13
REMARK SMILES IDX 14 14
REMARK H PARENT
REMARK Flexibility Score: inf
ROOT
ATOM      1  C   UNL     1     -98.416 -43.135 -10.621  1.00  0.00     0.000 C 
ENDROOT
BRANCH   1   2
ATOM      2  C   UNL     1     -97.699 -43.532 -11.923  1.00  0.00     0.000 C 
BRANCH   2   3
ATOM      3  C   UNL     1     -97.293 -45.015 -11.943  1.00  0.00     0.006 C 
BRANCH   3   4
ATOM      4  C   UNL     1     -98.503 -45.958 -11.978  1.00  0.00     0.053 C 
BRANCH   4   5
ATOM      5  C   UNL     1     -98.087 -47.324 -12.428  1.00  0.00     0.041 C 
ATOM      6  O   UNL     1     -96.970 -47.791 -12.086  1.00  0.00    -0.550 OA
ATOM      7  O   UNL     1     -98.956 -48.100 -13.184  1.00  0.00    -0.550 OA
ENDBRANCH   4   5
ENDBRANCH   3   4
ENDBRANCH   2   3
ENDBRANCH   1   2
BRANCH   1   8
ATOM      8  C   UNL     1     -97.465 -43.051  -9.414  1.00  0.00     0.000 C 
BRANCH   8   9
ATOM      9  C   UNL     1     -97.774 -44.032  -8.268  1.00  0.00     0.000 C 
BRANCH   9  10
ATOM     10  C   UNL     1     -96.693 -45.109  -8.092  1.00  0.00     0.006 C 
BRANCH  10  11
ATOM     11  C   UNL     1     -95.430 -44.753  -8.884  1.00  0.00     0.053 C 
BRANCH  11  12
ATOM     12  C   UNL     1     -94.613 -45.978  -9.146  1.00  0.00     0.041 C 
ATOM     13  O   UNL     1     -94.450 -46.392 -10.323  1.00  0.00    -0.550 OA
ATOM     14  O   UNL     1     -93.990 -46.636  -8.092  1.00  0.00    -0.550 OA
ENDBRANCH  11  12
ENDBRANCH  10  11
ENDBRANCH   9  10
ENDBRANCH   8   9
ENDBRANCH   1   8
TORSDOF 9
ENDMDL
MODEL 8
REMARK VINA RESULT:    -2.876      1.663      3.433
REMARK INTER + INTRA:          -5.316
REMARK INTER:                  -4.245
REMARK INTRA:                  -1.071
REMARK UNBOUND:                -0.927
REMARK SMILES O=C([O-])CCCCCCCCC(=O)[O-]
REMARK SMILES IDX 7 1 6 2 5 3 4 4 2 5 1 6 3 7 8 8 9 9 10 10 11 11 12 12 13 13
REMARK SMILES IDX 14 14
REMARK H PARENT
REMARK Flexibility Score: inf
ROOT
ATOM      1  C   UNL     1     -98.186 -43.510  -9.366  1.00  0.00     0.000 C 
ENDROOT
BRANCH   1   2
ATOM      2  C   UNL     1     -97.444 -44.376  -8.334  1.00  0.00     0.000 C 
BRANCH   2   3
ATOM      3  C   UNL     1     -95.987 -44.657  -8.739  1.00  0.00     0.006 C 
BRANCH   3   4
ATOM      4  C   UNL     1     -95.447 -45.960  -8.136  1.00  0.00     0.053 C 
BRANCH   4   5
ATOM      5  C   UNL     1     -94.159 -46.344  -8.792  1.00  0.00     0.041 C 
ATOM      6  O   UNL     1     -93.148 -46.619  -8.094  1.00  0.00    -0.550 OA
ATOM      7  O   UNL     1     -94.088 -46.448 -10.176  1.00  0.00    -0.550 OA
ENDBRANCH   4   5
ENDBRANCH   3   4
ENDBRANCH   2   3
ENDBRANCH   1   2
BRANCH   1   8
ATOM      8  C   UNL     1     -97.324 -43.173 -10.597  1.00  0.00     0.000 C 
BRANCH   8   9
ATOM      9  C   UNL     1     -97.946 -43.549 -11.954  1.00  0.00     0.000 C 
BRANCH   9  10
ATOM     10  C   UNL     1     -98.348 -45.029 -12.042  1.00  0.00     0.006 C 
BRANCH  10  11
ATOM     11  C   UNL     1     -97.111 -45.934 -12.027  1.00  0.00     0.053 C 
BRANCH  11  12
ATOM     12  C   UNL     1     -97.385 -47.182 -11.250  1.00  0.00     0.041 C 
ATOM     13  O   UNL     1     -98.212 -47.169 -10.300  1.00  0.00    -0.550 OA
ATOM     14  O   UNL     1     -96.765 -48.373 -11.606  1.00  0.00    -0.550 OA
ENDBRANCH  11  12
ENDBRANCH  10  11
ENDBRANCH   9  10
ENDBRANCH   8   9
ENDBRANCH   1   8
TORSDOF 9
ENDMDL
MODEL 9
REMARK VINA RESULT:    -2.836      2.432      3.948
REMARK INTER + INTRA:          -5.255
REMARK INTER:                  -4.392
REMARK INTRA:                  -0.863
REMARK UNBOUND:                -0.927
REMARK SMILES O=C([O-])CCCCCCCCC(=O)[O-]
REMARK SMILES IDX 7 1 6 2 5 3 4 4 2 5 1 6 3 7 8 8 9 9 10 10 11 11 12 12 13 13
REMARK SMILES IDX 14 14
REMARK H PARENT
REMARK Flexibility Score: inf
ROOT
ATOM      1  C   UNL     1     -97.368 -43.256 -10.867  1.00  0.00     0.000 C 
ENDROOT
BRANCH   1   2
ATOM      2  C   UNL     1     -96.604 -43.692  -9.606  1.00  0.00     0.000 C 
BRANCH   2   3
ATOM      3  C   UNL     1     -96.608 -45.217  -9.411  1.00  0.00     0.006 C 
BRANCH   3   4
ATOM      4  C   UNL     1     -95.195 -45.803  -9.303  1.00  0.00     0.053 C 
BRANCH   4   5
ATOM      5  C   UNL     1     -94.922 -46.723 -10.452  1.00  0.00     0.041 C 
ATOM      6  O   UNL     1     -95.187 -47.950 -10.358  1.00  0.00    -0.550 OA
ATOM      7  O   UNL     1     -94.422 -46.215 -11.644  1.00  0.00    -0.550 OA
ENDBRANCH   4   5
ENDBRANCH   3   4
ENDBRANCH   2   3
ENDBRANCH   1   2
BRANCH   1   8
ATOM      8  C   UNL     1     -97.536 -44.395 -11.890  1.00  0.00     0.000 C 
BRANCH   8   9
ATOM      9  C   UNL     1     -98.984 -44.661 -12.341  1.00  0.00     0.000 C 
BRANCH   9  10
ATOM     10  C   UNL     1     -99.344 -46.154 -12.354  1.00  0.00     0.006 C 
BRANCH  10  11
ATOM     11  C   UNL     1     -98.081 -47.022 -12.366  1.00  0.00     0.053 C 
BRANCH  11  12
ATOM     12  C   UNL     1     -98.427 -48.445 -12.674  1.00  0.00     0.041 C 
ATOM     13  O   UNL     1     -97.795 -49.384 -12.123  1.00  0.00    -0.550 OA
ATOM     14  O   UNL     1     -99.481 -48.734 -13.531  1.00  0.00    -0.550 OA
ENDBRANCH  11  12
ENDBRANCH  10  11
ENDBRANCH   9  10
ENDBRANCH   8   9
ENDBRANCH   1   8
TORSDOF 9
ENDMDL
