MODEL 1
REMARK VINA RESULT:    -6.657      0.000      0.000
REMARK INTER + INTRA:          -8.188
REMARK INTER:                  -8.019
REMARK INTRA:                  -0.170
REMARK UNBOUND:                -0.170
REMARK SMILES O=c1c(O)c(-c2ccc(O)c(O)c2)oc2cc(O)cc(O)c12
REMARK SMILES IDX 5 1 3 2 2 3 1 4 22 5 20 6 19 7 17 8 16 9 15 10 14 11 6 12
REMARK SMILES IDX 7 13 8 14 9 15 13 16 11 17 10 18 12 20 4 22 21 24 18 26
REMARK H PARENT 10 19 12 21 4 23 21 25 18 27
REMARK Flexibility Score: inf
ROOT
ATOM      1  C   UNL     1     -32.988   9.288   8.426  1.00  0.00     0.180 A 
ATOM      2  C   UNL     1     -32.055   8.585   9.206  1.00  0.00     0.208 A 
ATOM      3  C   UNL     1     -31.956   7.192   9.057  1.00  0.00     0.238 A 
ATOM      4  O   UNL     1     -31.080   6.575   9.719  1.00  0.00    -0.285 OA
ATOM      5  C   UNL     1     -32.803   6.519   8.145  1.00  0.00     0.111 A 
ATOM      6  C   UNL     1     -32.818   5.106   7.944  1.00  0.00     0.134 A 
ATOM      7  C   UNL     1     -33.605   4.561   6.921  1.00  0.00     0.093 A 
ATOM      8  C   UNL     1     -34.427   5.371   6.137  1.00  0.00     0.123 A 
ATOM      9  C   UNL     1     -34.466   6.746   6.365  1.00  0.00     0.094 A 
ATOM     10  C   UNL     1     -33.665   7.323   7.354  1.00  0.00     0.146 A 
ATOM     11  O   UNL     1     -33.723   8.637   7.531  1.00  0.00    -0.452 OA
ENDROOT
BRANCH   1  12
ATOM     12  C   UNL     1     -33.168  10.754   8.543  1.00  0.00     0.025 A 
ATOM     13  C   UNL     1     -32.137  11.612   8.128  1.00  0.00     0.016 A 
ATOM     14  C   UNL     1     -32.292  12.998   8.211  1.00  0.00     0.051 A 
ATOM     15  C   UNL     1     -33.488  13.546   8.695  1.00  0.00     0.157 A 
ATOM     16  C   UNL     1     -34.373  11.309   9.009  1.00  0.00     0.062 A 
ATOM     17  C   UNL     1     -34.531  12.701   9.091  1.00  0.00     0.158 A 
BRANCH  15  18
ATOM     18  O   UNL     1     -33.646  14.928   8.781  1.00  0.00    -0.504 OA
ATOM     19  H   UNL     1     -33.137  15.479   9.462  1.00  0.00     0.293 HD
ENDBRANCH  15  18
BRANCH  17  20
ATOM     20  O   UNL     1     -35.724  13.249   9.559  1.00  0.00    -0.504 OA
ATOM     21  H   UNL     1     -35.775  13.720  10.455  1.00  0.00     0.293 HD
ENDBRANCH  17  20
ENDBRANCH   1  12
BRANCH   2  22
ATOM     22  O   UNL     1     -31.213   9.272  10.084  1.00  0.00    -0.502 OA
ATOM     23  H   UNL     1     -30.254   9.502   9.852  1.00  0.00     0.293 HD
ENDBRANCH   2  22
BRANCH   6  24
ATOM     24  O   UNL     1     -32.104   4.197   8.731  1.00  0.00    -0.507 OA
ATOM     25  H   UNL     1     -32.386   3.890   9.650  1.00  0.00     0.293 HD
ENDBRANCH   6  24
BRANCH   8  26
ATOM     26  O   UNL     1     -35.209   4.793   5.139  1.00  0.00    -0.508 OA
ATOM     27  H   UNL     1     -35.270   5.200   4.213  1.00  0.00     0.293 HD
ENDBRANCH   8  26
TORSDOF 6
ENDMDL
MODEL 2
REMARK VINA RESULT:    -6.267      1.583      7.158
REMARK INTER + INTRA:          -7.719
REMARK INTER:                  -7.665
REMARK INTRA:                  -0.054
REMARK UNBOUND:                -0.170
REMARK SMILES O=c1c(O)c(-c2ccc(O)c(O)c2)oc2cc(O)cc(O)c12
REMARK SMILES IDX 5 1 3 2 2 3 1 4 22 5 20 6 19 7 17 8 16 9 15 10 14 11 6 12
REMARK SMILES IDX 7 13 8 14 9 15 13 16 11 17 10 18 12 20 4 22 21 24 18 26
REMARK H PARENT 10 19 12 21 4 23 21 25 18 27
REMARK Flexibility Score: inf
ROOT
ATOM      1  C   UNL     1     -33.538   9.481   7.766  1.00  0.00     0.180 A 
ATOM      2  C   UNL     1     -34.725  10.109   8.180  1.00  0.00     0.208 A 
ATOM      3  C   UNL     1     -34.709  11.488   8.441  1.00  0.00     0.238 A 
ATOM      4  O   UNL     1     -35.788  12.055   8.759  1.00  0.00    -0.285 OA
ATOM      5  C   UNL     1     -33.505  12.218   8.303  1.00  0.00     0.111 A 
ATOM      6  C   UNL     1     -33.364  13.611   8.582  1.00  0.00     0.134 A 
ATOM      7  C   UNL     1     -32.157  14.257   8.284  1.00  0.00     0.093 A 
ATOM      8  C   UNL     1     -31.067  13.548   7.781  1.00  0.00     0.123 A 
ATOM      9  C   UNL     1     -31.174  12.175   7.562  1.00  0.00     0.094 A 
ATOM     10  C   UNL     1     -32.376  11.510   7.815  1.00  0.00     0.146 A 
ATOM     11  O   UNL     1     -32.440  10.204   7.582  1.00  0.00    -0.452 OA
ENDROOT
BRANCH   1  12
ATOM     12  C   UNL     1     -33.470   8.026   7.495  1.00  0.00     0.025 A 
ATOM     13  C   UNL     1     -32.567   7.230   8.219  1.00  0.00     0.016 A 
ATOM     14  C   UNL     1     -32.499   5.853   7.994  1.00  0.00     0.051 A 
ATOM     15  C   UNL     1     -33.346   5.249   7.056  1.00  0.00     0.157 A 
ATOM     16  C   UNL     1     -34.332   7.412   6.569  1.00  0.00     0.062 A 
ATOM     17  C   UNL     1     -34.267   6.028   6.345  1.00  0.00     0.158 A 
BRANCH  15  18
ATOM     18  O   UNL     1     -33.281   3.876   6.828  1.00  0.00    -0.504 OA
ATOM     19  H   UNL     1     -32.471   3.331   7.098  1.00  0.00     0.293 HD
ENDBRANCH  15  18
BRANCH  17  20
ATOM     20  O   UNL     1     -35.117   5.422   5.422  1.00  0.00    -0.504 OA
ATOM     21  H   UNL     1     -36.115   5.356   5.583  1.00  0.00     0.293 HD
ENDBRANCH  17  20
ENDBRANCH   1  12
BRANCH   2  22
ATOM     22  O   UNL     1     -35.908   9.374   8.289  1.00  0.00    -0.502 OA
ATOM     23  H   UNL     1     -36.394   9.251   9.169  1.00  0.00     0.293 HD
ENDBRANCH   2  22
BRANCH   6  24
ATOM     24  O   UNL     1     -34.362  14.394   9.170  1.00  0.00    -0.507 OA
ATOM     25  H   UNL     1     -35.318  14.100   9.304  1.00  0.00     0.293 HD
ENDBRANCH   6  24
BRANCH   8  26
ATOM     26  O   UNL     1     -29.876  14.220   7.512  1.00  0.00    -0.508 OA
ATOM     27  H   UNL     1     -29.016  13.989   7.995  1.00  0.00     0.293 HD
ENDBRANCH   8  26
TORSDOF 6
ENDMDL
MODEL 3
REMARK VINA RESULT:    -6.066      3.287      4.603
REMARK INTER + INTRA:          -7.477
REMARK INTER:                  -7.157
REMARK INTRA:                  -0.320
REMARK UNBOUND:                -0.170
REMARK SMILES O=c1c(O)c(-c2ccc(O)c(O)c2)oc2cc(O)cc(O)c12
REMARK SMILES IDX 5 1 3 2 2 3 1 4 22 5 20 6 19 7 17 8 16 9 15 10 14 11 6 12
REMARK SMILES IDX 7 13 8 14 9 15 13 16 11 17 10 18 12 20 4 22 21 24 18 26
REMARK H PARENT 10 19 12 21 4 23 21 25 18 27
REMARK Flexibility Score: inf
ROOT
ATOM      1  C   UNL     1     -33.086   8.798   6.414  1.00  0.00     0.180 A 
ATOM      2  C   UNL     1     -34.294   9.192   7.016  1.00  0.00     0.208 A 
ATOM      3  C   UNL     1     -34.837   8.394   8.036  1.00  0.00     0.238 A 
ATOM      4  O   UNL     1     -35.889   8.781   8.608  1.00  0.00    -0.285 OA
ATOM      5  C   UNL     1     -34.176   7.206   8.429  1.00  0.00     0.111 A 
ATOM      6  C   UNL     1     -34.658   6.302   9.423  1.00  0.00     0.134 A 
ATOM      7  C   UNL     1     -33.856   5.225   9.824  1.00  0.00     0.093 A 
ATOM      8  C   UNL     1     -32.622   4.983   9.222  1.00  0.00     0.123 A 
ATOM      9  C   UNL     1     -32.168   5.826   8.207  1.00  0.00     0.094 A 
ATOM     10  C   UNL     1     -32.929   6.929   7.811  1.00  0.00     0.146 A 
ATOM     11  O   UNL     1     -32.456   7.713   6.850  1.00  0.00    -0.452 OA
ENDROOT
BRANCH   1  12
ATOM     12  C   UNL     1     -32.464   9.573   5.315  1.00  0.00     0.025 A 
ATOM     13  C   UNL     1     -32.879   9.351   3.992  1.00  0.00     0.016 A 
ATOM     14  C   UNL     1     -32.321  10.085   2.943  1.00  0.00     0.051 A 
ATOM     15  C   UNL     1     -31.352  11.063   3.203  1.00  0.00     0.157 A 
ATOM     16  C   UNL     1     -31.507  10.571   5.573  1.00  0.00     0.062 A 
ATOM     17  C   UNL     1     -30.947  11.310   4.520  1.00  0.00     0.158 A 
BRANCH  15  18
ATOM     18  O   UNL     1     -30.792  11.796   2.158  1.00  0.00    -0.504 OA
ATOM     19  H   UNL     1     -30.283  11.345   1.407  1.00  0.00     0.293 HD
ENDBRANCH  15  18
BRANCH  17  20
ATOM     20  O   UNL     1     -29.993  12.292   4.776  1.00  0.00    -0.504 OA
ATOM     21  H   UNL     1     -29.634  12.453   5.710  1.00  0.00     0.293 HD
ENDBRANCH  17  20
ENDBRANCH   1  12
BRANCH   2  22
ATOM     22  O   UNL     1     -34.918  10.380   6.627  1.00  0.00    -0.502 OA
ATOM     23  H   UNL     1     -34.855  11.231   7.173  1.00  0.00     0.293 HD
ENDBRANCH   2  22
BRANCH   6  24
ATOM     24  O   UNL     1     -35.917   6.399  10.022  1.00  0.00    -0.507 OA
ATOM     25  H   UNL     1     -36.083   6.745  10.955  1.00  0.00     0.293 HD
ENDBRANCH   6  24
BRANCH   8  26
ATOM     26  O   UNL     1     -31.858   3.893   9.635  1.00  0.00    -0.508 OA
ATOM     27  H   UNL     1     -32.138   3.319  10.421  1.00  0.00     0.293 HD
ENDBRANCH   8  26
TORSDOF 6
ENDMDL
MODEL 4
REMARK VINA RESULT:    -5.971      1.208      2.827
REMARK INTER + INTRA:          -7.363
REMARK INTER:                  -7.089
REMARK INTRA:                  -0.274
REMARK UNBOUND:                -0.170
REMARK SMILES O=c1c(O)c(-c2ccc(O)c(O)c2)oc2cc(O)cc(O)c12
REMARK SMILES IDX 5 1 3 2 2 3 1 4 22 5 20 6 19 7 17 8 16 9 15 10 14 11 6 12
REMARK SMILES IDX 7 13 8 14 9 15 13 16 11 17 10 18 12 20 4 22 21 24 18 26
REMARK H PARENT 10 19 12 21 4 23 21 25 18 27
REMARK Flexibility Score: inf
ROOT
ATOM      1  C   UNL     1     -33.311   9.505   8.076  1.00  0.00     0.180 A 
ATOM      2  C   UNL     1     -34.149   9.010   7.062  1.00  0.00     0.208 A 
ATOM      3  C   UNL     1     -34.163   7.629   6.806  1.00  0.00     0.238 A 
ATOM      4  O   UNL     1     -34.957   7.186   5.934  1.00  0.00    -0.285 OA
ATOM      5  C   UNL     1     -33.328   6.765   7.553  1.00  0.00     0.111 A 
ATOM      6  C   UNL     1     -33.232   5.355   7.349  1.00  0.00     0.134 A 
ATOM      7  C   UNL     1     -32.472   4.580   8.234  1.00  0.00     0.093 A 
ATOM      8  C   UNL     1     -31.752   5.170   9.272  1.00  0.00     0.123 A 
ATOM      9  C   UNL     1     -31.791   6.554   9.444  1.00  0.00     0.094 A 
ATOM     10  C   UNL     1     -32.569   7.350   8.600  1.00  0.00     0.146 A 
ATOM     11  O   UNL     1     -32.588   8.661   8.804  1.00  0.00    -0.452 OA
ENDROOT
BRANCH   1  12
ATOM     12  C   UNL     1     -33.222  10.950   8.389  1.00  0.00     0.025 A 
ATOM     13  C   UNL     1     -32.140  11.698   7.897  1.00  0.00     0.016 A 
ATOM     14  C   UNL     1     -32.046  13.066   8.162  1.00  0.00     0.051 A 
ATOM     15  C   UNL     1     -33.042  13.710   8.908  1.00  0.00     0.157 A 
ATOM     16  C   UNL     1     -34.229  11.605   9.120  1.00  0.00     0.062 A 
ATOM     17  C   UNL     1     -34.137  12.980   9.384  1.00  0.00     0.158 A 
BRANCH  15  18
ATOM     18  O   UNL     1     -32.951  15.075   9.176  1.00  0.00    -0.504 OA
ATOM     19  H   UNL     1     -33.279  15.769   8.515  1.00  0.00     0.293 HD
ENDBRANCH  15  18
BRANCH  17  20
ATOM     20  O   UNL     1     -35.133  13.626  10.115  1.00  0.00    -0.504 OA
ATOM     21  H   UNL     1     -35.997  13.159  10.362  1.00  0.00     0.293 HD
ENDBRANCH  17  20
ENDBRANCH   1  12
BRANCH   2  22
ATOM     22  O   UNL     1     -34.981   9.878   6.352  1.00  0.00    -0.502 OA
ATOM     23  H   UNL     1     -34.925   9.985   5.346  1.00  0.00     0.293 HD
ENDBRANCH   2  22
BRANCH   6  24
ATOM     24  O   UNL     1     -33.837   4.677   6.288  1.00  0.00    -0.507 OA
ATOM     25  H   UNL     1     -34.465   3.893   6.390  1.00  0.00     0.293 HD
ENDBRANCH   6  24
BRANCH   8  26
ATOM     26  O   UNL     1     -30.993   4.369  10.124  1.00  0.00    -0.508 OA
ATOM     27  H   UNL     1     -31.417   3.633  10.676  1.00  0.00     0.293 HD
ENDBRANCH   8  26
TORSDOF 6
ENDMDL
MODEL 5
REMARK VINA RESULT:    -5.680      1.459      3.219
REMARK INTER + INTRA:          -7.013
REMARK INTER:                  -6.682
REMARK INTRA:                  -0.331
REMARK UNBOUND:                -0.170
REMARK SMILES O=c1c(O)c(-c2ccc(O)c(O)c2)oc2cc(O)cc(O)c12
REMARK SMILES IDX 5 1 3 2 2 3 1 4 22 5 20 6 19 7 17 8 16 9 15 10 14 11 6 12
REMARK SMILES IDX 7 13 8 14 9 15 13 16 11 17 10 18 12 20 4 22 21 24 18 26
REMARK H PARENT 10 19 12 21 4 23 21 25 18 27
REMARK Flexibility Score: inf
ROOT
ATOM      1  C   UNL     1     -33.114   9.440   7.949  1.00  0.00     0.180 A 
ATOM      2  C   UNL     1     -33.985   8.970   6.951  1.00  0.00     0.208 A 
ATOM      3  C   UNL     1     -34.079   7.587   6.727  1.00  0.00     0.238 A 
ATOM      4  O   UNL     1     -34.901   7.169   5.870  1.00  0.00    -0.285 OA
ATOM      5  C   UNL     1     -33.290   6.694   7.490  1.00  0.00     0.111 A 
ATOM      6  C   UNL     1     -33.275   5.276   7.319  1.00  0.00     0.134 A 
ATOM      7  C   UNL     1     -32.554   4.480   8.219  1.00  0.00     0.093 A 
ATOM      8  C   UNL     1     -31.796   5.052   9.239  1.00  0.00     0.123 A 
ATOM      9  C   UNL     1     -31.755   6.439   9.378  1.00  0.00     0.094 A 
ATOM     10  C   UNL     1     -32.493   7.259   8.520  1.00  0.00     0.146 A 
ATOM     11  O   UNL     1     -32.436   8.574   8.693  1.00  0.00    -0.452 OA
ENDROOT
BRANCH   1  12
ATOM     12  C   UNL     1     -32.942  10.884   8.227  1.00  0.00     0.025 A 
ATOM     13  C   UNL     1     -33.723  11.495   9.222  1.00  0.00     0.016 A 
ATOM     14  C   UNL     1     -33.563  12.851   9.514  1.00  0.00     0.051 A 
ATOM     15  C   UNL     1     -32.607  13.613   8.829  1.00  0.00     0.157 A 
ATOM     16  C   UNL     1     -31.970  11.649   7.557  1.00  0.00     0.062 A 
ATOM     17  C   UNL     1     -31.807  13.011   7.852  1.00  0.00     0.158 A 
BRANCH  15  18
ATOM     18  O   UNL     1     -32.446  14.967   9.117  1.00  0.00    -0.504 OA
ATOM     19  H   UNL     1     -32.853  15.687   8.531  1.00  0.00     0.293 HD
ENDBRANCH  15  18
BRANCH  17  20
ATOM     20  O   UNL     1     -30.848  13.768   7.181  1.00  0.00    -0.504 OA
ATOM     21  H   UNL     1     -30.892  13.913   6.179  1.00  0.00     0.293 HD
ENDBRANCH  17  20
ENDBRANCH   1  12
BRANCH   2  22
ATOM     22  O   UNL     1     -34.771   9.867   6.225  1.00  0.00    -0.502 OA
ATOM     23  H   UNL     1     -35.317   9.584   5.419  1.00  0.00     0.293 HD
ENDBRANCH   2  22
BRANCH   6  24
ATOM     24  O   UNL     1     -33.924   4.609   6.277  1.00  0.00    -0.507 OA
ATOM     25  H   UNL     1     -33.490   3.925   5.675  1.00  0.00     0.293 HD
ENDBRANCH   6  24
BRANCH   8  26
ATOM     26  O   UNL     1     -31.078   4.230  10.106  1.00  0.00    -0.508 OA
ATOM     27  H   UNL     1     -31.358   3.271  10.279  1.00  0.00     0.293 HD
ENDBRANCH   8  26
TORSDOF 6
ENDMDL
MODEL 6
REMARK VINA RESULT:    -5.627      2.013      7.180
REMARK INTER + INTRA:          -6.948
REMARK INTER:                  -6.678
REMARK INTRA:                  -0.269
REMARK UNBOUND:                -0.170
REMARK SMILES O=c1c(O)c(-c2ccc(O)c(O)c2)oc2cc(O)cc(O)c12
REMARK SMILES IDX 5 1 3 2 2 3 1 4 22 5 20 6 19 7 17 8 16 9 15 10 14 11 6 12
REMARK SMILES IDX 7 13 8 14 9 15 13 16 11 17 10 18 12 20 4 22 21 24 18 26
REMARK H PARENT 10 19 12 21 4 23 21 25 18 27
REMARK Flexibility Score: inf
ROOT
ATOM      1  C   UNL     1     -32.563  10.049   7.205  1.00  0.00     0.180 A 
ATOM      2  C   UNL     1     -31.383  10.488   6.580  1.00  0.00     0.208 A 
ATOM      3  C   UNL     1     -30.983  11.824   6.745  1.00  0.00     0.238 A 
ATOM      4  O   UNL     1     -29.897  12.196   6.228  1.00  0.00    -0.285 OA
ATOM      5  C   UNL     1     -31.775  12.707   7.516  1.00  0.00     0.111 A 
ATOM      6  C   UNL     1     -31.486  14.091   7.715  1.00  0.00     0.134 A 
ATOM      7  C   UNL     1     -32.268  14.838   8.606  1.00  0.00     0.093 A 
ATOM      8  C   UNL     1     -33.366  14.270   9.251  1.00  0.00     0.123 A 
ATOM      9  C   UNL     1     -33.693  12.935   9.017  1.00  0.00     0.094 A 
ATOM     10  C   UNL     1     -32.911  12.154   8.163  1.00  0.00     0.146 A 
ATOM     11  O   UNL     1     -33.250  10.884   7.976  1.00  0.00    -0.452 OA
ENDROOT
BRANCH   1  12
ATOM     12  C   UNL     1     -33.063   8.662   7.058  1.00  0.00     0.025 A 
ATOM     13  C   UNL     1     -34.113   8.397   6.163  1.00  0.00     0.016 A 
ATOM     14  C   UNL     1     -34.587   7.095   5.994  1.00  0.00     0.051 A 
ATOM     15  C   UNL     1     -34.007   6.035   6.704  1.00  0.00     0.157 A 
ATOM     16  C   UNL     1     -32.471   7.592   7.752  1.00  0.00     0.062 A 
ATOM     17  C   UNL     1     -32.945   6.283   7.581  1.00  0.00     0.158 A 
BRANCH  15  18
ATOM     18  O   UNL     1     -34.478   4.734   6.538  1.00  0.00    -0.504 OA
ATOM     19  H   UNL     1     -34.020   4.078   5.917  1.00  0.00     0.293 HD
ENDBRANCH  15  18
BRANCH  17  20
ATOM     20  O   UNL     1     -32.361   5.225   8.276  1.00  0.00    -0.504 OA
ATOM     21  H   UNL     1     -32.623   5.008   9.230  1.00  0.00     0.293 HD
ENDBRANCH  17  20
ENDBRANCH   1  12
BRANCH   2  22
ATOM     22  O   UNL     1     -30.605   9.594   5.841  1.00  0.00    -0.502 OA
ATOM     23  H   UNL     1     -31.010   8.922   5.199  1.00  0.00     0.293 HD
ENDBRANCH   2  22
BRANCH   6  24
ATOM     24  O   UNL     1     -30.468  14.779   7.049  1.00  0.00    -0.507 OA
ATOM     25  H   UNL     1     -30.619  15.502   6.361  1.00  0.00     0.293 HD
ENDBRANCH   6  24
BRANCH   8  26
ATOM     26  O   UNL     1     -34.131  15.049  10.118  1.00  0.00    -0.508 OA
ATOM     27  H   UNL     1     -35.140  15.088  10.042  1.00  0.00     0.293 HD
ENDBRANCH   8  26
TORSDOF 6
ENDMDL
MODEL 7
REMARK VINA RESULT:    -5.134      2.574      3.756
REMARK INTER + INTRA:          -6.355
REMARK INTER:                  -6.588
REMARK INTRA:                   0.233
REMARK UNBOUND:                -0.170
REMARK SMILES O=c1c(O)c(-c2ccc(O)c(O)c2)oc2cc(O)cc(O)c12
REMARK SMILES IDX 5 1 3 2 2 3 1 4 22 5 20 6 19 7 17 8 16 9 15 10 14 11 6 12
REMARK SMILES IDX 7 13 8 14 9 15 13 16 11 17 10 18 12 20 4 22 21 24 18 26
REMARK H PARENT 10 19 12 21 4 23 21 25 18 27
REMARK Flexibility Score: inf
ROOT
ATOM      1  C   UNL     1     -32.413  11.462   7.597  1.00  0.00     0.180 A 
ATOM      2  C   UNL     1     -32.309  10.936   6.298  1.00  0.00     0.208 A 
ATOM      3  C   UNL     1     -32.938   9.716   6.006  1.00  0.00     0.238 A 
ATOM      4  O   UNL     1     -32.887   9.278   4.826  1.00  0.00    -0.285 OA
ATOM      5  C   UNL     1     -33.648   9.029   7.018  1.00  0.00     0.111 A 
ATOM      6  C   UNL     1     -34.289   7.765   6.843  1.00  0.00     0.134 A 
ATOM      7  C   UNL     1     -35.075   7.240   7.878  1.00  0.00     0.093 A 
ATOM      8  C   UNL     1     -35.188   7.900   9.101  1.00  0.00     0.123 A 
ATOM      9  C   UNL     1     -34.517   9.105   9.304  1.00  0.00     0.094 A 
ATOM     10  C   UNL     1     -33.756   9.672   8.279  1.00  0.00     0.146 A 
ATOM     11  O   UNL     1     -33.142  10.827   8.508  1.00  0.00    -0.452 OA
ENDROOT
BRANCH   1  12
ATOM     12  C   UNL     1     -31.757  12.731   7.989  1.00  0.00     0.025 A 
ATOM     13  C   UNL     1     -30.513  13.067   7.430  1.00  0.00     0.016 A 
ATOM     14  C   UNL     1     -29.885  14.267   7.770  1.00  0.00     0.051 A 
ATOM     15  C   UNL     1     -30.500  15.158   8.660  1.00  0.00     0.157 A 
ATOM     16  C   UNL     1     -32.379  13.638   8.866  1.00  0.00     0.062 A 
ATOM     17  C   UNL     1     -31.750  14.845   9.205  1.00  0.00     0.158 A 
BRANCH  15  18
ATOM     18  O   UNL     1     -29.876  16.356   9.002  1.00  0.00    -0.504 OA
ATOM     19  H   UNL     1     -29.281  16.851   8.347  1.00  0.00     0.293 HD
ENDBRANCH  15  18
BRANCH  17  20
ATOM     20  O   UNL     1     -32.365  15.739  10.080  1.00  0.00    -0.504 OA
ATOM     21  H   UNL     1     -33.365  15.718  10.244  1.00  0.00     0.293 HD
ENDBRANCH  17  20
ENDBRANCH   1  12
BRANCH   2  22
ATOM     22  O   UNL     1     -31.621  11.642   5.308  1.00  0.00    -0.502 OA
ATOM     23  H   UNL     1     -30.780  12.172   5.502  1.00  0.00     0.293 HD
ENDBRANCH   2  22
BRANCH   6  24
ATOM     24  O   UNL     1     -34.166   6.979   5.694  1.00  0.00    -0.507 OA
ATOM     25  H   UNL     1     -34.324   7.310   4.754  1.00  0.00     0.293 HD
ENDBRANCH   6  24
BRANCH   8  26
ATOM     26  O   UNL     1     -35.965   7.340  10.114  1.00  0.00    -0.508 OA
ATOM     27  H   UNL     1     -35.942   6.346  10.311  1.00  0.00     0.293 HD
ENDBRANCH   8  26
TORSDOF 6
ENDMDL
MODEL 8
REMARK VINA RESULT:    -4.445      2.720      6.521
REMARK INTER + INTRA:          -5.525
REMARK INTER:                  -5.376
REMARK INTRA:                  -0.149
REMARK UNBOUND:                -0.170
REMARK SMILES O=c1c(O)c(-c2ccc(O)c(O)c2)oc2cc(O)cc(O)c12
REMARK SMILES IDX 5 1 3 2 2 3 1 4 22 5 20 6 19 7 17 8 16 9 15 10 14 11 6 12
REMARK SMILES IDX 7 13 8 14 9 15 13 16 11 17 10 18 12 20 4 22 21 24 18 26
REMARK H PARENT 10 19 12 21 4 23 21 25 18 27
REMARK Flexibility Score: inf
ROOT
ATOM      1  C   UNL     1     -32.075   9.023   7.846  1.00  0.00     0.180 A 
ATOM      2  C   UNL     1     -32.233  10.205   8.590  1.00  0.00     0.208 A 
ATOM      3  C   UNL     1     -31.908  11.433   7.992  1.00  0.00     0.238 A 
ATOM      4  O   UNL     1     -32.105  12.492   8.645  1.00  0.00    -0.285 OA
ATOM      5  C   UNL     1     -31.413  11.464   6.667  1.00  0.00     0.111 A 
ATOM      6  C   UNL     1     -31.014  12.648   5.978  1.00  0.00     0.134 A 
ATOM      7  C   UNL     1     -30.663  12.574   4.623  1.00  0.00     0.093 A 
ATOM      8  C   UNL     1     -30.633  11.352   3.953  1.00  0.00     0.123 A 
ATOM      9  C   UNL     1     -30.964  10.180   4.634  1.00  0.00     0.094 A 
ATOM     10  C   UNL     1     -31.353  10.226   5.974  1.00  0.00     0.146 A 
ATOM     11  O   UNL     1     -31.671   9.090   6.583  1.00  0.00    -0.452 OA
ENDROOT
BRANCH   1  12
ATOM     12  C   UNL     1     -32.373   7.688   8.415  1.00  0.00     0.025 A 
ATOM     13  C   UNL     1     -31.635   7.227   9.517  1.00  0.00     0.016 A 
ATOM     14  C   UNL     1     -31.912   5.980  10.082  1.00  0.00     0.051 A 
ATOM     15  C   UNL     1     -32.943   5.184   9.565  1.00  0.00     0.157 A 
ATOM     16  C   UNL     1     -33.420   6.895   7.913  1.00  0.00     0.062 A 
ATOM     17  C   UNL     1     -33.701   5.643   8.481  1.00  0.00     0.158 A 
BRANCH  15  18
ATOM     18  O   UNL     1     -33.221   3.939  10.125  1.00  0.00    -0.504 OA
ATOM     19  H   UNL     1     -33.945   3.337   9.749  1.00  0.00     0.293 HD
ENDBRANCH  15  18
BRANCH  17  20
ATOM     20  O   UNL     1     -34.734   4.855   7.977  1.00  0.00    -0.504 OA
ATOM     21  H   UNL     1     -35.321   4.297   8.586  1.00  0.00     0.293 HD
ENDBRANCH  17  20
ENDBRANCH   1  12
BRANCH   2  22
ATOM     22  O   UNL     1     -32.745  10.154   9.889  1.00  0.00    -0.502 OA
ATOM     23  H   UNL     1     -33.242   9.347  10.247  1.00  0.00     0.293 HD
ENDBRANCH   2  22
BRANCH   6  24
ATOM     24  O   UNL     1     -30.919  13.907   6.578  1.00  0.00    -0.507 OA
ATOM     25  H   UNL     1     -30.446  14.093   7.450  1.00  0.00     0.293 HD
ENDBRANCH   6  24
BRANCH   8  26
ATOM     26  O   UNL     1     -30.264  11.314   2.610  1.00  0.00    -0.508 OA
ATOM     27  H   UNL     1     -29.562  10.666   2.273  1.00  0.00     0.293 HD
ENDBRANCH   8  26
TORSDOF 6
ENDMDL
