MODEL 1
REMARK VINA RESULT:    -7.255      0.000      0.000
REMARK INTER + INTRA:         -14.407
REMARK INTER:                 -13.193
REMARK INTRA:                  -1.213
REMARK UNBOUND:                -1.213
REMARK SMILES CCCCCCCCCCCCCCCC(=O)[O-]
REMARK SMILES IDX 9 1 10 2 11 3 12 4 13 5 14 6 15 7 16 8 17 9 18 10 8 11 7 12
REMARK SMILES IDX 6 13 5 14 4 15 3 16 2 17 1 18
REMARK H PARENT
REMARK Flexibility Score: inf
ROOT
ATOM      1  C   UNL     1      29.174  -3.619  19.753  1.00  0.00     0.000 C 
ENDROOT
BRANCH   1   2
ATOM      2  C   UNL     1      28.832  -4.493  18.534  1.00  0.00     0.000 C 
BRANCH   2   3
ATOM      3  C   UNL     1      27.323  -4.764  18.397  1.00  0.00     0.000 C 
BRANCH   3   4
ATOM      4  C   UNL     1      26.615  -5.231  19.685  1.00  0.00     0.000 C 
BRANCH   4   5
ATOM      5  C   UNL     1      25.080  -5.292  19.602  1.00  0.00     0.000 C 
BRANCH   5   6
ATOM      6  C   UNL     1      24.561  -6.672  19.165  1.00  0.00     0.006 C 
BRANCH   6   7
ATOM      7  C   UNL     1      23.585  -7.272  20.186  1.00  0.00     0.053 C 
BRANCH   7   8
ATOM      8  C   UNL     1      24.297  -8.078  21.227  1.00  0.00     0.041 C 
ATOM      9  O   UNL     1      25.430  -8.570  20.982  1.00  0.00    -0.550 OA
ATOM     10  O   UNL     1      23.726  -8.258  22.481  1.00  0.00    -0.550 OA
ENDBRANCH   7   8
ENDBRANCH   6   7
ENDBRANCH   5   6
ENDBRANCH   4   5
ENDBRANCH   3   4
ENDBRANCH   2   3
ENDBRANCH   1   2
BRANCH   1  11
ATOM     11  C   UNL     1      29.579  -2.186  19.363  1.00  0.00     0.000 C 
BRANCH  11  12
ATOM     12  C   UNL     1      28.839  -1.066  20.122  1.00  0.00    -0.000 C 
BRANCH  12  13
ATOM     13  C   UNL     1      27.442  -0.713  19.573  1.00  0.00    -0.000 C 
BRANCH  13  14
ATOM     14  C   UNL     1      26.287  -1.571  20.120  1.00  0.00    -0.000 C 
BRANCH  14  15
ATOM     15  C   UNL     1      24.902  -0.988  19.790  1.00  0.00    -0.000 C 
BRANCH  15  16
ATOM     16  C   UNL     1      24.895   0.551  19.753  1.00  0.00    -0.000 C 
BRANCH  16  17
ATOM     17  C   UNL     1      23.663   1.181  19.078  1.00  0.00    -0.003 C 
ATOM     18  C   UNL     1      24.017   2.334  18.140  1.00  0.00     0.004 C 
ENDBRANCH  16  17
ENDBRANCH  15  16
ENDBRANCH  14  15
ENDBRANCH  13  14
ENDBRANCH  12  13
ENDBRANCH  11  12
ENDBRANCH   1  11
TORSDOF 14
ENDMDL
MODEL 2
REMARK VINA RESULT:    -7.151      3.928      7.226
REMARK INTER + INTRA:         -14.216
REMARK INTER:                 -13.011
REMARK INTRA:                  -1.206
REMARK UNBOUND:                -1.213
REMARK SMILES CCCCCCCCCCCCCCCC(=O)[O-]
REMARK SMILES IDX 9 1 10 2 11 3 12 4 13 5 14 6 15 7 16 8 17 9 18 10 8 11 7 12
REMARK SMILES IDX 6 13 5 14 4 15 3 16 2 17 1 18
REMARK H PARENT
REMARK Flexibility Score: inf
ROOT
ATOM      1  C   UNL     1      28.851  -3.281  19.753  1.00  0.00     0.000 C 
ENDROOT
BRANCH   1   2
ATOM      2  C   UNL     1      29.070  -1.844  19.250  1.00  0.00     0.000 C 
BRANCH   2   3
ATOM      3  C   UNL     1      27.839  -0.943  19.458  1.00  0.00     0.000 C 
BRANCH   3   4
ATOM      4  C   UNL     1      26.690  -1.572  20.273  1.00  0.00     0.000 C 
BRANCH   4   5
ATOM      5  C   UNL     1      25.278  -1.109  19.875  1.00  0.00     0.000 C 
BRANCH   5   6
ATOM      6  C   UNL     1      25.153   0.421  19.793  1.00  0.00     0.006 C 
BRANCH   6   7
ATOM      7  C   UNL     1      23.799   0.861  19.221  1.00  0.00     0.053 C 
BRANCH   7   8
ATOM      8  C   UNL     1      23.959   1.903  18.158  1.00  0.00     0.041 C 
ATOM      9  O   UNL     1      24.786   2.840  18.307  1.00  0.00    -0.550 OA
ATOM     10  O   UNL     1      23.221   1.819  16.983  1.00  0.00    -0.550 OA
ENDBRANCH   7   8
ENDBRANCH   6   7
ENDBRANCH   5   6
ENDBRANCH   4   5
ENDBRANCH   3   4
ENDBRANCH   2   3
ENDBRANCH   1   2
BRANCH   1  11
ATOM     11  C   UNL     1      28.697  -4.297  18.607  1.00  0.00     0.000 C 
BRANCH  11  12
ATOM     12  C   UNL     1      27.293  -4.918  18.465  1.00  0.00    -0.000 C 
BRANCH  12  13
ATOM     13  C   UNL     1      26.417  -4.857  19.733  1.00  0.00    -0.000 C 
BRANCH  13  14
ATOM     14  C   UNL     1      24.933  -5.207  19.521  1.00  0.00    -0.000 C 
BRANCH  14  15
ATOM     15  C   UNL     1      24.704  -6.706  19.262  1.00  0.00    -0.000 C 
BRANCH  15  16
ATOM     16  C   UNL     1      24.360  -7.489  20.542  1.00  0.00    -0.000 C 
BRANCH  16  17
ATOM     17  C   UNL     1      25.380  -8.570  20.940  1.00  0.00    -0.003 C 
ATOM     18  C   UNL     1      26.682  -8.488  20.144  1.00  0.00     0.004 C 
ENDBRANCH  16  17
ENDBRANCH  15  16
ENDBRANCH  14  15
ENDBRANCH  13  14
ENDBRANCH  12  13
ENDBRANCH  11  12
ENDBRANCH   1  11
TORSDOF 14
ENDMDL
MODEL 3
REMARK VINA RESULT:    -7.117      0.830      1.449
REMARK INTER + INTRA:         -14.155
REMARK INTER:                 -13.117
REMARK INTRA:                  -1.038
REMARK UNBOUND:                -1.213
REMARK SMILES CCCCCCCCCCCCCCCC(=O)[O-]
REMARK SMILES IDX 9 1 10 2 11 3 12 4 13 5 14 6 15 7 16 8 17 9 18 10 8 11 7 12
REMARK SMILES IDX 6 13 5 14 4 15 3 16 2 17 1 18
REMARK H PARENT
REMARK Flexibility Score: inf
ROOT
ATOM      1  C   UNL     1      28.971  -4.465  18.597  1.00  0.00     0.000 C 
ENDROOT
BRANCH   1   2
ATOM      2  C   UNL     1      27.456  -4.577  18.359  1.00  0.00     0.000 C 
BRANCH   2   3
ATOM      3  C   UNL     1      26.662  -4.819  19.656  1.00  0.00     0.000 C 
BRANCH   3   4
ATOM      4  C   UNL     1      25.142  -5.006  19.476  1.00  0.00     0.000 C 
BRANCH   4   5
ATOM      5  C   UNL     1      24.640  -6.453  19.622  1.00  0.00     0.000 C 
BRANCH   5   6
ATOM      6  C   UNL     1      25.719  -7.406  20.162  1.00  0.00     0.006 C 
BRANCH   6   7
ATOM      7  C   UNL     1      25.114  -8.670  20.788  1.00  0.00     0.053 C 
BRANCH   7   8
ATOM      8  C   UNL     1      23.784  -8.393  21.418  1.00  0.00     0.041 C 
ATOM      9  O   UNL     1      22.724  -8.558  20.760  1.00  0.00    -0.550 OA
ATOM     10  O   UNL     1      23.713  -7.988  22.746  1.00  0.00    -0.550 OA
ENDBRANCH   7   8
ENDBRANCH   6   7
ENDBRANCH   5   6
ENDBRANCH   4   5
ENDBRANCH   3   4
ENDBRANCH   2   3
ENDBRANCH   1   2
BRANCH   1  11
ATOM     11  C   UNL     1      29.326  -3.481  19.726  1.00  0.00     0.000 C 
BRANCH  11  12
ATOM     12  C   UNL     1      29.239  -1.989  19.346  1.00  0.00    -0.000 C 
BRANCH  12  13
ATOM     13  C   UNL     1      28.429  -1.110  20.320  1.00  0.00    -0.000 C 
BRANCH  13  14
ATOM     14  C   UNL     1      27.132  -0.515  19.741  1.00  0.00    -0.000 C 
BRANCH  14  15
ATOM     15  C   UNL     1      25.888  -1.357  20.074  1.00  0.00    -0.000 C 
BRANCH  15  16
ATOM     16  C   UNL     1      24.570  -0.626  19.760  1.00  0.00    -0.000 C 
BRANCH  16  17
ATOM     17  C   UNL     1      24.706   0.887  19.512  1.00  0.00    -0.003 C 
ATOM     18  C   UNL     1      23.544   1.471  18.711  1.00  0.00     0.004 C 
ENDBRANCH  16  17
ENDBRANCH  15  16
ENDBRANCH  14  15
ENDBRANCH  13  14
ENDBRANCH  12  13
ENDBRANCH  11  12
ENDBRANCH   1  11
TORSDOF 14
ENDMDL
MODEL 4
REMARK VINA RESULT:    -7.025      3.623      7.097
REMARK INTER + INTRA:         -13.988
REMARK INTER:                 -12.918
REMARK INTRA:                  -1.070
REMARK UNBOUND:                -1.213
REMARK SMILES CCCCCCCCCCCCCCCC(=O)[O-]
REMARK SMILES IDX 9 1 10 2 11 3 12 4 13 5 14 6 15 7 16 8 17 9 18 10 8 11 7 12
REMARK SMILES IDX 6 13 5 14 4 15 3 16 2 17 1 18
REMARK H PARENT
REMARK Flexibility Score: inf
ROOT
ATOM      1  C   UNL     1      29.355  -3.440  19.702  1.00  0.00     0.000 C 
ENDROOT
BRANCH   1   2
ATOM      2  C   UNL     1      29.268  -1.985  19.211  1.00  0.00     0.000 C 
BRANCH   2   3
ATOM      3  C   UNL     1      28.493  -1.072  20.179  1.00  0.00     0.000 C 
BRANCH   3   4
ATOM      4  C   UNL     1      27.131  -0.566  19.662  1.00  0.00     0.000 C 
BRANCH   4   5
ATOM      5  C   UNL     1      25.916  -1.408  20.090  1.00  0.00     0.000 C 
BRANCH   5   6
ATOM      6  C   UNL     1      24.576  -0.744  19.731  1.00  0.00     0.006 C 
BRANCH   6   7
ATOM      7  C   UNL     1      24.707   0.777  19.581  1.00  0.00     0.053 C 
BRANCH   7   8
ATOM      8  C   UNL     1      23.563   1.359  18.809  1.00  0.00     0.041 C 
ATOM      9  O   UNL     1      23.739   1.779  17.636  1.00  0.00    -0.550 OA
ATOM     10  O   UNL     1      22.294   1.403  19.372  1.00  0.00    -0.550 OA
ENDBRANCH   7   8
ENDBRANCH   6   7
ENDBRANCH   5   6
ENDBRANCH   4   5
ENDBRANCH   3   4
ENDBRANCH   2   3
ENDBRANCH   1   2
BRANCH   1  11
ATOM     11  C   UNL     1      28.985  -4.461  18.611  1.00  0.00     0.000 C 
BRANCH  11  12
ATOM     12  C   UNL     1      27.472  -4.671  18.396  1.00  0.00    -0.000 C 
BRANCH  12  13
ATOM     13  C   UNL     1      26.642  -4.829  19.685  1.00  0.00    -0.000 C 
BRANCH  13  14
ATOM     14  C   UNL     1      25.611  -5.973  19.665  1.00  0.00    -0.000 C 
BRANCH  14  15
ATOM     15  C   UNL     1      26.265  -7.365  19.676  1.00  0.00    -0.000 C 
BRANCH  15  16
ATOM     16  C   UNL     1      25.645  -8.309  20.722  1.00  0.00    -0.000 C 
BRANCH  16  17
ATOM     17  C   UNL     1      24.117  -8.199  20.876  1.00  0.00    -0.003 C 
ATOM     18  C   UNL     1      23.571  -9.017  22.045  1.00  0.00     0.004 C 
ENDBRANCH  16  17
ENDBRANCH  15  16
ENDBRANCH  14  15
ENDBRANCH  13  14
ENDBRANCH  12  13
ENDBRANCH  11  12
ENDBRANCH   1  11
TORSDOF 14
ENDMDL
MODEL 5
REMARK VINA RESULT:    -6.875      2.984      7.147
REMARK INTER + INTRA:         -13.716
REMARK INTER:                 -12.346
REMARK INTRA:                  -1.370
REMARK UNBOUND:                -1.213
REMARK SMILES CCCCCCCCCCCCCCCC(=O)[O-]
REMARK SMILES IDX 9 1 10 2 11 3 12 4 13 5 14 6 15 7 16 8 17 9 18 10 8 11 7 12
REMARK SMILES IDX 6 13 5 14 4 15 3 16 2 17 1 18
REMARK H PARENT
REMARK Flexibility Score: inf
ROOT
ATOM      1  C   UNL     1      25.421  -3.253  19.265  1.00  0.00     0.000 C 
ENDROOT
BRANCH   1   2
ATOM      2  C   UNL     1      25.487  -2.162  20.347  1.00  0.00     0.000 C 
BRANCH   2   3
ATOM      3  C   UNL     1      25.536  -0.739  19.759  1.00  0.00     0.000 C 
BRANCH   3   4
ATOM      4  C   UNL     1      26.853   0.027  19.994  1.00  0.00     0.000 C 
BRANCH   4   5
ATOM      5  C   UNL     1      28.060  -0.486  19.189  1.00  0.00     0.000 C 
BRANCH   5   6
ATOM      6  C   UNL     1      29.126  -1.153  20.075  1.00  0.00     0.006 C 
BRANCH   6   7
ATOM      7  C   UNL     1      29.041  -2.685  20.027  1.00  0.00     0.053 C 
BRANCH   7   8
ATOM      8  C   UNL     1      30.024  -3.265  19.059  1.00  0.00     0.041 C 
ATOM      9  O   UNL     1      29.630  -4.012  18.126  1.00  0.00    -0.550 OA
ATOM     10  O   UNL     1      31.374  -2.951  19.165  1.00  0.00    -0.550 OA
ENDBRANCH   7   8
ENDBRANCH   6   7
ENDBRANCH   5   6
ENDBRANCH   4   5
ENDBRANCH   3   4
ENDBRANCH   2   3
ENDBRANCH   1   2
BRANCH   1  11
ATOM     11  C   UNL     1      25.390  -4.675  19.854  1.00  0.00     0.000 C 
BRANCH  11  12
ATOM     12  C   UNL     1      26.762  -5.370  19.962  1.00  0.00    -0.000 C 
BRANCH  12  13
ATOM     13  C   UNL     1      27.141  -6.264  18.764  1.00  0.00    -0.000 C 
BRANCH  13  14
ATOM     14  C   UNL     1      26.640  -7.717  18.846  1.00  0.00    -0.000 C 
BRANCH  14  15
ATOM     15  C   UNL     1      26.818  -8.332  20.245  1.00  0.00    -0.000 C 
BRANCH  15  16
ATOM     16  C   UNL     1      25.548  -9.037  20.754  1.00  0.00    -0.000 C 
BRANCH  16  17
ATOM     17  C   UNL     1      24.381  -8.100  21.112  1.00  0.00    -0.003 C 
ATOM     18  C   UNL     1      23.626  -8.532  22.368  1.00  0.00     0.004 C 
ENDBRANCH  16  17
ENDBRANCH  15  16
ENDBRANCH  14  15
ENDBRANCH  13  14
ENDBRANCH  12  13
ENDBRANCH  11  12
ENDBRANCH   1  11
TORSDOF 14
ENDMDL
MODEL 6
REMARK VINA RESULT:    -6.741      1.248      2.476
REMARK INTER + INTRA:         -13.472
REMARK INTER:                 -12.369
REMARK INTRA:                  -1.103
REMARK UNBOUND:                -1.213
REMARK SMILES CCCCCCCCCCCCCCCC(=O)[O-]
REMARK SMILES IDX 9 1 10 2 11 3 12 4 13 5 14 6 15 7 16 8 17 9 18 10 8 11 7 12
REMARK SMILES IDX 6 13 5 14 4 15 3 16 2 17 1 18
REMARK H PARENT
REMARK Flexibility Score: inf
ROOT
ATOM      1  C   UNL     1      26.616  -3.558  19.727  1.00  0.00     0.000 C 
ENDROOT
BRANCH   1   2
ATOM      2  C   UNL     1      25.388  -4.271  19.136  1.00  0.00     0.000 C 
BRANCH   2   3
ATOM      3  C   UNL     1      25.160  -5.669  19.741  1.00  0.00     0.000 C 
BRANCH   3   4
ATOM      4  C   UNL     1      25.708  -6.846  18.910  1.00  0.00     0.000 C 
BRANCH   4   5
ATOM      5  C   UNL     1      26.668  -7.785  19.662  1.00  0.00     0.000 C 
BRANCH   5   6
ATOM      6  C   UNL     1      26.108  -8.248  21.017  1.00  0.00     0.006 C 
BRANCH   6   7
ATOM      7  C   UNL     1      24.921  -9.207  20.855  1.00  0.00     0.053 C 
BRANCH   7   8
ATOM      8  C   UNL     1      23.667  -8.640  21.446  1.00  0.00     0.041 C 
ATOM      9  O   UNL     1      23.494  -8.648  22.693  1.00  0.00    -0.550 OA
ATOM     10  O   UNL     1      22.704  -8.070  20.622  1.00  0.00    -0.550 OA
ENDBRANCH   7   8
ENDBRANCH   6   7
ENDBRANCH   5   6
ENDBRANCH   4   5
ENDBRANCH   3   4
ENDBRANCH   2   3
ENDBRANCH   1   2
BRANCH   1  11
ATOM     11  C   UNL     1      27.946  -4.110  19.183  1.00  0.00     0.000 C 
BRANCH  11  12
ATOM     12  C   UNL     1      29.213  -3.407  19.712  1.00  0.00    -0.000 C 
BRANCH  12  13
ATOM     13  C   UNL     1      29.422  -1.965  19.210  1.00  0.00    -0.000 C 
BRANCH  13  14
ATOM     14  C   UNL     1      28.769  -0.869  20.073  1.00  0.00    -0.000 C 
BRANCH  14  15
ATOM     15  C   UNL     1      27.754  -0.019  19.291  1.00  0.00    -0.000 C 
BRANCH  15  16
ATOM     16  C   UNL     1      26.541   0.398  20.142  1.00  0.00    -0.000 C 
BRANCH  16  17
ATOM     17  C   UNL     1      25.205  -0.248  19.734  1.00  0.00    -0.003 C 
ATOM     18  C   UNL     1      24.180   0.763  19.223  1.00  0.00     0.004 C 
ENDBRANCH  16  17
ENDBRANCH  15  16
ENDBRANCH  14  15
ENDBRANCH  13  14
ENDBRANCH  12  13
ENDBRANCH  11  12
ENDBRANCH   1  11
TORSDOF 14
ENDMDL
MODEL 7
REMARK VINA RESULT:    -6.574      2.906      7.210
REMARK INTER + INTRA:         -13.168
REMARK INTER:                 -11.945
REMARK INTRA:                  -1.224
REMARK UNBOUND:                -1.213
REMARK SMILES CCCCCCCCCCCCCCCC(=O)[O-]
REMARK SMILES IDX 9 1 10 2 11 3 12 4 13 5 14 6 15 7 16 8 17 9 18 10 8 11 7 12
REMARK SMILES IDX 6 13 5 14 4 15 3 16 2 17 1 18
REMARK H PARENT
REMARK Flexibility Score: inf
ROOT
ATOM      1  C   UNL     1      25.033  -4.994  19.693  1.00  0.00     0.000 C 
ENDROOT
BRANCH   1   2
ATOM      2  C   UNL     1      25.060  -3.524  19.241  1.00  0.00     0.000 C 
BRANCH   2   3
ATOM      3  C   UNL     1      25.668  -2.584  20.299  1.00  0.00     0.000 C 
BRANCH   3   4
ATOM      4  C   UNL     1      25.613  -1.082  19.958  1.00  0.00     0.000 C 
BRANCH   4   5
ATOM      5  C   UNL     1      26.982  -0.405  19.766  1.00  0.00     0.000 C 
BRANCH   5   6
ATOM      6  C   UNL     1      28.153  -1.292  20.220  1.00  0.00     0.006 C 
BRANCH   6   7
ATOM      7  C   UNL     1      29.051  -1.707  19.047  1.00  0.00     0.053 C 
BRANCH   7   8
ATOM      8  C   UNL     1      29.535  -3.117  19.192  1.00  0.00     0.041 C 
ATOM      9  O   UNL     1      30.259  -3.441  20.169  1.00  0.00    -0.550 OA
ATOM     10  O   UNL     1      29.156  -4.082  18.267  1.00  0.00    -0.550 OA
ENDBRANCH   7   8
ENDBRANCH   6   7
ENDBRANCH   5   6
ENDBRANCH   4   5
ENDBRANCH   3   4
ENDBRANCH   2   3
ENDBRANCH   1   2
BRANCH   1  11
ATOM     11  C   UNL     1      26.439  -5.612  19.794  1.00  0.00     0.000 C 
BRANCH  11  12
ATOM     12  C   UNL     1      26.797  -6.614  18.678  1.00  0.00    -0.000 C 
BRANCH  12  13
ATOM     13  C   UNL     1      27.001  -8.070  19.143  1.00  0.00    -0.000 C 
BRANCH  13  14
ATOM     14  C   UNL     1      26.580  -8.359  20.595  1.00  0.00    -0.000 C 
BRANCH  14  15
ATOM     15  C   UNL     1      25.284  -9.182  20.689  1.00  0.00    -0.000 C 
BRANCH  15  16
ATOM     16  C   UNL     1      24.051  -8.319  21.014  1.00  0.00    -0.000 C 
BRANCH  16  17
ATOM     17  C   UNL     1      23.773  -8.117  22.514  1.00  0.00    -0.003 C 
ATOM     18  C   UNL     1      22.990  -9.269  23.141  1.00  0.00     0.004 C 
ENDBRANCH  16  17
ENDBRANCH  15  16
ENDBRANCH  14  15
ENDBRANCH  13  14
ENDBRANCH  12  13
ENDBRANCH  11  12
ENDBRANCH   1  11
TORSDOF 14
ENDMDL
MODEL 8
REMARK VINA RESULT:    -6.506      1.440      3.766
REMARK INTER + INTRA:         -13.045
REMARK INTER:                 -11.772
REMARK INTRA:                  -1.273
REMARK UNBOUND:                -1.213
REMARK SMILES CCCCCCCCCCCCCCCC(=O)[O-]
REMARK SMILES IDX 9 1 10 2 11 3 12 4 13 5 14 6 15 7 16 8 17 9 18 10 8 11 7 12
REMARK SMILES IDX 6 13 5 14 4 15 3 16 2 17 1 18
REMARK H PARENT
REMARK Flexibility Score: inf
ROOT
ATOM      1  C   UNL     1      25.251  -2.637  19.238  1.00  0.00     0.000 C 
ENDROOT
BRANCH   1   2
ATOM      2  C   UNL     1      25.824  -3.933  19.839  1.00  0.00     0.000 C 
BRANCH   2   3
ATOM      3  C   UNL     1      26.393  -4.886  18.772  1.00  0.00     0.000 C 
BRANCH   3   4
ATOM      4  C   UNL     1      27.320  -5.996  19.306  1.00  0.00     0.000 C 
BRANCH   4   5
ATOM      5  C   UNL     1      26.713  -7.410  19.309  1.00  0.00     0.000 C 
BRANCH   5   6
ATOM      6  C   UNL     1      25.273  -7.438  19.848  1.00  0.00     0.006 C 
BRANCH   6   7
ATOM      7  C   UNL     1      25.133  -8.347  21.076  1.00  0.00     0.053 C 
BRANCH   7   8
ATOM      8  C   UNL     1      23.716  -8.419  21.554  1.00  0.00     0.041 C 
ATOM      9  O   UNL     1      23.467  -8.605  22.774  1.00  0.00    -0.550 OA
ATOM     10  O   UNL     1      22.668  -8.244  20.658  1.00  0.00    -0.550 OA
ENDBRANCH   7   8
ENDBRANCH   6   7
ENDBRANCH   5   6
ENDBRANCH   4   5
ENDBRANCH   3   4
ENDBRANCH   2   3
ENDBRANCH   1   2
BRANCH   1  11
ATOM     11  C   UNL     1      25.074  -1.523  20.285  1.00  0.00     0.000 C 
BRANCH  11  12
ATOM     12  C   UNL     1      24.688  -0.143  19.714  1.00  0.00    -0.000 C 
BRANCH  12  13
ATOM     13  C   UNL     1      25.861   0.838  19.520  1.00  0.00    -0.000 C 
BRANCH  13  14
ATOM     14  C   UNL     1      27.170   0.443  20.228  1.00  0.00    -0.000 C 
BRANCH  14  15
ATOM     15  C   UNL     1      28.166  -0.262  19.291  1.00  0.00    -0.000 C 
BRANCH  15  16
ATOM     16  C   UNL     1      28.803  -1.511  19.925  1.00  0.00    -0.000 C 
BRANCH  16  17
ATOM     17  C   UNL     1      29.194  -2.620  18.932  1.00  0.00    -0.003 C 
ATOM     18  C   UNL     1      30.610  -3.150  19.149  1.00  0.00     0.004 C 
ENDBRANCH  16  17
ENDBRANCH  15  16
ENDBRANCH  14  15
ENDBRANCH  13  14
ENDBRANCH  12  13
ENDBRANCH  11  12
ENDBRANCH   1  11
TORSDOF 14
ENDMDL
MODEL 9
REMARK VINA RESULT:    -6.225      3.208      7.069
REMARK INTER + INTRA:         -12.533
REMARK INTER:                 -11.256
REMARK INTRA:                  -1.276
REMARK UNBOUND:                -1.213
REMARK SMILES CCCCCCCCCCCCCCCC(=O)[O-]
REMARK SMILES IDX 9 1 10 2 11 3 12 4 13 5 14 6 15 7 16 8 17 9 18 10 8 11 7 12
REMARK SMILES IDX 6 13 5 14 4 15 3 16 2 17 1 18
REMARK H PARENT
REMARK Flexibility Score: inf
ROOT
ATOM      1  C   UNL     1      27.013  -4.141  18.833  1.00  0.00     0.000 C 
ENDROOT
BRANCH   1   2
ATOM      2  C   UNL     1      28.330  -3.869  19.579  1.00  0.00     0.000 C 
BRANCH   2   3
ATOM      3  C   UNL     1      29.056  -2.609  19.073  1.00  0.00     0.000 C 
BRANCH   3   4
ATOM      4  C   UNL     1      28.956  -1.375  19.993  1.00  0.00     0.000 C 
BRANCH   4   5
ATOM      5  C   UNL     1      28.166  -0.189  19.412  1.00  0.00     0.000 C 
BRANCH   5   6
ATOM      6  C   UNL     1      26.925   0.166  20.248  1.00  0.00     0.006 C 
BRANCH   6   7
ATOM      7  C   UNL     1      25.900   0.977  19.445  1.00  0.00     0.053 C 
BRANCH   7   8
ATOM      8  C   UNL     1      24.545   0.341  19.475  1.00  0.00     0.041 C 
ATOM      9  O   UNL     1      23.534   0.983  19.085  1.00  0.00    -0.550 OA
ATOM     10  O   UNL     1      24.401  -0.974  19.900  1.00  0.00    -0.550 OA
ENDBRANCH   7   8
ENDBRANCH   6   7
ENDBRANCH   5   6
ENDBRANCH   4   5
ENDBRANCH   3   4
ENDBRANCH   2   3
ENDBRANCH   1   2
BRANCH   1  11
ATOM     11  C   UNL     1      25.805  -4.256  19.779  1.00  0.00     0.000 C 
BRANCH  11  12
ATOM     12  C   UNL     1      24.476  -4.646  19.102  1.00  0.00    -0.000 C 
BRANCH  12  13
ATOM     13  C   UNL     1      23.996  -6.085  19.377  1.00  0.00    -0.000 C 
BRANCH  13  14
ATOM     14  C   UNL     1      24.370  -6.647  20.760  1.00  0.00    -0.000 C 
BRANCH  14  15
ATOM     15  C   UNL     1      24.397  -8.185  20.792  1.00  0.00    -0.000 C 
BRANCH  15  16
ATOM     16  C   UNL     1      25.821  -8.761  20.681  1.00  0.00    -0.000 C 
BRANCH  16  17
ATOM     17  C   UNL     1      26.877  -7.787  20.127  1.00  0.00    -0.003 C 
ATOM     18  C   UNL     1      26.987  -7.825  18.604  1.00  0.00     0.004 C 
ENDBRANCH  16  17
ENDBRANCH  15  16
ENDBRANCH  14  15
ENDBRANCH  13  14
ENDBRANCH  12  13
ENDBRANCH  11  12
ENDBRANCH   1  11
TORSDOF 14
ENDMDL
