MODEL 1
REMARK VINA RESULT:    -4.756      0.000      0.000
REMARK INTER + INTRA:          -5.884
REMARK INTER:                  -5.590
REMARK INTRA:                  -0.294
REMARK UNBOUND:                -0.294
REMARK SMILES O=c1cc(-c2ccc(O)c(O)c2)oc2cc(O)cc(O)c12
REMARK SMILES IDX 4 1 3 2 2 3 1 4 21 5 19 6 18 7 16 8 15 9 14 10 13 11 5 12
REMARK SMILES IDX 6 13 7 14 8 15 12 16 10 17 9 18 11 20 20 22 17 24
REMARK H PARENT 9 19 11 21 20 23 17 25
REMARK Flexibility Score: inf
ROOT
ATOM      1  C   UNL     1      -6.170  40.743  18.204  1.00  0.00     0.138 A 
ATOM      2  C   UNL     1      -6.925  40.740  19.388  1.00  0.00     0.100 A 
ATOM      3  C   UNL     1      -8.316  40.656  19.315  1.00  0.00     0.197 A 
ATOM      4  O   UNL     1      -8.985  40.656  20.383  1.00  0.00    -0.289 OA
ATOM      5  C   UNL     1      -8.943  40.578  18.055  1.00  0.00     0.107 A 
ATOM      6  C   UNL     1     -10.346  40.489  17.892  1.00  0.00     0.134 A 
ATOM      7  C   UNL     1     -10.892  40.420  16.603  1.00  0.00     0.093 A 
ATOM      8  C   UNL     1     -10.067  40.439  15.477  1.00  0.00     0.123 A 
ATOM      9  C   UNL     1      -8.678  40.527  15.632  1.00  0.00     0.094 A 
ATOM     10  C   UNL     1      -8.115  40.595  16.909  1.00  0.00     0.146 A 
ATOM     11  O   UNL     1      -6.793  40.677  17.030  1.00  0.00    -0.456 OA
ENDROOT
BRANCH   1  12
ATOM     12  C   UNL     1      -4.688  40.832  18.221  1.00  0.00     0.021 A 
ATOM     13  C   UNL     1      -3.944  41.034  17.043  1.00  0.00     0.016 A 
ATOM     14  C   UNL     1      -2.551  41.125  17.091  1.00  0.00     0.051 A 
ATOM     15  C   UNL     1      -1.876  41.023  18.310  1.00  0.00     0.157 A 
ATOM     16  C   UNL     1      -4.003  40.744  19.447  1.00  0.00     0.062 A 
ATOM     17  C   UNL     1      -2.604  40.833  19.495  1.00  0.00     0.158 A 
BRANCH  15  18
ATOM     18  O   UNL     1      -0.484  41.116  18.324  1.00  0.00    -0.504 OA
ATOM     19  H   UNL     1      -0.005  42.008  18.283  1.00  0.00     0.293 HD
ENDBRANCH  15  18
BRANCH  17  20
ATOM     20  O   UNL     1      -1.937  40.736  20.716  1.00  0.00    -0.504 OA
ATOM     21  H   UNL     1      -1.828  39.848  21.191  1.00  0.00     0.293 HD
ENDBRANCH  17  20
ENDBRANCH   1  12
BRANCH   6  22
ATOM     22  O   UNL     1     -11.197  40.468  18.999  1.00  0.00    -0.507 OA
ATOM     23  H   UNL     1     -11.031  39.852  19.786  1.00  0.00     0.293 HD
ENDBRANCH   6  22
BRANCH   8  24
ATOM     24  O   UNL     1     -10.635  40.369  14.207  1.00  0.00    -0.508 OA
ATOM     25  H   UNL     1     -10.925  41.202  13.709  1.00  0.00     0.293 HD
ENDBRANCH   8  24
TORSDOF 5
ENDMDL
MODEL 2
REMARK VINA RESULT:    -4.681     23.315     24.871
REMARK INTER + INTRA:          -5.796
REMARK INTER:                  -5.522
REMARK INTRA:                  -0.274
REMARK UNBOUND:                -0.294
REMARK SMILES O=c1cc(-c2ccc(O)c(O)c2)oc2cc(O)cc(O)c12
REMARK SMILES IDX 4 1 3 2 2 3 1 4 21 5 19 6 18 7 16 8 15 9 14 10 13 11 5 12
REMARK SMILES IDX 6 13 7 14 8 15 12 16 10 17 9 18 11 20 20 22 17 24
REMARK H PARENT 9 19 11 21 20 23 17 25
REMARK Flexibility Score: inf
ROOT
ATOM      1  C   UNL     1       2.371  23.533   3.871  1.00  0.00     0.138 A 
ATOM      2  C   UNL     1       3.271  24.350   3.166  1.00  0.00     0.100 A 
ATOM      3  C   UNL     1       4.534  24.603   3.702  1.00  0.00     0.197 A 
ATOM      4  O   UNL     1       5.333  25.338   3.063  1.00  0.00    -0.289 OA
ATOM      5  C   UNL     1       4.888  24.038   4.944  1.00  0.00     0.107 A 
ATOM      6  C   UNL     1       6.147  24.243   5.557  1.00  0.00     0.134 A 
ATOM      7  C   UNL     1       6.420  23.649   6.798  1.00  0.00     0.093 A 
ATOM      8  C   UNL     1       5.462  22.858   7.436  1.00  0.00     0.123 A 
ATOM      9  C   UNL     1       4.215  22.652   6.834  1.00  0.00     0.094 A 
ATOM     10  C   UNL     1       3.925  23.234   5.597  1.00  0.00     0.146 A 
ATOM     11  O   UNL     1       2.733  23.023   5.045  1.00  0.00    -0.456 OA
ENDROOT
BRANCH   1  12
ATOM     12  C   UNL     1       1.014  23.231   3.350  1.00  0.00     0.021 A 
ATOM     13  C   UNL     1       0.494  21.923   3.353  1.00  0.00     0.016 A 
ATOM     14  C   UNL     1      -0.791  21.671   2.866  1.00  0.00     0.051 A 
ATOM     15  C   UNL     1      -1.581  22.714   2.375  1.00  0.00     0.157 A 
ATOM     16  C   UNL     1       0.209  24.279   2.867  1.00  0.00     0.062 A 
ATOM     17  C   UNL     1      -1.080  24.025   2.376  1.00  0.00     0.158 A 
BRANCH  15  18
ATOM     18  O   UNL     1      -2.859  22.429   1.895  1.00  0.00    -0.504 OA
ATOM     19  H   UNL     1      -3.085  22.476   0.908  1.00  0.00     0.293 HD
ENDBRANCH  15  18
BRANCH  17  20
ATOM     20  O   UNL     1      -1.864  25.072   1.892  1.00  0.00    -0.504 OA
ATOM     21  H   UNL     1      -2.873  25.067   1.985  1.00  0.00     0.293 HD
ENDBRANCH  17  20
ENDBRANCH   1  12
BRANCH   6  22
ATOM     22  O   UNL     1       7.125  25.028   4.944  1.00  0.00    -0.507 OA
ATOM     23  H   UNL     1       6.968  25.466   4.044  1.00  0.00     0.293 HD
ENDBRANCH   6  22
BRANCH   8  24
ATOM     24  O   UNL     1       5.759  22.280   8.668  1.00  0.00    -0.508 OA
ATOM     25  H   UNL     1       5.708  21.278   8.809  1.00  0.00     0.293 HD
ENDBRANCH   8  24
TORSDOF 5
ENDMDL
MODEL 3
REMARK VINA RESULT:    -4.648     22.972     24.689
REMARK INTER + INTRA:          -5.757
REMARK INTER:                  -5.445
REMARK INTRA:                  -0.312
REMARK UNBOUND:                -0.294
REMARK SMILES O=c1cc(-c2ccc(O)c(O)c2)oc2cc(O)cc(O)c12
REMARK SMILES IDX 4 1 3 2 2 3 1 4 21 5 19 6 18 7 16 8 15 9 14 10 13 11 5 12
REMARK SMILES IDX 6 13 7 14 8 15 12 16 10 17 9 18 11 20 20 22 17 24
REMARK H PARENT 9 19 11 21 20 23 17 25
REMARK Flexibility Score: inf
ROOT
ATOM      1  C   UNL     1       2.391  23.159   4.644  1.00  0.00     0.138 A 
ATOM      2  C   UNL     1       2.896  23.782   3.490  1.00  0.00     0.100 A 
ATOM      3  C   UNL     1       4.186  24.314   3.505  1.00  0.00     0.197 A 
ATOM      4  O   UNL     1       4.629  24.873   2.467  1.00  0.00    -0.289 OA
ATOM      5  C   UNL     1       4.963  24.220   4.678  1.00  0.00     0.107 A 
ATOM      6  C   UNL     1       6.279  24.731   4.777  1.00  0.00     0.134 A 
ATOM      7  C   UNL     1       6.984  24.602   5.982  1.00  0.00     0.093 A 
ATOM      8  C   UNL     1       6.402  23.976   7.086  1.00  0.00     0.123 A 
ATOM      9  C   UNL     1       5.101  23.468   6.993  1.00  0.00     0.094 A 
ATOM     10  C   UNL     1       4.382  23.586   5.801  1.00  0.00     0.146 A 
ATOM     11  O   UNL     1       3.147  23.095   5.737  1.00  0.00    -0.456 OA
ENDROOT
BRANCH   1  12
ATOM     12  C   UNL     1       1.026  22.577   4.685  1.00  0.00     0.021 A 
ATOM     13  C   UNL     1       0.350  22.189   3.513  1.00  0.00     0.016 A 
ATOM     14  C   UNL     1      -0.930  21.634   3.584  1.00  0.00     0.051 A 
ATOM     15  C   UNL     1      -1.555  21.451   4.820  1.00  0.00     0.157 A 
ATOM     16  C   UNL     1       0.397  22.376   5.928  1.00  0.00     0.062 A 
ATOM     17  C   UNL     1      -0.889  21.821   5.999  1.00  0.00     0.158 A 
BRANCH  15  18
ATOM     18  O   UNL     1      -2.834  20.895   4.857  1.00  0.00    -0.504 OA
ATOM     19  H   UNL     1      -3.255  20.459   4.045  1.00  0.00     0.293 HD
ENDBRANCH  15  18
BRANCH  17  20
ATOM     20  O   UNL     1      -1.505  21.636   7.236  1.00  0.00    -0.504 OA
ATOM     21  H   UNL     1      -1.969  22.397   7.717  1.00  0.00     0.293 HD
ENDBRANCH  17  20
ENDBRANCH   1  12
BRANCH   6  22
ATOM     22  O   UNL     1       6.888  25.363   3.692  1.00  0.00    -0.507 OA
ATOM     23  H   UNL     1       7.638  24.923   3.172  1.00  0.00     0.293 HD
ENDBRANCH   6  22
BRANCH   8  24
ATOM     24  O   UNL     1       7.124  23.860   8.272  1.00  0.00    -0.508 OA
ATOM     25  H   UNL     1       8.006  23.364   8.309  1.00  0.00     0.293 HD
ENDBRANCH   8  24
TORSDOF 5
ENDMDL
MODEL 4
REMARK VINA RESULT:    -4.614     23.062     24.650
REMARK INTER + INTRA:          -5.718
REMARK INTER:                  -5.420
REMARK INTRA:                  -0.297
REMARK UNBOUND:                -0.294
REMARK SMILES O=c1cc(-c2ccc(O)c(O)c2)oc2cc(O)cc(O)c12
REMARK SMILES IDX 4 1 3 2 2 3 1 4 21 5 19 6 18 7 16 8 15 9 14 10 13 11 5 12
REMARK SMILES IDX 6 13 7 14 8 15 12 16 10 17 9 18 11 20 20 22 17 24
REMARK H PARENT 9 19 11 21 20 23 17 25
REMARK Flexibility Score: inf
ROOT
ATOM      1  C   UNL     1       1.785  22.558   5.017  1.00  0.00     0.138 A 
ATOM      2  C   UNL     1       1.938  21.672   6.097  1.00  0.00     0.100 A 
ATOM      3  C   UNL     1       3.119  21.693   6.840  1.00  0.00     0.197 A 
ATOM      4  O   UNL     1       3.247  20.893   7.805  1.00  0.00    -0.289 OA
ATOM      5  C   UNL     1       4.142  22.599   6.495  1.00  0.00     0.107 A 
ATOM      6  C   UNL     1       5.369  22.686   7.195  1.00  0.00     0.134 A 
ATOM      7  C   UNL     1       6.338  23.612   6.785  1.00  0.00     0.093 A 
ATOM      8  C   UNL     1       6.108  24.449   5.692  1.00  0.00     0.123 A 
ATOM      9  C   UNL     1       4.897  24.368   4.995  1.00  0.00     0.094 A 
ATOM     10  C   UNL     1       3.917  23.452   5.389  1.00  0.00     0.146 A 
ATOM     11  O   UNL     1       2.774  23.395   4.712  1.00  0.00    -0.456 OA
ENDROOT
BRANCH   1  12
ATOM     12  C   UNL     1       0.551  22.579   4.191  1.00  0.00     0.021 A 
ATOM     13  C   UNL     1      -0.121  21.395   3.833  1.00  0.00     0.016 A 
ATOM     14  C   UNL     1      -1.286  21.447   3.064  1.00  0.00     0.051 A 
ATOM     15  C   UNL     1      -1.804  22.675   2.644  1.00  0.00     0.157 A 
ATOM     16  C   UNL     1       0.017  23.813   3.777  1.00  0.00     0.062 A 
ATOM     17  C   UNL     1      -1.152  23.865   3.002  1.00  0.00     0.158 A 
BRANCH  15  18
ATOM     18  O   UNL     1      -2.968  22.692   1.875  1.00  0.00    -0.504 OA
ATOM     19  H   UNL     1      -3.217  23.485   1.295  1.00  0.00     0.293 HD
ENDBRANCH  15  18
BRANCH  17  20
ATOM     20  O   UNL     1      -1.666  25.094   2.592  1.00  0.00    -0.504 OA
ATOM     21  H   UNL     1      -2.474  25.155   1.984  1.00  0.00     0.293 HD
ENDBRANCH  17  20
ENDBRANCH   1  12
BRANCH   6  22
ATOM     22  O   UNL     1       5.628  21.862   8.292  1.00  0.00    -0.507 OA
ATOM     23  H   UNL     1       5.974  22.235   9.168  1.00  0.00     0.293 HD
ENDBRANCH   6  22
BRANCH   8  24
ATOM     24  O   UNL     1       7.088  25.360   5.305  1.00  0.00    -0.508 OA
ATOM     25  H   UNL     1       8.050  25.263   5.605  1.00  0.00     0.293 HD
ENDBRANCH   8  24
TORSDOF 5
ENDMDL
MODEL 5
REMARK VINA RESULT:    -4.598     23.010     24.506
REMARK INTER + INTRA:          -5.698
REMARK INTER:                  -5.406
REMARK INTRA:                  -0.292
REMARK UNBOUND:                -0.294
REMARK SMILES O=c1cc(-c2ccc(O)c(O)c2)oc2cc(O)cc(O)c12
REMARK SMILES IDX 4 1 3 2 2 3 1 4 21 5 19 6 18 7 16 8 15 9 14 10 13 11 5 12
REMARK SMILES IDX 6 13 7 14 8 15 12 16 10 17 9 18 11 20 20 22 17 24
REMARK H PARENT 9 19 11 21 20 23 17 25
REMARK Flexibility Score: inf
ROOT
ATOM      1  C   UNL     1       2.375  22.841   5.543  1.00  0.00     0.138 A 
ATOM      2  C   UNL     1       3.114  22.681   6.727  1.00  0.00     0.100 A 
ATOM      3  C   UNL     1       4.418  23.171   6.794  1.00  0.00     0.197 A 
ATOM      4  O   UNL     1       5.074  23.021   7.860  1.00  0.00    -0.289 OA
ATOM      5  C   UNL     1       4.978  23.816   5.672  1.00  0.00     0.107 A 
ATOM      6  C   UNL     1       6.291  24.342   5.656  1.00  0.00     0.134 A 
ATOM      7  C   UNL     1       6.775  24.965   4.497  1.00  0.00     0.093 A 
ATOM      8  C   UNL     1       5.975  25.072   3.358  1.00  0.00     0.123 A 
ATOM      9  C   UNL     1       4.675  24.554   3.368  1.00  0.00     0.094 A 
ATOM     10  C   UNL     1       4.174  23.930   4.514  1.00  0.00     0.146 A 
ATOM     11  O   UNL     1       2.935  23.447   4.499  1.00  0.00    -0.456 OA
ENDROOT
BRANCH   1  12
ATOM     12  C   UNL     1       0.983  22.339   5.414  1.00  0.00     0.021 A 
ATOM     13  C   UNL     1       0.370  22.171   4.159  1.00  0.00     0.016 A 
ATOM     14  C   UNL     1      -0.937  21.686   4.068  1.00  0.00     0.051 A 
ATOM     15  C   UNL     1      -1.652  21.355   5.222  1.00  0.00     0.157 A 
ATOM     16  C   UNL     1       0.263  21.991   6.572  1.00  0.00     0.062 A 
ATOM     17  C   UNL     1      -1.050  21.506   6.481  1.00  0.00     0.158 A 
BRANCH  15  18
ATOM     18  O   UNL     1      -2.956  20.875   5.097  1.00  0.00    -0.504 OA
ATOM     19  H   UNL     1      -3.365  20.657   4.196  1.00  0.00     0.293 HD
ENDBRANCH  15  18
BRANCH  17  20
ATOM     20  O   UNL     1      -1.755  21.173   7.636  1.00  0.00    -0.504 OA
ATOM     21  H   UNL     1      -2.725  21.438   7.761  1.00  0.00     0.293 HD
ENDBRANCH  17  20
ENDBRANCH   1  12
BRANCH   6  22
ATOM     22  O   UNL     1       7.114  24.250   6.780  1.00  0.00    -0.507 OA
ATOM     23  H   UNL     1       7.677  23.428   6.962  1.00  0.00     0.293 HD
ENDBRANCH   6  22
BRANCH   8  24
ATOM     24  O   UNL     1       6.481  25.696   2.219  1.00  0.00    -0.508 OA
ATOM     25  H   UNL     1       6.887  25.164   1.460  1.00  0.00     0.293 HD
ENDBRANCH   8  24
TORSDOF 5
ENDMDL
MODEL 6
REMARK VINA RESULT:    -4.461     22.747     23.802
REMARK INTER + INTRA:          -5.537
REMARK INTER:                  -5.219
REMARK INTRA:                  -0.318
REMARK UNBOUND:                -0.294
REMARK SMILES O=c1cc(-c2ccc(O)c(O)c2)oc2cc(O)cc(O)c12
REMARK SMILES IDX 4 1 3 2 2 3 1 4 21 5 19 6 18 7 16 8 15 9 14 10 13 11 5 12
REMARK SMILES IDX 6 13 7 14 8 15 12 16 10 17 9 18 11 20 20 22 17 24
REMARK H PARENT 9 19 11 21 20 23 17 25
REMARK Flexibility Score: inf
ROOT
ATOM      1  C   UNL     1       2.147  23.126   4.446  1.00  0.00     0.138 A 
ATOM      2  C   UNL     1       1.128  22.818   3.528  1.00  0.00     0.100 A 
ATOM      3  C   UNL     1      -0.044  22.212   3.981  1.00  0.00     0.197 A 
ATOM      4  O   UNL     1      -0.951  21.938   3.150  1.00  0.00    -0.289 OA
ATOM      5  C   UNL     1      -0.188  21.913   5.351  1.00  0.00     0.107 A 
ATOM      6  C   UNL     1      -1.343  21.300   5.893  1.00  0.00     0.134 A 
ATOM      7  C   UNL     1      -1.406  21.031   7.268  1.00  0.00     0.093 A 
ATOM      8  C   UNL     1      -0.341  21.361   8.108  1.00  0.00     0.123 A 
ATOM      9  C   UNL     1       0.804  21.967   7.578  1.00  0.00     0.094 A 
ATOM     10  C   UNL     1       0.886  22.245   6.211  1.00  0.00     0.146 A 
ATOM     11  O   UNL     1       1.983  22.822   5.731  1.00  0.00    -0.456 OA
ENDROOT
BRANCH   1  12
ATOM     12  C   UNL     1       3.415  23.770   4.021  1.00  0.00     0.021 A 
ATOM     13  C   UNL     1       3.652  24.126   2.679  1.00  0.00     0.016 A 
ATOM     14  C   UNL     1       4.850  24.741   2.311  1.00  0.00     0.051 A 
ATOM     15  C   UNL     1       5.829  25.017   3.268  1.00  0.00     0.157 A 
ATOM     16  C   UNL     1       4.399  24.064   4.983  1.00  0.00     0.062 A 
ATOM     17  C   UNL     1       5.604  24.679   4.612  1.00  0.00     0.158 A 
BRANCH  15  18
ATOM     18  O   UNL     1       7.016  25.631   2.868  1.00  0.00    -0.504 OA
ATOM     19  H   UNL     1       7.695  25.158   2.283  1.00  0.00     0.293 HD
ENDBRANCH  15  18
BRANCH  17  20
ATOM     20  O   UNL     1       6.573  24.956   5.574  1.00  0.00    -0.504 OA
ATOM     21  H   UNL     1       7.535  25.146   5.319  1.00  0.00     0.293 HD
ENDBRANCH  17  20
ENDBRANCH   1  12
BRANCH   6  22
ATOM     22  O   UNL     1      -2.423  20.959   5.078  1.00  0.00    -0.507 OA
ATOM     23  H   UNL     1      -3.167  20.355   5.406  1.00  0.00     0.293 HD
ENDBRANCH   6  22
BRANCH   8  24
ATOM     24  O   UNL     1      -0.429  21.083   9.471  1.00  0.00    -0.508 OA
ATOM     25  H   UNL     1      -0.774  20.194   9.809  1.00  0.00     0.293 HD
ENDBRANCH   8  24
TORSDOF 5
ENDMDL
MODEL 7
REMARK VINA RESULT:    -4.225      1.315      2.675
REMARK INTER + INTRA:          -5.259
REMARK INTER:                  -4.943
REMARK INTRA:                  -0.316
REMARK UNBOUND:                -0.294
REMARK SMILES O=c1cc(-c2ccc(O)c(O)c2)oc2cc(O)cc(O)c12
REMARK SMILES IDX 4 1 3 2 2 3 1 4 21 5 19 6 18 7 16 8 15 9 14 10 13 11 5 12
REMARK SMILES IDX 6 13 7 14 8 15 12 16 10 17 9 18 11 20 20 22 17 24
REMARK H PARENT 9 19 11 21 20 23 17 25
REMARK Flexibility Score: inf
ROOT
ATOM      1  C   UNL     1      -6.056  40.589  17.849  1.00  0.00     0.138 A 
ATOM      2  C   UNL     1      -6.713  40.948  16.661  1.00  0.00     0.100 A 
ATOM      3  C   UNL     1      -8.098  40.802  16.571  1.00  0.00     0.197 A 
ATOM      4  O   UNL     1      -8.678  41.125  15.500  1.00  0.00    -0.289 OA
ATOM      5  C   UNL     1      -8.817  40.295  17.672  1.00  0.00     0.107 A 
ATOM      6  C   UNL     1     -10.221  40.116  17.664  1.00  0.00     0.134 A 
ATOM      7  C   UNL     1     -10.862  39.600  18.800  1.00  0.00     0.093 A 
ATOM      8  C   UNL     1     -10.129  39.259  19.939  1.00  0.00     0.123 A 
ATOM      9  C   UNL     1      -8.740  39.433  19.951  1.00  0.00     0.094 A 
ATOM     10  C   UNL     1      -8.083  39.947  18.830  1.00  0.00     0.146 A 
ATOM     11  O   UNL     1      -6.763  40.104  18.867  1.00  0.00    -0.456 OA
ENDROOT
BRANCH   1  12
ATOM     12  C   UNL     1      -4.585  40.721  18.001  1.00  0.00     0.021 A 
ATOM     13  C   UNL     1      -3.749  40.994  16.902  1.00  0.00     0.016 A 
ATOM     14  C   UNL     1      -2.369  41.124  17.077  1.00  0.00     0.051 A 
ATOM     15  C   UNL     1      -1.800  40.990  18.346  1.00  0.00     0.157 A 
ATOM     16  C   UNL     1      -4.007  40.601  19.278  1.00  0.00     0.062 A 
ATOM     17  C   UNL     1      -2.621  40.729  19.453  1.00  0.00     0.158 A 
BRANCH  15  18
ATOM     18  O   UNL     1      -0.418  41.124  18.487  1.00  0.00    -0.504 OA
ATOM     19  H   UNL     1       0.194  41.246  17.689  1.00  0.00     0.293 HD
ENDBRANCH  15  18
BRANCH  17  20
ATOM     20  O   UNL     1      -2.062  40.600  20.724  1.00  0.00    -0.504 OA
ATOM     21  H   UNL     1      -2.603  40.261  21.510  1.00  0.00     0.293 HD
ENDBRANCH  17  20
ENDBRANCH   1  12
BRANCH   6  22
ATOM     22  O   UNL     1     -10.981  40.449  16.541  1.00  0.00    -0.507 OA
ATOM     23  H   UNL     1     -10.865  39.965  15.659  1.00  0.00     0.293 HD
ENDBRANCH   6  22
BRANCH   8  24
ATOM     24  O   UNL     1     -10.789  38.748  21.054  1.00  0.00    -0.508 OA
ATOM     25  H   UNL     1     -10.420  37.962  21.575  1.00  0.00     0.293 HD
ENDBRANCH   8  24
TORSDOF 5
ENDMDL
MODEL 8
REMARK VINA RESULT:    -3.694     22.617     24.510
REMARK INTER + INTRA:          -4.636
REMARK INTER:                  -4.318
REMARK INTRA:                  -0.318
REMARK UNBOUND:                -0.294
REMARK SMILES O=c1cc(-c2ccc(O)c(O)c2)oc2cc(O)cc(O)c12
REMARK SMILES IDX 4 1 3 2 2 3 1 4 21 5 19 6 18 7 16 8 15 9 14 10 13 11 5 12
REMARK SMILES IDX 6 13 7 14 8 15 12 16 10 17 9 18 11 20 20 22 17 24
REMARK H PARENT 9 19 11 21 20 23 17 25
REMARK Flexibility Score: inf
ROOT
ATOM      1  C   UNL     1       1.543  22.179   5.667  1.00  0.00     0.138 A 
ATOM      2  C   UNL     1       1.587  21.908   4.289  1.00  0.00     0.100 A 
ATOM      3  C   UNL     1       2.727  22.245   3.559  1.00  0.00     0.197 A 
ATOM      4  O   UNL     1       2.756  22.000   2.323  1.00  0.00    -0.289 OA
ATOM      5  C   UNL     1       3.817  22.855   4.213  1.00  0.00     0.107 A 
ATOM      6  C   UNL     1       5.009  23.227   3.547  1.00  0.00     0.134 A 
ATOM      7  C   UNL     1       6.046  23.835   4.270  1.00  0.00     0.093 A 
ATOM      8  C   UNL     1       5.915  24.077   5.639  1.00  0.00     0.123 A 
ATOM      9  C   UNL     1       4.738  23.711   6.302  1.00  0.00     0.094 A 
ATOM     10  C   UNL     1       3.693  23.104   5.600  1.00  0.00     0.146 A 
ATOM     11  O   UNL     1       2.586  22.764   6.252  1.00  0.00    -0.456 OA
ENDROOT
BRANCH   1  12
ATOM     12  C   UNL     1       0.356  21.844   6.494  1.00  0.00     0.021 A 
ATOM     13  C   UNL     1      -0.793  21.253   5.935  1.00  0.00     0.016 A 
ATOM     14  C   UNL     1      -1.890  20.939   6.739  1.00  0.00     0.051 A 
ATOM     15  C   UNL     1      -1.861  21.200   8.112  1.00  0.00     0.157 A 
ATOM     16  C   UNL     1       0.385  22.091   7.879  1.00  0.00     0.062 A 
ATOM     17  C   UNL     1      -0.718  21.777   8.686  1.00  0.00     0.158 A 
BRANCH  15  18
ATOM     18  O   UNL     1      -2.974  20.875   8.887  1.00  0.00    -0.504 OA
ATOM     19  H   UNL     1      -3.093  21.225   9.831  1.00  0.00     0.293 HD
ENDBRANCH  15  18
BRANCH  17  20
ATOM     20  O   UNL     1      -0.679  22.035  10.056  1.00  0.00    -0.504 OA
ATOM     21  H   UNL     1       0.029  22.634  10.463  1.00  0.00     0.293 HD
ENDBRANCH  17  20
ENDBRANCH   1  12
BRANCH   6  22
ATOM     22  O   UNL     1       5.170  22.998   2.180  1.00  0.00    -0.507 OA
ATOM     23  H   UNL     1       5.182  23.758   1.511  1.00  0.00     0.293 HD
ENDBRANCH   6  22
BRANCH   8  24
ATOM     24  O   UNL     1       6.961  24.682   6.333  1.00  0.00    -0.508 OA
ATOM     25  H   UNL     1       6.788  25.318   7.102  1.00  0.00     0.293 HD
ENDBRANCH   8  24
TORSDOF 5
ENDMDL
