MODEL 1
REMARK VINA RESULT:    -3.129      0.000      0.000
REMARK INTER + INTRA:          -3.544
REMARK INTER:                  -3.495
REMARK INTRA:                  -0.049
REMARK UNBOUND:                -0.049
REMARK SMILES CCCC(=O)[O-]
REMARK SMILES IDX 3 1 4 2 5 3 6 4 2 5 1 6
REMARK H PARENT
REMARK Flexibility Score: inf
ROOT
ATOM      1  C   UNL     1      52.415  60.882  41.037  1.00  0.00     0.052 C 
ENDROOT
BRANCH   1   2
ATOM      2  C   UNL     1      52.735  61.246  42.452  1.00  0.00     0.041 C 
ATOM      3  O   UNL     1      52.800  60.353  43.337  1.00  0.00    -0.550 OA
ATOM      4  O   UNL     1      53.008  62.567  42.785  1.00  0.00    -0.550 OA
ENDBRANCH   1   2
BRANCH   1   5
ATOM      5  C   UNL     1      50.914  60.631  40.875  1.00  0.00     0.003 C 
ATOM      6  C   UNL     1      50.132  61.941  40.888  1.00  0.00     0.004 C 
ENDBRANCH   1   5
TORSDOF 2
ENDMDL
MODEL 2
REMARK VINA RESULT:    -3.049      1.955      2.845
REMARK INTER + INTRA:          -3.455
REMARK INTER:                  -3.439
REMARK INTRA:                  -0.016
REMARK UNBOUND:                -0.049
REMARK SMILES CCCC(=O)[O-]
REMARK SMILES IDX 3 1 4 2 5 3 6 4 2 5 1 6
REMARK H PARENT
REMARK Flexibility Score: inf
ROOT
ATOM      1  C   UNL     1      52.749  60.922  41.467  1.00  0.00     0.052 C 
ENDROOT
BRANCH   1   2
ATOM      2  C   UNL     1      51.285  60.967  41.159  1.00  0.00     0.041 C 
ATOM      3  O   UNL     1      50.665  59.908  40.875  1.00  0.00    -0.550 OA
ATOM      4  O   UNL     1      50.596  62.170  41.230  1.00  0.00    -0.550 OA
ENDBRANCH   1   2
BRANCH   1   5
ATOM      5  C   UNL     1      52.983  61.072  42.973  1.00  0.00     0.003 C 
ATOM      6  C   UNL     1      53.294  62.520  43.339  1.00  0.00     0.004 C 
ENDBRANCH   1   5
TORSDOF 2
ENDMDL
MODEL 3
REMARK VINA RESULT:    -2.824     14.889     15.521
REMARK INTER + INTRA:          -3.203
REMARK INTER:                  -3.146
REMARK INTRA:                  -0.056
REMARK UNBOUND:                -0.049
REMARK SMILES CCCC(=O)[O-]
REMARK SMILES IDX 3 1 4 2 5 3 6 4 2 5 1 6
REMARK H PARENT
REMARK Flexibility Score: inf
ROOT
ATOM      1  C   UNL     1      51.026  46.804  44.156  1.00  0.00     0.052 C 
ENDROOT
BRANCH   1   2
ATOM      2  C   UNL     1      49.644  46.232  44.142  1.00  0.00     0.041 C 
ATOM      3  O   UNL     1      48.692  46.886  43.641  1.00  0.00    -0.550 OA
ATOM      4  O   UNL     1      49.415  44.955  44.640  1.00  0.00    -0.550 OA
ENDBRANCH   1   2
BRANCH   1   5
ATOM      5  C   UNL     1      51.755  46.409  45.443  1.00  0.00     0.003 C 
ATOM      6  C   UNL     1      51.321  47.287  46.614  1.00  0.00     0.004 C 
ENDBRANCH   1   5
TORSDOF 2
ENDMDL
MODEL 4
REMARK VINA RESULT:    -2.793     15.567     16.464
REMARK INTER + INTRA:          -3.169
REMARK INTER:                  -3.141
REMARK INTRA:                  -0.027
REMARK UNBOUND:                -0.049
REMARK SMILES CCCC(=O)[O-]
REMARK SMILES IDX 3 1 4 2 5 3 6 4 2 5 1 6
REMARK H PARENT
REMARK Flexibility Score: inf
ROOT
ATOM      1  C   UNL     1      42.483  47.900  41.641  1.00  0.00     0.052 C 
ENDROOT
BRANCH   1   2
ATOM      2  C   UNL     1      43.106  46.544  41.542  1.00  0.00     0.041 C 
ATOM      3  O   UNL     1      42.394  45.535  41.298  1.00  0.00    -0.550 OA
ATOM      4  O   UNL     1      44.482  46.400  41.673  1.00  0.00    -0.550 OA
ENDBRANCH   1   2
BRANCH   1   5
ATOM      5  C   UNL     1      43.523  48.989  41.365  1.00  0.00     0.003 C 
ATOM      6  C   UNL     1      43.924  49.705  42.652  1.00  0.00     0.004 C 
ENDBRANCH   1   5
TORSDOF 2
ENDMDL
MODEL 5
REMARK VINA RESULT:    -2.767     14.645     15.536
REMARK INTER + INTRA:          -3.140
REMARK INTER:                  -3.111
REMARK INTRA:                  -0.029
REMARK UNBOUND:                -0.049
REMARK SMILES CCCC(=O)[O-]
REMARK SMILES IDX 3 1 4 2 5 3 6 4 2 5 1 6
REMARK H PARENT
REMARK Flexibility Score: inf
ROOT
ATOM      1  C   UNL     1      42.883  48.630  42.076  1.00  0.00     0.052 C 
ENDROOT
BRANCH   1   2
ATOM      2  C   UNL     1      44.257  49.020  41.633  1.00  0.00     0.041 C 
ATOM      3  O   UNL     1      44.471  50.170  41.168  1.00  0.00    -0.550 OA
ATOM      4  O   UNL     1      45.313  48.128  41.778  1.00  0.00    -0.550 OA
ENDBRANCH   1   2
BRANCH   1   5
ATOM      5  C   UNL     1      42.123  47.956  40.931  1.00  0.00     0.003 C 
ATOM      6  C   UNL     1      42.389  46.454  40.903  1.00  0.00     0.004 C 
ENDBRANCH   1   5
TORSDOF 2
ENDMDL
MODEL 6
REMARK VINA RESULT:    -2.717     14.607     15.063
REMARK INTER + INTRA:          -3.084
REMARK INTER:                  -3.063
REMARK INTRA:                  -0.021
REMARK UNBOUND:                -0.049
REMARK SMILES CCCC(=O)[O-]
REMARK SMILES IDX 3 1 4 2 5 3 6 4 2 5 1 6
REMARK H PARENT
REMARK Flexibility Score: inf
ROOT
ATOM      1  C   UNL     1      52.088  46.039  44.513  1.00  0.00     0.052 C 
ENDROOT
BRANCH   1   2
ATOM      2  C   UNL     1      51.433  46.740  43.365  1.00  0.00     0.041 C 
ATOM      3  O   UNL     1      52.095  47.013  42.329  1.00  0.00    -0.550 OA
ATOM      4  O   UNL     1      50.081  47.050  43.419  1.00  0.00    -0.550 OA
ENDBRANCH   1   2
BRANCH   1   5
ATOM      5  C   UNL     1      51.162  46.031  45.732  1.00  0.00     0.003 C 
ATOM      6  C   UNL     1      51.397  47.258  46.609  1.00  0.00     0.004 C 
ENDBRANCH   1   5
TORSDOF 2
ENDMDL
MODEL 7
REMARK VINA RESULT:    -2.677     20.022     20.649
REMARK INTER + INTRA:          -3.039
REMARK INTER:                  -3.017
REMARK INTRA:                  -0.022
REMARK UNBOUND:                -0.049
REMARK SMILES CCCC(=O)[O-]
REMARK SMILES IDX 3 1 4 2 5 3 6 4 2 5 1 6
REMARK H PARENT
REMARK Flexibility Score: inf
ROOT
ATOM      1  C   UNL     1      50.870  46.406  54.739  1.00  0.00     0.052 C 
ENDROOT
BRANCH   1   2
ATOM      2  C   UNL     1      52.118  45.730  55.212  1.00  0.00     0.041 C 
ATOM      3  O   UNL     1      52.783  45.005  54.427  1.00  0.00    -0.550 OA
ATOM      4  O   UNL     1      52.574  45.940  56.508  1.00  0.00    -0.550 OA
ENDBRANCH   1   2
BRANCH   1   5
ATOM      5  C   UNL     1      49.639  45.578  55.114  1.00  0.00     0.003 C 
ATOM      6  C   UNL     1      49.118  45.961  56.497  1.00  0.00     0.004 C 
ENDBRANCH   1   5
TORSDOF 2
ENDMDL
MODEL 8
REMARK VINA RESULT:    -2.662     14.907     15.326
REMARK INTER + INTRA:          -3.023
REMARK INTER:                  -3.011
REMARK INTRA:                  -0.012
REMARK UNBOUND:                -0.049
REMARK SMILES CCCC(=O)[O-]
REMARK SMILES IDX 3 1 4 2 5 3 6 4 2 5 1 6
REMARK H PARENT
REMARK Flexibility Score: inf
ROOT
ATOM      1  C   UNL     1      51.950  45.711  44.845  1.00  0.00     0.052 C 
ENDROOT
BRANCH   1   2
ATOM      2  C   UNL     1      52.702  46.032  43.593  1.00  0.00     0.041 C 
ATOM      3  O   UNL     1      52.106  46.548  42.611  1.00  0.00    -0.550 OA
ATOM      4  O   UNL     1      54.071  45.807  43.526  1.00  0.00    -0.550 OA
ENDBRANCH   1   2
BRANCH   1   5
ATOM      5  C   UNL     1      51.062  46.889  45.253  1.00  0.00     0.003 C 
ATOM      6  C   UNL     1      51.328  47.303  46.698  1.00  0.00     0.004 C 
ENDBRANCH   1   5
TORSDOF 2
ENDMDL
MODEL 9
REMARK VINA RESULT:    -2.523     14.896     15.768
REMARK INTER + INTRA:          -2.867
REMARK INTER:                  -2.909
REMARK INTRA:                   0.042
REMARK UNBOUND:                -0.049
REMARK SMILES CCCC(=O)[O-]
REMARK SMILES IDX 3 1 4 2 5 3 6 4 2 5 1 6
REMARK H PARENT
REMARK Flexibility Score: inf
ROOT
ATOM      1  C   UNL     1      44.380  48.548  41.190  1.00  0.00     0.052 C 
ENDROOT
BRANCH   1   2
ATOM      2  C   UNL     1      45.194  47.352  41.571  1.00  0.00     0.041 C 
ATOM      3  O   UNL     1      46.391  47.491  41.938  1.00  0.00    -0.550 OA
ATOM      4  O   UNL     1      44.618  46.089  41.567  1.00  0.00    -0.550 OA
ENDBRANCH   1   2
BRANCH   1   5
ATOM      5  C   UNL     1      43.033  48.532  41.918  1.00  0.00     0.003 C 
ATOM      6  C   UNL     1      41.936  47.951  41.031  1.00  0.00     0.004 C 
ENDBRANCH   1   5
TORSDOF 2
ENDMDL
