MODEL 1
REMARK VINA RESULT:    -4.268      0.000      0.000
REMARK INTER + INTRA:          -5.534
REMARK INTER:                  -5.265
REMARK INTRA:                  -0.268
REMARK UNBOUND:                -0.268
REMARK SMILES CCCCC=CC(C)=O
REMARK SMILES IDX 4 1 3 2 2 3 1 4 5 5 6 6 7 7 9 8 8 9
REMARK H PARENT
REMARK Flexibility Score: inf
ROOT
ATOM      1  C   UNL     1      17.042 -10.074  65.884  1.00  0.00     0.027 C 
ENDROOT
BRANCH   1   2
ATOM      2  C   UNL     1      17.696 -10.508  64.567  1.00  0.00     0.004 C 
BRANCH   2   3
ATOM      3  C   UNL     1      18.511  -9.363  63.954  1.00  0.00    -0.003 C 
ATOM      4  C   UNL     1      20.008  -9.647  64.034  1.00  0.00     0.004 C 
ENDBRANCH   2   3
ENDBRANCH   1   2
BRANCH   1   5
ATOM      5  C   UNL     1      17.801 -10.599  67.068  1.00  0.00    -0.023 C 
ATOM      6  C   UNL     1      18.492  -9.782  67.872  1.00  0.00     0.042 C 
BRANCH   6   7
ATOM      7  C   UNL     1      19.244 -10.251  69.054  1.00  0.00     0.152 C 
ATOM      8  O   UNL     1      19.371  -9.472  70.036  1.00  0.00    -0.295 OA
ATOM      9  C   UNL     1      19.858 -11.617  69.126  1.00  0.00     0.093 C 
ENDBRANCH   6   7
ENDBRANCH   1   5
TORSDOF 4
ENDMDL
MODEL 2
REMARK VINA RESULT:    -4.212      1.578      2.552
REMARK INTER + INTRA:          -5.465
REMARK INTER:                  -5.345
REMARK INTRA:                  -0.120
REMARK UNBOUND:                -0.268
REMARK SMILES CCCCC=CC(C)=O
REMARK SMILES IDX 4 1 3 2 2 3 1 4 5 5 6 6 7 7 9 8 8 9
REMARK H PARENT
REMARK Flexibility Score: inf
ROOT
ATOM      1  C   UNL     1      16.932 -10.106  65.910  1.00  0.00     0.027 C 
ENDROOT
BRANCH   1   2
ATOM      2  C   UNL     1      16.455 -11.254  65.011  1.00  0.00     0.004 C 
BRANCH   2   3
ATOM      3  C   UNL     1      14.985 -11.590  65.282  1.00  0.00    -0.003 C 
ATOM      4  C   UNL     1      14.085 -11.072  64.164  1.00  0.00     0.004 C 
ENDBRANCH   2   3
ENDBRANCH   1   2
BRANCH   1   5
ATOM      5  C   UNL     1      17.743 -10.620  67.064  1.00  0.00    -0.023 C 
ATOM      6  C   UNL     1      18.462  -9.795  67.834  1.00  0.00     0.042 C 
BRANCH   6   7
ATOM      7  C   UNL     1      19.265 -10.253  68.986  1.00  0.00     0.152 C 
ATOM      8  O   UNL     1      19.394  -9.483  69.976  1.00  0.00    -0.295 OA
ATOM      9  C   UNL     1      19.929 -11.596  69.021  1.00  0.00     0.093 C 
ENDBRANCH   6   7
ENDBRANCH   1   5
TORSDOF 4
ENDMDL
MODEL 3
REMARK VINA RESULT:    -4.110      1.624      1.898
REMARK INTER + INTRA:          -5.339
REMARK INTER:                  -5.145
REMARK INTRA:                  -0.193
REMARK UNBOUND:                -0.268
REMARK SMILES CCCCC=CC(C)=O
REMARK SMILES IDX 4 1 3 2 2 3 1 4 5 5 6 6 7 7 9 8 8 9
REMARK H PARENT
REMARK Flexibility Score: inf
ROOT
ATOM      1  C   UNL     1      16.884 -10.033  65.970  1.00  0.00     0.027 C 
ENDROOT
BRANCH   1   2
ATOM      2  C   UNL     1      16.078 -11.149  65.295  1.00  0.00     0.004 C 
BRANCH   2   3
ATOM      3  C   UNL     1      16.970 -12.353  64.971  1.00  0.00    -0.003 C 
ATOM      4  C   UNL     1      17.176 -12.499  63.466  1.00  0.00     0.004 C 
ENDBRANCH   2   3
ENDBRANCH   1   2
BRANCH   1   5
ATOM      5  C   UNL     1      17.714 -10.569  67.100  1.00  0.00    -0.023 C 
ATOM      6  C   UNL     1      18.392  -9.753  67.917  1.00  0.00     0.042 C 
BRANCH   6   7
ATOM      7  C   UNL     1      19.211 -10.234  69.048  1.00  0.00     0.152 C 
ATOM      8  O   UNL     1      19.398  -9.464  70.027  1.00  0.00    -0.295 OA
ATOM      9  C   UNL     1      19.826 -11.601  69.072  1.00  0.00     0.093 C 
ENDBRANCH   6   7
ENDBRANCH   1   5
TORSDOF 4
ENDMDL
MODEL 4
REMARK VINA RESULT:    -3.906     15.380     16.795
REMARK INTER + INTRA:          -5.088
REMARK INTER:                  -4.871
REMARK INTRA:                  -0.217
REMARK UNBOUND:                -0.268
REMARK SMILES CCCCC=CC(C)=O
REMARK SMILES IDX 4 1 3 2 2 3 1 4 5 5 6 6 7 7 9 8 8 9
REMARK H PARENT
REMARK Flexibility Score: inf
ROOT
ATOM      1  C   UNL     1      25.031   1.811  55.277  1.00  0.00     0.027 C 
ENDROOT
BRANCH   1   2
ATOM      2  C   UNL     1      24.290   2.405  56.481  1.00  0.00     0.004 C 
BRANCH   2   3
ATOM      3  C   UNL     1      24.941   1.969  57.798  1.00  0.00    -0.003 C 
ATOM      4  C   UNL     1      23.911   1.375  58.754  1.00  0.00     0.004 C 
ENDBRANCH   2   3
ENDBRANCH   1   2
BRANCH   1   5
ATOM      5  C   UNL     1      24.673   0.367  55.077  1.00  0.00    -0.023 C 
ATOM      6  C   UNL     1      23.524   0.006  54.494  1.00  0.00     0.042 C 
BRANCH   6   7
ATOM      7  C   UNL     1      23.135  -1.400  54.265  1.00  0.00     0.152 C 
ATOM      8  O   UNL     1      24.015  -2.295  54.379  1.00  0.00    -0.295 OA
ATOM      9  C   UNL     1      21.736  -1.800  53.904  1.00  0.00     0.093 C 
ENDBRANCH   6   7
ENDBRANCH   1   5
TORSDOF 4
ENDMDL
MODEL 5
REMARK VINA RESULT:    -3.592      3.475      5.390
REMARK INTER + INTRA:          -4.700
REMARK INTER:                  -4.530
REMARK INTRA:                  -0.170
REMARK UNBOUND:                -0.268
REMARK SMILES CCCCC=CC(C)=O
REMARK SMILES IDX 4 1 3 2 2 3 1 4 5 5 6 6 7 7 9 8 8 9
REMARK H PARENT
REMARK Flexibility Score: inf
ROOT
ATOM      1  C   UNL     1      16.848 -11.433  66.684  1.00  0.00     0.027 C 
ENDROOT
BRANCH   1   2
ATOM      2  C   UNL     1      17.206  -9.978  67.013  1.00  0.00     0.004 C 
BRANCH   2   3
ATOM      3  C   UNL     1      18.711  -9.826  67.263  1.00  0.00    -0.003 C 
ATOM      4  C   UNL     1      19.036  -9.925  68.751  1.00  0.00     0.004 C 
ENDBRANCH   2   3
ENDBRANCH   1   2
BRANCH   1   5
ATOM      5  C   UNL     1      16.335 -11.561  65.279  1.00  0.00    -0.023 C 
ATOM      6  C   UNL     1      17.130 -11.959  64.279  1.00  0.00     0.042 C 
BRANCH   6   7
ATOM      7  C   UNL     1      16.667 -12.112  62.884  1.00  0.00     0.152 C 
ATOM      8  O   UNL     1      17.254 -12.944  62.142  1.00  0.00    -0.295 OA
ATOM      9  C   UNL     1      15.528 -11.315  62.323  1.00  0.00     0.093 C 
ENDBRANCH   6   7
ENDBRANCH   1   5
TORSDOF 4
ENDMDL
MODEL 6
REMARK VINA RESULT:    -3.570      3.635      5.351
REMARK INTER + INTRA:          -4.673
REMARK INTER:                  -4.524
REMARK INTRA:                  -0.150
REMARK UNBOUND:                -0.268
REMARK SMILES CCCCC=CC(C)=O
REMARK SMILES IDX 4 1 3 2 2 3 1 4 5 5 6 6 7 7 9 8 8 9
REMARK H PARENT
REMARK Flexibility Score: inf
ROOT
ATOM      1  C   UNL     1      17.040 -11.314  66.975  1.00  0.00     0.027 C 
ENDROOT
BRANCH   1   2
ATOM      2  C   UNL     1      17.353  -9.816  67.073  1.00  0.00     0.004 C 
BRANCH   2   3
ATOM      3  C   UNL     1      18.799  -9.584  67.525  1.00  0.00    -0.003 C 
ATOM      4  C   UNL     1      19.105 -10.348  68.810  1.00  0.00     0.004 C 
ENDBRANCH   2   3
ENDBRANCH   1   2
BRANCH   1   5
ATOM      5  C   UNL     1      15.669 -11.548  66.410  1.00  0.00    -0.023 C 
ATOM      6  C   UNL     1      15.390 -11.294  65.126  1.00  0.00     0.042 C 
BRANCH   6   7
ATOM      7  C   UNL     1      14.060 -11.519  64.524  1.00  0.00     0.152 C 
ATOM      8  O   UNL     1      13.405 -10.523  64.117  1.00  0.00    -0.295 OA
ATOM      9  C   UNL     1      13.464 -12.888  64.380  1.00  0.00     0.093 C 
ENDBRANCH   6   7
ENDBRANCH   1   5
TORSDOF 4
ENDMDL
MODEL 7
REMARK VINA RESULT:    -3.567     15.490     16.432
REMARK INTER + INTRA:          -4.670
REMARK INTER:                  -4.488
REMARK INTRA:                  -0.182
REMARK UNBOUND:                -0.268
REMARK SMILES CCCCC=CC(C)=O
REMARK SMILES IDX 4 1 3 2 2 3 1 4 5 5 6 6 7 7 9 8 8 9
REMARK H PARENT
REMARK Flexibility Score: inf
ROOT
ATOM      1  C   UNL     1       7.127  -7.759  53.894  1.00  0.00     0.027 C 
ENDROOT
BRANCH   1   2
ATOM      2  C   UNL     1       7.928  -9.066  53.948  1.00  0.00     0.004 C 
BRANCH   2   3
ATOM      3  C   UNL     1       9.226  -8.882  54.743  1.00  0.00    -0.003 C 
ATOM      4  C   UNL     1      10.449  -9.164  53.875  1.00  0.00     0.004 C 
ENDBRANCH   2   3
ENDBRANCH   1   2
BRANCH   1   5
ATOM      5  C   UNL     1       6.540  -7.425  55.234  1.00  0.00    -0.023 C 
ATOM      6  C   UNL     1       6.799  -6.260  55.839  1.00  0.00     0.042 C 
BRANCH   6   7
ATOM      7  C   UNL     1       6.234  -5.883  57.151  1.00  0.00     0.152 C 
ATOM      8  O   UNL     1       6.910  -5.133  57.905  1.00  0.00    -0.295 OA
ATOM      9  C   UNL     1       4.891  -6.359  57.616  1.00  0.00     0.093 C 
ENDBRANCH   6   7
ENDBRANCH   1   5
TORSDOF 4
ENDMDL
MODEL 8
REMARK VINA RESULT:    -3.560     15.986     16.748
REMARK INTER + INTRA:          -4.660
REMARK INTER:                  -4.406
REMARK INTRA:                  -0.254
REMARK UNBOUND:                -0.268
REMARK SMILES CCCCC=CC(C)=O
REMARK SMILES IDX 4 1 3 2 2 3 1 4 5 5 6 6 7 7 9 8 8 9
REMARK H PARENT
REMARK Flexibility Score: inf
ROOT
ATOM      1  C   UNL     1       5.987  -7.740  58.062  1.00  0.00     0.027 C 
ENDROOT
BRANCH   1   2
ATOM      2  C   UNL     1       4.875  -7.039  57.273  1.00  0.00     0.004 C 
BRANCH   2   3
ATOM      3  C   UNL     1       5.084  -5.521  57.260  1.00  0.00    -0.003 C 
ATOM      4  C   UNL     1       6.381  -5.135  57.964  1.00  0.00     0.004 C 
ENDBRANCH   2   3
ENDBRANCH   1   2
BRANCH   1   5
ATOM      5  C   UNL     1       6.555  -8.896  57.291  1.00  0.00    -0.023 C 
ATOM      6  C   UNL     1       6.074  -9.238  56.090  1.00  0.00     0.042 C 
BRANCH   6   7
ATOM      7  C   UNL     1       6.608 -10.359  55.290  1.00  0.00     0.152 C 
ATOM      8  O   UNL     1       5.839 -10.945  54.483  1.00  0.00    -0.295 OA
ATOM      9  C   UNL     1       8.030 -10.823  55.404  1.00  0.00     0.093 C 
ENDBRANCH   6   7
ENDBRANCH   1   5
TORSDOF 4
ENDMDL
MODEL 9
REMARK VINA RESULT:    -3.513      1.745      1.907
REMARK INTER + INTRA:          -4.603
REMARK INTER:                  -4.332
REMARK INTRA:                  -0.271
REMARK UNBOUND:                -0.268
REMARK SMILES CCCCC=CC(C)=O
REMARK SMILES IDX 4 1 3 2 2 3 1 4 5 5 6 6 7 7 9 8 8 9
REMARK H PARENT
REMARK Flexibility Score: inf
ROOT
ATOM      1  C   UNL     1      15.987 -11.194  65.239  1.00  0.00     0.027 C 
ENDROOT
BRANCH   1   2
ATOM      2  C   UNL     1      16.540  -9.868  64.702  1.00  0.00     0.004 C 
BRANCH   2   3
ATOM      3  C   UNL     1      17.456 -10.102  63.495  1.00  0.00    -0.003 C 
ATOM      4  C   UNL     1      18.896  -9.709  63.811  1.00  0.00     0.004 C 
ENDBRANCH   2   3
ENDBRANCH   1   2
BRANCH   1   5
ATOM      5  C   UNL     1      16.923 -11.807  66.240  1.00  0.00    -0.023 C 
ATOM      6  C   UNL     1      17.486 -11.076  67.209  1.00  0.00     0.042 C 
BRANCH   6   7
ATOM      7  C   UNL     1      18.402 -11.638  68.223  1.00  0.00     0.152 C 
ATOM      8  O   UNL     1      18.274 -12.849  68.546  1.00  0.00    -0.295 OA
ATOM      9  C   UNL     1      19.475 -10.821  68.878  1.00  0.00     0.093 C 
ENDBRANCH   6   7
ENDBRANCH   1   5
TORSDOF 4
ENDMDL
