MODEL 1
REMARK VINA RESULT:    -5.485      0.000      0.000
REMARK INTER + INTRA:          -6.439
REMARK INTER:                  -6.286
REMARK INTRA:                  -0.152
REMARK UNBOUND:                -0.152
REMARK SMILES O=C([O-])C=Cc1ccc(O)cc1
REMARK SMILES IDX 6 1 7 2 12 3 8 4 11 5 9 6 5 7 4 8 2 9 1 10 3 11 10 12
REMARK H PARENT 10 13
REMARK Flexibility Score: inf
ROOT
ATOM      1  C   UNL     1     -32.180  -3.414 -18.069  1.00  0.00    -0.025 A 
ATOM      2  C   UNL     1     -30.802  -3.166 -18.223  1.00  0.00     0.012 A 
ATOM      3  C   UNL     1     -33.038  -3.173 -19.156  1.00  0.00     0.012 A 
ATOM      4  C   UNL     1     -30.303  -2.665 -19.430  1.00  0.00     0.047 A 
ATOM      5  C   UNL     1     -32.536  -2.672 -20.361  1.00  0.00     0.047 A 
ATOM      6  C   UNL     1     -31.169  -2.414 -20.501  1.00  0.00     0.115 A 
ENDROOT
BRANCH   1   7
ATOM      7  C   UNL     1     -32.761  -3.957 -16.815  1.00  0.00     0.010 C 
ATOM      8  C   UNL     1     -34.061  -4.239 -16.658  1.00  0.00     0.025 C 
BRANCH   8   9
ATOM      9  C   UNL     1     -34.591  -4.788 -15.399  1.00  0.00     0.064 C 
ATOM     10  O   UNL     1     -34.435  -4.147 -14.328  1.00  0.00    -0.545 OA
ATOM     11  O   UNL     1     -35.261  -6.006 -15.374  1.00  0.00    -0.545 OA
ENDBRANCH   8   9
ENDBRANCH   1   7
BRANCH   6  12
ATOM     12  O   UNL     1     -30.683  -1.913 -21.706  1.00  0.00    -0.508 OA
ATOM     13  H   UNL     1     -29.874  -1.304 -21.739  1.00  0.00     0.293 HD
ENDBRANCH   6  12
TORSDOF 3
ENDMDL
MODEL 2
REMARK VINA RESULT:    -5.419      4.024      8.030
REMARK INTER + INTRA:          -6.363
REMARK INTER:                  -6.227
REMARK INTRA:                  -0.136
REMARK UNBOUND:                -0.152
REMARK SMILES O=C([O-])C=Cc1ccc(O)cc1
REMARK SMILES IDX 6 1 7 2 12 3 8 4 11 5 9 6 5 7 4 8 2 9 1 10 3 11 10 12
REMARK H PARENT 10 13
REMARK Flexibility Score: inf
ROOT
ATOM      1  C   UNL     1     -36.866  -7.086 -15.502  1.00  0.00    -0.025 A 
ATOM      2  C   UNL     1     -36.297  -7.364 -14.243  1.00  0.00     0.012 A 
ATOM      3  C   UNL     1     -38.061  -7.732 -15.863  1.00  0.00     0.012 A 
ATOM      4  C   UNL     1     -36.902  -8.285 -13.381  1.00  0.00     0.047 A 
ATOM      5  C   UNL     1     -38.662  -8.651 -14.999  1.00  0.00     0.047 A 
ATOM      6  C   UNL     1     -38.084  -8.933 -13.757  1.00  0.00     0.115 A 
ENDROOT
BRANCH   1   7
ATOM      7  C   UNL     1     -36.273  -6.109 -16.450  1.00  0.00     0.010 C 
ATOM      8  C   UNL     1     -34.958  -5.998 -16.677  1.00  0.00     0.025 C 
BRANCH   8   9
ATOM      9  C   UNL     1     -34.414  -5.022 -17.635  1.00  0.00     0.064 C 
ATOM     10  O   UNL     1     -35.022  -4.807 -18.715  1.00  0.00    -0.545 OA
ATOM     11  O   UNL     1     -33.235  -4.335 -17.367  1.00  0.00    -0.545 OA
ENDBRANCH   8   9
ENDBRANCH   1   7
BRANCH   6  12
ATOM     12  O   UNL     1     -38.692  -9.853 -12.907  1.00  0.00    -0.508 OA
ATOM     13  H   UNL     1     -39.648 -10.157 -13.051  1.00  0.00     0.293 HD
ENDBRANCH   6  12
TORSDOF 3
ENDMDL
MODEL 3
REMARK VINA RESULT:    -5.399      3.977      8.118
REMARK INTER + INTRA:          -6.340
REMARK INTER:                  -6.198
REMARK INTRA:                  -0.142
REMARK UNBOUND:                -0.152
REMARK SMILES O=C([O-])C=Cc1ccc(O)cc1
REMARK SMILES IDX 6 1 7 2 12 3 8 4 11 5 9 6 5 7 4 8 2 9 1 10 3 11 10 12
REMARK H PARENT 10 13
REMARK Flexibility Score: inf
ROOT
ATOM      1  C   UNL     1     -36.910  -6.960 -15.438  1.00  0.00    -0.025 A 
ATOM      2  C   UNL     1     -38.103  -7.607 -15.818  1.00  0.00     0.012 A 
ATOM      3  C   UNL     1     -36.310  -7.307 -14.216  1.00  0.00     0.012 A 
ATOM      4  C   UNL     1     -38.689  -8.560 -14.978  1.00  0.00     0.047 A 
ATOM      5  C   UNL     1     -36.898  -8.261 -13.380  1.00  0.00     0.047 A 
ATOM      6  C   UNL     1     -38.089  -8.888 -13.756  1.00  0.00     0.115 A 
ENDROOT
BRANCH   1   7
ATOM      7  C   UNL     1     -36.240  -5.950 -16.295  1.00  0.00     0.010 C 
ATOM      8  C   UNL     1     -34.964  -6.042 -16.695  1.00  0.00     0.025 C 
BRANCH   8   9
ATOM      9  C   UNL     1     -34.343  -5.022 -17.555  1.00  0.00     0.064 C 
ATOM     10  O   UNL     1     -34.839  -4.777 -18.686  1.00  0.00    -0.545 OA
ATOM     11  O   UNL     1     -33.214  -4.326 -17.141  1.00  0.00    -0.545 OA
ENDBRANCH   8   9
ENDBRANCH   1   7
BRANCH   6  12
ATOM     12  O   UNL     1     -38.666  -9.834 -12.912  1.00  0.00    -0.508 OA
ATOM     13  H   UNL     1     -39.500 -10.345 -13.180  1.00  0.00     0.293 HD
ENDBRANCH   6  12
TORSDOF 3
ENDMDL
MODEL 4
REMARK VINA RESULT:    -5.283      3.824      4.490
REMARK INTER + INTRA:          -6.207
REMARK INTER:                  -6.071
REMARK INTRA:                  -0.137
REMARK UNBOUND:                -0.152
REMARK SMILES O=C([O-])C=Cc1ccc(O)cc1
REMARK SMILES IDX 6 1 7 2 12 3 8 4 11 5 9 6 5 7 4 8 2 9 1 10 3 11 10 12
REMARK H PARENT 10 13
REMARK Flexibility Score: inf
ROOT
ATOM      1  C   UNL     1     -31.894  -4.991 -17.118  1.00  0.00    -0.025 A 
ATOM      2  C   UNL     1     -33.178  -5.541 -17.305  1.00  0.00     0.012 A 
ATOM      3  C   UNL     1     -31.630  -3.702 -17.613  1.00  0.00     0.012 A 
ATOM      4  C   UNL     1     -34.162  -4.822 -17.992  1.00  0.00     0.047 A 
ATOM      5  C   UNL     1     -32.616  -2.988 -18.299  1.00  0.00     0.047 A 
ATOM      6  C   UNL     1     -33.883  -3.545 -18.494  1.00  0.00     0.115 A 
ENDROOT
BRANCH   1   7
ATOM      7  C   UNL     1     -30.817  -5.704 -16.386  1.00  0.00     0.010 C 
ATOM      8  C   UNL     1     -30.348  -6.907 -16.740  1.00  0.00     0.025 C 
BRANCH   8   9
ATOM      9  C   UNL     1     -29.270  -7.573 -15.991  1.00  0.00     0.064 C 
ATOM     10  O   UNL     1     -29.267  -7.528 -14.734  1.00  0.00    -0.545 OA
ATOM     11  O   UNL     1     -28.251  -8.250 -16.651  1.00  0.00    -0.545 OA
ENDBRANCH   8   9
ENDBRANCH   1   7
BRANCH   6  12
ATOM     12  O   UNL     1     -34.855  -2.823 -19.181  1.00  0.00    -0.508 OA
ATOM     13  H   UNL     1     -34.699  -1.865 -19.470  1.00  0.00     0.293 HD
ENDBRANCH   6  12
TORSDOF 3
ENDMDL
MODEL 5
REMARK VINA RESULT:    -5.257      5.172      8.987
REMARK INTER + INTRA:          -6.178
REMARK INTER:                  -6.042
REMARK INTRA:                  -0.136
REMARK UNBOUND:                -0.152
REMARK SMILES O=C([O-])C=Cc1ccc(O)cc1
REMARK SMILES IDX 6 1 7 2 12 3 8 4 11 5 9 6 5 7 4 8 2 9 1 10 3 11 10 12
REMARK H PARENT 10 13
REMARK Flexibility Score: inf
ROOT
ATOM      1  C   UNL     1     -37.697  -6.894 -13.606  1.00  0.00    -0.025 A 
ATOM      2  C   UNL     1     -39.049  -6.579 -13.363  1.00  0.00     0.012 A 
ATOM      3  C   UNL     1     -37.327  -8.244 -13.729  1.00  0.00     0.012 A 
ATOM      4  C   UNL     1     -39.999  -7.597 -13.224  1.00  0.00     0.047 A 
ATOM      5  C   UNL     1     -38.279  -9.258 -13.589  1.00  0.00     0.047 A 
ATOM      6  C   UNL     1     -39.615  -8.940 -13.333  1.00  0.00     0.115 A 
ENDROOT
BRANCH   1   7
ATOM      7  C   UNL     1     -36.651  -5.853 -13.774  1.00  0.00     0.010 C 
ATOM      8  C   UNL     1     -36.659  -4.944 -14.758  1.00  0.00     0.025 C 
BRANCH   8   9
ATOM      9  C   UNL     1     -35.607  -3.922 -14.880  1.00  0.00     0.064 C 
ATOM     10  O   UNL     1     -35.902  -2.773 -15.302  1.00  0.00    -0.545 OA
ATOM     11  O   UNL     1     -34.289  -4.205 -14.539  1.00  0.00    -0.545 OA
ENDBRANCH   8   9
ENDBRANCH   1   7
BRANCH   6  12
ATOM     12  O   UNL     1     -40.553  -9.960 -13.194  1.00  0.00    -0.508 OA
ATOM     13  H   UNL     1     -41.355  -9.863 -12.583  1.00  0.00     0.293 HD
ENDBRANCH   6  12
TORSDOF 3
ENDMDL
MODEL 6
REMARK VINA RESULT:    -5.159      4.126      6.246
REMARK INTER + INTRA:          -6.065
REMARK INTER:                  -5.927
REMARK INTRA:                  -0.138
REMARK UNBOUND:                -0.152
REMARK SMILES O=C([O-])C=Cc1ccc(O)cc1
REMARK SMILES IDX 6 1 7 2 12 3 8 4 11 5 9 6 5 7 4 8 2 9 1 10 3 11 10 12
REMARK H PARENT 10 13
REMARK Flexibility Score: inf
ROOT
ATOM      1  C   UNL     1     -36.128  -6.456 -14.547  1.00  0.00    -0.025 A 
ATOM      2  C   UNL     1     -35.609  -5.337 -13.865  1.00  0.00     0.012 A 
ATOM      3  C   UNL     1     -35.761  -6.664 -15.887  1.00  0.00     0.012 A 
ATOM      4  C   UNL     1     -34.761  -4.439 -14.522  1.00  0.00     0.047 A 
ATOM      5  C   UNL     1     -34.914  -5.763 -16.540  1.00  0.00     0.047 A 
ATOM      6  C   UNL     1     -34.414  -4.648 -15.862  1.00  0.00     0.115 A 
ENDROOT
BRANCH   1   7
ATOM      7  C   UNL     1     -37.021  -7.447 -13.894  1.00  0.00     0.010 C 
ATOM      8  C   UNL     1     -38.326  -7.567 -14.171  1.00  0.00     0.025 C 
BRANCH   8   9
ATOM      9  C   UNL     1     -39.172  -8.573 -13.508  1.00  0.00     0.064 C 
ATOM     10  O   UNL     1     -38.735  -9.741 -13.341  1.00  0.00    -0.545 OA
ATOM     11  O   UNL     1     -40.451  -8.253 -13.064  1.00  0.00    -0.545 OA
ENDBRANCH   8   9
ENDBRANCH   1   7
BRANCH   6  12
ATOM     12  O   UNL     1     -33.573  -3.758 -16.525  1.00  0.00    -0.508 OA
ATOM     13  H   UNL     1     -33.575  -2.767 -16.313  1.00  0.00     0.293 HD
ENDBRANCH   6  12
TORSDOF 3
ENDMDL
MODEL 7
REMARK VINA RESULT:    -5.124      3.108      4.517
REMARK INTER + INTRA:          -6.025
REMARK INTER:                  -5.892
REMARK INTRA:                  -0.133
REMARK UNBOUND:                -0.152
REMARK SMILES O=C([O-])C=Cc1ccc(O)cc1
REMARK SMILES IDX 6 1 7 2 12 3 8 4 11 5 9 6 5 7 4 8 2 9 1 10 3 11 10 12
REMARK H PARENT 10 13
REMARK Flexibility Score: inf
ROOT
ATOM      1  C   UNL     1     -35.421  -5.803 -16.744  1.00  0.00    -0.025 A 
ATOM      2  C   UNL     1     -36.173  -5.301 -17.825  1.00  0.00     0.012 A 
ATOM      3  C   UNL     1     -34.022  -5.667 -16.771  1.00  0.00     0.012 A 
ATOM      4  C   UNL     1     -35.533  -4.700 -18.914  1.00  0.00     0.047 A 
ATOM      5  C   UNL     1     -33.387  -5.067 -17.862  1.00  0.00     0.047 A 
ATOM      6  C   UNL     1     -34.138  -4.584 -18.937  1.00  0.00     0.115 A 
ENDROOT
BRANCH   1   7
ATOM      7  C   UNL     1     -36.049  -6.438 -15.559  1.00  0.00     0.010 C 
ATOM      8  C   UNL     1     -36.397  -7.730 -15.504  1.00  0.00     0.025 C 
BRANCH   8   9
ATOM      9  C   UNL     1     -37.007  -8.321 -14.302  1.00  0.00     0.064 C 
ATOM     10  O   UNL     1     -38.089  -8.957 -14.402  1.00  0.00    -0.545 OA
ATOM     11  O   UNL     1     -36.410  -8.186 -13.054  1.00  0.00    -0.545 OA
ENDBRANCH   8   9
ENDBRANCH   1   7
BRANCH   6  12
ATOM     12  O   UNL     1     -33.492  -3.989 -20.018  1.00  0.00    -0.508 OA
ATOM     13  H   UNL     1     -32.776  -4.479 -20.542  1.00  0.00     0.293 HD
ENDBRANCH   6  12
TORSDOF 3
ENDMDL
MODEL 8
REMARK VINA RESULT:    -5.101      3.093      7.181
REMARK INTER + INTRA:          -5.999
REMARK INTER:                  -5.864
REMARK INTRA:                  -0.136
REMARK UNBOUND:                -0.152
REMARK SMILES O=C([O-])C=Cc1ccc(O)cc1
REMARK SMILES IDX 6 1 7 2 12 3 8 4 11 5 9 6 5 7 4 8 2 9 1 10 3 11 10 12
REMARK H PARENT 10 13
REMARK Flexibility Score: inf
ROOT
ATOM      1  C   UNL     1     -35.471  -6.055 -15.175  1.00  0.00    -0.025 A 
ATOM      2  C   UNL     1     -36.073  -7.046 -15.976  1.00  0.00     0.012 A 
ATOM      3  C   UNL     1     -35.688  -6.080 -13.787  1.00  0.00     0.012 A 
ATOM      4  C   UNL     1     -36.891  -8.022 -15.397  1.00  0.00     0.047 A 
ATOM      5  C   UNL     1     -36.506  -7.057 -13.213  1.00  0.00     0.047 A 
ATOM      6  C   UNL     1     -37.112  -8.029 -14.014  1.00  0.00     0.115 A 
ENDROOT
BRANCH   1   7
ATOM      7  C   UNL     1     -34.585  -5.003 -15.736  1.00  0.00     0.010 C 
ATOM      8  C   UNL     1     -33.481  -5.264 -16.448  1.00  0.00     0.025 C 
BRANCH   8   9
ATOM      9  C   UNL     1     -32.637  -4.189 -16.996  1.00  0.00     0.064 C 
ATOM     10  O   UNL     1     -31.497  -3.982 -16.504  1.00  0.00    -0.545 OA
ATOM     11  O   UNL     1     -33.081  -3.394 -18.046  1.00  0.00    -0.545 OA
ENDBRANCH   8   9
ENDBRANCH   1   7
BRANCH   6  12
ATOM     12  O   UNL     1     -37.927  -8.995 -13.429  1.00  0.00    -0.508 OA
ATOM     13  H   UNL     1     -37.622  -9.528 -12.623  1.00  0.00     0.293 HD
ENDBRANCH   6  12
TORSDOF 3
ENDMDL
MODEL 9
REMARK VINA RESULT:    -5.057      7.586      9.321
REMARK INTER + INTRA:          -5.948
REMARK INTER:                  -5.803
REMARK INTRA:                  -0.145
REMARK UNBOUND:                -0.152
REMARK SMILES O=C([O-])C=Cc1ccc(O)cc1
REMARK SMILES IDX 6 1 7 2 12 3 8 4 11 5 9 6 5 7 4 8 2 9 1 10 3 11 10 12
REMARK H PARENT 10 13
REMARK Flexibility Score: inf
ROOT
ATOM      1  C   UNL     1     -38.351  -6.161 -13.343  1.00  0.00    -0.025 A 
ATOM      2  C   UNL     1     -37.607  -7.320 -13.641  1.00  0.00     0.012 A 
ATOM      3  C   UNL     1     -39.712  -6.294 -13.018  1.00  0.00     0.012 A 
ATOM      4  C   UNL     1     -38.222  -8.576 -13.636  1.00  0.00     0.047 A 
ATOM      5  C   UNL     1     -40.323  -7.551 -13.015  1.00  0.00     0.047 A 
ATOM      6  C   UNL     1     -39.583  -8.695 -13.326  1.00  0.00     0.115 A 
ENDROOT
BRANCH   1   7
ATOM      7  C   UNL     1     -37.746  -4.805 -13.321  1.00  0.00     0.010 C 
ATOM      8  C   UNL     1     -37.871  -3.951 -12.297  1.00  0.00     0.025 C 
BRANCH   8   9
ATOM      9  C   UNL     1     -37.243  -2.620 -12.314  1.00  0.00     0.064 C 
ATOM     10  O   UNL     1     -37.081  -2.023 -13.409  1.00  0.00    -0.545 OA
ATOM     11  O   UNL     1     -36.823  -2.011 -11.137  1.00  0.00    -0.545 OA
ENDBRANCH   8   9
ENDBRANCH   1   7
BRANCH   6  12
ATOM     12  O   UNL     1     -40.204  -9.941 -13.320  1.00  0.00    -0.508 OA
ATOM     13  H   UNL     1     -41.113 -10.079 -12.893  1.00  0.00     0.293 HD
ENDBRANCH   6  12
TORSDOF 3
ENDMDL
