MODEL 1
REMARK VINA RESULT:    -1.810      0.000      0.000
REMARK INTER + INTRA:          -2.991
REMARK INTER:                  -2.551
REMARK INTRA:                  -0.440
REMARK UNBOUND:                -0.440
REMARK SMILES CCCCCCCCC(=O)[O-]
REMARK SMILES IDX 6 1 7 2 8 3 9 4 10 5 11 6 5 7 4 8 3 9 2 10 1 11
REMARK H PARENT
REMARK Flexibility Score: inf
ROOT
ATOM      1  C   UNL     1      -2.564  25.286 -19.625  1.00  0.00     0.000 C 
ENDROOT
BRANCH   1   2
ATOM      2  C   UNL     1      -2.287  26.101 -18.352  1.00  0.00     0.006 C 
BRANCH   2   3
ATOM      3  C   UNL     1      -0.884  26.723 -18.345  1.00  0.00     0.053 C 
BRANCH   3   4
ATOM      4  C   UNL     1      -0.959  28.181 -18.671  1.00  0.00     0.041 C 
ATOM      5  O   UNL     1      -0.907  28.565 -19.868  1.00  0.00    -0.550 OA
ATOM      6  O   UNL     1      -1.039  29.119 -17.649  1.00  0.00    -0.550 OA
ENDBRANCH   3   4
ENDBRANCH   2   3
ENDBRANCH   1   2
BRANCH   1   7
ATOM      7  C   UNL     1      -1.290  25.022 -20.447  1.00  0.00     0.000 C 
BRANCH   7   8
ATOM      8  C   UNL     1      -1.380  25.580 -21.879  1.00  0.00    -0.000 C 
BRANCH   8   9
ATOM      9  C   UNL     1      -2.454  24.921 -22.768  1.00  0.00    -0.000 C 
BRANCH   9  10
ATOM     10  C   UNL     1      -3.776  25.701 -22.876  1.00  0.00    -0.003 C 
ATOM     11  C   UNL     1      -4.990  24.876 -22.448  1.00  0.00     0.004 C 
ENDBRANCH   9  10
ENDBRANCH   8   9
ENDBRANCH   7   8
ENDBRANCH   1   7
TORSDOF 7
ENDMDL
MODEL 2
REMARK VINA RESULT:    -0.090     27.783     29.058
REMARK INTER + INTRA:          -0.566
REMARK INTER:                  -0.251
REMARK INTRA:                  -0.315
REMARK UNBOUND:                -0.440
REMARK SMILES CCCCCCCCC(=O)[O-]
REMARK SMILES IDX 6 1 7 2 8 3 9 4 10 5 11 6 5 7 4 8 3 9 2 10 1 11
REMARK H PARENT
REMARK Flexibility Score: inf
ROOT
ATOM      1  C   UNL     1     -18.389  41.135  -3.417  1.00  0.00     0.000 C 
ENDROOT
BRANCH   1   2
ATOM      2  C   UNL     1     -18.951  39.812  -2.875  1.00  0.00     0.006 C 
BRANCH   2   3
ATOM      3  C   UNL     1     -20.481  39.735  -2.978  1.00  0.00     0.053 C 
BRANCH   3   4
ATOM      4  C   UNL     1     -20.883  38.761  -4.040  1.00  0.00     0.041 C 
ATOM      5  O   UNL     1     -20.975  37.535  -3.772  1.00  0.00    -0.550 OA
ATOM      6  O   UNL     1     -21.111  39.202  -5.337  1.00  0.00    -0.550 OA
ENDBRANCH   3   4
ENDBRANCH   2   3
ENDBRANCH   1   2
BRANCH   1   7
ATOM      7  C   UNL     1     -19.141  42.363  -2.876  1.00  0.00     0.000 C 
BRANCH   7   8
ATOM      8  C   UNL     1     -18.910  43.625  -3.727  1.00  0.00    -0.000 C 
BRANCH   8   9
ATOM      9  C   UNL     1     -19.788  44.835  -3.348  1.00  0.00    -0.000 C 
BRANCH   9  10
ATOM     10  C   UNL     1     -21.100  44.960  -4.142  1.00  0.00    -0.003 C 
ATOM     11  C   UNL     1     -21.035  44.283  -5.511  1.00  0.00     0.004 C 
ENDBRANCH   9  10
ENDBRANCH   8   9
ENDBRANCH   7   8
ENDBRANCH   1   7
TORSDOF 7
ENDMDL
MODEL 3
REMARK VINA RESULT:     0.165     27.494     28.885
REMARK INTER + INTRA:          -0.208
REMARK INTER:                  -0.331
REMARK INTRA:                   0.124
REMARK UNBOUND:                -0.440
REMARK SMILES CCCCCCCCC(=O)[O-]
REMARK SMILES IDX 6 1 7 2 8 3 9 4 10 5 11 6 5 7 4 8 3 9 2 10 1 11
REMARK H PARENT
REMARK Flexibility Score: inf
ROOT
ATOM      1  C   UNL     1     -20.239  41.898  -4.043  1.00  0.00     0.000 C 
ENDROOT
BRANCH   1   2
ATOM      2  C   UNL     1     -20.325  43.431  -4.096  1.00  0.00     0.006 C 
BRANCH   2   3
ATOM      3  C   UNL     1     -19.666  44.100  -2.882  1.00  0.00     0.053 C 
BRANCH   3   4
ATOM      4  C   UNL     1     -18.182  43.914  -2.926  1.00  0.00     0.041 C 
ATOM      5  O   UNL     1     -17.417  44.912  -2.877  1.00  0.00    -0.550 OA
ATOM      6  O   UNL     1     -17.646  42.640  -3.069  1.00  0.00    -0.550 OA
ENDBRANCH   3   4
ENDBRANCH   2   3
ENDBRANCH   1   2
BRANCH   1   7
ATOM      7  C   UNL     1     -21.119  41.294  -2.935  1.00  0.00     0.000 C 
BRANCH   7   8
ATOM      8  C   UNL     1     -21.069  39.756  -2.907  1.00  0.00    -0.000 C 
BRANCH   8   9
ATOM      9  C   UNL     1     -20.309  39.108  -4.082  1.00  0.00    -0.000 C 
BRANCH   9  10
ATOM     10  C   UNL     1     -20.666  37.636  -4.355  1.00  0.00    -0.003 C 
ATOM     11  C   UNL     1     -21.124  36.891  -3.102  1.00  0.00     0.004 C 
ENDBRANCH   9  10
ENDBRANCH   8   9
ENDBRANCH   7   8
ENDBRANCH   1   7
TORSDOF 7
ENDMDL
