MODEL 1
REMARK VINA RESULT:    -3.013      0.000      0.000
REMARK INTER + INTRA:          -4.029
REMARK INTER:                  -3.894
REMARK INTRA:                  -0.135
REMARK UNBOUND:                -0.135
REMARK SMILES CCCCCCC(=O)[O-]
REMARK SMILES IDX 5 1 6 2 7 3 8 4 9 5 4 6 3 7 2 8 1 9
REMARK H PARENT
REMARK Flexibility Score: inf
ROOT
ATOM      1  C   UNL     1      44.160  32.660  49.109  1.00  0.00     0.006 C 
ENDROOT
BRANCH   1   2
ATOM      2  C   UNL     1      45.504  32.036  49.498  1.00  0.00     0.053 C 
BRANCH   2   3
ATOM      3  C   UNL     1      45.445  30.546  49.375  1.00  0.00     0.041 C 
ATOM      4  O   UNL     1      44.947  30.014  48.347  1.00  0.00    -0.550 OA
ATOM      5  O   UNL     1      45.894  29.744  50.416  1.00  0.00    -0.550 OA
ENDBRANCH   2   3
ENDBRANCH   1   2
BRANCH   1   6
ATOM      6  C   UNL     1      43.733  33.725  50.130  1.00  0.00     0.000 C 
BRANCH   6   7
ATOM      7  C   UNL     1      42.770  34.771  49.538  1.00  0.00    -0.000 C 
BRANCH   7   8
ATOM      8  C   UNL     1      41.922  34.272  48.354  1.00  0.00    -0.003 C 
ATOM      9  C   UNL     1      40.846  35.270  47.928  1.00  0.00     0.004 C 
ENDBRANCH   7   8
ENDBRANCH   6   7
ENDBRANCH   1   6
TORSDOF 5
ENDMDL
MODEL 2
REMARK VINA RESULT:    -2.987      3.079      5.281
REMARK INTER + INTRA:          -3.994
REMARK INTER:                  -3.867
REMARK INTRA:                  -0.127
REMARK UNBOUND:                -0.135
REMARK SMILES CCCCCCC(=O)[O-]
REMARK SMILES IDX 5 1 6 2 7 3 8 4 9 5 4 6 3 7 2 8 1 9
REMARK H PARENT
REMARK Flexibility Score: inf
ROOT
ATOM      1  C   UNL     1      44.113  32.841  49.693  1.00  0.00     0.006 C 
ENDROOT
BRANCH   1   2
ATOM      2  C   UNL     1      43.425  33.844  48.761  1.00  0.00     0.053 C 
BRANCH   2   3
ATOM      3  C   UNL     1      42.599  34.811  49.549  1.00  0.00     0.041 C 
ATOM      4  O   UNL     1      42.970  35.172  50.697  1.00  0.00    -0.550 OA
ATOM      5  O   UNL     1      41.395  35.274  49.037  1.00  0.00    -0.550 OA
ENDBRANCH   2   3
ENDBRANCH   1   2
BRANCH   1   6
ATOM      6  C   UNL     1      44.878  31.780  48.889  1.00  0.00     0.000 C 
BRANCH   6   7
ATOM      7  C   UNL     1      45.922  31.025  49.733  1.00  0.00    -0.000 C 
BRANCH   7   8
ATOM      8  C   UNL     1      45.643  29.522  49.914  1.00  0.00    -0.003 C 
ATOM      9  C   UNL     1      44.935  28.897  48.712  1.00  0.00     0.004 C 
ENDBRANCH   7   8
ENDBRANCH   6   7
ENDBRANCH   1   6
TORSDOF 5
ENDMDL
MODEL 3
REMARK VINA RESULT:    -2.973      3.305      5.267
REMARK INTER + INTRA:          -3.976
REMARK INTER:                  -3.778
REMARK INTRA:                  -0.198
REMARK UNBOUND:                -0.135
REMARK SMILES CCCCCCC(=O)[O-]
REMARK SMILES IDX 5 1 6 2 7 3 8 4 9 5 4 6 3 7 2 8 1 9
REMARK H PARENT
REMARK Flexibility Score: inf
ROOT
ATOM      1  C   UNL     1      42.569  35.407  48.617  1.00  0.00     0.006 C 
ENDROOT
BRANCH   1   2
ATOM      2  C   UNL     1      41.068  35.435  48.313  1.00  0.00     0.053 C 
BRANCH   2   3
ATOM      3  C   UNL     1      40.818  35.092  46.878  1.00  0.00     0.041 C 
ATOM      4  O   UNL     1      40.240  35.916  46.121  1.00  0.00    -0.550 OA
ATOM      5  O   UNL     1      41.177  33.843  46.389  1.00  0.00    -0.550 OA
ENDBRANCH   2   3
ENDBRANCH   1   2
BRANCH   1   6
ATOM      6  C   UNL     1      42.822  35.164  50.113  1.00  0.00     0.000 C 
BRANCH   6   7
ATOM      7  C   UNL     1      43.605  33.867  50.386  1.00  0.00    -0.000 C 
BRANCH   7   8
ATOM      8  C   UNL     1      43.875  33.001  49.142  1.00  0.00    -0.003 C 
ATOM      9  C   UNL     1      45.076  32.071  49.311  1.00  0.00     0.004 C 
ENDBRANCH   7   8
ENDBRANCH   6   7
ENDBRANCH   1   6
TORSDOF 5
ENDMDL
MODEL 4
REMARK VINA RESULT:    -2.944      8.861     10.258
REMARK INTER + INTRA:          -3.939
REMARK INTER:                  -3.759
REMARK INTRA:                  -0.179
REMARK UNBOUND:                -0.135
REMARK SMILES CCCCCCC(=O)[O-]
REMARK SMILES IDX 5 1 6 2 7 3 8 4 9 5 4 6 3 7 2 8 1 9
REMARK H PARENT
REMARK Flexibility Score: inf
ROOT
ATOM      1  C   UNL     1      51.003  30.114  57.446  1.00  0.00     0.006 C 
ENDROOT
BRANCH   1   2
ATOM      2  C   UNL     1      51.855  29.404  56.389  1.00  0.00     0.053 C 
BRANCH   2   3
ATOM      3  C   UNL     1      51.547  27.940  56.365  1.00  0.00     0.041 C 
ATOM      4  O   UNL     1      51.751  27.267  55.319  1.00  0.00    -0.550 OA
ATOM      5  O   UNL     1      50.989  27.329  57.479  1.00  0.00    -0.550 OA
ENDBRANCH   2   3
ENDBRANCH   1   2
BRANCH   1   6
ATOM      6  C   UNL     1      50.639  31.536  56.993  1.00  0.00     0.000 C 
BRANCH   6   7
ATOM      7  C   UNL     1      49.537  31.560  55.918  1.00  0.00    -0.000 C 
BRANCH   7   8
ATOM      8  C   UNL     1      49.561  32.793  54.996  1.00  0.00    -0.003 C 
ATOM      9  C   UNL     1      50.414  33.935  55.547  1.00  0.00     0.004 C 
ENDBRANCH   7   8
ENDBRANCH   6   7
ENDBRANCH   1   6
TORSDOF 5
ENDMDL
MODEL 5
REMARK VINA RESULT:    -2.930      3.149      5.425
REMARK INTER + INTRA:          -3.921
REMARK INTER:                  -3.832
REMARK INTRA:                  -0.089
REMARK UNBOUND:                -0.135
REMARK SMILES CCCCCCC(=O)[O-]
REMARK SMILES IDX 5 1 6 2 7 3 8 4 9 5 4 6 3 7 2 8 1 9
REMARK H PARENT
REMARK Flexibility Score: inf
ROOT
ATOM      1  C   UNL     1      44.111  32.913  49.782  1.00  0.00     0.006 C 
ENDROOT
BRANCH   1   2
ATOM      2  C   UNL     1      43.308  33.768  48.795  1.00  0.00     0.053 C 
BRANCH   2   3
ATOM      3  C   UNL     1      42.547  34.832  49.522  1.00  0.00     0.041 C 
ATOM      4  O   UNL     1      41.534  35.360  48.991  1.00  0.00    -0.550 OA
ATOM      5  O   UNL     1      42.985  35.275  50.762  1.00  0.00    -0.550 OA
ENDBRANCH   2   3
ENDBRANCH   1   2
BRANCH   1   6
ATOM      6  C   UNL     1      44.869  31.796  49.050  1.00  0.00     0.000 C 
BRANCH   6   7
ATOM      7  C   UNL     1      46.285  31.567  49.608  1.00  0.00    -0.000 C 
BRANCH   7   8
ATOM      8  C   UNL     1      46.793  30.117  49.508  1.00  0.00    -0.003 C 
ATOM      9  C   UNL     1      46.773  29.384  50.850  1.00  0.00     0.004 C 
ENDBRANCH   7   8
ENDBRANCH   6   7
ENDBRANCH   1   6
TORSDOF 5
ENDMDL
MODEL 6
REMARK VINA RESULT:    -2.923      1.237      2.030
REMARK INTER + INTRA:          -3.913
REMARK INTER:                  -3.764
REMARK INTRA:                  -0.149
REMARK UNBOUND:                -0.135
REMARK SMILES CCCCCCC(=O)[O-]
REMARK SMILES IDX 5 1 6 2 7 3 8 4 9 5 4 6 3 7 2 8 1 9
REMARK H PARENT
REMARK Flexibility Score: inf
ROOT
ATOM      1  C   UNL     1      43.259  33.764  48.642  1.00  0.00     0.006 C 
ENDROOT
BRANCH   1   2
ATOM      2  C   UNL     1      44.000  32.978  49.728  1.00  0.00     0.053 C 
BRANCH   2   3
ATOM      3  C   UNL     1      44.892  31.947  49.112  1.00  0.00     0.041 C 
ATOM      4  O   UNL     1      45.690  31.289  49.831  1.00  0.00    -0.550 OA
ATOM      5  O   UNL     1      44.879  31.748  47.738  1.00  0.00    -0.550 OA
ENDBRANCH   2   3
ENDBRANCH   1   2
BRANCH   1   6
ATOM      6  C   UNL     1      42.656  35.056  49.213  1.00  0.00     0.000 C 
BRANCH   6   7
ATOM      7  C   UNL     1      41.174  35.242  48.842  1.00  0.00    -0.000 C 
BRANCH   7   8
ATOM      8  C   UNL     1      40.846  35.005  47.356  1.00  0.00    -0.003 C 
ATOM      9  C   UNL     1      40.801  36.297  46.541  1.00  0.00     0.004 C 
ENDBRANCH   7   8
ENDBRANCH   6   7
ENDBRANCH   1   6
TORSDOF 5
ENDMDL
MODEL 7
REMARK VINA RESULT:    -2.881      8.199     10.407
REMARK INTER + INTRA:          -3.858
REMARK INTER:                  -3.695
REMARK INTRA:                  -0.163
REMARK UNBOUND:                -0.135
REMARK SMILES CCCCCCC(=O)[O-]
REMARK SMILES IDX 5 1 6 2 7 3 8 4 9 5 4 6 3 7 2 8 1 9
REMARK H PARENT
REMARK Flexibility Score: inf
ROOT
ATOM      1  C   UNL     1      49.583  31.502  55.982  1.00  0.00     0.006 C 
ENDROOT
BRANCH   1   2
ATOM      2  C   UNL     1      49.503  32.811  55.191  1.00  0.00     0.053 C 
BRANCH   2   3
ATOM      3  C   UNL     1      50.268  32.698  53.910  1.00  0.00     0.041 C 
ATOM      4  O   UNL     1      51.462  33.095  53.848  1.00  0.00    -0.550 OA
ATOM      5  O   UNL     1      49.648  32.200  52.772  1.00  0.00    -0.550 OA
ENDBRANCH   2   3
ENDBRANCH   1   2
BRANCH   1   6
ATOM      6  C   UNL     1      50.750  31.534  56.980  1.00  0.00     0.000 C 
BRANCH   6   7
ATOM      7  C   UNL     1      51.053  30.155  57.593  1.00  0.00    -0.000 C 
BRANCH   7   8
ATOM      8  C   UNL     1      51.415  29.060  56.573  1.00  0.00    -0.003 C 
ATOM      9  C   UNL     1      51.246  27.646  57.128  1.00  0.00     0.004 C 
ENDBRANCH   7   8
ENDBRANCH   6   7
ENDBRANCH   1   6
TORSDOF 5
ENDMDL
MODEL 8
REMARK VINA RESULT:    -2.844      1.112      1.753
REMARK INTER + INTRA:          -3.810
REMARK INTER:                  -3.727
REMARK INTRA:                  -0.083
REMARK UNBOUND:                -0.135
REMARK SMILES CCCCCCC(=O)[O-]
REMARK SMILES IDX 5 1 6 2 7 3 8 4 9 5 4 6 3 7 2 8 1 9
REMARK H PARENT
REMARK Flexibility Score: inf
ROOT
ATOM      1  C   UNL     1      44.976  31.502  49.155  1.00  0.00     0.006 C 
ENDROOT
BRANCH   1   2
ATOM      2  C   UNL     1      46.211  30.840  49.775  1.00  0.00     0.053 C 
BRANCH   2   3
ATOM      3  C   UNL     1      45.919  29.417  50.133  1.00  0.00     0.041 C 
ATOM      4  O   UNL     1      46.504  28.877  51.109  1.00  0.00    -0.550 OA
ATOM      5  O   UNL     1      45.039  28.672  49.360  1.00  0.00    -0.550 OA
ENDBRANCH   2   3
ENDBRANCH   1   2
BRANCH   1   6
ATOM      6  C   UNL     1      45.020  33.026  49.335  1.00  0.00     0.000 C 
BRANCH   6   7
ATOM      7  C   UNL     1      43.648  33.629  49.688  1.00  0.00    -0.000 C 
BRANCH   7   8
ATOM      8  C   UNL     1      42.770  33.988  48.476  1.00  0.00    -0.003 C 
ATOM      9  C   UNL     1      41.632  34.947  48.827  1.00  0.00     0.004 C 
ENDBRANCH   7   8
ENDBRANCH   6   7
ENDBRANCH   1   6
TORSDOF 5
ENDMDL
MODEL 9
REMARK VINA RESULT:    -2.783      2.974      5.077
REMARK INTER + INTRA:          -3.732
REMARK INTER:                  -3.530
REMARK INTRA:                  -0.202
REMARK UNBOUND:                -0.135
REMARK SMILES CCCCCCC(=O)[O-]
REMARK SMILES IDX 5 1 6 2 7 3 8 4 9 5 4 6 3 7 2 8 1 9
REMARK H PARENT
REMARK Flexibility Score: inf
ROOT
ATOM      1  C   UNL     1      43.563  34.483  50.133  1.00  0.00     0.006 C 
ENDROOT
BRANCH   1   2
ATOM      2  C   UNL     1      43.223  35.256  48.855  1.00  0.00     0.053 C 
BRANCH   2   3
ATOM      3  C   UNL     1      41.843  34.916  48.387  1.00  0.00     0.041 C 
ATOM      4  O   UNL     1      40.838  35.352  49.009  1.00  0.00    -0.550 OA
ATOM      5  O   UNL     1      41.666  34.076  47.295  1.00  0.00    -0.550 OA
ENDBRANCH   2   3
ENDBRANCH   1   2
BRANCH   1   6
ATOM      6  C   UNL     1      43.944  33.030  49.811  1.00  0.00     0.000 C 
BRANCH   6   7
ATOM      7  C   UNL     1      45.211  32.921  48.943  1.00  0.00    -0.000 C 
BRANCH   7   8
ATOM      8  C   UNL     1      46.300  31.988  49.503  1.00  0.00    -0.003 C 
ATOM      9  C   UNL     1      45.795  30.568  49.762  1.00  0.00     0.004 C 
ENDBRANCH   7   8
ENDBRANCH   6   7
ENDBRANCH   1   6
TORSDOF 5
ENDMDL
