MODEL 1
REMARK VINA RESULT:    -4.177      0.000      0.000
REMARK INTER + INTRA:          -5.736
REMARK INTER:                  -5.520
REMARK INTRA:                  -0.215
REMARK UNBOUND:                -0.215
REMARK SMILES C=C[C@H](O)CCCCC
REMARK SMILES IDX 6 1 7 2 8 3 9 4 5 5 3 6 2 7 1 8 4 9
REMARK H PARENT 4 10
REMARK Flexibility Score: inf
ROOT
ATOM      1  C   UNL     1      14.168  12.832  37.163  1.00  0.00     0.003 C 
ENDROOT
BRANCH   1   2
ATOM      2  C   UNL     1      15.578  12.946  37.764  1.00  0.00    -0.000 C 
BRANCH   2   3
ATOM      3  C   UNL     1      15.630  13.900  38.968  1.00  0.00    -0.003 C 
ATOM      4  C   UNL     1      16.379  13.306  40.162  1.00  0.00     0.004 C 
ENDBRANCH   2   3
ENDBRANCH   1   2
BRANCH   1   5
ATOM      5  C   UNL     1      14.024  11.537  36.345  1.00  0.00     0.036 C 
BRANCH   5   6
ATOM      6  C   UNL     1      14.269  11.722  34.836  1.00  0.00     0.136 C 
BRANCH   6   7
ATOM      7  C   UNL     1      14.005  13.141  34.380  1.00  0.00    -0.004 C 
ATOM      8  C   UNL     1      12.884  13.503  33.749  1.00  0.00     0.007 C 
ENDBRANCH   6   7
BRANCH   6   9
ATOM      9  O   UNL     1      13.507  10.799  34.100  1.00  0.00    -0.389 OA
ATOM     10  H   UNL     1      12.580  10.847  34.452  1.00  0.00     0.211 HD
ENDBRANCH   6   9
ENDBRANCH   5   6
ENDBRANCH   1   5
TORSDOF 6
ENDMDL
MODEL 2
REMARK VINA RESULT:    -3.938      0.937      1.193
REMARK INTER + INTRA:          -5.420
REMARK INTER:                  -5.269
REMARK INTRA:                  -0.150
REMARK UNBOUND:                -0.215
REMARK SMILES C=C[C@H](O)CCCCC
REMARK SMILES IDX 6 1 7 2 8 3 9 4 5 5 3 6 2 7 1 8 4 9
REMARK H PARENT 4 10
REMARK Flexibility Score: inf
ROOT
ATOM      1  C   UNL     1      15.342  12.744  37.724  1.00  0.00     0.003 C 
ENDROOT
BRANCH   1   2
ATOM      2  C   UNL     1      15.340  14.125  38.398  1.00  0.00    -0.000 C 
BRANCH   2   3
ATOM      3  C   UNL     1      15.458  14.035  39.927  1.00  0.00    -0.003 C 
ATOM      4  C   UNL     1      16.596  13.119  40.381  1.00  0.00     0.004 C 
ENDBRANCH   2   3
ENDBRANCH   1   2
BRANCH   1   5
ATOM      5  C   UNL     1      14.129  12.587  36.792  1.00  0.00     0.036 C 
BRANCH   5   6
ATOM      6  C   UNL     1      14.409  11.731  35.543  1.00  0.00     0.136 C 
BRANCH   6   7
ATOM      7  C   UNL     1      13.390  11.962  34.447  1.00  0.00    -0.004 C 
ATOM      8  C   UNL     1      13.028  13.183  34.040  1.00  0.00     0.007 C 
ENDBRANCH   6   7
BRANCH   6   9
ATOM      9  O   UNL     1      14.487  10.371  35.888  1.00  0.00    -0.389 OA
ATOM     10  H   UNL     1      13.890   9.882  35.263  1.00  0.00     0.211 HD
ENDBRANCH   6   9
ENDBRANCH   5   6
ENDBRANCH   1   5
TORSDOF 6
ENDMDL
MODEL 3
REMARK VINA RESULT:    -3.852      1.772      4.766
REMARK INTER + INTRA:          -5.306
REMARK INTER:                  -5.067
REMARK INTRA:                  -0.239
REMARK UNBOUND:                -0.215
REMARK SMILES C=C[C@H](O)CCCCC
REMARK SMILES IDX 6 1 7 2 8 3 9 4 5 5 3 6 2 7 1 8 4 9
REMARK H PARENT 4 10
REMARK Flexibility Score: inf
ROOT
ATOM      1  C   UNL     1      14.478  11.532  35.688  1.00  0.00     0.003 C 
ENDROOT
BRANCH   1   2
ATOM      2  C   UNL     1      13.721  11.824  34.383  1.00  0.00    -0.000 C 
BRANCH   2   3
ATOM      3  C   UNL     1      13.653  13.326  34.064  1.00  0.00    -0.003 C 
ATOM      4  C   UNL     1      12.291  13.754  33.516  1.00  0.00     0.004 C 
ENDBRANCH   2   3
ENDBRANCH   1   2
BRANCH   1   5
ATOM      5  C   UNL     1      13.976  12.437  36.827  1.00  0.00     0.036 C 
BRANCH   5   6
ATOM      6  C   UNL     1      15.098  13.179  37.576  1.00  0.00     0.136 C 
BRANCH   6   7
ATOM      7  C   UNL     1      14.560  14.125  38.628  1.00  0.00    -0.004 C 
ATOM      8  C   UNL     1      14.969  14.101  39.901  1.00  0.00     0.007 C 
ENDBRANCH   6   7
BRANCH   6   9
ATOM      9  O   UNL     1      15.934  13.848  36.666  1.00  0.00    -0.389 OA
ATOM     10  H   UNL     1      15.893  14.814  36.897  1.00  0.00     0.211 HD
ENDBRANCH   6   9
ENDBRANCH   5   6
ENDBRANCH   1   5
TORSDOF 6
ENDMDL
MODEL 4
REMARK VINA RESULT:    -3.791     19.055     21.120
REMARK INTER + INTRA:          -5.226
REMARK INTER:                  -5.030
REMARK INTRA:                  -0.195
REMARK UNBOUND:                -0.215
REMARK SMILES C=C[C@H](O)CCCCC
REMARK SMILES IDX 6 1 7 2 8 3 9 4 5 5 3 6 2 7 1 8 4 9
REMARK H PARENT 4 10
REMARK Flexibility Score: inf
ROOT
ATOM      1  C   UNL     1       6.463  -3.001  24.589  1.00  0.00     0.003 C 
ENDROOT
BRANCH   1   2
ATOM      2  C   UNL     1       6.121  -4.391  24.029  1.00  0.00    -0.000 C 
BRANCH   2   3
ATOM      3  C   UNL     1       4.607  -4.610  23.880  1.00  0.00    -0.003 C 
ATOM      4  C   UNL     1       3.814  -3.303  23.904  1.00  0.00     0.004 C 
ENDBRANCH   2   3
ENDBRANCH   1   2
BRANCH   1   5
ATOM      5  C   UNL     1       7.770  -2.470  23.976  1.00  0.00     0.036 C 
BRANCH   5   6
ATOM      6  C   UNL     1       7.833  -0.935  23.875  1.00  0.00     0.136 C 
BRANCH   6   7
ATOM      7  C   UNL     1       9.128  -0.375  24.423  1.00  0.00    -0.004 C 
ATOM      8  C   UNL     1      10.079  -1.144  24.962  1.00  0.00     0.007 C 
ENDBRANCH   6   7
BRANCH   6   9
ATOM      9  O   UNL     1       6.719  -0.357  24.506  1.00  0.00    -0.389 OA
ATOM     10  H   UNL     1       6.237   0.168  23.814  1.00  0.00     0.211 HD
ENDBRANCH   6   9
ENDBRANCH   5   6
ENDBRANCH   1   5
TORSDOF 6
ENDMDL
MODEL 5
REMARK VINA RESULT:    -3.763     19.633     21.433
REMARK INTER + INTRA:          -5.188
REMARK INTER:                  -4.967
REMARK INTRA:                  -0.221
REMARK UNBOUND:                -0.215
REMARK SMILES C=C[C@H](O)CCCCC
REMARK SMILES IDX 6 1 7 2 8 3 9 4 5 5 3 6 2 7 1 8 4 9
REMARK H PARENT 4 10
REMARK Flexibility Score: inf
ROOT
ATOM      1  C   UNL     1       7.423  -2.648  24.181  1.00  0.00     0.003 C 
ENDROOT
BRANCH   1   2
ATOM      2  C   UNL     1       8.915  -2.418  23.891  1.00  0.00    -0.000 C 
BRANCH   2   3
ATOM      3  C   UNL     1       9.362  -0.981  24.204  1.00  0.00    -0.003 C 
ATOM      4  C   UNL     1       8.251   0.046  23.982  1.00  0.00     0.004 C 
ENDBRANCH   2   3
ENDBRANCH   1   2
BRANCH   1   5
ATOM      5  C   UNL     1       7.053  -4.131  24.005  1.00  0.00     0.036 C 
BRANCH   5   6
ATOM      6  C   UNL     1       5.537  -4.400  24.010  1.00  0.00     0.136 C 
BRANCH   6   7
ATOM      7  C   UNL     1       4.726  -3.128  23.881  1.00  0.00    -0.004 C 
ATOM      8  C   UNL     1       3.392  -3.107  23.964  1.00  0.00     0.007 C 
ENDBRANCH   6   7
BRANCH   6   9
ATOM      9  O   UNL     1       5.172  -5.123  25.158  1.00  0.00    -0.389 OA
ATOM     10  H   UNL     1       5.309  -6.084  24.946  1.00  0.00     0.211 HD
ENDBRANCH   6   9
ENDBRANCH   5   6
ENDBRANCH   1   5
TORSDOF 6
ENDMDL
MODEL 6
REMARK VINA RESULT:    -3.527      1.918      2.779
REMARK INTER + INTRA:          -4.876
REMARK INTER:                  -4.726
REMARK INTRA:                  -0.151
REMARK UNBOUND:                -0.215
REMARK SMILES C=C[C@H](O)CCCCC
REMARK SMILES IDX 6 1 7 2 8 3 9 4 5 5 3 6 2 7 1 8 4 9
REMARK H PARENT 4 10
REMARK Flexibility Score: inf
ROOT
ATOM      1  C   UNL     1      15.795  13.515  38.608  1.00  0.00     0.003 C 
ENDROOT
BRANCH   1   2
ATOM      2  C   UNL     1      15.941  13.832  40.105  1.00  0.00    -0.000 C 
BRANCH   2   3
ATOM      3  C   UNL     1      17.046  13.001  40.778  1.00  0.00    -0.003 C 
ATOM      4  C   UNL     1      18.016  13.857  41.593  1.00  0.00     0.004 C 
ENDBRANCH   2   3
ENDBRANCH   1   2
BRANCH   1   5
ATOM      5  C   UNL     1      14.428  13.984  38.080  1.00  0.00     0.036 C 
BRANCH   5   6
ATOM      6  C   UNL     1      14.096  13.470  36.667  1.00  0.00     0.136 C 
BRANCH   6   7
ATOM      7  C   UNL     1      13.972  11.962  36.617  1.00  0.00    -0.004 C 
ATOM      8  C   UNL     1      14.201  11.253  35.507  1.00  0.00     0.007 C 
ENDBRANCH   6   7
BRANCH   6   9
ATOM      9  O   UNL     1      15.045  13.936  35.741  1.00  0.00    -0.389 OA
ATOM     10  H   UNL     1      14.846  13.488  34.877  1.00  0.00     0.211 HD
ENDBRANCH   6   9
ENDBRANCH   5   6
ENDBRANCH   1   5
TORSDOF 6
ENDMDL
MODEL 7
REMARK VINA RESULT:    -3.400      3.184      5.932
REMARK INTER + INTRA:          -4.708
REMARK INTER:                  -4.523
REMARK INTRA:                  -0.185
REMARK UNBOUND:                -0.215
REMARK SMILES C=C[C@H](O)CCCCC
REMARK SMILES IDX 6 1 7 2 8 3 9 4 5 5 3 6 2 7 1 8 4 9
REMARK H PARENT 4 10
REMARK Flexibility Score: inf
ROOT
ATOM      1  C   UNL     1      16.007  13.029  38.257  1.00  0.00     0.003 C 
ENDROOT
BRANCH   1   2
ATOM      2  C   UNL     1      15.305  13.133  36.894  1.00  0.00    -0.000 C 
BRANCH   2   3
ATOM      3  C   UNL     1      14.004  12.317  36.838  1.00  0.00    -0.003 C 
ATOM      4  C   UNL     1      14.009  11.271  35.723  1.00  0.00     0.004 C 
ENDBRANCH   2   3
ENDBRANCH   1   2
BRANCH   1   5
ATOM      5  C   UNL     1      15.273  13.866  39.318  1.00  0.00     0.036 C 
BRANCH   5   6
ATOM      6  C   UNL     1      16.100  14.123  40.591  1.00  0.00     0.136 C 
BRANCH   6   7
ATOM      7  C   UNL     1      17.238  13.137  40.747  1.00  0.00    -0.004 C 
ATOM      8  C   UNL     1      18.224  13.302  41.636  1.00  0.00     0.007 C 
ENDBRANCH   6   7
BRANCH   6   9
ATOM      9  O   UNL     1      15.268  14.125  41.723  1.00  0.00    -0.389 OA
ATOM     10  H   UNL     1      14.415  13.694  41.452  1.00  0.00     0.211 HD
ENDBRANCH   6   9
ENDBRANCH   5   6
ENDBRANCH   1   5
TORSDOF 6
ENDMDL
MODEL 8
REMARK VINA RESULT:    -3.384      1.975      4.961
REMARK INTER + INTRA:          -4.687
REMARK INTER:                  -4.547
REMARK INTRA:                  -0.140
REMARK UNBOUND:                -0.215
REMARK SMILES C=C[C@H](O)CCCCC
REMARK SMILES IDX 6 1 7 2 8 3 9 4 5 5 3 6 2 7 1 8 4 9
REMARK H PARENT 4 10
REMARK Flexibility Score: inf
ROOT
ATOM      1  C   UNL     1      14.057  13.529  36.300  1.00  0.00     0.003 C 
ENDROOT
BRANCH   1   2
ATOM      2  C   UNL     1      13.563  12.081  36.447  1.00  0.00    -0.000 C 
BRANCH   2   3
ATOM      3  C   UNL     1      13.794  11.248  35.176  1.00  0.00    -0.003 C 
ATOM      4  C   UNL     1      14.309  12.085  34.004  1.00  0.00     0.004 C 
ENDBRANCH   2   3
ENDBRANCH   1   2
BRANCH   1   5
ATOM      5  C   UNL     1      14.513  14.093  37.656  1.00  0.00     0.036 C 
BRANCH   5   6
ATOM      6  C   UNL     1      15.497  13.180  38.412  1.00  0.00     0.136 C 
BRANCH   6   7
ATOM      7  C   UNL     1      15.962  13.791  39.717  1.00  0.00    -0.004 C 
ATOM      8  C   UNL     1      16.732  13.135  40.590  1.00  0.00     0.007 C 
ENDBRANCH   6   7
BRANCH   6   9
ATOM      9  O   UNL     1      16.585  12.845  37.588  1.00  0.00    -0.389 OA
ATOM     10  H   UNL     1      17.191  12.276  38.132  1.00  0.00     0.211 HD
ENDBRANCH   6   9
ENDBRANCH   5   6
ENDBRANCH   1   5
TORSDOF 6
ENDMDL
MODEL 9
REMARK VINA RESULT:    -3.375      1.544      4.552
REMARK INTER + INTRA:          -4.676
REMARK INTER:                  -4.501
REMARK INTRA:                  -0.175
REMARK UNBOUND:                -0.215
REMARK SMILES C=C[C@H](O)CCCCC
REMARK SMILES IDX 6 1 7 2 8 3 9 4 5 5 3 6 2 7 1 8 4 9
REMARK H PARENT 4 10
REMARK Flexibility Score: inf
ROOT
ATOM      1  C   UNL     1      14.093  11.872  33.851  1.00  0.00     0.003 C 
ENDROOT
BRANCH   1   2
ATOM      2  C   UNL     1      14.149  13.385  33.588  1.00  0.00    -0.000 C 
BRANCH   2   3
ATOM      3  C   UNL     1      12.804  14.079  33.852  1.00  0.00    -0.003 C 
ATOM      4  C   UNL     1      11.908  14.124  32.614  1.00  0.00     0.004 C 
ENDBRANCH   2   3
ENDBRANCH   1   2
BRANCH   1   5
ATOM      5  C   UNL     1      14.552  11.547  35.283  1.00  0.00     0.036 C 
BRANCH   5   6
ATOM      6  C   UNL     1      13.553  11.981  36.371  1.00  0.00     0.136 C 
BRANCH   6   7
ATOM      7  C   UNL     1      14.102  13.088  37.246  1.00  0.00    -0.004 C 
ATOM      8  C   UNL     1      15.392  13.170  37.588  1.00  0.00     0.007 C 
ENDBRANCH   6   7
BRANCH   6   9
ATOM      9  O   UNL     1      13.153  10.875  37.138  1.00  0.00    -0.389 OA
ATOM     10  H   UNL     1      13.563  10.985  38.036  1.00  0.00     0.211 HD
ENDBRANCH   6   9
ENDBRANCH   5   6
ENDBRANCH   1   5
TORSDOF 6
ENDMDL
