MODEL 1
REMARK VINA RESULT:    -4.475      0.000      0.000
REMARK INTER + INTRA:          -9.718
REMARK INTER:                  -8.661
REMARK INTRA:                  -1.057
REMARK UNBOUND:                -1.057
REMARK SMILES CCCCCCCCCCCCCCCCCC(=O)[O-]
REMARK SMILES IDX 10 1 11 2 12 3 13 4 14 5 15 6 16 7 17 8 18 9 19 10 20 11
REMARK SMILES IDX 9 12 8 13 7 14 6 15 5 16 4 17 3 18 2 19 1 20
REMARK H PARENT
REMARK Flexibility Score: inf
ROOT
ATOM      1  C   UNL     1     124.791 122.742 129.296  1.00  0.00     0.000 C 
ENDROOT
BRANCH   1   2
ATOM      2  C   UNL     1     125.496 121.380 129.291  1.00  0.00     0.000 C 
BRANCH   2   3
ATOM      3  C   UNL     1     125.313 120.663 130.639  1.00  0.00     0.000 C 
BRANCH   3   4
ATOM      4  C   UNL     1     125.166 119.140 130.484  1.00  0.00     0.000 C 
BRANCH   4   5
ATOM      5  C   UNL     1     124.316 118.513 131.603  1.00  0.00     0.000 C 
BRANCH   5   6
ATOM      6  C   UNL     1     123.050 119.329 131.923  1.00  0.00     0.000 C 
BRANCH   6   7
ATOM      7  C   UNL     1     122.891 119.733 133.400  1.00  0.00     0.006 C 
BRANCH   7   8
ATOM      8  C   UNL     1     122.032 120.990 133.589  1.00  0.00     0.053 C 
BRANCH   8   9
ATOM      9  C   UNL     1     122.618 122.142 132.837  1.00  0.00     0.041 C 
ATOM     10  O   UNL     1     121.975 122.679 131.897  1.00  0.00    -0.550 OA
ATOM     11  O   UNL     1     123.898 122.592 133.140  1.00  0.00    -0.550 OA
ENDBRANCH   8   9
ENDBRANCH   7   8
ENDBRANCH   6   7
ENDBRANCH   5   6
ENDBRANCH   4   5
ENDBRANCH   3   4
ENDBRANCH   2   3
ENDBRANCH   1   2
BRANCH   1  12
ATOM     12  C   UNL     1     125.463 123.714 128.318  1.00  0.00     0.000 C 
BRANCH  12  13
ATOM     13  C   UNL     1     126.869 123.226 127.939  1.00  0.00    -0.000 C 
BRANCH  13  14
ATOM     14  C   UNL     1     127.581 124.174 126.960  1.00  0.00    -0.000 C 
BRANCH  14  15
ATOM     15  C   UNL     1     126.643 124.702 125.862  1.00  0.00    -0.000 C 
BRANCH  15  16
ATOM     16  C   UNL     1     127.404 125.273 124.653  1.00  0.00    -0.000 C 
BRANCH  16  17
ATOM     17  C   UNL     1     126.636 125.142 123.320  1.00  0.00    -0.000 C 
BRANCH  17  18
ATOM     18  C   UNL     1     125.112 125.135 123.529  1.00  0.00    -0.000 C 
BRANCH  18  19
ATOM     19  C   UNL     1     124.348 125.697 122.320  1.00  0.00    -0.003 C 
ATOM     20  C   UNL     1     123.060 124.927 122.027  1.00  0.00     0.004 C 
ENDBRANCH  18  19
ENDBRANCH  17  18
ENDBRANCH  16  17
ENDBRANCH  15  16
ENDBRANCH  14  15
ENDBRANCH  13  14
ENDBRANCH  12  13
ENDBRANCH   1  12
TORSDOF 16
ENDMDL
MODEL 2
REMARK VINA RESULT:    -4.407     12.137     13.968
REMARK INTER + INTRA:          -9.586
REMARK INTER:                  -7.903
REMARK INTRA:                  -1.683
REMARK UNBOUND:                -1.057
REMARK SMILES CCCCCCCCCCCCCCCCCC(=O)[O-]
REMARK SMILES IDX 10 1 11 2 12 3 13 4 14 5 15 6 16 7 17 8 18 9 19 10 20 11
REMARK SMILES IDX 9 12 8 13 7 14 6 15 5 16 4 17 3 18 2 19 1 20
REMARK H PARENT
REMARK Flexibility Score: inf
ROOT
ATOM      1  C   UNL     1     132.664 136.975 132.648  1.00  0.00     0.000 C 
ENDROOT
BRANCH   1   2
ATOM      2  C   UNL     1     133.656 135.919 132.144  1.00  0.00     0.000 C 
BRANCH   2   3
ATOM      3  C   UNL     1     133.348 134.542 132.752  1.00  0.00     0.000 C 
BRANCH   3   4
ATOM      4  C   UNL     1     131.872 134.391 133.159  1.00  0.00     0.000 C 
BRANCH   4   5
ATOM      5  C   UNL     1     131.419 132.922 133.197  1.00  0.00     0.000 C 
BRANCH   5   6
ATOM      6  C   UNL     1     130.617 132.574 134.465  1.00  0.00     0.000 C 
BRANCH   6   7
ATOM      7  C   UNL     1     131.380 132.757 135.790  1.00  0.00     0.006 C 
BRANCH   7   8
ATOM      8  C   UNL     1     130.489 133.271 136.928  1.00  0.00     0.053 C 
BRANCH   8   9
ATOM      9  C   UNL     1     129.909 132.126 137.696  1.00  0.00     0.041 C 
ATOM     10  O   UNL     1     130.549 131.615 138.652  1.00  0.00    -0.550 OA
ATOM     11  O   UNL     1     128.681 131.590 137.325  1.00  0.00    -0.550 OA
ENDBRANCH   8   9
ENDBRANCH   7   8
ENDBRANCH   6   7
ENDBRANCH   5   6
ENDBRANCH   4   5
ENDBRANCH   3   4
ENDBRANCH   2   3
ENDBRANCH   1   2
BRANCH   1  12
ATOM     12  C   UNL     1     132.041 137.749 131.480  1.00  0.00     0.000 C 
BRANCH  12  13
ATOM     13  C   UNL     1     130.571 137.352 131.281  1.00  0.00    -0.000 C 
BRANCH  13  14
ATOM     14  C   UNL     1     130.330 136.618 129.952  1.00  0.00    -0.000 C 
BRANCH  14  15
ATOM     15  C   UNL     1     129.938 135.145 130.154  1.00  0.00    -0.000 C 
BRANCH  15  16
ATOM     16  C   UNL     1     131.052 134.169 129.739  1.00  0.00    -0.000 C 
BRANCH  16  17
ATOM     17  C   UNL     1     130.825 133.519 128.358  1.00  0.00    -0.000 C 
BRANCH  17  18
ATOM     18  C   UNL     1     129.363 133.082 128.158  1.00  0.00    -0.000 C 
BRANCH  18  19
ATOM     19  C   UNL     1     129.244 131.729 127.440  1.00  0.00    -0.003 C 
ATOM     20  C   UNL     1     129.298 130.544 128.405  1.00  0.00     0.004 C 
ENDBRANCH  18  19
ENDBRANCH  17  18
ENDBRANCH  16  17
ENDBRANCH  15  16
ENDBRANCH  14  15
ENDBRANCH  13  14
ENDBRANCH  12  13
ENDBRANCH   1  12
TORSDOF 16
ENDMDL
MODEL 3
REMARK VINA RESULT:    -4.396     10.931     12.398
REMARK INTER + INTRA:          -9.565
REMARK INTER:                  -8.041
REMARK INTRA:                  -1.524
REMARK UNBOUND:                -1.057
REMARK SMILES CCCCCCCCCCCCCCCCCC(=O)[O-]
REMARK SMILES IDX 10 1 11 2 12 3 13 4 14 5 15 6 16 7 17 8 18 9 19 10 20 11
REMARK SMILES IDX 9 12 8 13 7 14 6 15 5 16 4 17 3 18 2 19 1 20
REMARK H PARENT
REMARK Flexibility Score: inf
ROOT
ATOM      1  C   UNL     1     132.254 133.549 133.780  1.00  0.00     0.000 C 
ENDROOT
BRANCH   1   2
ATOM      2  C   UNL     1     131.441 133.510 135.081  1.00  0.00     0.000 C 
BRANCH   2   3
ATOM      3  C   UNL     1     132.033 132.490 136.067  1.00  0.00     0.000 C 
BRANCH   3   4
ATOM      4  C   UNL     1     131.113 132.230 137.272  1.00  0.00     0.000 C 
BRANCH   4   5
ATOM      5  C   UNL     1     129.622 132.277 136.897  1.00  0.00     0.000 C 
BRANCH   5   6
ATOM      6  C   UNL     1     129.060 130.899 136.500  1.00  0.00     0.000 C 
BRANCH   6   7
ATOM      7  C   UNL     1     128.815 130.704 134.993  1.00  0.00     0.006 C 
BRANCH   7   8
ATOM      8  C   UNL     1     130.016 130.086 134.265  1.00  0.00     0.053 C 
BRANCH   8   9
ATOM      9  C   UNL     1     129.740 128.657 133.921  1.00  0.00     0.041 C 
ATOM     10  O   UNL     1     128.557 128.265 133.744  1.00  0.00    -0.550 OA
ATOM     11  O   UNL     1     130.786 127.745 133.844  1.00  0.00    -0.550 OA
ENDBRANCH   8   9
ENDBRANCH   7   8
ENDBRANCH   6   7
ENDBRANCH   5   6
ENDBRANCH   4   5
ENDBRANCH   3   4
ENDBRANCH   2   3
ENDBRANCH   1   2
BRANCH   1  12
ATOM     12  C   UNL     1     132.505 134.994 133.331  1.00  0.00     0.000 C 
BRANCH  12  13
ATOM     13  C   UNL     1     132.709 135.068 131.811  1.00  0.00    -0.000 C 
BRANCH  13  14
ATOM     14  C   UNL     1     131.498 135.672 131.080  1.00  0.00    -0.000 C 
BRANCH  14  15
ATOM     15  C   UNL     1     130.722 134.628 130.261  1.00  0.00    -0.000 C 
BRANCH  15  16
ATOM     16  C   UNL     1     131.409 133.252 130.244  1.00  0.00    -0.000 C 
BRANCH  16  17
ATOM     17  C   UNL     1     131.152 132.446 128.954  1.00  0.00    -0.000 C 
BRANCH  17  18
ATOM     18  C   UNL     1     129.898 132.933 128.207  1.00  0.00    -0.000 C 
BRANCH  18  19
ATOM     19  C   UNL     1     129.058 131.776 127.647  1.00  0.00    -0.003 C 
ATOM     20  C   UNL     1     129.176 130.502 128.485  1.00  0.00     0.004 C 
ENDBRANCH  18  19
ENDBRANCH  17  18
ENDBRANCH  16  17
ENDBRANCH  15  16
ENDBRANCH  14  15
ENDBRANCH  13  14
ENDBRANCH  12  13
ENDBRANCH   1  12
TORSDOF 16
ENDMDL
MODEL 4
REMARK VINA RESULT:    -4.365     10.855     14.155
REMARK INTER + INTRA:          -9.505
REMARK INTER:                  -7.960
REMARK INTRA:                  -1.545
REMARK UNBOUND:                -1.057
REMARK SMILES CCCCCCCCCCCCCCCCCC(=O)[O-]
REMARK SMILES IDX 10 1 11 2 12 3 13 4 14 5 15 6 16 7 17 8 18 9 19 10 20 11
REMARK SMILES IDX 9 12 8 13 7 14 6 15 5 16 4 17 3 18 2 19 1 20
REMARK H PARENT
REMARK Flexibility Score: inf
ROOT
ATOM      1  C   UNL     1     132.174 133.311 133.501  1.00  0.00     0.000 C 
ENDROOT
BRANCH   1   2
ATOM      2  C   UNL     1     132.735 134.702 133.177  1.00  0.00     0.000 C 
BRANCH   2   3
ATOM      3  C   UNL     1     132.704 134.967 131.663  1.00  0.00     0.000 C 
BRANCH   3   4
ATOM      4  C   UNL     1     131.357 135.541 131.190  1.00  0.00     0.000 C 
BRANCH   4   5
ATOM      5  C   UNL     1     130.723 134.705 130.065  1.00  0.00     0.000 C 
BRANCH   5   6
ATOM      6  C   UNL     1     131.296 133.279 129.981  1.00  0.00     0.000 C 
BRANCH   6   7
ATOM      7  C   UNL     1     131.045 132.552 128.648  1.00  0.00     0.006 C 
BRANCH   7   8
ATOM      8  C   UNL     1     129.619 132.750 128.116  1.00  0.00     0.053 C 
BRANCH   8   9
ATOM      9  C   UNL     1     129.067 131.457 127.605  1.00  0.00     0.041 C 
ATOM     10  O   UNL     1     129.093 130.427 128.327  1.00  0.00    -0.550 OA
ATOM     11  O   UNL     1     128.569 131.377 126.309  1.00  0.00    -0.550 OA
ENDBRANCH   8   9
ENDBRANCH   7   8
ENDBRANCH   6   7
ENDBRANCH   5   6
ENDBRANCH   4   5
ENDBRANCH   3   4
ENDBRANCH   2   3
ENDBRANCH   1   2
BRANCH   1  12
ATOM     12  C   UNL     1     131.194 133.373 134.678  1.00  0.00     0.000 C 
BRANCH  12  13
ATOM     13  C   UNL     1     130.027 132.397 134.474  1.00  0.00    -0.000 C 
BRANCH  13  14
ATOM     14  C   UNL     1     129.400 131.935 135.800  1.00  0.00    -0.000 C 
BRANCH  14  15
ATOM     15  C   UNL     1     127.956 131.436 135.628  1.00  0.00    -0.000 C 
BRANCH  15  16
ATOM     16  C   UNL     1     127.758 129.999 136.140  1.00  0.00    -0.000 C 
BRANCH  16  17
ATOM     17  C   UNL     1     128.122 128.915 135.104  1.00  0.00    -0.000 C 
BRANCH  17  18
ATOM     18  C   UNL     1     129.438 128.198 135.455  1.00  0.00    -0.000 C 
BRANCH  18  19
ATOM     19  C   UNL     1     130.595 128.601 134.529  1.00  0.00    -0.003 C 
ATOM     20  C   UNL     1     131.747 129.269 135.281  1.00  0.00     0.004 C 
ENDBRANCH  18  19
ENDBRANCH  17  18
ENDBRANCH  16  17
ENDBRANCH  15  16
ENDBRANCH  14  15
ENDBRANCH  13  14
ENDBRANCH  12  13
ENDBRANCH   1  12
TORSDOF 16
ENDMDL
MODEL 5
REMARK VINA RESULT:    -4.307      4.264      6.598
REMARK INTER + INTRA:          -9.394
REMARK INTER:                  -8.144
REMARK INTRA:                  -1.249
REMARK UNBOUND:                -1.057
REMARK SMILES CCCCCCCCCCCCCCCCCC(=O)[O-]
REMARK SMILES IDX 10 1 11 2 12 3 13 4 14 5 15 6 16 7 17 8 18 9 19 10 20 11
REMARK SMILES IDX 9 12 8 13 7 14 6 15 5 16 4 17 3 18 2 19 1 20
REMARK H PARENT
REMARK Flexibility Score: inf
ROOT
ATOM      1  C   UNL     1     124.010 122.503 133.224  1.00  0.00     0.000 C 
ENDROOT
BRANCH   1   2
ATOM      2  C   UNL     1     124.302 122.666 134.722  1.00  0.00     0.000 C 
BRANCH   2   3
ATOM      3  C   UNL     1     125.610 123.441 134.944  1.00  0.00     0.000 C 
BRANCH   3   4
ATOM      4  C   UNL     1     126.051 123.449 136.418  1.00  0.00     0.000 C 
BRANCH   4   5
ATOM      5  C   UNL     1     126.840 124.716 136.790  1.00  0.00     0.000 C 
BRANCH   5   6
ATOM      6  C   UNL     1     127.987 125.019 135.807  1.00  0.00     0.000 C 
BRANCH   6   7
ATOM      7  C   UNL     1     128.309 126.513 135.621  1.00  0.00     0.006 C 
BRANCH   7   8
ATOM      8  C   UNL     1     127.061 127.405 135.656  1.00  0.00     0.053 C 
BRANCH   8   9
ATOM      9  C   UNL     1     126.403 127.437 134.313  1.00  0.00     0.041 C 
ATOM     10  O   UNL     1     125.152 127.341 134.218  1.00  0.00    -0.550 OA
ATOM     11  O   UNL     1     127.177 127.522 133.161  1.00  0.00    -0.550 OA
ENDBRANCH   8   9
ENDBRANCH   7   8
ENDBRANCH   6   7
ENDBRANCH   5   6
ENDBRANCH   4   5
ENDBRANCH   3   4
ENDBRANCH   2   3
ENDBRANCH   1   2
BRANCH   1  12
ATOM     12  C   UNL     1     123.100 121.295 132.969  1.00  0.00     0.000 C 
BRANCH  12  13
ATOM     13  C   UNL     1     123.368 120.689 131.583  1.00  0.00    -0.000 C 
BRANCH  13  14
ATOM     14  C   UNL     1     124.855 120.732 131.195  1.00  0.00    -0.000 C 
BRANCH  14  15
ATOM     15  C   UNL     1     125.072 121.150 129.731  1.00  0.00    -0.000 C 
BRANCH  15  16
ATOM     16  C   UNL     1     124.769 122.638 129.485  1.00  0.00    -0.000 C 
BRANCH  16  17
ATOM     17  C   UNL     1     125.314 123.167 128.142  1.00  0.00    -0.000 C 
BRANCH  17  18
ATOM     18  C   UNL     1     126.087 124.487 128.310  1.00  0.00    -0.000 C 
BRANCH  18  19
ATOM     19  C   UNL     1     127.583 124.340 127.992  1.00  0.00    -0.003 C 
ATOM     20  C   UNL     1     128.013 122.879 127.844  1.00  0.00     0.004 C 
ENDBRANCH  18  19
ENDBRANCH  17  18
ENDBRANCH  16  17
ENDBRANCH  15  16
ENDBRANCH  14  15
ENDBRANCH  13  14
ENDBRANCH  12  13
ENDBRANCH   1  12
TORSDOF 16
ENDMDL
MODEL 6
REMARK VINA RESULT:    -4.295     11.829     14.750
REMARK INTER + INTRA:          -9.369
REMARK INTER:                  -7.442
REMARK INTRA:                  -1.927
REMARK UNBOUND:                -1.057
REMARK SMILES CCCCCCCCCCCCCCCCCC(=O)[O-]
REMARK SMILES IDX 10 1 11 2 12 3 13 4 14 5 15 6 16 7 17 8 18 9 19 10 20 11
REMARK SMILES IDX 9 12 8 13 7 14 6 15 5 16 4 17 3 18 2 19 1 20
REMARK H PARENT
REMARK Flexibility Score: inf
ROOT
ATOM      1  C   UNL     1     134.132 135.405 132.998  1.00  0.00     0.000 C 
ENDROOT
BRANCH   1   2
ATOM      2  C   UNL     1     133.449 135.336 131.625  1.00  0.00     0.000 C 
BRANCH   2   3
ATOM      3  C   UNL     1     131.964 135.719 131.732  1.00  0.00     0.000 C 
BRANCH   3   4
ATOM      4  C   UNL     1     131.025 134.543 131.413  1.00  0.00     0.000 C 
BRANCH   4   5
ATOM      5  C   UNL     1     131.789 133.235 131.146  1.00  0.00     0.000 C 
BRANCH   5   6
ATOM      6  C   UNL     1     131.679 132.763 129.684  1.00  0.00     0.000 C 
BRANCH   6   7
ATOM      7  C   UNL     1     130.316 133.021 129.016  1.00  0.00     0.006 C 
BRANCH   7   8
ATOM      8  C   UNL     1     129.772 131.796 128.270  1.00  0.00     0.053 C 
BRANCH   8   9
ATOM      9  C   UNL     1     128.549 132.159 127.490  1.00  0.00     0.041 C 
ATOM     10  O   UNL     1     128.235 131.504 126.462  1.00  0.00    -0.550 OA
ATOM     11  O   UNL     1     127.781 133.255 127.869  1.00  0.00    -0.550 OA
ENDBRANCH   8   9
ENDBRANCH   7   8
ENDBRANCH   6   7
ENDBRANCH   5   6
ENDBRANCH   4   5
ENDBRANCH   3   4
ENDBRANCH   2   3
ENDBRANCH   1   2
BRANCH   1  12
ATOM     12  C   UNL     1     133.226 136.088 134.030  1.00  0.00     0.000 C 
BRANCH  12  13
ATOM     13  C   UNL     1     132.761 135.089 135.099  1.00  0.00    -0.000 C 
BRANCH  13  14
ATOM     14  C   UNL     1     133.304 133.671 134.861  1.00  0.00    -0.000 C 
BRANCH  14  15
ATOM     15  C   UNL     1     132.292 132.579 135.248  1.00  0.00    -0.000 C 
BRANCH  15  16
ATOM     16  C   UNL     1     130.886 133.139 135.522  1.00  0.00    -0.000 C 
BRANCH  16  17
ATOM     17  C   UNL     1     129.751 132.294 134.907  1.00  0.00    -0.000 C 
BRANCH  17  18
ATOM     18  C   UNL     1     130.291 131.101 134.099  1.00  0.00    -0.000 C 
BRANCH  18  19
ATOM     19  C   UNL     1     129.580 129.784 134.444  1.00  0.00    -0.003 C 
ATOM     20  C   UNL     1     128.420 129.980 135.421  1.00  0.00     0.004 C 
ENDBRANCH  18  19
ENDBRANCH  17  18
ENDBRANCH  16  17
ENDBRANCH  15  16
ENDBRANCH  14  15
ENDBRANCH  13  14
ENDBRANCH  12  13
ENDBRANCH   1  12
TORSDOF 16
ENDMDL
MODEL 7
REMARK VINA RESULT:    -4.293     12.301     13.882
REMARK INTER + INTRA:          -9.365
REMARK INTER:                  -7.449
REMARK INTRA:                  -1.916
REMARK UNBOUND:                -1.057
REMARK SMILES CCCCCCCCCCCCCCCCCC(=O)[O-]
REMARK SMILES IDX 10 1 11 2 12 3 13 4 14 5 15 6 16 7 17 8 18 9 19 10 20 11
REMARK SMILES IDX 9 12 8 13 7 14 6 15 5 16 4 17 3 18 2 19 1 20
REMARK H PARENT
REMARK Flexibility Score: inf
ROOT
ATOM      1  C   UNL     1     132.588 134.249 133.454  1.00  0.00     0.000 C 
ENDROOT
BRANCH   1   2
ATOM      2  C   UNL     1     132.948 133.027 134.308  1.00  0.00     0.000 C 
BRANCH   2   3
ATOM      3  C   UNL     1     132.491 133.222 135.763  1.00  0.00     0.000 C 
BRANCH   3   4
ATOM      4  C   UNL     1     131.017 133.649 135.869  1.00  0.00     0.000 C 
BRANCH   4   5
ATOM      5  C   UNL     1     130.282 132.948 137.025  1.00  0.00     0.000 C 
BRANCH   5   6
ATOM      6  C   UNL     1     129.459 131.732 136.563  1.00  0.00     0.000 C 
BRANCH   6   7
ATOM      7  C   UNL     1     129.119 131.706 135.061  1.00  0.00     0.006 C 
BRANCH   7   8
ATOM      8  C   UNL     1     129.913 130.648 134.285  1.00  0.00     0.053 C 
BRANCH   8   9
ATOM      9  C   UNL     1     129.332 129.288 134.510  1.00  0.00     0.041 C 
ATOM     10  O   UNL     1     130.004 128.259 134.240  1.00  0.00    -0.550 OA
ATOM     11  O   UNL     1     128.027 129.157 134.972  1.00  0.00    -0.550 OA
ENDBRANCH   8   9
ENDBRANCH   7   8
ENDBRANCH   6   7
ENDBRANCH   5   6
ENDBRANCH   4   5
ENDBRANCH   3   4
ENDBRANCH   2   3
ENDBRANCH   1   2
BRANCH   1  12
ATOM     12  C   UNL     1     133.670 134.523 132.402  1.00  0.00     0.000 C 
BRANCH  12  13
ATOM     13  C   UNL     1     133.692 136.007 132.010  1.00  0.00    -0.000 C 
BRANCH  13  14
ATOM     14  C   UNL     1     132.564 136.813 132.674  1.00  0.00    -0.000 C 
BRANCH  14  15
ATOM     15  C   UNL     1     131.989 137.897 131.748  1.00  0.00    -0.000 C 
BRANCH  15  16
ATOM     16  C   UNL     1     130.548 137.597 131.301  1.00  0.00    -0.000 C 
BRANCH  16  17
ATOM     17  C   UNL     1     130.462 136.683 130.060  1.00  0.00    -0.000 C 
BRANCH  17  18
ATOM     18  C   UNL     1     130.266 135.206 130.442  1.00  0.00    -0.000 C 
BRANCH  18  19
ATOM     19  C   UNL     1     130.974 134.247 129.473  1.00  0.00    -0.003 C 
ATOM     20  C   UNL     1     131.377 132.929 130.138  1.00  0.00     0.004 C 
ENDBRANCH  18  19
ENDBRANCH  17  18
ENDBRANCH  16  17
ENDBRANCH  15  16
ENDBRANCH  14  15
ENDBRANCH  13  14
ENDBRANCH  12  13
ENDBRANCH   1  12
TORSDOF 16
ENDMDL
MODEL 8
REMARK VINA RESULT:    -4.245     11.821     13.623
REMARK INTER + INTRA:          -9.274
REMARK INTER:                  -7.323
REMARK INTRA:                  -1.951
REMARK UNBOUND:                -1.057
REMARK SMILES CCCCCCCCCCCCCCCCCC(=O)[O-]
REMARK SMILES IDX 10 1 11 2 12 3 13 4 14 5 15 6 16 7 17 8 18 9 19 10 20 11
REMARK SMILES IDX 9 12 8 13 7 14 6 15 5 16 4 17 3 18 2 19 1 20
REMARK H PARENT
REMARK Flexibility Score: inf
ROOT
ATOM      1  C   UNL     1     133.851 136.615 134.352  1.00  0.00     0.000 C 
ENDROOT
BRANCH   1   2
ATOM      2  C   UNL     1     133.263 135.530 135.264  1.00  0.00     0.000 C 
BRANCH   2   3
ATOM      3  C   UNL     1     133.925 134.169 134.994  1.00  0.00     0.000 C 
BRANCH   3   4
ATOM      4  C   UNL     1     132.942 132.994 135.137  1.00  0.00     0.000 C 
BRANCH   4   5
ATOM      5  C   UNL     1     131.477 133.457 135.206  1.00  0.00     0.000 C 
BRANCH   5   6
ATOM      6  C   UNL     1     130.558 132.685 134.240  1.00  0.00     0.000 C 
BRANCH   6   7
ATOM      7  C   UNL     1     129.756 131.537 134.880  1.00  0.00     0.006 C 
BRANCH   7   8
ATOM      8  C   UNL     1     129.810 130.240 134.063  1.00  0.00     0.053 C 
BRANCH   8   9
ATOM      9  C   UNL     1     130.636 129.211 134.768  1.00  0.00     0.041 C 
ATOM     10  O   UNL     1     131.452 129.558 135.661  1.00  0.00    -0.550 OA
ATOM     11  O   UNL     1     130.539 127.873 134.405  1.00  0.00    -0.550 OA
ENDBRANCH   8   9
ENDBRANCH   7   8
ENDBRANCH   6   7
ENDBRANCH   5   6
ENDBRANCH   4   5
ENDBRANCH   3   4
ENDBRANCH   2   3
ENDBRANCH   1   2
BRANCH   1  12
ATOM     12  C   UNL     1     132.853 137.017 133.260  1.00  0.00     0.000 C 
BRANCH  12  13
ATOM     13  C   UNL     1     133.070 136.189 131.985  1.00  0.00    -0.000 C 
BRANCH  13  14
ATOM     14  C   UNL     1     131.944 135.172 131.739  1.00  0.00    -0.000 C 
BRANCH  14  15
ATOM     15  C   UNL     1     132.476 133.756 131.465  1.00  0.00    -0.000 C 
BRANCH  15  16
ATOM     16  C   UNL     1     131.527 132.921 130.588  1.00  0.00    -0.000 C 
BRANCH  16  17
ATOM     17  C   UNL     1     130.812 133.742 129.494  1.00  0.00    -0.000 C 
BRANCH  17  18
ATOM     18  C   UNL     1     130.810 133.018 128.137  1.00  0.00    -0.000 C 
BRANCH  18  19
ATOM     19  C   UNL     1     129.469 132.330 127.836  1.00  0.00    -0.003 C 
ATOM     20  C   UNL     1     129.466 130.851 128.224  1.00  0.00     0.004 C 
ENDBRANCH  18  19
ENDBRANCH  17  18
ENDBRANCH  16  17
ENDBRANCH  15  16
ENDBRANCH  14  15
ENDBRANCH  13  14
ENDBRANCH  12  13
ENDBRANCH   1  12
TORSDOF 16
ENDMDL
MODEL 9
REMARK VINA RESULT:    -4.229      4.883      8.875
REMARK INTER + INTRA:          -9.242
REMARK INTER:                  -7.899
REMARK INTRA:                  -1.343
REMARK UNBOUND:                -1.057
REMARK SMILES CCCCCCCCCCCCCCCCCC(=O)[O-]
REMARK SMILES IDX 10 1 11 2 12 3 13 4 14 5 15 6 16 7 17 8 18 9 19 10 20 11
REMARK SMILES IDX 9 12 8 13 7 14 6 15 5 16 4 17 3 18 2 19 1 20
REMARK H PARENT
REMARK Flexibility Score: inf
ROOT
ATOM      1  C   UNL     1     124.512 122.872 134.837  1.00  0.00     0.000 C 
ENDROOT
BRANCH   1   2
ATOM      2  C   UNL     1     123.660 122.178 133.766  1.00  0.00     0.000 C 
BRANCH   2   3
ATOM      3  C   UNL     1     124.214 122.456 132.360  1.00  0.00     0.000 C 
BRANCH   3   4
ATOM      4  C   UNL     1     124.328 121.182 131.505  1.00  0.00     0.000 C 
BRANCH   4   5
ATOM      5  C   UNL     1     124.811 121.474 130.074  1.00  0.00     0.000 C 
BRANCH   5   6
ATOM      6  C   UNL     1     124.542 122.925 129.634  1.00  0.00     0.000 C 
BRANCH   6   7
ATOM      7  C   UNL     1     125.141 123.315 128.271  1.00  0.00     0.006 C 
BRANCH   7   8
ATOM      8  C   UNL     1     126.282 124.334 128.386  1.00  0.00     0.053 C 
BRANCH   8   9
ATOM      9  C   UNL     1     127.438 123.925 127.530  1.00  0.00     0.041 C 
ATOM     10  O   UNL     1     127.543 124.364 126.355  1.00  0.00    -0.550 OA
ATOM     11  O   UNL     1     128.375 123.018 128.012  1.00  0.00    -0.550 OA
ENDBRANCH   8   9
ENDBRANCH   7   8
ENDBRANCH   6   7
ENDBRANCH   5   6
ENDBRANCH   4   5
ENDBRANCH   3   4
ENDBRANCH   2   3
ENDBRANCH   1   2
BRANCH   1  12
ATOM     12  C   UNL     1     124.656 121.990 136.084  1.00  0.00     0.000 C 
BRANCH  12  13
ATOM     13  C   UNL     1     125.349 122.756 137.220  1.00  0.00    -0.000 C 
BRANCH  13  14
ATOM     14  C   UNL     1     124.811 124.186 137.386  1.00  0.00    -0.000 C 
BRANCH  14  15
ATOM     15  C   UNL     1     125.929 125.241 137.386  1.00  0.00    -0.000 C 
BRANCH  15  16
ATOM     16  C   UNL     1     127.281 124.678 136.915  1.00  0.00    -0.000 C 
BRANCH  16  17
ATOM     17  C   UNL     1     127.516 124.820 135.397  1.00  0.00    -0.000 C 
BRANCH  17  18
ATOM     18  C   UNL     1     126.710 125.983 134.792  1.00  0.00    -0.000 C 
BRANCH  18  19
ATOM     19  C   UNL     1     127.525 127.282 134.702  1.00  0.00    -0.003 C 
ATOM     20  C   UNL     1     127.019 128.362 135.659  1.00  0.00     0.004 C 
ENDBRANCH  18  19
ENDBRANCH  17  18
ENDBRANCH  16  17
ENDBRANCH  15  16
ENDBRANCH  14  15
ENDBRANCH  13  14
ENDBRANCH  12  13
ENDBRANCH   1  12
TORSDOF 16
ENDMDL
