MODEL 1
REMARK VINA RESULT:    -2.543      0.000      0.000
REMARK INTER + INTRA:          -2.543
REMARK INTER:                  -2.543
REMARK INTRA:                   0.000
REMARK UNBOUND:                 0.000
REMARK SMILES CC(=O)[O-]
REMARK SMILES IDX 1 1 2 2 3 3 4 4
REMARK H PARENT
REMARK Flexibility Score: inf
ROOT
ATOM      1  C   UNL     1      22.491  64.699   6.113  1.00  0.00     0.063 C 
ATOM      2  C   UNL     1      22.899  63.636   7.076  1.00  0.00     0.038 C 
ATOM      3  O   UNL     1      22.581  62.436   6.865  1.00  0.00    -0.550 OA
ATOM      4  O   UNL     1      23.677  63.959   8.180  1.00  0.00    -0.550 OA
ENDROOT
TORSDOF 0
ENDMDL
MODEL 2
REMARK VINA RESULT:    -2.536     13.427     13.999
REMARK INTER + INTRA:          -2.536
REMARK INTER:                  -2.536
REMARK INTRA:                   0.000
REMARK UNBOUND:                 0.000
REMARK SMILES CC(=O)[O-]
REMARK SMILES IDX 1 1 2 2 3 3 4 4
REMARK H PARENT
REMARK Flexibility Score: inf
ROOT
ATOM      1  C   UNL     1      28.525  70.852  17.383  1.00  0.00     0.063 C 
ATOM      2  C   UNL     1      29.503  69.788  17.752  1.00  0.00     0.038 C 
ATOM      3  O   UNL     1      29.633  68.769  17.024  1.00  0.00    -0.550 OA
ATOM      4  O   UNL     1      30.311  69.944  18.871  1.00  0.00    -0.550 OA
ENDROOT
TORSDOF 0
ENDMDL
MODEL 3
REMARK VINA RESULT:    -2.533      1.361      1.762
REMARK INTER + INTRA:          -2.533
REMARK INTER:                  -2.533
REMARK INTRA:                   0.000
REMARK UNBOUND:                 0.000
REMARK SMILES CC(=O)[O-]
REMARK SMILES IDX 1 1 2 2 3 3 4 4
REMARK H PARENT
REMARK Flexibility Score: inf
ROOT
ATOM      1  C   UNL     1      24.023  64.012   7.908  1.00  0.00     0.063 C 
ATOM      2  C   UNL     1      22.984  63.617   6.915  1.00  0.00     0.038 C 
ATOM      3  O   UNL     1      22.602  62.419   6.842  1.00  0.00    -0.550 OA
ATOM      4  O   UNL     1      22.395  64.579   6.104  1.00  0.00    -0.550 OA
ENDROOT
TORSDOF 0
ENDMDL
MODEL 4
REMARK VINA RESULT:    -2.531      0.094      1.622
REMARK INTER + INTRA:          -2.531
REMARK INTER:                  -2.531
REMARK INTRA:                   0.000
REMARK UNBOUND:                 0.000
REMARK SMILES CC(=O)[O-]
REMARK SMILES IDX 1 1 2 2 3 3 4 4
REMARK H PARENT
REMARK Flexibility Score: inf
ROOT
ATOM      1  C   UNL     1      22.505  64.686   6.163  1.00  0.00     0.063 C 
ATOM      2  C   UNL     1      22.946  63.616   7.101  1.00  0.00     0.038 C 
ATOM      3  O   UNL     1      23.612  63.910   8.129  1.00  0.00    -0.550 OA
ATOM      4  O   UNL     1      22.578  62.296   6.874  1.00  0.00    -0.550 OA
ENDROOT
TORSDOF 0
ENDMDL
MODEL 5
REMARK VINA RESULT:    -2.277     13.204     13.897
REMARK INTER + INTRA:          -2.277
REMARK INTER:                  -2.277
REMARK INTRA:                   0.000
REMARK UNBOUND:                 0.000
REMARK SMILES CC(=O)[O-]
REMARK SMILES IDX 1 1 2 2 3 3 4 4
REMARK H PARENT
REMARK Flexibility Score: inf
ROOT
ATOM      1  C   UNL     1      30.040  69.970  18.708  1.00  0.00     0.063 C 
ATOM      2  C   UNL     1      29.211  69.980  17.469  1.00  0.00     0.038 C 
ATOM      3  O   UNL     1      28.508  70.986  17.186  1.00  0.00    -0.550 OA
ATOM      4  O   UNL     1      29.253  68.901  16.595  1.00  0.00    -0.550 OA
ENDROOT
TORSDOF 0
ENDMDL
MODEL 6
REMARK VINA RESULT:    -2.254     11.786     11.933
REMARK INTER + INTRA:          -2.254
REMARK INTER:                  -2.254
REMARK INTRA:                   0.000
REMARK UNBOUND:                 0.000
REMARK SMILES CC(=O)[O-]
REMARK SMILES IDX 1 1 2 2 3 3 4 4
REMARK H PARENT
REMARK Flexibility Score: inf
ROOT
ATOM      1  C   UNL     1      17.635  55.004  12.870  1.00  0.00     0.063 C 
ATOM      2  C   UNL     1      18.803  54.691  13.741  1.00  0.00     0.038 C 
ATOM      3  O   UNL     1      19.509  53.675  13.511  1.00  0.00    -0.550 OA
ATOM      4  O   UNL     1      19.147  55.549  14.778  1.00  0.00    -0.550 OA
ENDROOT
TORSDOF 0
ENDMDL
MODEL 7
REMARK VINA RESULT:    -2.156      1.459      1.689
REMARK INTER + INTRA:          -2.156
REMARK INTER:                  -2.156
REMARK INTRA:                   0.000
REMARK UNBOUND:                 0.000
REMARK SMILES CC(=O)[O-]
REMARK SMILES IDX 1 1 2 2 3 3 4 4
REMARK H PARENT
REMARK Flexibility Score: inf
ROOT
ATOM      1  C   UNL     1      22.529  64.287   6.423  1.00  0.00     0.063 C 
ATOM      2  C   UNL     1      23.939  64.179   6.894  1.00  0.00     0.038 C 
ATOM      3  O   UNL     1      24.890  64.304   6.078  1.00  0.00    -0.550 OA
ATOM      4  O   UNL     1      24.209  63.993   8.244  1.00  0.00    -0.550 OA
ENDROOT
TORSDOF 0
ENDMDL
MODEL 8
REMARK VINA RESULT:    -2.094     12.083     12.308
REMARK INTER + INTRA:          -2.094
REMARK INTER:                  -2.094
REMARK INTRA:                   0.000
REMARK UNBOUND:                 0.000
REMARK SMILES CC(=O)[O-]
REMARK SMILES IDX 1 1 2 2 3 3 4 4
REMARK H PARENT
REMARK Flexibility Score: inf
ROOT
ATOM      1  C   UNL     1      19.498  53.863  13.637  1.00  0.00     0.063 C 
ATOM      2  C   UNL     1      20.080  54.668  14.748  1.00  0.00     0.038 C 
ATOM      3  O   UNL     1      19.517  55.730  15.122  1.00  0.00    -0.550 OA
ATOM      4  O   UNL     1      21.215  54.220  15.412  1.00  0.00    -0.550 OA
ENDROOT
TORSDOF 0
ENDMDL
MODEL 9
REMARK VINA RESULT:    -2.066     11.713     11.997
REMARK INTER + INTRA:          -2.066
REMARK INTER:                  -2.066
REMARK INTRA:                   0.000
REMARK UNBOUND:                 0.000
REMARK SMILES CC(=O)[O-]
REMARK SMILES IDX 1 1 2 2 3 3 4 4
REMARK H PARENT
REMARK Flexibility Score: inf
ROOT
ATOM      1  C   UNL     1      19.498  53.877  13.795  1.00  0.00     0.063 C 
ATOM      2  C   UNL     1      18.606  55.070  13.843  1.00  0.00     0.038 C 
ATOM      3  O   UNL     1      18.747  55.929  14.753  1.00  0.00    -0.550 OA
ATOM      4  O   UNL     1      17.651  55.265  12.854  1.00  0.00    -0.550 OA
ENDROOT
TORSDOF 0
ENDMDL
