MODEL 1
REMARK VINA RESULT:    -3.452      0.000      0.000
REMARK INTER + INTRA:          -5.261
REMARK INTER:                  -4.865
REMARK INTRA:                  -0.396
REMARK UNBOUND:                -0.396
REMARK SMILES CC1=CCC(=C(C)C)CCC(C)=CCC1
REMARK SMILES IDX 5 1 6 2 7 3 8 4 9 5 10 6 11 7 12 8 13 9 4 11 3 12 2 13 1 14
REMARK SMILES IDX 15 15 14 16
REMARK H PARENT
REMARK Flexibility Score: 60.00
ROOT
ATOM      1  C   UNL     1      10.486  19.243  24.155  1.00  0.00    -0.067 C 
ATOM      2  C   UNL     1       9.213  19.393  23.666  1.00  0.00    -0.077 C 
ATOM      3  C   UNL     1       8.898  19.179  22.201  1.00  0.00     0.039 C 
ATOM      4  C   UNL     1       8.067  19.797  24.568  1.00  0.00     0.039 C 
ENDROOT
BRANCH   1   5
ATOM      5  C   UNL     1      10.784  19.299  25.654  1.00  0.00     0.035 C 
BRANCH   5   6
ATOM      6  C   UNL     1      11.588  20.539  26.087  1.00  0.00     0.035 C 
BRANCH   6   7
ATOM      7  C   UNL     1      12.889  20.163  26.772  1.00  0.00    -0.077 C 
ATOM      8  C   UNL     1      12.822  19.553  28.151  1.00  0.00     0.039 C 
ATOM      9  C   UNL     1      14.106  20.305  26.200  1.00  0.00    -0.028 CG0
ATOM     10  G   UNL     1      14.388  21.024  24.905  1.00  0.00     0.000 G0
ENDBRANCH   6   7
ENDBRANCH   5   6
ENDBRANCH   1   5
BRANCH   1  11
ATOM     11  C   UNL     1      11.652  18.861  23.252  1.00  0.00     0.058 C 
BRANCH  11  12
ATOM     12  C   UNL     1      12.325  19.961  22.450  1.00  0.00    -0.024 C 
ATOM     13  C   UNL     1      13.589  20.448  22.556  1.00  0.00    -0.077 C 
ATOM     14  C   UNL     1      14.040  21.440  21.511  1.00  0.00     0.039 C 
BRANCH  13  15
ATOM     15  C   UNL     1      14.554  20.125  23.681  1.00  0.00     0.034 C 
BRANCH  15  16
ATOM     16  C   UNL     1      14.404  21.033  24.907  1.00  0.00     0.032 CG0
ATOM     17  G   UNL     1      14.114  20.313  26.200  1.00  0.00     0.000 G0
ENDBRANCH  15  16
ENDBRANCH  13  15
ENDBRANCH  11  12
ENDBRANCH   1  11
TORSDOF 0
ENDMDL
MODEL 2
REMARK VINA RESULT:    -3.398     11.109     13.803
REMARK INTER + INTRA:          -5.184
REMARK INTER:                  -5.049
REMARK INTRA:                  -0.135
REMARK UNBOUND:                -0.396
REMARK SMILES CC1=CCC(=C(C)C)CCC(C)=CCC1
REMARK SMILES IDX 5 1 6 2 7 3 8 4 9 5 10 6 11 7 12 8 13 9 4 11 3 12 2 13 1 14
REMARK SMILES IDX 15 15 14 16
REMARK H PARENT
REMARK Flexibility Score: 60.00
ROOT
ATOM      1  C   UNL     1      14.140  15.218  37.105  1.00  0.00    -0.067 C 
ATOM      2  C   UNL     1      15.090  14.325  36.679  1.00  0.00    -0.077 C 
ATOM      3  C   UNL     1      16.535  14.737  36.489  1.00  0.00     0.039 C 
ATOM      4  C   UNL     1      14.734  12.888  36.364  1.00  0.00     0.039 C 
ENDROOT
BRANCH   1   5
ATOM      5  C   UNL     1      12.719  14.775  37.455  1.00  0.00     0.035 C 
BRANCH   5   6
ATOM      6  C   UNL     1      12.199  15.334  38.792  1.00  0.00     0.035 C 
BRANCH   6   7
ATOM      7  C   UNL     1      10.821  15.955  38.653  1.00  0.00    -0.077 C 
ATOM      8  C   UNL     1       9.617  15.115  39.002  1.00  0.00     0.039 C 
ATOM      9  C   UNL     1      10.611  17.236  38.272  1.00  0.00    -0.028 CG0
ATOM     10  G   UNL     1      11.663  18.179  37.744  1.00  0.00     0.000 G0
ENDBRANCH   6   7
ENDBRANCH   5   6
ENDBRANCH   1   5
BRANCH   1  11
ATOM     11  C   UNL     1      14.482  16.673  37.402  1.00  0.00     0.058 C 
BRANCH  11  12
ATOM     12  C   UNL     1      14.405  17.672  36.261  1.00  0.00    -0.024 C 
ATOM     13  C   UNL     1      13.331  18.365  35.799  1.00  0.00    -0.077 C 
ATOM     14  C   UNL     1      13.585  19.417  34.748  1.00  0.00     0.039 C 
BRANCH  13  15
ATOM     15  C   UNL     1      11.893  18.114  36.210  1.00  0.00     0.034 C 
BRANCH  15  16
ATOM     16  C   UNL     1      11.653  18.204  37.722  1.00  0.00     0.032 CG0
ATOM     17  G   UNL     1      10.621  17.246  38.260  1.00  0.00     0.000 G0
ENDBRANCH  15  16
ENDBRANCH  13  15
ENDBRANCH  11  12
ENDBRANCH   1  11
TORSDOF 0
ENDMDL
MODEL 3
REMARK VINA RESULT:    -3.357      0.973      3.605
REMARK INTER + INTRA:          -5.127
REMARK INTER:                  -4.765
REMARK INTRA:                  -0.362
REMARK UNBOUND:                -0.396
REMARK SMILES CC1=CCC(=C(C)C)CCC(C)=CCC1
REMARK SMILES IDX 5 1 6 2 7 3 8 4 9 5 10 6 11 7 12 8 13 9 4 11 3 12 2 13 1 14
REMARK SMILES IDX 15 15 14 16
REMARK H PARENT
REMARK Flexibility Score: 60.00
ROOT
ATOM      1  C   UNL     1       9.637  19.854  23.918  1.00  0.00    -0.067 C 
ATOM      2  C   UNL     1       8.416  19.252  23.752  1.00  0.00    -0.077 C 
ATOM      3  C   UNL     1       7.344  19.328  24.819  1.00  0.00     0.039 C 
ATOM      4  C   UNL     1       8.090  18.469  22.499  1.00  0.00     0.039 C 
ENDROOT
BRANCH   1   5
ATOM      5  C   UNL     1      10.663  19.921  22.786  1.00  0.00     0.035 C 
BRANCH   5   6
ATOM      6  C   UNL     1      12.021  19.283  23.133  1.00  0.00     0.035 C 
BRANCH   6   7
ATOM      7  C   UNL     1      13.172  20.253  22.939  1.00  0.00    -0.077 C 
ATOM      8  C   UNL     1      13.451  20.765  21.547  1.00  0.00     0.039 C 
ATOM      9  C   UNL     1      13.937  20.721  23.951  1.00  0.00    -0.028 CG0
ATOM     10  G   UNL     1      13.911  20.221  25.374  1.00  0.00     0.000 G0
ENDBRANCH   6   7
ENDBRANCH   5   6
ENDBRANCH   1   5
BRANCH   1  11
ATOM     11  C   UNL     1       9.986  20.624  25.187  1.00  0.00     0.058 C 
BRANCH  11  12
ATOM     12  C   UNL     1      10.639  19.863  26.327  1.00  0.00    -0.024 C 
ATOM     13  C   UNL     1      11.863  20.044  26.888  1.00  0.00    -0.077 C 
ATOM     14  C   UNL     1      12.186  19.240  28.124  1.00  0.00     0.039 C 
BRANCH  13  15
ATOM     15  C   UNL     1      12.952  20.939  26.327  1.00  0.00     0.034 C 
BRANCH  15  16
ATOM     16  C   UNL     1      13.922  20.218  25.383  1.00  0.00     0.032 CG0
ATOM     17  G   UNL     1      13.919  20.726  23.962  1.00  0.00     0.000 G0
ENDBRANCH  15  16
ENDBRANCH  13  15
ENDBRANCH  11  12
ENDBRANCH   1  11
TORSDOF 0
ENDMDL
MODEL 4
REMARK VINA RESULT:    -3.267      1.403      3.811
REMARK INTER + INTRA:          -5.001
REMARK INTER:                  -4.730
REMARK INTRA:                  -0.271
REMARK UNBOUND:                -0.396
REMARK SMILES CC1=CCC(=C(C)C)CCC(C)=CCC1
REMARK SMILES IDX 5 1 6 2 7 3 8 4 9 5 10 6 11 7 12 8 13 9 4 11 3 12 2 13 1 14
REMARK SMILES IDX 15 15 14 16
REMARK H PARENT
REMARK Flexibility Score: 60.00
ROOT
ATOM      1  C   UNL     1      10.596  19.256  25.532  1.00  0.00    -0.067 C 
ATOM      2  C   UNL     1       9.263  19.558  25.422  1.00  0.00    -0.077 C 
ATOM      3  C   UNL     1       8.307  19.350  26.578  1.00  0.00     0.039 C 
ATOM      4  C   UNL     1       8.683  20.100  24.134  1.00  0.00     0.039 C 
ENDROOT
BRANCH   1   5
ATOM      5  C   UNL     1      11.596  19.612  24.430  1.00  0.00     0.035 C 
BRANCH   5   6
ATOM      6  C   UNL     1      12.493  20.818  24.765  1.00  0.00     0.035 C 
BRANCH   6   7
ATOM      7  C   UNL     1      13.962  20.438  24.813  1.00  0.00    -0.077 C 
ATOM      8  C   UNL     1      14.581  19.813  23.587  1.00  0.00     0.039 C 
ATOM      9  C   UNL     1      14.762  20.667  25.879  1.00  0.00    -0.028 CG0
ATOM     10  G   UNL     1      14.302  21.140  27.236  1.00  0.00     0.000 G0
ENDBRANCH   6   7
ENDBRANCH   5   6
ENDBRANCH   1   5
BRANCH   1  11
ATOM     11  C   UNL     1      11.187  18.687  26.817  1.00  0.00     0.058 C 
BRANCH  11  12
ATOM     12  C   UNL     1      11.241  19.587  28.038  1.00  0.00    -0.024 C 
ATOM     13  C   UNL     1      12.303  20.243  28.574  1.00  0.00    -0.077 C 
ATOM     14  C   UNL     1      12.027  21.202  29.706  1.00  0.00     0.039 C 
BRANCH  13  15
ATOM     15  C   UNL     1      13.750  20.031  28.168  1.00  0.00     0.034 C 
BRANCH  15  16
ATOM     16  C   UNL     1      14.305  21.130  27.254  1.00  0.00     0.032 CG0
ATOM     17  G   UNL     1      14.745  20.659  25.890  1.00  0.00     0.000 G0
ENDBRANCH  15  16
ENDBRANCH  13  15
ENDBRANCH  11  12
ENDBRANCH   1  11
TORSDOF 0
ENDMDL
MODEL 5
REMARK VINA RESULT:    -3.216      2.679      5.700
REMARK INTER + INTRA:          -4.929
REMARK INTER:                  -4.621
REMARK INTRA:                  -0.308
REMARK UNBOUND:                -0.396
REMARK SMILES CC1=CCC(=C(C)C)CCC(C)=CCC1
REMARK SMILES IDX 5 1 6 2 7 3 8 4 9 5 10 6 11 7 12 8 13 9 4 11 3 12 2 13 1 14
REMARK SMILES IDX 15 15 14 16
REMARK H PARENT
REMARK Flexibility Score: 60.00
ROOT
ATOM      1  C   UNL     1      11.574  19.472  24.195  1.00  0.00    -0.067 C 
ATOM      2  C   UNL     1      12.749  20.043  23.780  1.00  0.00    -0.077 C 
ATOM      3  C   UNL     1      13.824  20.449  24.766  1.00  0.00     0.039 C 
ATOM      4  C   UNL     1      13.020  20.309  22.315  1.00  0.00     0.039 C 
ENDROOT
BRANCH   1   5
ATOM      5  C   UNL     1      10.555  18.913  23.202  1.00  0.00     0.035 C 
BRANCH   5   6
ATOM      6  C   UNL     1       9.337  19.826  22.973  1.00  0.00     0.035 C 
BRANCH   6   7
ATOM      7  C   UNL     1       8.040  19.165  23.402  1.00  0.00    -0.077 C 
ATOM      8  C   UNL     1       7.438  18.114  22.501  1.00  0.00     0.039 C 
ATOM      9  C   UNL     1       7.413  19.432  24.571  1.00  0.00    -0.028 CG0
ATOM     10  G   UNL     1       7.773  20.543  25.525  1.00  0.00     0.000 G0
ENDBRANCH   6   7
ENDBRANCH   5   6
ENDBRANCH   1   5
BRANCH   1  11
ATOM     11  C   UNL     1      11.281  19.222  25.670  1.00  0.00     0.058 C 
BRANCH  11  12
ATOM     12  C   UNL     1      10.941  20.417  26.543  1.00  0.00    -0.024 C 
ATOM     13  C   UNL     1       9.758  20.746  27.125  1.00  0.00    -0.077 C 
ATOM     14  C   UNL     1       9.755  21.915  28.078  1.00  0.00     0.039 C 
BRANCH  13  15
ATOM     15  C   UNL     1       8.430  20.072  26.834  1.00  0.00     0.034 C 
BRANCH  15  16
ATOM     16  C   UNL     1       7.768  20.540  25.533  1.00  0.00     0.032 CG0
ATOM     17  G   UNL     1       7.405  19.435  24.572  1.00  0.00     0.000 G0
ENDBRANCH  15  16
ENDBRANCH  13  15
ENDBRANCH  11  12
ENDBRANCH   1  11
TORSDOF 0
ENDMDL
MODEL 6
REMARK VINA RESULT:    -3.165     12.561     14.340
REMARK INTER + INTRA:          -4.856
REMARK INTER:                  -4.713
REMARK INTRA:                  -0.143
REMARK UNBOUND:                -0.396
REMARK SMILES CC1=CCC(=C(C)C)CCC(C)=CCC1
REMARK SMILES IDX 5 1 6 2 7 3 8 4 9 5 10 6 11 7 12 8 13 9 4 11 3 12 2 13 1 14
REMARK SMILES IDX 15 15 14 16
REMARK H PARENT
REMARK Flexibility Score: 60.00
ROOT
ATOM      1  C   UNL     1      14.649  15.340  36.705  1.00  0.00    -0.067 C 
ATOM      2  C   UNL     1      15.629  14.393  36.551  1.00  0.00    -0.077 C 
ATOM      3  C   UNL     1      15.291  12.944  36.265  1.00  0.00     0.039 C 
ATOM      4  C   UNL     1      17.094  14.749  36.675  1.00  0.00     0.039 C 
ENDROOT
BRANCH   1   5
ATOM      5  C   UNL     1      14.981  16.827  36.833  1.00  0.00     0.035 C 
BRANCH   5   6
ATOM      6  C   UNL     1      13.908  17.761  36.243  1.00  0.00     0.035 C 
BRANCH   6   7
ATOM      7  C   UNL     1      13.720  19.013  37.080  1.00  0.00    -0.077 C 
ATOM      8  C   UNL     1      14.241  20.322  36.539  1.00  0.00     0.039 C 
ATOM      9  C   UNL     1      13.073  19.031  38.267  1.00  0.00    -0.028 CG0
ATOM     10  G   UNL     1      12.616  17.817  39.036  1.00  0.00     0.000 G0
ENDBRANCH   6   7
ENDBRANCH   5   6
ENDBRANCH   1   5
BRANCH   1  11
ATOM     11  C   UNL     1      13.169  14.987  36.607  1.00  0.00     0.058 C 
BRANCH  11  12
ATOM     12  C   UNL     1      12.420  14.686  37.893  1.00  0.00    -0.024 C 
ATOM     13  C   UNL     1      11.622  15.501  38.631  1.00  0.00    -0.077 C 
ATOM     14  C   UNL     1      10.873  14.880  39.784  1.00  0.00     0.039 C 
BRANCH  13  15
ATOM     15  C   UNL     1      11.483  16.998  38.427  1.00  0.00     0.034 C 
BRANCH  15  16
ATOM     16  C   UNL     1      12.610  17.819  39.066  1.00  0.00     0.032 CG0
ATOM     17  G   UNL     1      13.061  19.013  38.262  1.00  0.00     0.000 G0
ENDBRANCH  15  16
ENDBRANCH  13  15
ENDBRANCH  11  12
ENDBRANCH   1  11
TORSDOF 0
ENDMDL
MODEL 7
REMARK VINA RESULT:    -3.125      2.558      4.887
REMARK INTER + INTRA:          -4.801
REMARK INTER:                  -4.822
REMARK INTRA:                   0.021
REMARK UNBOUND:                -0.396
REMARK SMILES CC1=CCC(=C(C)C)CCC(C)=CCC1
REMARK SMILES IDX 5 1 6 2 7 3 8 4 9 5 10 6 11 7 12 8 13 9 4 11 3 12 2 13 1 14
REMARK SMILES IDX 15 15 14 16
REMARK H PARENT
REMARK Flexibility Score: 60.00
ROOT
ATOM      1  C   UNL     1       8.656  19.919  26.561  1.00  0.00    -0.067 C 
ATOM      2  C   UNL     1       8.608  21.151  27.162  1.00  0.00    -0.077 C 
ATOM      3  C   UNL     1       9.777  21.687  27.963  1.00  0.00     0.039 C 
ATOM      4  C   UNL     1       7.378  22.026  27.065  1.00  0.00     0.039 C 
ENDROOT
BRANCH   1   5
ATOM      5  C   UNL     1       7.550  19.439  25.620  1.00  0.00     0.035 C 
BRANCH   5   6
ATOM      6  C   UNL     1       7.611  20.062  24.213  1.00  0.00     0.035 C 
BRANCH   6   7
ATOM      7  C   UNL     1       7.908  19.025  23.144  1.00  0.00    -0.077 C 
ATOM      8  C   UNL     1       6.797  18.100  22.714  1.00  0.00     0.039 C 
ATOM      9  C   UNL     1       9.104  18.911  22.522  1.00  0.00    -0.028 CG0
ATOM     10  G   UNL     1      10.368  19.635  22.912  1.00  0.00     0.000 G0
ENDBRANCH   6   7
ENDBRANCH   5   6
ENDBRANCH   1   5
BRANCH   1  11
ATOM     11  C   UNL     1       9.881  19.019  26.673  1.00  0.00     0.058 C 
BRANCH  11  12
ATOM     12  C   UNL     1      11.227  19.589  26.262  1.00  0.00    -0.024 C 
ATOM     13  C   UNL     1      11.814  19.602  25.037  1.00  0.00    -0.077 C 
ATOM     14  C   UNL     1      13.094  20.387  24.890  1.00  0.00     0.039 C 
BRANCH  13  15
ATOM     15  C   UNL     1      11.319  18.832  23.827  1.00  0.00     0.034 C 
BRANCH  15  16
ATOM     16  C   UNL     1      10.376  19.634  22.923  1.00  0.00     0.032 CG0
ATOM     17  G   UNL     1       9.105  18.919  22.538  1.00  0.00     0.000 G0
ENDBRANCH  15  16
ENDBRANCH  13  15
ENDBRANCH  11  12
ENDBRANCH   1  11
TORSDOF 0
ENDMDL
MODEL 8
REMARK VINA RESULT:    -3.124      2.798      4.998
REMARK INTER + INTRA:          -4.798
REMARK INTER:                  -4.568
REMARK INTRA:                  -0.231
REMARK UNBOUND:                -0.396
REMARK SMILES CC1=CCC(=C(C)C)CCC(C)=CCC1
REMARK SMILES IDX 5 1 6 2 7 3 8 4 9 5 10 6 11 7 12 8 13 9 4 11 3 12 2 13 1 14
REMARK SMILES IDX 15 15 14 16
REMARK H PARENT
REMARK Flexibility Score: 60.00
ROOT
ATOM      1  C   UNL     1      11.589  19.453  26.603  1.00  0.00    -0.067 C 
ATOM      2  C   UNL     1      12.790  19.865  27.123  1.00  0.00    -0.077 C 
ATOM      3  C   UNL     1      14.006  20.066  26.243  1.00  0.00     0.039 C 
ATOM      4  C   UNL     1      12.958  20.123  28.604  1.00  0.00     0.039 C 
ENDROOT
BRANCH   1   5
ATOM      5  C   UNL     1      10.319  19.404  27.453  1.00  0.00     0.035 C 
BRANCH   5   6
ATOM      6  C   UNL     1       9.192  20.325  26.950  1.00  0.00     0.035 C 
BRANCH   6   7
ATOM      7  C   UNL     1       7.994  19.539  26.450  1.00  0.00    -0.077 C 
ATOM      8  C   UNL     1       7.422  18.462  27.339  1.00  0.00     0.039 C 
ATOM      9  C   UNL     1       7.380  19.777  25.268  1.00  0.00    -0.028 CG0
ATOM     10  G   UNL     1       7.886  20.700  24.187  1.00  0.00     0.000 G0
ENDBRANCH   6   7
ENDBRANCH   5   6
ENDBRANCH   1   5
BRANCH   1  11
ATOM     11  C   UNL     1      11.415  19.166  25.116  1.00  0.00     0.058 C 
BRANCH  11  12
ATOM     12  C   UNL     1      11.369  20.346  24.161  1.00  0.00    -0.024 C 
ATOM     13  C   UNL     1      10.320  20.831  23.447  1.00  0.00    -0.077 C 
ATOM     14  C   UNL     1      10.530  22.124  22.698  1.00  0.00     0.039 C 
BRANCH  13  15
ATOM     15  C   UNL     1       8.982  20.135  23.288  1.00  0.00     0.034 C 
BRANCH  15  16
ATOM     16  C   UNL     1       7.875  20.706  24.183  1.00  0.00     0.032 CG0
ATOM     17  G   UNL     1       7.393  19.776  25.269  1.00  0.00     0.000 G0
ENDBRANCH  15  16
ENDBRANCH  13  15
ENDBRANCH  11  12
ENDBRANCH   1  11
TORSDOF 0
ENDMDL
MODEL 9
REMARK VINA RESULT:    -3.108     13.238     14.316
REMARK INTER + INTRA:          -4.776
REMARK INTER:                  -4.547
REMARK INTRA:                  -0.229
REMARK UNBOUND:                -0.396
REMARK SMILES CC1=CCC(=C(C)C)CCC(C)=CCC1
REMARK SMILES IDX 5 1 6 2 7 3 8 4 9 5 10 6 11 7 12 8 13 9 4 11 3 12 2 13 1 14
REMARK SMILES IDX 15 15 14 16
REMARK H PARENT
REMARK Flexibility Score: 60.00
ROOT
ATOM      1  C   UNL     1      13.876  15.562  36.745  1.00  0.00    -0.067 C 
ATOM      2  C   UNL     1      13.787  14.195  36.825  1.00  0.00    -0.077 C 
ATOM      3  C   UNL     1      14.988  13.308  36.569  1.00  0.00     0.039 C 
ATOM      4  C   UNL     1      12.480  13.510  37.157  1.00  0.00     0.039 C 
ENDROOT
BRANCH   1   5
ATOM      5  C   UNL     1      12.716  16.469  37.158  1.00  0.00     0.035 C 
BRANCH   5   6
ATOM      6  C   UNL     1      12.898  17.130  38.536  1.00  0.00     0.035 C 
BRANCH   6   7
ATOM      7  C   UNL     1      12.981  18.643  38.435  1.00  0.00    -0.077 C 
ATOM      8  C   UNL     1      11.813  19.387  37.836  1.00  0.00     0.039 C 
ATOM      9  C   UNL     1      14.028  19.368  38.891  1.00  0.00    -0.028 CG0
ATOM     10  G   UNL     1      15.339  18.805  39.381  1.00  0.00     0.000 G0
ENDBRANCH   6   7
ENDBRANCH   5   6
ENDBRANCH   1   5
BRANCH   1  11
ATOM     11  C   UNL     1      15.182  16.262  36.387  1.00  0.00     0.058 C 
BRANCH  11  12
ATOM     12  C   UNL     1      16.343  16.147  37.358  1.00  0.00    -0.024 C 
ATOM     13  C   UNL     1      16.809  17.060  38.250  1.00  0.00    -0.077 C 
ATOM     14  C   UNL     1      17.886  16.608  39.206  1.00  0.00     0.039 C 
BRANCH  13  15
ATOM     15  C   UNL     1      16.379  18.513  38.311  1.00  0.00     0.034 C 
BRANCH  15  16
ATOM     16  C   UNL     1      15.329  18.806  39.389  1.00  0.00     0.032 CG0
ATOM     17  G   UNL     1      14.021  19.349  38.872  1.00  0.00     0.000 G0
ENDBRANCH  15  16
ENDBRANCH  13  15
ENDBRANCH  11  12
ENDBRANCH   1  11
TORSDOF 0
ENDMDL
