MODEL 1
REMARK VINA RESULT:    -3.038      0.000      0.000
REMARK INTER + INTRA:          -3.038
REMARK INTER:                  -3.038
REMARK INTRA:                   0.000
REMARK UNBOUND:                 0.000
REMARK SMILES CC1(C)O[C@]2(C)CC[C@H]1CC2
REMARK SMILES IDX 1 1 2 2 9 3 8 4 7 5 5 6 4 7 11 8 10 9 6 10 3 11
REMARK H PARENT
REMARK Flexibility Score: inf
ROOT
ATOM      1  C   UNL     1     157.455 151.050 137.621  1.00  0.00     0.042 C 
ATOM      2  C   UNL     1     157.278 152.091 138.749  1.00  0.00     0.066 C 
ATOM      3  C   UNL     1     156.746 153.458 138.168  1.00  0.00     0.021 C 
ATOM      4  C   UNL     1     157.811 154.025 137.200  1.00  0.00     0.009 C 
ATOM      5  C   UNL     1     159.184 154.057 137.914  1.00  0.00     0.035 C 
ATOM      6  C   UNL     1     159.019 153.595 139.391  1.00  0.00     0.066 C 
ATOM      7  O   UNL     1     158.542 152.249 139.411  1.00  0.00    -0.369 OA
ATOM      8  C   UNL     1     157.982 154.516 140.096  1.00  0.00     0.035 C 
ATOM      9  C   UNL     1     156.637 154.474 139.330  1.00  0.00     0.009 C 
ATOM     10  C   UNL     1     160.365 153.653 140.121  1.00  0.00     0.042 C 
ATOM     11  C   UNL     1     156.275 151.501 139.764  1.00  0.00     0.042 C 
ENDROOT
TORSDOF 0
ENDMDL
MODEL 2
REMARK VINA RESULT:    -3.034      9.668     11.174
REMARK INTER + INTRA:          -3.034
REMARK INTER:                  -3.034
REMARK INTRA:                   0.000
REMARK UNBOUND:                 0.000
REMARK SMILES CC1(C)O[C@]2(C)CC[C@H]1CC2
REMARK SMILES IDX 1 1 2 2 9 3 8 4 7 5 5 6 4 7 11 8 10 9 6 10 3 11
REMARK H PARENT
REMARK Flexibility Score: inf
ROOT
ATOM      1  C   UNL     1     150.261 157.543 137.643  1.00  0.00     0.042 C 
ATOM      2  C   UNL     1     149.213 157.347 138.761  1.00  0.00     0.066 C 
ATOM      3  C   UNL     1     147.855 156.811 138.163  1.00  0.00     0.021 C 
ATOM      4  C   UNL     1     147.287 157.881 137.201  1.00  0.00     0.009 C 
ATOM      5  C   UNL     1     147.240 159.247 137.929  1.00  0.00     0.035 C 
ATOM      6  C   UNL     1     147.691 159.071 139.408  1.00  0.00     0.066 C 
ATOM      7  O   UNL     1     149.041 158.603 139.434  1.00  0.00    -0.369 OA
ATOM      8  C   UNL     1     146.773 158.020 140.096  1.00  0.00     0.035 C 
ATOM      9  C   UNL     1     146.831 156.684 139.316  1.00  0.00     0.009 C 
ATOM     10  C   UNL     1     147.618 160.409 140.150  1.00  0.00     0.042 C 
ATOM     11  C   UNL     1     149.802 156.338 139.771  1.00  0.00     0.042 C 
ENDROOT
TORSDOF 0
ENDMDL
MODEL 3
REMARK VINA RESULT:    -3.013      9.642     11.067
REMARK INTER + INTRA:          -3.013
REMARK INTER:                  -3.013
REMARK INTRA:                   0.000
REMARK UNBOUND:                 0.000
REMARK SMILES CC1(C)O[C@]2(C)CC[C@H]1CC2
REMARK SMILES IDX 1 1 2 2 9 3 8 4 7 5 5 6 4 7 11 8 10 9 6 10 3 11
REMARK H PARENT
REMARK Flexibility Score: inf
ROOT
ATOM      1  C   UNL     1     151.213 144.252 137.651  1.00  0.00     0.042 C 
ATOM      2  C   UNL     1     152.270 144.269 138.778  1.00  0.00     0.066 C 
ATOM      3  C   UNL     1     153.700 144.594 138.195  1.00  0.00     0.021 C 
ATOM      4  C   UNL     1     154.102 143.459 137.224  1.00  0.00     0.009 C 
ATOM      5  C   UNL     1     153.929 142.095 137.935  1.00  0.00     0.035 C 
ATOM      6  C   UNL     1     153.499 142.322 139.413  1.00  0.00     0.066 C 
ATOM      7  O   UNL     1     152.239 142.995 139.436  1.00  0.00    -0.369 OA
ATOM      8  C   UNL     1     154.565 143.210 140.119  1.00  0.00     0.035 C 
ATOM      9  C   UNL     1     154.722 144.547 139.356  1.00  0.00     0.009 C 
ATOM     10  C   UNL     1     153.357 140.981 140.139  1.00  0.00     0.042 C 
ATOM     11  C   UNL     1     151.837 145.346 139.796  1.00  0.00     0.042 C 
ENDROOT
TORSDOF 0
ENDMDL
MODEL 4
REMARK VINA RESULT:    -3.010     13.706     15.733
REMARK INTER + INTRA:          -3.010
REMARK INTER:                  -3.010
REMARK INTRA:                   0.000
REMARK UNBOUND:                 0.000
REMARK SMILES CC1(C)O[C@]2(C)CC[C@H]1CC2
REMARK SMILES IDX 1 1 2 2 9 3 8 4 7 5 5 6 4 7 11 8 10 9 6 10 3 11
REMARK H PARENT
REMARK Flexibility Score: inf
ROOT
ATOM      1  C   UNL     1     144.270 150.025 137.576  1.00  0.00     0.042 C 
ATOM      2  C   UNL     1     144.256 148.991 138.723  1.00  0.00     0.066 C 
ATOM      3  C   UNL     1     144.540 147.541 138.170  1.00  0.00     0.021 C 
ATOM      4  C   UNL     1     143.395 147.152 137.204  1.00  0.00     0.009 C 
ATOM      5  C   UNL     1     142.035 147.378 137.909  1.00  0.00     0.035 C 
ATOM      6  C   UNL     1     142.273 147.830 139.379  1.00  0.00     0.066 C 
ATOM      7  O   UNL     1     142.982 149.071 139.379  1.00  0.00    -0.369 OA
ATOM      8  C   UNL     1     143.129 146.754 140.108  1.00  0.00     0.035 C 
ATOM      9  C   UNL     1     144.462 146.543 139.351  1.00  0.00     0.009 C 
ATOM     10  C   UNL     1     140.935 148.026 140.100  1.00  0.00     0.042 C 
ATOM     11  C   UNL     1     145.343 149.412 139.735  1.00  0.00     0.042 C 
ENDROOT
TORSDOF 0
ENDMDL
MODEL 5
REMARK VINA RESULT:    -2.922      1.253      2.492
REMARK INTER + INTRA:          -2.922
REMARK INTER:                  -2.922
REMARK INTRA:                   0.000
REMARK UNBOUND:                 0.000
REMARK SMILES CC1(C)O[C@]2(C)CC[C@H]1CC2
REMARK SMILES IDX 1 1 2 2 9 3 8 4 7 5 5 6 4 7 11 8 10 9 6 10 3 11
REMARK H PARENT
REMARK Flexibility Score: inf
ROOT
ATOM      1  C   UNL     1     156.253 152.805 139.747  1.00  0.00     0.042 C 
ATOM      2  C   UNL     1     157.381 153.550 138.999  1.00  0.00     0.066 C 
ATOM      3  C   UNL     1     157.972 152.652 137.844  1.00  0.00     0.021 C 
ATOM      4  C   UNL     1     158.612 151.396 138.480  1.00  0.00     0.009 C 
ATOM      5  C   UNL     1     159.591 151.833 139.596  1.00  0.00     0.035 C 
ATOM      6  C   UNL     1     159.675 153.386 139.645  1.00  0.00     0.066 C 
ATOM      7  O   UNL     1     158.385 153.915 139.957  1.00  0.00    -0.369 OA
ATOM      8  C   UNL     1     160.119 153.913 138.249  1.00  0.00     0.035 C 
ATOM      9  C   UNL     1     159.127 153.426 137.165  1.00  0.00     0.009 C 
ATOM     10  C   UNL     1     160.666 153.834 140.723  1.00  0.00     0.042 C 
ATOM     11  C   UNL     1     156.771 154.848 138.424  1.00  0.00     0.042 C 
ENDROOT
TORSDOF 0
ENDMDL
MODEL 6
REMARK VINA RESULT:    -2.902      9.966     11.372
REMARK INTER + INTRA:          -2.902
REMARK INTER:                  -2.902
REMARK INTRA:                   0.000
REMARK UNBOUND:                 0.000
REMARK SMILES CC1(C)O[C@]2(C)CC[C@H]1CC2
REMARK SMILES IDX 1 1 2 2 9 3 8 4 7 5 5 6 4 7 11 8 10 9 6 10 3 11
REMARK H PARENT
REMARK Flexibility Score: inf
ROOT
ATOM      1  C   UNL     1     148.563 156.170 139.837  1.00  0.00     0.042 C 
ATOM      2  C   UNL     1     147.809 157.272 139.059  1.00  0.00     0.066 C 
ATOM      3  C   UNL     1     148.705 157.842 137.892  1.00  0.00     0.021 C 
ATOM      4  C   UNL     1     149.953 158.510 138.515  1.00  0.00     0.009 C 
ATOM      5  C   UNL     1     149.504 159.513 139.605  1.00  0.00     0.035 C 
ATOM      6  C   UNL     1     147.950 159.583 139.648  1.00  0.00     0.066 C 
ATOM      7  O   UNL     1     147.432 158.296 139.991  1.00  0.00    -0.369 OA
ATOM      8  C   UNL     1     147.423 159.987 138.241  1.00  0.00     0.035 C 
ATOM      9  C   UNL     1     147.922 158.973 137.183  1.00  0.00     0.009 C 
ATOM     10  C   UNL     1     147.491 160.596 140.701  1.00  0.00     0.042 C 
ATOM     11  C   UNL     1     146.519 156.636 138.497  1.00  0.00     0.042 C 
ENDROOT
TORSDOF 0
ENDMDL
MODEL 7
REMARK VINA RESULT:    -2.885      9.649     11.227
REMARK INTER + INTRA:          -2.885
REMARK INTER:                  -2.885
REMARK INTRA:                   0.000
REMARK UNBOUND:                 0.000
REMARK SMILES CC1(C)O[C@]2(C)CC[C@H]1CC2
REMARK SMILES IDX 1 1 2 2 9 3 8 4 7 5 5 6 4 7 11 8 10 9 6 10 3 11
REMARK H PARENT
REMARK Flexibility Score: inf
ROOT
ATOM      1  C   UNL     1     149.312 155.420 139.080  1.00  0.00     0.042 C 
ATOM      2  C   UNL     1     148.960 156.922 139.000  1.00  0.00     0.066 C 
ATOM      3  C   UNL     1     147.630 157.226 139.792  1.00  0.00     0.021 C 
ATOM      4  C   UNL     1     146.471 156.459 139.114  1.00  0.00     0.009 C 
ATOM      5  C   UNL     1     146.469 156.774 137.598  1.00  0.00     0.035 C 
ATOM      6  C   UNL     1     147.572 157.825 137.278  1.00  0.00     0.066 C 
ATOM      7  O   UNL     1     148.849 157.280 137.615  1.00  0.00    -0.369 OA
ATOM      8  C   UNL     1     147.319 159.100 138.133  1.00  0.00     0.035 C 
ATOM      9  C   UNL     1     147.300 158.729 139.635  1.00  0.00     0.009 C 
ATOM     10  C   UNL     1     147.561 158.172 135.786  1.00  0.00     0.042 C 
ATOM     11  C   UNL     1     150.147 157.705 139.604  1.00  0.00     0.042 C 
ENDROOT
TORSDOF 0
ENDMDL
MODEL 8
REMARK VINA RESULT:    -2.882      1.120      2.874
REMARK INTER + INTRA:          -2.882
REMARK INTER:                  -2.882
REMARK INTRA:                   0.000
REMARK UNBOUND:                 0.000
REMARK SMILES CC1(C)O[C@]2(C)CC[C@H]1CC2
REMARK SMILES IDX 1 1 2 2 9 3 8 4 7 5 5 6 4 7 11 8 10 9 6 10 3 11
REMARK H PARENT
REMARK Flexibility Score: inf
ROOT
ATOM      1  C   UNL     1     157.807 151.028 139.392  1.00  0.00     0.042 C 
ATOM      2  C   UNL     1     157.843 152.065 138.247  1.00  0.00     0.066 C 
ATOM      3  C   UNL     1     159.146 152.950 138.338  1.00  0.00     0.021 C 
ATOM      4  C   UNL     1     159.105 153.748 139.663  1.00  0.00     0.009 C 
ATOM      5  C   UNL     1     157.748 154.487 139.770  1.00  0.00     0.035 C 
ATOM      6  C   UNL     1     156.919 154.256 138.473  1.00  0.00     0.066 C 
ATOM      7  O   UNL     1     156.651 152.860 138.330  1.00  0.00    -0.369 OA
ATOM      8  C   UNL     1     157.747 154.745 137.250  1.00  0.00     0.035 C 
ATOM      9  C   UNL     1     159.103 154.000 137.203  1.00  0.00     0.009 C 
ATOM     10  C   UNL     1     155.588 155.010 138.551  1.00  0.00     0.042 C 
ATOM     11  C   UNL     1     157.806 151.282 136.917  1.00  0.00     0.042 C 
ENDROOT
TORSDOF 0
ENDMDL
MODEL 9
REMARK VINA RESULT:    -2.846      9.361     11.070
REMARK INTER + INTRA:          -2.846
REMARK INTER:                  -2.846
REMARK INTRA:                   0.000
REMARK UNBOUND:                 0.000
REMARK SMILES CC1(C)O[C@]2(C)CC[C@H]1CC2
REMARK SMILES IDX 1 1 2 2 9 3 8 4 7 5 5 6 4 7 11 8 10 9 6 10 3 11
REMARK H PARENT
REMARK Flexibility Score: inf
ROOT
ATOM      1  C   UNL     1     154.428 142.369 140.453  1.00  0.00     0.042 C 
ATOM      2  C   UNL     1     153.680 142.584 139.119  1.00  0.00     0.066 C 
ATOM      3  C   UNL     1     154.401 143.684 138.247  1.00  0.00     0.021 C 
ATOM      4  C   UNL     1     154.348 145.028 139.010  1.00  0.00     0.009 C 
ATOM      5  C   UNL     1     152.886 145.317 139.430  1.00  0.00     0.035 C 
ATOM      6  C   UNL     1     151.947 144.210 138.867  1.00  0.00     0.066 C 
ATOM      7  O   UNL     1     152.325 142.949 139.422  1.00  0.00    -0.369 OA
ATOM      8  C   UNL     1     152.103 144.155 137.320  1.00  0.00     0.035 C 
ATOM      9  C   UNL     1     153.583 143.893 136.950  1.00  0.00     0.009 C 
ATOM     10  C   UNL     1     150.492 144.501 139.247  1.00  0.00     0.042 C 
ATOM     11  C   UNL     1     153.658 141.228 138.381  1.00  0.00     0.042 C 
ENDROOT
TORSDOF 0
ENDMDL
