MODEL 1
REMARK VINA RESULT:    -5.403      0.000      0.000
REMARK INTER + INTRA:          -5.976
REMARK INTER:                  -5.876
REMARK INTRA:                  -0.100
REMARK UNBOUND:                -0.100
REMARK SMILES C=C(C)[C@H]1CC[C@@H](C)[C@@H](O)C1
REMARK SMILES IDX 8 1 7 2 6 3 5 4 4 5 11 6 9 7 10 8 2 10 1 11 3 12
REMARK H PARENT 10 9
REMARK Flexibility Score: inf
ROOT
ATOM      1  C   UNL     1      -0.264  44.822  51.033  1.00  0.00     0.010 C 
ATOM      2  C   UNL     1       0.879  44.095  50.301  1.00  0.00     0.015 C 
ATOM      3  C   UNL     1       2.250  44.730  50.622  1.00  0.00     0.006 C 
ATOM      4  C   UNL     1       2.443  46.087  49.928  1.00  0.00     0.008 C 
ATOM      5  C   UNL     1       2.251  45.964  48.404  1.00  0.00     0.017 C 
ATOM      6  C   UNL     1       0.870  45.370  48.064  1.00  0.00     0.040 C 
ATOM      7  C   UNL     1       0.670  44.008  48.765  1.00  0.00     0.117 C 
ENDROOT
BRANCH   7   8
ATOM      8  O   UNL     1      -0.576  43.440  48.445  1.00  0.00    -0.393 OA
ATOM      9  H   UNL     1      -0.415  42.547  48.041  1.00  0.00     0.210 HD
ENDBRANCH   7   8
BRANCH   5  10
ATOM     10  C   UNL     1       2.456  47.306  47.715  1.00  0.00    -0.077 C 
ATOM     11  C   UNL     1       1.412  48.125  47.509  1.00  0.00     0.008 C 
ATOM     12  C   UNL     1       3.821  47.750  47.250  1.00  0.00     0.039 C 
ENDBRANCH   5  10
TORSDOF 2
ENDMDL
MODEL 2
REMARK VINA RESULT:    -4.728      2.076      4.488
REMARK INTER + INTRA:          -5.242
REMARK INTER:                  -5.148
REMARK INTRA:                  -0.094
REMARK UNBOUND:                -0.100
REMARK SMILES C=C(C)[C@H]1CC[C@@H](C)[C@@H](O)C1
REMARK SMILES IDX 8 1 7 2 6 3 5 4 4 5 11 6 9 7 10 8 2 10 1 11 3 12
REMARK H PARENT 10 9
REMARK Flexibility Score: inf
ROOT
ATOM      1  C   UNL     1       1.511  47.965  47.783  1.00  0.00     0.010 C 
ATOM      2  C   UNL     1       2.525  46.925  48.296  1.00  0.00     0.015 C 
ATOM      3  C   UNL     1       2.296  45.544  47.644  1.00  0.00     0.006 C 
ATOM      4  C   UNL     1       1.043  44.839  48.187  1.00  0.00     0.008 C 
ATOM      5  C   UNL     1       1.103  44.706  49.721  1.00  0.00     0.017 C 
ATOM      6  C   UNL     1       1.289  46.081  50.391  1.00  0.00     0.040 C 
ATOM      7  C   UNL     1       2.544  46.795  49.843  1.00  0.00     0.117 C 
ENDROOT
BRANCH   7   8
ATOM      8  O   UNL     1       2.743  48.042  50.463  1.00  0.00    -0.393 OA
ATOM      9  H   UNL     1       2.644  47.921  51.443  1.00  0.00     0.210 HD
ENDBRANCH   7   8
BRANCH   5  10
ATOM     10  C   UNL     1      -0.132  43.996  50.259  1.00  0.00    -0.077 C 
ATOM     11  C   UNL     1      -1.125  43.646  49.425  1.00  0.00     0.008 C 
ATOM     12  C   UNL     1      -0.275  43.669  51.724  1.00  0.00     0.039 C 
ENDBRANCH   5  10
TORSDOF 2
ENDMDL
MODEL 3
REMARK VINA RESULT:    -4.361     23.865     24.732
REMARK INTER + INTRA:          -4.843
REMARK INTER:                  -4.743
REMARK INTRA:                  -0.101
REMARK UNBOUND:                -0.100
REMARK SMILES C=C(C)[C@H]1CC[C@@H](C)[C@@H](O)C1
REMARK SMILES IDX 8 1 7 2 6 3 5 4 4 5 11 6 9 7 10 8 2 10 1 11 3 12
REMARK H PARENT 10 9
REMARK Flexibility Score: inf
ROOT
ATOM      1  C   UNL     1      17.326  29.507  36.359  1.00  0.00     0.010 C 
ATOM      2  C   UNL     1      16.694  28.122  36.594  1.00  0.00     0.015 C 
ATOM      3  C   UNL     1      15.498  27.879  35.648  1.00  0.00     0.006 C 
ATOM      4  C   UNL     1      14.260  28.697  36.047  1.00  0.00     0.008 C 
ATOM      5  C   UNL     1      13.857  28.417  37.507  1.00  0.00     0.017 C 
ATOM      6  C   UNL     1      15.027  28.695  38.470  1.00  0.00     0.040 C 
ATOM      7  C   UNL     1      16.275  27.878  38.069  1.00  0.00     0.117 C 
ENDROOT
BRANCH   7   8
ATOM      8  O   UNL     1      17.346  28.101  38.952  1.00  0.00    -0.393 OA
ATOM      9  H   UNL     1      17.445  27.299  39.529  1.00  0.00     0.210 HD
ENDBRANCH   7   8
BRANCH   5  10
ATOM     10  C   UNL     1      12.622  29.218  37.899  1.00  0.00    -0.077 C 
ATOM     11  C   UNL     1      12.745  30.494  38.301  1.00  0.00     0.008 C 
ATOM     12  C   UNL     1      11.243  28.610  37.846  1.00  0.00     0.039 C 
ENDBRANCH   5  10
TORSDOF 2
ENDMDL
MODEL 4
REMARK VINA RESULT:    -4.303      1.896      4.248
REMARK INTER + INTRA:          -4.780
REMARK INTER:                  -4.686
REMARK INTRA:                  -0.094
REMARK UNBOUND:                -0.100
REMARK SMILES C=C(C)[C@H]1CC[C@@H](C)[C@@H](O)C1
REMARK SMILES IDX 8 1 7 2 6 3 5 4 4 5 11 6 9 7 10 8 2 10 1 11 3 12
REMARK H PARENT 10 9
REMARK Flexibility Score: inf
ROOT
ATOM      1  C   UNL     1       2.968  46.756  47.563  1.00  0.00     0.010 C 
ATOM      2  C   UNL     1       2.264  47.510  48.706  1.00  0.00     0.015 C 
ATOM      3  C   UNL     1       2.623  46.911  50.083  1.00  0.00     0.006 C 
ATOM      4  C   UNL     1       1.938  45.558  50.330  1.00  0.00     0.008 C 
ATOM      5  C   UNL     1       0.409  45.673  50.175  1.00  0.00     0.017 C 
ATOM      6  C   UNL     1       0.032  46.231  48.789  1.00  0.00     0.040 C 
ATOM      7  C   UNL     1       0.723  47.589  48.536  1.00  0.00     0.117 C 
ENDROOT
BRANCH   7   8
ATOM      8  O   UNL     1       0.370  48.125  47.285  1.00  0.00    -0.393 OA
ATOM      9  H   UNL     1       0.320  49.113  47.374  1.00  0.00     0.210 HD
ENDBRANCH   7   8
BRANCH   5  10
ATOM     10  C   UNL     1      -0.271  44.336  50.432  1.00  0.00    -0.077 C 
ATOM     11  C   UNL     1      -1.124  43.828  49.527  1.00  0.00     0.008 C 
ATOM     12  C   UNL     1      -0.010  43.551  51.693  1.00  0.00     0.039 C 
ENDBRANCH   5  10
TORSDOF 2
ENDMDL
MODEL 5
REMARK VINA RESULT:    -4.247      1.447      1.766
REMARK INTER + INTRA:          -4.719
REMARK INTER:                  -4.625
REMARK INTRA:                  -0.094
REMARK UNBOUND:                -0.100
REMARK SMILES C=C(C)[C@H]1CC[C@@H](C)[C@@H](O)C1
REMARK SMILES IDX 8 1 7 2 6 3 5 4 4 5 11 6 9 7 10 8 2 10 1 11 3 12
REMARK H PARENT 10 9
REMARK Flexibility Score: inf
ROOT
ATOM      1  C   UNL     1      -0.886  43.841  50.104  1.00  0.00     0.010 C 
ATOM      2  C   UNL     1       0.208  44.478  50.980  1.00  0.00     0.015 C 
ATOM      3  C   UNL     1      -0.034  45.991  51.176  1.00  0.00     0.006 C 
ATOM      4  C   UNL     1       0.272  46.802  49.908  1.00  0.00     0.008 C 
ATOM      5  C   UNL     1       1.712  46.547  49.421  1.00  0.00     0.017 C 
ATOM      6  C   UNL     1       1.959  45.046  49.180  1.00  0.00     0.040 C 
ATOM      7  C   UNL     1       1.646  44.226  50.451  1.00  0.00     0.117 C 
ENDROOT
BRANCH   7   8
ATOM      8  O   UNL     1       1.890  42.855  50.256  1.00  0.00    -0.393 OA
ATOM      9  H   UNL     1       1.646  42.626  49.321  1.00  0.00     0.210 HD
ENDBRANCH   7   8
BRANCH   5  10
ATOM     10  C   UNL     1       2.020  47.362  48.172  1.00  0.00    -0.077 C 
ATOM     11  C   UNL     1       1.048  48.064  47.567  1.00  0.00     0.008 C 
ATOM     12  C   UNL     1       3.409  47.404  47.585  1.00  0.00     0.039 C 
ENDBRANCH   5  10
TORSDOF 2
ENDMDL
MODEL 6
REMARK VINA RESULT:    -4.097      1.954      2.596
REMARK INTER + INTRA:          -4.556
REMARK INTER:                  -4.468
REMARK INTRA:                  -0.089
REMARK UNBOUND:                -0.100
REMARK SMILES C=C(C)[C@H]1CC[C@@H](C)[C@@H](O)C1
REMARK SMILES IDX 8 1 7 2 6 3 5 4 4 5 11 6 9 7 10 8 2 10 1 11 3 12
REMARK H PARENT 10 9
REMARK Flexibility Score: inf
ROOT
ATOM      1  C   UNL     1      -0.045  43.310  51.277  1.00  0.00     0.010 C 
ATOM      2  C   UNL     1      -0.952  44.195  50.402  1.00  0.00     0.015 C 
ATOM      3  C   UNL     1      -0.671  43.981  48.899  1.00  0.00     0.006 C 
ATOM      4  C   UNL     1       0.658  44.613  48.455  1.00  0.00     0.008 C 
ATOM      5  C   UNL     1       0.701  46.114  48.803  1.00  0.00     0.017 C 
ATOM      6  C   UNL     1       0.463  46.343  50.308  1.00  0.00     0.040 C 
ATOM      7  C   UNL     1      -0.868  45.704  50.758  1.00  0.00     0.117 C 
ENDROOT
BRANCH   7   8
ATOM      8  O   UNL     1      -1.113  45.925  52.125  1.00  0.00    -0.393 OA
ATOM      9  H   UNL     1      -1.605  46.783  52.217  1.00  0.00     0.210 HD
ENDBRANCH   7   8
BRANCH   5  10
ATOM     10  C   UNL     1       2.011  46.744  48.351  1.00  0.00    -0.077 C 
ATOM     11  C   UNL     1       2.646  46.276  47.264  1.00  0.00     0.008 C 
ATOM     12  C   UNL     1       2.628  47.898  49.102  1.00  0.00     0.039 C 
ENDBRANCH   5  10
TORSDOF 2
ENDMDL
MODEL 7
REMARK VINA RESULT:    -4.096      1.708      4.268
REMARK INTER + INTRA:          -4.555
REMARK INTER:                  -4.462
REMARK INTRA:                  -0.093
REMARK UNBOUND:                -0.100
REMARK SMILES C=C(C)[C@H]1CC[C@@H](C)[C@@H](O)C1
REMARK SMILES IDX 8 1 7 2 6 3 5 4 4 5 11 6 9 7 10 8 2 10 1 11 3 12
REMARK H PARENT 10 9
REMARK Flexibility Score: inf
ROOT
ATOM      1  C   UNL     1       3.375  47.496  48.468  1.00  0.00     0.010 C 
ATOM      2  C   UNL     1       1.984  47.257  47.852  1.00  0.00     0.015 C 
ATOM      3  C   UNL     1       0.874  47.939  48.681  1.00  0.00     0.006 C 
ATOM      4  C   UNL     1       0.598  47.208  50.004  1.00  0.00     0.008 C 
ATOM      5  C   UNL     1       0.253  45.726  49.758  1.00  0.00     0.017 C 
ATOM      6  C   UNL     1       1.370  45.019  48.967  1.00  0.00     0.040 C 
ATOM      7  C   UNL     1       1.654  45.755  47.639  1.00  0.00     0.117 C 
ENDROOT
BRANCH   7   8
ATOM      8  O   UNL     1       2.655  45.108  46.892  1.00  0.00    -0.393 OA
ATOM      9  H   UNL     1       2.309  44.962  45.972  1.00  0.00     0.210 HD
ENDBRANCH   7   8
BRANCH   5  10
ATOM     10  C   UNL     1      -0.033  45.004  51.067  1.00  0.00    -0.077 C 
ATOM     11  C   UNL     1       0.529  43.810  51.316  1.00  0.00     0.008 C 
ATOM     12  C   UNL     1      -0.944  45.602  52.111  1.00  0.00     0.039 C 
ENDBRANCH   5  10
TORSDOF 2
ENDMDL
MODEL 8
REMARK VINA RESULT:    -3.197      1.943      2.492
REMARK INTER + INTRA:          -3.577
REMARK INTER:                  -3.482
REMARK INTRA:                  -0.096
REMARK UNBOUND:                -0.100
REMARK SMILES C=C(C)[C@H]1CC[C@@H](C)[C@@H](O)C1
REMARK SMILES IDX 8 1 7 2 6 3 5 4 4 5 11 6 9 7 10 8 2 10 1 11 3 12
REMARK H PARENT 10 9
REMARK Flexibility Score: inf
ROOT
ATOM      1  C   UNL     1       1.483  43.180  50.543  1.00  0.00     0.010 C 
ATOM      2  C   UNL     1       2.377  44.169  49.772  1.00  0.00     0.015 C 
ATOM      3  C   UNL     1       2.534  45.502  50.535  1.00  0.00     0.006 C 
ATOM      4  C   UNL     1       1.259  46.358  50.488  1.00  0.00     0.008 C 
ATOM      5  C   UNL     1       0.819  46.619  49.034  1.00  0.00     0.017 C 
ATOM      6  C   UNL     1       0.617  45.296  48.269  1.00  0.00     0.040 C 
ATOM      7  C   UNL     1       1.895  44.431  48.319  1.00  0.00     0.117 C 
ENDROOT
BRANCH   7   8
ATOM      8  O   UNL     1       1.737  43.230  47.605  1.00  0.00    -0.393 OA
ATOM      9  H   UNL     1       1.001  43.355  46.949  1.00  0.00     0.210 HD
ENDBRANCH   7   8
BRANCH   5  10
ATOM     10  C   UNL     1      -0.437  47.478  48.986  1.00  0.00    -0.077 C 
ATOM     11  C   UNL     1      -1.123  47.733  50.113  1.00  0.00     0.008 C 
ATOM     12  C   UNL     1      -0.942  48.060  47.690  1.00  0.00     0.039 C 
ENDBRANCH   5  10
TORSDOF 2
ENDMDL
