MODEL 1
REMARK VINA RESULT:    -4.222      0.000      0.000
REMARK INTER + INTRA:          -5.997
REMARK INTER:                  -5.703
REMARK INTRA:                  -0.294
REMARK UNBOUND:                -0.294
REMARK SMILES O=C[C@H](O)[C@H](O)[C@@H](O)CO
REMARK SMILES IDX 7 1 9 2 10 3 5 5 3 6 2 7 1 8 4 9 6 11 8 13
REMARK H PARENT 10 4 4 10 6 12 8 14
REMARK Flexibility Score: inf
ROOT
ATOM      1  C   UNL     1       2.820  30.424  32.951  1.00  0.00     0.171 C 
ENDROOT
BRANCH   1   2
ATOM      2  C   UNL     1       1.758  31.527  32.787  1.00  0.00     0.190 C 
BRANCH   2   3
ATOM      3  O   UNL     1       2.346  32.800  32.801  1.00  0.00    -0.394 OA
ATOM      4  H   UNL     1       2.554  33.007  33.749  1.00  0.00     0.210 HD
ENDBRANCH   2   3
ENDBRANCH   1   2
BRANCH   1   5
ATOM      5  C   UNL     1       3.180  30.197  34.445  1.00  0.00     0.181 C 
BRANCH   5   6
ATOM      6  C   UNL     1       4.631  30.627  34.795  1.00  0.00     0.209 C 
BRANCH   6   7
ATOM      7  C   UNL     1       5.397  31.160  33.611  1.00  0.00     0.258 C 
ATOM      8  O   UNL     1       5.438  32.359  33.386  1.00  0.00    -0.300 OA
ENDBRANCH   6   7
BRANCH   6   9
ATOM      9  O   UNL     1       5.334  29.561  35.380  1.00  0.00    -0.383 OA
ATOM     10  H   UNL     1       6.154  29.407  34.844  1.00  0.00     0.211 HD
ENDBRANCH   6   9
ENDBRANCH   5   6
BRANCH   5  11
ATOM     11  O   UNL     1       2.917  28.875  34.855  1.00  0.00    -0.387 OA
ATOM     12  H   UNL     1       3.772  28.373  34.846  1.00  0.00     0.211 HD
ENDBRANCH   5  11
ENDBRANCH   1   5
BRANCH   1  13
ATOM     13  O   UNL     1       2.346  29.233  32.378  1.00  0.00    -0.388 OA
ATOM     14  H   UNL     1       2.291  28.562  33.107  1.00  0.00     0.211 HD
ENDBRANCH   1  13
TORSDOF 8
ENDMDL
MODEL 2
REMARK VINA RESULT:    -4.200      1.699      2.720
REMARK INTER + INTRA:          -5.966
REMARK INTER:                  -5.236
REMARK INTRA:                  -0.730
REMARK UNBOUND:                -0.294
REMARK SMILES O=C[C@H](O)[C@H](O)[C@@H](O)CO
REMARK SMILES IDX 7 1 9 2 10 3 5 5 3 6 2 7 1 8 4 9 6 11 8 13
REMARK H PARENT 10 4 4 10 6 12 8 14
REMARK Flexibility Score: inf
ROOT
ATOM      1  C   UNL     1       3.770  30.494  32.584  1.00  0.00     0.171 C 
ENDROOT
BRANCH   1   2
ATOM      2  C   UNL     1       4.072  29.854  31.217  1.00  0.00     0.190 C 
BRANCH   2   3
ATOM      3  O   UNL     1       5.399  30.092  30.830  1.00  0.00    -0.394 OA
ATOM      4  H   UNL     1       5.565  31.061  30.966  1.00  0.00     0.210 HD
ENDBRANCH   2   3
ENDBRANCH   1   2
BRANCH   1   5
ATOM      5  C   UNL     1       5.032  30.529  33.489  1.00  0.00     0.181 C 
BRANCH   5   6
ATOM      6  C   UNL     1       4.700  30.457  35.004  1.00  0.00     0.209 C 
BRANCH   6   7
ATOM      7  C   UNL     1       4.710  31.804  35.682  1.00  0.00     0.258 C 
ATOM      8  O   UNL     1       4.046  32.728  35.237  1.00  0.00    -0.300 OA
ENDBRANCH   6   7
BRANCH   6   9
ATOM      9  O   UNL     1       5.582  29.583  35.661  1.00  0.00    -0.383 OA
ATOM     10  H   UNL     1       6.414  29.530  35.124  1.00  0.00     0.211 HD
ENDBRANCH   6   9
ENDBRANCH   5   6
BRANCH   5  11
ATOM     11  O   UNL     1       5.863  31.627  33.191  1.00  0.00    -0.387 OA
ATOM     12  H   UNL     1       5.990  31.661  32.208  1.00  0.00     0.211 HD
ENDBRANCH   5  11
ENDBRANCH   1   5
BRANCH   1  13
ATOM     13  O   UNL     1       3.274  31.794  32.389  1.00  0.00    -0.388 OA
ATOM     14  H   UNL     1       2.607  31.743  31.655  1.00  0.00     0.211 HD
ENDBRANCH   1  13
TORSDOF 8
ENDMDL
MODEL 3
REMARK VINA RESULT:    -4.174      1.784      3.244
REMARK INTER + INTRA:          -5.932
REMARK INTER:                  -5.337
REMARK INTRA:                  -0.595
REMARK UNBOUND:                -0.294
REMARK SMILES O=C[C@H](O)[C@H](O)[C@@H](O)CO
REMARK SMILES IDX 7 1 9 2 10 3 5 5 3 6 2 7 1 8 4 9 6 11 8 13
REMARK H PARENT 10 4 4 10 6 12 8 14
REMARK Flexibility Score: inf
ROOT
ATOM      1  C   UNL     1       4.321  30.393  31.589  1.00  0.00     0.171 C 
ENDROOT
BRANCH   1   2
ATOM      2  C   UNL     1       3.374  29.192  31.761  1.00  0.00     0.190 C 
BRANCH   2   3
ATOM      3  O   UNL     1       2.125  29.601  32.252  1.00  0.00    -0.394 OA
ATOM      4  H   UNL     1       2.005  30.545  31.972  1.00  0.00     0.210 HD
ENDBRANCH   2   3
ENDBRANCH   1   2
BRANCH   1   5
ATOM      5  C   UNL     1       4.935  30.834  32.946  1.00  0.00     0.181 C 
BRANCH   5   6
ATOM      6  C   UNL     1       4.130  31.965  33.641  1.00  0.00     0.209 C 
BRANCH   6   7
ATOM      7  C   UNL     1       3.471  31.525  34.925  1.00  0.00     0.258 C 
ATOM      8  O   UNL     1       2.580  30.690  34.910  1.00  0.00    -0.300 OA
ENDBRANCH   6   7
BRANCH   6   9
ATOM      9  O   UNL     1       3.166  32.495  32.766  1.00  0.00    -0.383 OA
ATOM     10  H   UNL     1       3.158  31.934  31.947  1.00  0.00     0.211 HD
ENDBRANCH   6   9
ENDBRANCH   5   6
BRANCH   5  11
ATOM     11  O   UNL     1       6.299  31.167  32.823  1.00  0.00    -0.387 OA
ATOM     12  H   UNL     1       6.826  30.500  33.332  1.00  0.00     0.211 HD
ENDBRANCH   5  11
ENDBRANCH   1   5
BRANCH   1  13
ATOM     13  O   UNL     1       5.338  30.055  30.681  1.00  0.00    -0.388 OA
ATOM     14  H   UNL     1       5.689  30.906  30.309  1.00  0.00     0.211 HD
ENDBRANCH   1  13
TORSDOF 8
ENDMDL
MODEL 4
REMARK VINA RESULT:    -4.120      0.544      3.192
REMARK INTER + INTRA:          -5.859
REMARK INTER:                  -5.387
REMARK INTRA:                  -0.472
REMARK UNBOUND:                -0.294
REMARK SMILES O=C[C@H](O)[C@H](O)[C@@H](O)CO
REMARK SMILES IDX 7 1 9 2 10 3 5 5 3 6 2 7 1 8 4 9 6 11 8 13
REMARK H PARENT 10 4 4 10 6 12 8 14
REMARK Flexibility Score: inf
ROOT
ATOM      1  C   UNL     1       4.657  30.561  34.616  1.00  0.00     0.171 C 
ENDROOT
BRANCH   1   2
ATOM      2  C   UNL     1       5.430  31.017  33.365  1.00  0.00     0.190 C 
BRANCH   2   3
ATOM      3  O   UNL     1       5.233  32.384  33.121  1.00  0.00    -0.394 OA
ATOM      4  H   UNL     1       4.901  32.461  32.189  1.00  0.00     0.210 HD
ENDBRANCH   2   3
ENDBRANCH   1   2
BRANCH   1   5
ATOM      5  C   UNL     1       3.354  29.805  34.236  1.00  0.00     0.181 C 
BRANCH   5   6
ATOM      6  C   UNL     1       2.860  30.124  32.799  1.00  0.00     0.209 C 
BRANCH   6   7
ATOM      7  C   UNL     1       1.802  31.198  32.757  1.00  0.00     0.258 C 
ATOM      8  O   UNL     1       2.062  32.339  33.105  1.00  0.00    -0.300 OA
ENDBRANCH   6   7
BRANCH   6   9
ATOM      9  O   UNL     1       2.386  28.960  32.171  1.00  0.00    -0.383 OA
ATOM     10  H   UNL     1       2.507  29.073  31.192  1.00  0.00     0.211 HD
ENDBRANCH   6   9
ENDBRANCH   5   6
BRANCH   5  11
ATOM     11  O   UNL     1       2.336  29.998  35.191  1.00  0.00    -0.387 OA
ATOM     12  H   UNL     1       1.864  30.842  34.972  1.00  0.00     0.211 HD
ENDBRANCH   5  11
ENDBRANCH   1   5
BRANCH   1  13
ATOM     13  O   UNL     1       5.485  29.741  35.400  1.00  0.00    -0.388 OA
ATOM     14  H   UNL     1       5.166  29.818  36.337  1.00  0.00     0.211 HD
ENDBRANCH   1  13
TORSDOF 8
ENDMDL
MODEL 5
REMARK VINA RESULT:    -4.119      1.858      3.120
REMARK INTER + INTRA:          -5.858
REMARK INTER:                  -5.536
REMARK INTRA:                  -0.322
REMARK UNBOUND:                -0.294
REMARK SMILES O=C[C@H](O)[C@H](O)[C@@H](O)CO
REMARK SMILES IDX 7 1 9 2 10 3 5 5 3 6 2 7 1 8 4 9 6 11 8 13
REMARK H PARENT 10 4 4 10 6 12 8 14
REMARK Flexibility Score: inf
ROOT
ATOM      1  C   UNL     1       4.831  30.862  32.855  1.00  0.00     0.171 C 
ENDROOT
BRANCH   1   2
ATOM      2  C   UNL     1       4.379  30.226  31.527  1.00  0.00     0.190 C 
BRANCH   2   3
ATOM      3  O   UNL     1       5.463  30.055  30.654  1.00  0.00    -0.394 OA
ATOM      4  H   UNL     1       5.121  29.548  29.872  1.00  0.00     0.210 HD
ENDBRANCH   2   3
ENDBRANCH   1   2
BRANCH   1   5
ATOM      5  C   UNL     1       4.502  29.948  34.067  1.00  0.00     0.181 C 
BRANCH   5   6
ATOM      6  C   UNL     1       3.000  29.971  34.458  1.00  0.00     0.209 C 
BRANCH   6   7
ATOM      7  C   UNL     1       2.536  31.313  34.965  1.00  0.00     0.258 C 
ATOM      8  O   UNL     1       3.075  31.832  35.930  1.00  0.00    -0.300 OA
ENDBRANCH   6   7
BRANCH   6   9
ATOM      9  O   UNL     1       2.723  28.977  35.412  1.00  0.00    -0.383 OA
ATOM     10  H   UNL     1       3.032  28.109  35.044  1.00  0.00     0.211 HD
ENDBRANCH   6   9
ENDBRANCH   5   6
BRANCH   5  11
ATOM     11  O   UNL     1       5.331  30.221  35.172  1.00  0.00    -0.387 OA
ATOM     12  H   UNL     1       5.190  31.166  35.439  1.00  0.00     0.211 HD
ENDBRANCH   5  11
ENDBRANCH   1   5
BRANCH   1  13
ATOM     13  O   UNL     1       6.211  31.120  32.799  1.00  0.00    -0.388 OA
ATOM     14  H   UNL     1       6.379  31.619  31.957  1.00  0.00     0.211 HD
ENDBRANCH   1  13
TORSDOF 8
ENDMDL
MODEL 6
REMARK VINA RESULT:    -4.039      1.729      2.727
REMARK INTER + INTRA:          -5.749
REMARK INTER:                  -5.063
REMARK INTRA:                  -0.686
REMARK UNBOUND:                -0.294
REMARK SMILES O=C[C@H](O)[C@H](O)[C@@H](O)CO
REMARK SMILES IDX 7 1 9 2 10 3 5 5 3 6 2 7 1 8 4 9 6 11 8 13
REMARK H PARENT 10 4 4 10 6 12 8 14
REMARK Flexibility Score: inf
ROOT
ATOM      1  C   UNL     1       3.547  29.507  32.275  1.00  0.00     0.171 C 
ENDROOT
BRANCH   1   2
ATOM      2  C   UNL     1       4.272  29.792  30.947  1.00  0.00     0.190 C 
BRANCH   2   3
ATOM      3  O   UNL     1       5.548  30.329  31.174  1.00  0.00    -0.394 OA
ATOM      4  H   UNL     1       5.488  31.299  30.969  1.00  0.00     0.210 HD
ENDBRANCH   2   3
ENDBRANCH   1   2
BRANCH   1   5
ATOM      5  C   UNL     1       3.714  30.680  33.280  1.00  0.00     0.181 C 
BRANCH   5   6
ATOM      6  C   UNL     1       2.883  30.496  34.578  1.00  0.00     0.209 C 
BRANCH   6   7
ATOM      7  C   UNL     1       3.379  31.336  35.728  1.00  0.00     0.258 C 
ATOM      8  O   UNL     1       4.377  32.028  35.605  1.00  0.00    -0.300 OA
ENDBRANCH   6   7
BRANCH   6   9
ATOM      9  O   UNL     1       2.849  29.143  34.954  1.00  0.00    -0.383 OA
ATOM     10  H   UNL     1       1.960  28.780  34.704  1.00  0.00     0.211 HD
ENDBRANCH   6   9
ENDBRANCH   5   6
BRANCH   5  11
ATOM     11  O   UNL     1       3.466  31.929  32.676  1.00  0.00    -0.387 OA
ATOM     12  H   UNL     1       4.034  32.607  33.125  1.00  0.00     0.211 HD
ENDBRANCH   5  11
ENDBRANCH   1   5
BRANCH   1  13
ATOM     13  O   UNL     1       2.185  29.275  32.021  1.00  0.00    -0.388 OA
ATOM     14  H   UNL     1       1.694  30.091  32.301  1.00  0.00     0.211 HD
ENDBRANCH   1  13
TORSDOF 8
ENDMDL
MODEL 7
REMARK VINA RESULT:    -4.007      1.386      3.428
REMARK INTER + INTRA:          -5.707
REMARK INTER:                  -5.234
REMARK INTRA:                  -0.473
REMARK UNBOUND:                -0.294
REMARK SMILES O=C[C@H](O)[C@H](O)[C@@H](O)CO
REMARK SMILES IDX 7 1 9 2 10 3 5 5 3 6 2 7 1 8 4 9 6 11 8 13
REMARK H PARENT 10 4 4 10 6 12 8 14
REMARK Flexibility Score: inf
ROOT
ATOM      1  C   UNL     1       3.024  30.253  35.289  1.00  0.00     0.171 C 
ENDROOT
BRANCH   1   2
ATOM      2  C   UNL     1       4.331  30.485  36.070  1.00  0.00     0.190 C 
BRANCH   2   3
ATOM      3  O   UNL     1       5.386  29.740  35.522  1.00  0.00    -0.394 OA
ATOM      4  H   UNL     1       5.154  29.577  34.571  1.00  0.00     0.210 HD
ENDBRANCH   2   3
ENDBRANCH   1   2
BRANCH   1   5
ATOM      5  C   UNL     1       3.103  30.851  33.857  1.00  0.00     0.181 C 
BRANCH   5   6
ATOM      6  C   UNL     1       3.404  29.787  32.768  1.00  0.00     0.209 C 
BRANCH   6   7
ATOM      7  C   UNL     1       4.239  30.319  31.630  1.00  0.00     0.258 C 
ATOM      8  O   UNL     1       4.778  29.554  30.845  1.00  0.00    -0.300 OA
ENDBRANCH   6   7
BRANCH   6   9
ATOM      9  O   UNL     1       2.211  29.238  32.270  1.00  0.00    -0.383 OA
ATOM     10  H   UNL     1       2.333  29.075  31.299  1.00  0.00     0.211 HD
ENDBRANCH   6   9
ENDBRANCH   5   6
BRANCH   5  11
ATOM     11  O   UNL     1       3.999  31.935  33.788  1.00  0.00    -0.387 OA
ATOM     12  H   UNL     1       4.048  32.353  34.685  1.00  0.00     0.211 HD
ENDBRANCH   5  11
ENDBRANCH   1   5
BRANCH   1  13
ATOM     13  O   UNL     1       2.758  28.875  35.227  1.00  0.00    -0.388 OA
ATOM     14  H   UNL     1       2.266  28.638  36.056  1.00  0.00     0.211 HD
ENDBRANCH   1  13
TORSDOF 8
ENDMDL
MODEL 8
REMARK VINA RESULT:    -3.882      1.461      2.969
REMARK INTER + INTRA:          -5.537
REMARK INTER:                  -4.768
REMARK INTRA:                  -0.769
REMARK UNBOUND:                -0.294
REMARK SMILES O=C[C@H](O)[C@H](O)[C@@H](O)CO
REMARK SMILES IDX 7 1 9 2 10 3 5 5 3 6 2 7 1 8 4 9 6 11 8 13
REMARK H PARENT 10 4 4 10 6 12 8 14
REMARK Flexibility Score: inf
ROOT
ATOM      1  C   UNL     1       3.182  31.213  35.330  1.00  0.00     0.171 C 
ENDROOT
BRANCH   1   2
ATOM      2  C   UNL     1       2.703  29.853  35.872  1.00  0.00     0.190 C 
BRANCH   2   3
ATOM      3  O   UNL     1       2.713  28.877  34.865  1.00  0.00    -0.394 OA
ATOM      4  H   UNL     1       3.601  28.436  34.904  1.00  0.00     0.210 HD
ENDBRANCH   2   3
ENDBRANCH   1   2
BRANCH   1   5
ATOM      5  C   UNL     1       4.642  31.136  34.806  1.00  0.00     0.181 C 
BRANCH   5   6
ATOM      6  C   UNL     1       4.777  31.540  33.313  1.00  0.00     0.209 C 
BRANCH   6   7
ATOM      7  C   UNL     1       4.666  30.371  32.367  1.00  0.00     0.258 C 
ATOM      8  O   UNL     1       3.578  29.881  32.111  1.00  0.00    -0.300 OA
ENDBRANCH   6   7
BRANCH   6   9
ATOM      9  O   UNL     1       5.986  32.221  33.094  1.00  0.00    -0.383 OA
ATOM     10  H   UNL     1       5.771  33.090  32.664  1.00  0.00     0.211 HD
ENDBRANCH   6   9
ENDBRANCH   5   6
BRANCH   5  11
ATOM     11  O   UNL     1       5.227  29.880  35.060  1.00  0.00    -0.387 OA
ATOM     12  H   UNL     1       4.522  29.275  35.407  1.00  0.00     0.211 HD
ENDBRANCH   5  11
ENDBRANCH   1   5
BRANCH   1  13
ATOM     13  O   UNL     1       2.318  31.634  34.305  1.00  0.00    -0.388 OA
ATOM     14  H   UNL     1       2.722  32.445  33.901  1.00  0.00     0.211 HD
ENDBRANCH   1  13
TORSDOF 8
ENDMDL
MODEL 9
REMARK VINA RESULT:    -3.875     16.481     18.686
REMARK INTER + INTRA:          -5.528
REMARK INTER:                  -4.793
REMARK INTRA:                  -0.735
REMARK UNBOUND:                -0.294
REMARK SMILES O=C[C@H](O)[C@H](O)[C@@H](O)CO
REMARK SMILES IDX 7 1 9 2 10 3 5 5 3 6 2 7 1 8 4 9 6 11 8 13
REMARK H PARENT 10 4 4 10 6 12 8 14
REMARK Flexibility Score: inf
ROOT
ATOM      1  C   UNL     1      -3.304  45.803  23.579  1.00  0.00     0.171 C 
ENDROOT
BRANCH   1   2
ATOM      2  C   UNL     1      -3.757  47.272  23.669  1.00  0.00     0.190 C 
BRANCH   2   3
ATOM      3  O   UNL     1      -5.118  47.401  23.357  1.00  0.00    -0.394 OA
ATOM      4  H   UNL     1      -5.254  46.947  22.485  1.00  0.00     0.210 HD
ENDBRANCH   2   3
ENDBRANCH   1   2
BRANCH   1   5
ATOM      5  C   UNL     1      -3.682  45.011  24.861  1.00  0.00     0.181 C 
BRANCH   5   6
ATOM      6  C   UNL     1      -2.900  43.678  25.007  1.00  0.00     0.209 C 
BRANCH   6   7
ATOM      7  C   UNL     1      -3.709  42.466  24.619  1.00  0.00     0.258 C 
ATOM      8  O   UNL     1      -4.249  42.404  23.525  1.00  0.00    -0.300 OA
ENDBRANCH   6   7
BRANCH   6   9
ATOM      9  O   UNL     1      -2.415  43.530  26.318  1.00  0.00    -0.383 OA
ATOM     10  H   UNL     1      -1.426  43.594  26.285  1.00  0.00     0.211 HD
ENDBRANCH   6   9
ENDBRANCH   5   6
BRANCH   5  11
ATOM     11  O   UNL     1      -5.073  44.811  24.966  1.00  0.00    -0.387 OA
ATOM     12  H   UNL     1      -5.306  43.993  24.458  1.00  0.00     0.211 HD
ENDBRANCH   5  11
ENDBRANCH   1   5
BRANCH   1  13
ATOM     13  O   UNL     1      -3.886  45.207  22.449  1.00  0.00    -0.388 OA
ATOM     14  H   UNL     1      -3.176  45.139  21.758  1.00  0.00     0.211 HD
ENDBRANCH   1  13
TORSDOF 8
ENDMDL
