MODEL 1
REMARK VINA RESULT:    -4.180      0.000      0.000
REMARK INTER + INTRA:          -4.135
REMARK INTER:                  -5.890
REMARK INTRA:                   1.755
REMARK UNBOUND:                 1.755
REMARK SMILES CC1=CCC(=C(C)C)C(=O)CC(C)=CCC1
REMARK SMILES IDX 12 1 14 2 13 3 15 4 16 5 2 6 1 7 3 8 11 10 9 11 10 12 5 13
REMARK SMILES IDX 6 14 7 15 8 16 4 17
REMARK H PARENT
REMARK Flexibility Score: 60.00
ROOT
ATOM      1  C   UNL     1      84.919   3.214  27.978  1.00  0.00    -0.070 C 
ATOM      2  C   UNL     1      84.083   2.274  28.474  1.00  0.00    -0.027 C 
ATOM      3  C   UNL     1      86.299   3.318  28.577  1.00  0.00     0.039 C 
ENDROOT
BRANCH   2   4
ATOM      4  C   UNL     1      82.638   2.079  28.074  1.00  0.00     0.032 C 
BRANCH   4   5
ATOM      5  C   UNL     1      81.729   3.303  28.308  1.00  0.00     0.034 C 
BRANCH   5   6
ATOM      6  C   UNL     1      81.780   3.820  29.734  1.00  0.00    -0.077 C 
ATOM      7  C   UNL     1      81.553   2.829  30.848  1.00  0.00     0.039 C 
ATOM      8  C   UNL     1      81.949   5.122  30.070  1.00  0.00    -0.023 CG0
ATOM      9  G   UNL     1      82.212   6.282  29.129  1.00  0.00     0.000 G0
ENDBRANCH   5   6
ENDBRANCH   4   5
ENDBRANCH   2   4
BRANCH   1  10
ATOM     10  C   UNL     1      84.507   4.219  26.922  1.00  0.00     0.111 C 
BRANCH  10  11
ATOM     11  C   UNL     1      84.072   5.524  27.534  1.00  0.00     0.163 C 
ATOM     12  O   UNL     1      84.964   6.320  27.932  1.00  0.00    -0.294 OA
BRANCH  11  13
ATOM     13  C   UNL     1      82.634   5.873  27.739  1.00  0.00    -0.002 C 
ATOM     14  C   UNL     1      81.760   5.879  26.689  1.00  0.00    -0.069 C 
ATOM     15  C   UNL     1      82.175   5.385  25.320  1.00  0.00     0.039 C 
ATOM     16  C   UNL     1      80.339   6.379  26.832  1.00  0.00     0.039 C 
BRANCH  13  17
ATOM     17  C   UNL     1      82.217   6.308  29.135  1.00  0.00     0.066 CG0
ATOM     18  G   UNL     1      81.949   5.128  30.050  1.00  0.00     0.000 G0
ENDBRANCH  13  17
ENDBRANCH  11  13
ENDBRANCH  10  11
ENDBRANCH   1  10
TORSDOF 0
ENDMDL
MODEL 2
REMARK VINA RESULT:    -4.126      1.633      4.382
REMARK INTER + INTRA:          -4.061
REMARK INTER:                  -7.391
REMARK INTRA:                   3.331
REMARK UNBOUND:                 1.755
REMARK SMILES CC1=CCC(=C(C)C)C(=O)CC(C)=CCC1
REMARK SMILES IDX 12 1 14 2 13 3 15 4 16 5 2 6 1 7 3 8 11 10 9 11 10 12 5 13
REMARK SMILES IDX 6 14 7 15 8 16 4 17
REMARK H PARENT
REMARK Flexibility Score: 60.00
ROOT
ATOM      1  C   UNL     1      82.016   5.779  27.159  1.00  0.00    -0.070 C 
ATOM      2  C   UNL     1      82.448   5.107  26.068  1.00  0.00    -0.027 C 
ATOM      3  C   UNL     1      80.683   6.478  27.075  1.00  0.00     0.039 C 
ENDROOT
BRANCH   2   4
ATOM      4  C   UNL     1      83.792   4.428  25.925  1.00  0.00     0.032 C 
BRANCH   4   5
ATOM      5  C   UNL     1      84.838   4.830  26.985  1.00  0.00     0.034 C 
BRANCH   5   6
ATOM      6  C   UNL     1      85.180   3.704  27.944  1.00  0.00    -0.077 C 
ATOM      7  C   UNL     1      86.636   3.462  28.251  1.00  0.00     0.039 C 
ATOM      8  C   UNL     1      84.270   2.860  28.488  1.00  0.00    -0.023 CG0
ATOM      9  G   UNL     1      82.762   2.923  28.338  1.00  0.00     0.000 G0
ENDBRANCH   5   6
ENDBRANCH   4   5
ENDBRANCH   2   4
BRANCH   1  10
ATOM     10  C   UNL     1      82.843   5.939  28.419  1.00  0.00     0.111 C 
BRANCH  10  11
ATOM     11  C   UNL     1      82.270   5.146  29.564  1.00  0.00     0.163 C 
ATOM     12  O   UNL     1      81.981   5.761  30.625  1.00  0.00    -0.294 OA
BRANCH  11  13
ATOM     13  C   UNL     1      82.093   3.664  29.504  1.00  0.00    -0.002 C 
ATOM     14  C   UNL     1      81.433   2.999  30.499  1.00  0.00    -0.069 C 
ATOM     15  C   UNL     1      80.726   3.746  31.609  1.00  0.00     0.039 C 
ATOM     16  C   UNL     1      81.374   1.487  30.550  1.00  0.00     0.039 C 
BRANCH  13  17
ATOM     17  C   UNL     1      82.756   2.931  28.349  1.00  0.00     0.066 CG0
ATOM     18  G   UNL     1      84.263   2.863  28.499  1.00  0.00     0.000 G0
ENDBRANCH  13  17
ENDBRANCH  11  13
ENDBRANCH  10  11
ENDBRANCH   1  10
TORSDOF 0
ENDMDL
MODEL 3
REMARK VINA RESULT:    -4.093      1.466      3.595
REMARK INTER + INTRA:          -4.014
REMARK INTER:                  -5.779
REMARK INTRA:                   1.766
REMARK UNBOUND:                 1.755
REMARK SMILES CC1=CCC(=C(C)C)C(=O)CC(C)=CCC1
REMARK SMILES IDX 12 1 14 2 13 3 15 4 16 5 2 6 1 7 3 8 11 10 9 11 10 12 5 13
REMARK SMILES IDX 6 14 7 15 8 16 4 17
REMARK H PARENT
REMARK Flexibility Score: 60.00
ROOT
ATOM      1  C   UNL     1      85.240   3.515  28.012  1.00  0.00    -0.070 C 
ATOM      2  C   UNL     1      84.938   4.563  27.212  1.00  0.00    -0.027 C 
ATOM      3  C   UNL     1      86.580   3.520  28.704  1.00  0.00     0.039 C 
ENDROOT
BRANCH   2   4
ATOM      4  C   UNL     1      83.694   4.694  26.362  1.00  0.00     0.032 C 
BRANCH   4   5
ATOM      5  C   UNL     1      83.031   6.087  26.394  1.00  0.00     0.034 C 
BRANCH   5   6
ATOM      6  C   UNL     1      81.700   6.099  27.124  1.00  0.00    -0.077 C 
ATOM      7  C   UNL     1      80.511   6.685  26.405  1.00  0.00     0.039 C 
ATOM      8  C   UNL     1      81.526   5.680  28.401  1.00  0.00    -0.023 CG0
ATOM      9  G   UNL     1      82.564   5.043  29.304  1.00  0.00     0.000 G0
ENDBRANCH   5   6
ENDBRANCH   4   5
ENDBRANCH   2   4
BRANCH   1  10
ATOM     10  C   UNL     1      84.344   2.305  28.171  1.00  0.00     0.111 C 
BRANCH  10  11
ATOM     11  C   UNL     1      82.894   2.696  28.281  1.00  0.00     0.163 C 
ATOM     12  O   UNL     1      82.114   2.352  27.354  1.00  0.00    -0.294 OA
BRANCH  11  13
ATOM     13  C   UNL     1      82.371   3.523  29.410  1.00  0.00    -0.002 C 
ATOM     14  C   UNL     1      81.687   2.943  30.442  1.00  0.00    -0.069 C 
ATOM     15  C   UNL     1      81.572   1.439  30.560  1.00  0.00     0.039 C 
ATOM     16  C   UNL     1      81.010   3.766  31.517  1.00  0.00     0.039 C 
BRANCH  13  17
ATOM     17  C   UNL     1      82.549   5.029  29.310  1.00  0.00     0.066 CG0
ATOM     18  G   UNL     1      81.517   5.673  28.403  1.00  0.00     0.000 G0
ENDBRANCH  13  17
ENDBRANCH  11  13
ENDBRANCH  10  11
ENDBRANCH   1  10
TORSDOF 0
ENDMDL
MODEL 4
REMARK VINA RESULT:    -3.511      1.952      4.067
REMARK INTER + INTRA:          -3.193
REMARK INTER:                  -5.497
REMARK INTRA:                   2.304
REMARK UNBOUND:                 1.755
REMARK SMILES CC1=CCC(=C(C)C)C(=O)CC(C)=CCC1
REMARK SMILES IDX 12 1 14 2 13 3 15 4 16 5 2 6 1 7 3 8 11 10 9 11 10 12 5 13
REMARK SMILES IDX 6 14 7 15 8 16 4 17
REMARK H PARENT
REMARK Flexibility Score: 60.00
ROOT
ATOM      1  C   UNL     1      81.872   3.509  30.144  1.00  0.00    -0.070 C 
ATOM      2  C   UNL     1      81.500   4.798  30.310  1.00  0.00    -0.027 C 
ATOM      3  C   UNL     1      81.022   2.441  30.785  1.00  0.00     0.039 C 
ENDROOT
BRANCH   2   4
ATOM      4  C   UNL     1      82.270   6.007  29.829  1.00  0.00     0.032 C 
BRANCH   4   5
ATOM      5  C   UNL     1      82.717   5.947  28.354  1.00  0.00     0.034 C 
BRANCH   5   6
ATOM      6  C   UNL     1      81.567   6.105  27.375  1.00  0.00    -0.077 C 
ATOM      7  C   UNL     1      80.604   7.242  27.604  1.00  0.00     0.039 C 
ATOM      8  C   UNL     1      81.312   5.254  26.352  1.00  0.00    -0.023 CG0
ATOM      9  G   UNL     1      82.148   4.063  25.924  1.00  0.00     0.000 G0
ENDBRANCH   5   6
ENDBRANCH   4   5
ENDBRANCH   2   4
BRANCH   1  10
ATOM     10  C   UNL     1      83.142   3.095  29.429  1.00  0.00     0.111 C 
BRANCH  10  11
ATOM     11  C   UNL     1      82.881   2.753  27.985  1.00  0.00     0.163 C 
ATOM     12  O   UNL     1      82.387   1.625  27.723  1.00  0.00    -0.294 OA
BRANCH  11  13
ATOM     13  C   UNL     1      83.242   3.674  26.866  1.00  0.00    -0.002 C 
ATOM     14  C   UNL     1      84.495   4.214  26.782  1.00  0.00    -0.069 C 
ATOM     15  C   UNL     1      85.600   3.782  27.722  1.00  0.00     0.039 C 
ATOM     16  C   UNL     1      84.846   5.269  25.756  1.00  0.00     0.039 C 
BRANCH  13  17
ATOM     17  C   UNL     1      82.138   4.051  25.892  1.00  0.00     0.066 CG0
ATOM     18  G   UNL     1      81.330   5.242  26.369  1.00  0.00     0.000 G0
ENDBRANCH  13  17
ENDBRANCH  11  13
ENDBRANCH  10  11
ENDBRANCH   1  10
TORSDOF 0
ENDMDL
MODEL 5
REMARK VINA RESULT:    -3.248      1.777      3.958
REMARK INTER + INTRA:          -2.822
REMARK INTER:                  -4.631
REMARK INTRA:                   1.809
REMARK UNBOUND:                 1.755
REMARK SMILES CC1=CCC(=C(C)C)C(=O)CC(C)=CCC1
REMARK SMILES IDX 12 1 14 2 13 3 15 4 16 5 2 6 1 7 3 8 11 10 9 11 10 12 5 13
REMARK SMILES IDX 6 14 7 15 8 16 4 17
REMARK H PARENT
REMARK Flexibility Score: 60.00
ROOT
ATOM      1  C   UNL     1      81.276   6.319  27.447  1.00  0.00    -0.070 C 
ATOM      2  C   UNL     1      81.448   6.700  28.733  1.00  0.00    -0.027 C 
ATOM      3  C   UNL     1      81.055   7.397  26.416  1.00  0.00     0.039 C 
ENDROOT
BRANCH   2   4
ATOM      4  C   UNL     1      81.586   5.770  29.918  1.00  0.00     0.032 C 
BRANCH   4   5
ATOM      5  C   UNL     1      82.614   4.635  29.734  1.00  0.00     0.034 C 
BRANCH   5   6
ATOM      6  C   UNL     1      82.003   3.250  29.854  1.00  0.00    -0.077 C 
ATOM      7  C   UNL     1      81.089   2.986  31.024  1.00  0.00     0.039 C 
ATOM      8  C   UNL     1      82.277   2.219  29.019  1.00  0.00    -0.023 CG0
ATOM      9  G   UNL     1      83.144   2.256  27.775  1.00  0.00     0.000 G0
ENDBRANCH   5   6
ENDBRANCH   4   5
ENDBRANCH   2   4
BRANCH   1  10
ATOM     10  C   UNL     1      81.204   4.870  27.011  1.00  0.00     0.111 C 
BRANCH  10  11
ATOM     11  C   UNL     1      82.526   4.383  26.478  1.00  0.00     0.163 C 
ATOM     12  O   UNL     1      82.774   4.559  25.255  1.00  0.00    -0.294 OA
BRANCH  11  13
ATOM     13  C   UNL     1      83.512   3.651  27.328  1.00  0.00    -0.002 C 
ATOM     14  C   UNL     1      84.724   4.207  27.627  1.00  0.00    -0.069 C 
ATOM     15  C   UNL     1      85.049   5.635  27.244  1.00  0.00     0.039 C 
ATOM     16  C   UNL     1      85.805   3.432  28.349  1.00  0.00     0.039 C 
BRANCH  13  17
ATOM     17  C   UNL     1      83.147   2.239  27.758  1.00  0.00     0.066 CG0
ATOM     18  G   UNL     1      82.288   2.222  29.008  1.00  0.00     0.000 G0
ENDBRANCH  13  17
ENDBRANCH  11  13
ENDBRANCH  10  11
ENDBRANCH   1  10
TORSDOF 0
ENDMDL
MODEL 6
REMARK VINA RESULT:    -3.195      1.634      3.537
REMARK INTER + INTRA:          -2.748
REMARK INTER:                  -4.165
REMARK INTRA:                   1.417
REMARK UNBOUND:                 1.755
REMARK SMILES CC1=CCC(=C(C)C)C(=O)CC(C)=CCC1
REMARK SMILES IDX 12 1 14 2 13 3 15 4 16 5 2 6 1 7 3 8 11 10 9 11 10 12 5 13
REMARK SMILES IDX 6 14 7 15 8 16 4 17
REMARK H PARENT
REMARK Flexibility Score: 60.00
ROOT
ATOM      1  C   UNL     1      81.500   3.207  30.255  1.00  0.00    -0.070 C 
ATOM      2  C   UNL     1      82.516   2.359  29.977  1.00  0.00    -0.027 C 
ATOM      3  C   UNL     1      80.859   3.118  31.617  1.00  0.00     0.039 C 
ENDROOT
BRANCH   2   4
ATOM      4  C   UNL     1      83.218   2.230  28.644  1.00  0.00     0.032 C 
BRANCH   4   5
ATOM      5  C   UNL     1      84.758   2.268  28.716  1.00  0.00     0.034 C 
BRANCH   5   6
ATOM      6  C   UNL     1      85.358   3.492  28.047  1.00  0.00    -0.077 C 
ATOM      7  C   UNL     1      86.771   3.869  28.412  1.00  0.00     0.039 C 
ATOM      8  C   UNL     1      84.685   4.305  27.197  1.00  0.00    -0.023 CG0
ATOM      9  G   UNL     1      83.273   4.115  26.677  1.00  0.00     0.000 G0
ENDBRANCH   5   6
ENDBRANCH   4   5
ENDBRANCH   2   4
BRANCH   1  10
ATOM     10  C   UNL     1      80.920   4.171  29.240  1.00  0.00     0.111 C 
BRANCH  10  11
ATOM     11  C   UNL     1      81.973   5.088  28.678  1.00  0.00     0.163 C 
ATOM     12  O   UNL     1      82.567   5.866  29.470  1.00  0.00    -0.294 OA
BRANCH  11  13
ATOM     13  C   UNL     1      82.289   5.147  27.219  1.00  0.00    -0.002 C 
ATOM     14  C   UNL     1      81.652   6.038  26.402  1.00  0.00    -0.069 C 
ATOM     15  C   UNL     1      80.728   7.096  26.964  1.00  0.00     0.039 C 
ATOM     16  C   UNL     1      81.832   6.017  24.899  1.00  0.00     0.039 C 
BRANCH  13  17
ATOM     17  C   UNL     1      83.269   4.117  26.678  1.00  0.00     0.066 CG0
ATOM     18  G   UNL     1      84.674   4.324  27.209  1.00  0.00     0.000 G0
ENDBRANCH  13  17
ENDBRANCH  11  13
ENDBRANCH  10  11
ENDBRANCH   1  10
TORSDOF 0
ENDMDL
MODEL 7
REMARK VINA RESULT:    -2.849      1.201      3.422
REMARK INTER + INTRA:          -2.260
REMARK INTER:                  -4.730
REMARK INTRA:                   2.470
REMARK UNBOUND:                 1.755
REMARK SMILES CC1=CCC(=C(C)C)C(=O)CC(C)=CCC1
REMARK SMILES IDX 12 1 14 2 13 3 15 4 16 5 2 6 1 7 3 8 11 10 9 11 10 12 5 13
REMARK SMILES IDX 6 14 7 15 8 16 4 17
REMARK H PARENT
REMARK Flexibility Score: 60.00
ROOT
ATOM      1  C   UNL     1      83.626   4.916  25.276  1.00  0.00    -0.070 C 
ATOM      2  C   UNL     1      82.464   5.487  24.887  1.00  0.00    -0.027 C 
ATOM      3  C   UNL     1      84.874   5.262  24.505  1.00  0.00     0.039 C 
ENDROOT
BRANCH   2   4
ATOM      4  C   UNL     1      81.098   5.194  25.469  1.00  0.00     0.032 C 
BRANCH   4   5
ATOM      5  C   UNL     1      81.065   5.054  27.005  1.00  0.00     0.034 C 
BRANCH   5   6
ATOM      6  C   UNL     1      81.143   6.387  27.728  1.00  0.00    -0.077 C 
ATOM      7  C   UNL     1      80.429   7.562  27.110  1.00  0.00     0.039 C 
ATOM      8  C   UNL     1      81.865   6.605  28.853  1.00  0.00    -0.023 CG0
ATOM      9  G   UNL     1      82.641   5.577  29.655  1.00  0.00     0.000 G0
ENDBRANCH   5   6
ENDBRANCH   4   5
ENDBRANCH   2   4
BRANCH   1  10
ATOM     10  C   UNL     1      83.716   3.883  26.381  1.00  0.00     0.111 C 
BRANCH  10  11
ATOM     11  C   UNL     1      83.966   4.523  27.722  1.00  0.00     0.163 C 
ATOM     12  O   UNL     1      85.021   5.195  27.872  1.00  0.00    -0.294 OA
BRANCH  11  13
ATOM     13  C   UNL     1      83.044   4.338  28.882  1.00  0.00    -0.002 C 
ATOM     14  C   UNL     1      82.510   3.111  29.161  1.00  0.00    -0.069 C 
ATOM     15  C   UNL     1      82.951   1.874  28.409  1.00  0.00     0.039 C 
ATOM     16  C   UNL     1      81.453   2.920  30.228  1.00  0.00     0.039 C 
BRANCH  13  17
ATOM     17  C   UNL     1      82.658   5.580  29.669  1.00  0.00     0.066 CG0
ATOM     18  G   UNL     1      81.869   6.570  28.833  1.00  0.00     0.000 G0
ENDBRANCH  13  17
ENDBRANCH  11  13
ENDBRANCH  10  11
ENDBRANCH   1  10
TORSDOF 0
ENDMDL
MODEL 8
REMARK VINA RESULT:    -2.173      1.652      3.381
REMARK INTER + INTRA:          -1.307
REMARK INTER:                  -2.490
REMARK INTRA:                   1.183
REMARK UNBOUND:                 1.755
REMARK SMILES CC1=CCC(=C(C)C)C(=O)CC(C)=CCC1
REMARK SMILES IDX 12 1 14 2 13 3 15 4 16 5 2 6 1 7 3 8 11 10 9 11 10 12 5 13
REMARK SMILES IDX 6 14 7 15 8 16 4 17
REMARK H PARENT
REMARK Flexibility Score: 60.00
ROOT
ATOM      1  C   UNL     1      81.936   5.940  27.896  1.00  0.00    -0.070 C 
ATOM      2  C   UNL     1      81.549   5.789  29.182  1.00  0.00    -0.027 C 
ATOM      3  C   UNL     1      80.867   5.946  26.833  1.00  0.00     0.039 C 
ENDROOT
BRANCH   2   4
ATOM      4  C   UNL     1      82.473   5.661  30.373  1.00  0.00     0.032 C 
BRANCH   4   5
ATOM      5  C   UNL     1      82.142   4.497  31.329  1.00  0.00     0.034 C 
BRANCH   5   6
ATOM      6  C   UNL     1      81.462   3.330  30.635  1.00  0.00    -0.077 C 
ATOM      7  C   UNL     1      80.045   3.005  31.034  1.00  0.00     0.039 C 
ATOM      8  C   UNL     1      82.067   2.521  29.732  1.00  0.00    -0.023 CG0
ATOM      9  G   UNL     1      83.468   2.665  29.170  1.00  0.00     0.000 G0
ENDBRANCH   5   6
ENDBRANCH   4   5
ENDBRANCH   2   4
BRANCH   1  10
ATOM     10  C   UNL     1      83.388   6.010  27.466  1.00  0.00     0.111 C 
BRANCH  10  11
ATOM     11  C   UNL     1      84.149   4.775  27.872  1.00  0.00     0.163 C 
ATOM     12  O   UNL     1      85.360   4.903  28.194  1.00  0.00    -0.294 OA
BRANCH  11  13
ATOM     13  C   UNL     1      83.537   3.413  27.846  1.00  0.00    -0.002 C 
ATOM     14  C   UNL     1      82.980   2.919  26.700  1.00  0.00    -0.069 C 
ATOM     15  C   UNL     1      83.099   3.661  25.386  1.00  0.00     0.039 C 
ATOM     16  C   UNL     1      82.215   1.613  26.679  1.00  0.00     0.039 C 
BRANCH  13  17
ATOM     17  C   UNL     1      83.480   2.651  29.161  1.00  0.00     0.066 CG0
ATOM     18  G   UNL     1      82.067   2.536  29.699  1.00  0.00     0.000 G0
ENDBRANCH  13  17
ENDBRANCH  11  13
ENDBRANCH  10  11
ENDBRANCH   1  10
TORSDOF 0
ENDMDL
MODEL 9
REMARK VINA RESULT:    -1.925      2.075      4.991
REMARK INTER + INTRA:          -0.959
REMARK INTER:                  -2.983
REMARK INTRA:                   2.024
REMARK UNBOUND:                 1.755
REMARK SMILES CC1=CCC(=C(C)C)C(=O)CC(C)=CCC1
REMARK SMILES IDX 12 1 14 2 13 3 15 4 16 5 2 6 1 7 3 8 11 10 9 11 10 12 5 13
REMARK SMILES IDX 6 14 7 15 8 16 4 17
REMARK H PARENT
REMARK Flexibility Score: 60.00
ROOT
ATOM      1  C   UNL     1      80.818   6.868  27.322  1.00  0.00    -0.070 C 
ATOM      2  C   UNL     1      80.712   6.270  26.114  1.00  0.00    -0.027 C 
ATOM      3  C   UNL     1      79.866   7.994  27.638  1.00  0.00     0.039 C 
ENDROOT
BRANCH   2   4
ATOM      4  C   UNL     1      81.632   5.195  25.578  1.00  0.00     0.032 C 
BRANCH   4   5
ATOM      5  C   UNL     1      82.833   5.717  24.762  1.00  0.00     0.034 C 
BRANCH   5   6
ATOM      6  C   UNL     1      84.059   4.828  24.870  1.00  0.00    -0.077 C 
ATOM      7  C   UNL     1      84.526   4.124  23.621  1.00  0.00     0.039 C 
ATOM      8  C   UNL     1      84.720   4.573  26.025  1.00  0.00    -0.023 CG0
ATOM      9  G   UNL     1      84.444   5.178  27.388  1.00  0.00     0.000 G0
ENDBRANCH   5   6
ENDBRANCH   4   5
ENDBRANCH   2   4
BRANCH   1  10
ATOM     10  C   UNL     1      81.898   6.525  28.328  1.00  0.00     0.111 C 
BRANCH  10  11
ATOM     11  C   UNL     1      82.108   5.038  28.433  1.00  0.00     0.163 C 
ATOM     12  O   UNL     1      81.130   4.322  28.775  1.00  0.00    -0.294 OA
BRANCH  11  13
ATOM     13  C   UNL     1      83.440   4.399  28.208  1.00  0.00    -0.002 C 
ATOM     14  C   UNL     1      83.744   3.197  28.783  1.00  0.00    -0.069 C 
ATOM     15  C   UNL     1      82.700   2.399  29.533  1.00  0.00     0.039 C 
ATOM     16  C   UNL     1      85.133   2.601  28.706  1.00  0.00     0.039 C 
BRANCH  13  17
ATOM     17  C   UNL     1      84.460   5.184  27.400  1.00  0.00     0.066 CG0
ATOM     18  G   UNL     1      84.718   4.565  26.040  1.00  0.00     0.000 G0
ENDBRANCH  13  17
ENDBRANCH  11  13
ENDBRANCH  10  11
ENDBRANCH   1  10
TORSDOF 0
ENDMDL
