MODEL 1
REMARK VINA RESULT:    -6.563      0.000      0.000
REMARK INTER + INTRA:         -12.998
REMARK INTER:                 -10.783
REMARK INTRA:                  -2.214
REMARK UNBOUND:                -2.214
REMARK SMILES COc1ccc([C@H]2CC(=O)c3c(O)cc(O[C@H]4O[C@@H](CO[C@@H]5O[C@@H](C)[C@@H](O)[C@H](O)[C@H]5O)[C@@H](O)[C@H](O)[C@@H]4O)cc3O2)cc1O
REMARK SMILES IDX 19 1 32 2 34 3 36 4 17 5 18 6 20 7 21 8 22 9 25 10 24 11
REMARK SMILES IDX 26 12 23 13 28 14 30 15 27 16 29 18 31 20 33 22 35 24 16 26
REMARK SMILES IDX 15 27 14 28 38 29 12 30 39 31 11 32 40 33 9 34 7 35 10 36
REMARK SMILES IDX 8 37 13 38 6 40 41 41 5 42 42 43 4 44 3 45 43 46 2 48 1 49
REMARK SMILES IDX 37 50
REMARK H PARENT 27 17 29 19 31 21 33 23 35 25 13 39 43 47 37 51
REMARK Flexibility Score: inf
ROOT
ATOM      1  C   UNL     1      36.068 -49.000 -16.056  1.00  0.00     0.180 C 
ATOM      2  C   UNL     1      35.534 -50.217 -15.052  1.00  0.00     0.177 C 
ATOM      3  C   UNL     1      36.409 -50.737 -13.874  1.00  0.00     0.180 C 
ATOM      4  C   UNL     1      37.695 -49.908 -13.693  1.00  0.00     0.214 C 
ATOM      5  C   UNL     1      37.759 -48.465 -14.310  1.00  0.00     0.339 C 
ATOM      6  O   UNL     1      37.043 -48.199 -15.488  1.00  0.00    -0.332 OA
ENDROOT
BRANCH   1   7
ATOM      7  C   UNL     1      36.656 -49.277 -17.493  1.00  0.00     0.198 C 
BRANCH   7   8
ATOM      8  O   UNL     1      37.867 -50.110 -17.565  1.00  0.00    -0.347 OA
BRANCH   8   9
ATOM      9  C   UNL     1      38.713 -49.789 -18.660  1.00  0.00     0.281 C 
ATOM     10  C   UNL     1      41.714 -49.647 -20.391  1.00  0.00     0.041 C 
ATOM     11  C   UNL     1      41.162 -49.378 -18.895  1.00  0.00     0.150 C 
ATOM     12  C   UNL     1      41.077 -47.954 -18.285  1.00  0.00     0.174 C 
ATOM     13  O   UNL     1      40.056 -50.148 -18.428  1.00  0.00    -0.344 OA
ATOM     14  C   UNL     1      39.669 -47.268 -18.527  1.00  0.00     0.179 C 
ATOM     15  C   UNL     1      38.595 -48.318 -19.109  1.00  0.00     0.202 C 
BRANCH  12  16
ATOM     16  O   UNL     1      42.151 -47.186 -18.719  1.00  0.00    -0.388 OA
ATOM     17  H   UNL     1      41.976 -46.214 -18.506  1.00  0.00     0.211 HD
ENDBRANCH  12  16
BRANCH  14  18
ATOM     18  O   UNL     1      39.069 -46.654 -17.429  1.00  0.00    -0.387 OA
ATOM     19  H   UNL     1      38.555 -47.342 -16.926  1.00  0.00     0.211 HD
ENDBRANCH  14  18
BRANCH  15  20
ATOM     20  O   UNL     1      38.500 -48.264 -20.546  1.00  0.00    -0.385 OA
ATOM     21  H   UNL     1      37.787 -48.874 -20.833  1.00  0.00     0.211 HD
ENDBRANCH  15  20
ENDBRANCH   8   9
ENDBRANCH   7   8
ENDBRANCH   1   7
BRANCH   2  22
ATOM     22  O   UNL     1      34.978 -51.307 -15.814  1.00  0.00    -0.387 OA
ATOM     23  H   UNL     1      35.814 -51.826 -16.115  1.00  0.00     0.211 HD
ENDBRANCH   2  22
BRANCH   3  24
ATOM     24  O   UNL     1      35.604 -50.675 -12.664  1.00  0.00    -0.387 OA
ATOM     25  H   UNL     1      36.024 -51.282 -11.960  1.00  0.00     0.211 HD
ENDBRANCH   3  24
BRANCH   5  26
ATOM     26  O   UNL     1      39.047 -47.858 -14.531  1.00  0.00    -0.462 OA
BRANCH  26  27
ATOM     27  C   UNL     1      40.174 -48.772 -14.126  1.00  0.00     0.130 A 
ATOM     28  C   UNL     1      40.892 -48.297 -13.030  1.00  0.00     0.093 A 
ATOM     29  C   UNL     1      40.777 -49.745 -14.964  1.00  0.00     0.094 A 
ATOM     30  C   UNL     1      42.283 -48.642 -13.034  1.00  0.00     0.133 A 
ATOM     31  C   UNL     1      42.260 -49.751 -15.089  1.00  0.00     0.138 A 
ATOM     32  C   UNL     1      42.868 -48.809 -14.214  1.00  0.00     0.102 A 
ATOM     33  O   UNL     1      43.183 -50.544 -15.982  1.00  0.00    -0.484 OA
ATOM     34  C   UNL     1      44.320 -48.475 -14.380  1.00  0.00     0.174 C 
ATOM     35  C   UNL     1      44.691 -50.408 -15.680  1.00  0.00     0.211 C 
ATOM     36  O   UNL     1      45.060 -48.176 -13.290  1.00  0.00    -0.294 OA
ATOM     37  C   UNL     1      44.941 -48.875 -15.626  1.00  0.00     0.131 C 
BRANCH  30  38
ATOM     38  O   UNL     1      42.802 -49.311 -11.926  1.00  0.00    -0.507 OA
ATOM     39  H   UNL     1      42.773 -48.866 -11.046  1.00  0.00     0.293 HD
ENDBRANCH  30  38
BRANCH  35  40
ATOM     40  C   UNL     1      46.243 -51.003 -15.813  1.00  0.00    -0.003 A 
ATOM     41  C   UNL     1      46.655 -51.449 -14.490  1.00  0.00     0.057 A 
ATOM     42  C   UNL     1      47.330 -50.752 -16.709  1.00  0.00     0.011 A 
ATOM     43  C   UNL     1      47.970 -51.759 -14.178  1.00  0.00     0.158 A 
ATOM     44  C   UNL     1      48.759 -50.978 -16.297  1.00  0.00     0.051 A 
ATOM     45  C   UNL     1      49.044 -51.620 -15.092  1.00  0.00     0.160 A 
BRANCH  43  46
ATOM     46  O   UNL     1      48.358 -52.110 -12.884  1.00  0.00    -0.504 OA
ATOM     47  H   UNL     1      49.395 -52.188 -12.633  1.00  0.00     0.293 HD
ENDBRANCH  43  46
BRANCH  45  48
ATOM     48  O   UNL     1      50.344 -51.971 -14.791  1.00  0.00    -0.493 OA
ATOM     49  C   UNL     1      51.311 -51.039 -14.620  1.00  0.00     0.278 C 
ENDBRANCH  45  48
ENDBRANCH  35  40
ENDBRANCH  26  27
ENDBRANCH   5  26
BRANCH   4  50
ATOM     50  O   UNL     1      38.100 -49.914 -12.293  1.00  0.00    -0.384 OA
ATOM     51  H   UNL     1      38.666 -49.068 -12.010  1.00  0.00     0.211 HD
ENDBRANCH   4  50
TORSDOF 15
ENDMDL
MODEL 2
REMARK VINA RESULT:    -6.553      3.237      9.434
REMARK INTER + INTRA:         -12.982
REMARK INTER:                 -10.838
REMARK INTRA:                  -2.144
REMARK UNBOUND:                -2.214
REMARK SMILES COc1ccc([C@H]2CC(=O)c3c(O)cc(O[C@H]4O[C@@H](CO[C@@H]5O[C@@H](C)[C@@H](O)[C@H](O)[C@H]5O)[C@@H](O)[C@H](O)[C@@H]4O)cc3O2)cc1O
REMARK SMILES IDX 19 1 32 2 34 3 36 4 17 5 18 6 20 7 21 8 22 9 25 10 24 11
REMARK SMILES IDX 26 12 23 13 28 14 30 15 27 16 29 18 31 20 33 22 35 24 16 26
REMARK SMILES IDX 15 27 14 28 38 29 12 30 39 31 11 32 40 33 9 34 7 35 10 36
REMARK SMILES IDX 8 37 13 38 6 40 41 41 5 42 42 43 4 44 3 45 43 46 2 48 1 49
REMARK SMILES IDX 37 50
REMARK H PARENT 27 17 29 19 31 21 33 23 35 25 13 39 43 47 37 51
REMARK Flexibility Score: inf
ROOT
ATOM      1  C   UNL     1      47.767 -46.875 -11.748  1.00  0.00     0.180 C 
ATOM      2  C   UNL     1      48.285 -45.458 -12.454  1.00  0.00     0.177 C 
ATOM      3  C   UNL     1      47.468 -44.139 -12.318  1.00  0.00     0.180 C 
ATOM      4  C   UNL     1      46.265 -44.294 -11.368  1.00  0.00     0.214 C 
ATOM      5  C   UNL     1      46.261 -45.481 -10.340  1.00  0.00     0.339 C 
ATOM      6  O   UNL     1      46.900 -46.681 -10.686  1.00  0.00    -0.332 OA
ENDROOT
BRANCH   1   7
ATOM      7  C   UNL     1      47.050 -48.019 -12.563  1.00  0.00     0.198 C 
BRANCH   7   8
ATOM      8  O   UNL     1      46.255 -47.605 -13.730  1.00  0.00    -0.347 OA
BRANCH   8   9
ATOM      9  C   UNL     1      46.060 -48.641 -14.681  1.00  0.00     0.281 C 
ATOM     10  C   UNL     1      44.325 -50.413 -17.104  1.00  0.00     0.041 C 
ATOM     11  C   UNL     1      44.045 -49.737 -15.663  1.00  0.00     0.150 C 
ATOM     12  C   UNL     1      43.768 -50.579 -14.390  1.00  0.00     0.174 C 
ATOM     13  O   UNL     1      44.793 -48.579 -15.296  1.00  0.00    -0.344 OA
ATOM     14  C   UNL     1      45.085 -50.899 -13.569  1.00  0.00     0.179 C 
ATOM     15  C   UNL     1      46.339 -50.048 -14.113  1.00  0.00     0.202 C 
BRANCH  12  16
ATOM     16  O   UNL     1      43.031 -51.711 -14.720  1.00  0.00    -0.388 OA
ATOM     17  H   UNL     1      43.379 -52.502 -14.197  1.00  0.00     0.211 HD
ENDBRANCH  12  16
BRANCH  14  18
ATOM     18  O   UNL     1      45.035 -50.695 -12.191  1.00  0.00    -0.387 OA
ATOM     19  H   UNL     1      45.195 -51.567 -11.738  1.00  0.00     0.211 HD
ENDBRANCH  14  18
BRANCH  15  20
ATOM     20  O   UNL     1      47.138 -50.792 -15.055  1.00  0.00    -0.385 OA
ATOM     21  H   UNL     1      46.918 -50.485 -15.960  1.00  0.00     0.211 HD
ENDBRANCH  15  20
ENDBRANCH   8   9
ENDBRANCH   7   8
ENDBRANCH   1   7
BRANCH   2  22
ATOM     22  O   UNL     1      48.699 -45.681 -13.816  1.00  0.00    -0.387 OA
ATOM     23  H   UNL     1      49.379 -44.925 -13.976  1.00  0.00     0.211 HD
ENDBRANCH   2  22
BRANCH   3  24
ATOM     24  O   UNL     1      48.368 -43.111 -11.817  1.00  0.00    -0.387 OA
ATOM     25  H   UNL     1      49.008 -42.844 -12.565  1.00  0.00     0.211 HD
ENDBRANCH   3  24
BRANCH   5  26
ATOM     26  O   UNL     1      45.007 -45.898  -9.763  1.00  0.00    -0.462 OA
BRANCH  26  27
ATOM     27  C   UNL     1      43.854 -45.667 -10.703  1.00  0.00     0.130 A 
ATOM     28  C   UNL     1      42.757 -45.073 -10.080  1.00  0.00     0.093 A 
ATOM     29  C   UNL     1      43.652 -46.346 -11.932  1.00  0.00     0.094 A 
ATOM     30  C   UNL     1      41.485 -45.461 -10.616  1.00  0.00     0.133 A 
ATOM     31  C   UNL     1      42.326 -46.971 -12.187  1.00  0.00     0.138 A 
ATOM     32  C   UNL     1      41.393 -46.671 -11.156  1.00  0.00     0.102 A 
ATOM     33  O   UNL     1      41.841 -47.862 -13.304  1.00  0.00    -0.484 OA
ATOM     34  C   UNL     1      40.095 -47.419 -11.091  1.00  0.00     0.174 C 
ATOM     35  C   UNL     1      40.325 -48.156 -13.320  1.00  0.00     0.211 C 
ATOM     36  O   UNL     1      38.989 -46.788 -10.642  1.00  0.00    -0.294 OA
ATOM     37  C   UNL     1      40.005 -48.632 -11.877  1.00  0.00     0.131 C 
BRANCH  30  38
ATOM     38  O   UNL     1      40.620 -44.460 -11.056  1.00  0.00    -0.507 OA
ATOM     39  H   UNL     1      40.808 -44.014 -11.915  1.00  0.00     0.293 HD
ENDBRANCH  30  38
BRANCH  35  40
ATOM     40  C   UNL     1      38.964 -48.643 -14.152  1.00  0.00    -0.003 A 
ATOM     41  C   UNL     1      38.131 -49.395 -13.226  1.00  0.00     0.057 A 
ATOM     42  C   UNL     1      38.682 -48.899 -15.531  1.00  0.00     0.011 A 
ATOM     43  C   UNL     1      37.055 -50.164 -13.639  1.00  0.00     0.158 A 
ATOM     44  C   UNL     1      37.587 -49.841 -15.949  1.00  0.00     0.051 A 
ATOM     45  C   UNL     1      36.695 -50.339 -14.999  1.00  0.00     0.160 A 
BRANCH  43  46
ATOM     46  O   UNL     1      36.316 -50.940 -12.745  1.00  0.00    -0.504 OA
ATOM     47  H   UNL     1      36.060 -51.950 -12.989  1.00  0.00     0.293 HD
ENDBRANCH  43  46
BRANCH  45  48
ATOM     48  O   UNL     1      35.597 -51.070 -15.404  1.00  0.00    -0.493 OA
ATOM     49  C   UNL     1      35.117 -50.992 -16.667  1.00  0.00     0.278 C 
ENDBRANCH  45  48
ENDBRANCH  35  40
ENDBRANCH  26  27
ENDBRANCH   5  26
BRANCH   4  50
ATOM     50  O   UNL     1      45.971 -43.020 -10.722  1.00  0.00    -0.384 OA
ATOM     51  H   UNL     1      45.100 -42.549 -11.089  1.00  0.00     0.211 HD
ENDBRANCH   4  50
TORSDOF 15
ENDMDL
MODEL 3
REMARK VINA RESULT:    -6.465      3.385      6.500
REMARK INTER + INTRA:         -12.836
REMARK INTER:                 -10.096
REMARK INTRA:                  -2.741
REMARK UNBOUND:                -2.214
REMARK SMILES COc1ccc([C@H]2CC(=O)c3c(O)cc(O[C@H]4O[C@@H](CO[C@@H]5O[C@@H](C)[C@@H](O)[C@H](O)[C@H]5O)[C@@H](O)[C@H](O)[C@@H]4O)cc3O2)cc1O
REMARK SMILES IDX 19 1 32 2 34 3 36 4 17 5 18 6 20 7 21 8 22 9 25 10 24 11
REMARK SMILES IDX 26 12 23 13 28 14 30 15 27 16 29 18 31 20 33 22 35 24 16 26
REMARK SMILES IDX 15 27 14 28 38 29 12 30 39 31 11 32 40 33 9 34 7 35 10 36
REMARK SMILES IDX 8 37 13 38 6 40 41 41 5 42 42 43 4 44 3 45 43 46 2 48 1 49
REMARK SMILES IDX 37 50
REMARK H PARENT 27 17 29 19 31 21 33 23 35 25 13 39 43 47 37 51
REMARK Flexibility Score: inf
ROOT
ATOM      1  C   UNL     1      38.108 -49.479 -14.490  1.00  0.00     0.180 C 
ATOM      2  C   UNL     1      36.653 -50.288 -14.474  1.00  0.00     0.177 C 
ATOM      3  C   UNL     1      35.412 -49.739 -15.237  1.00  0.00     0.180 C 
ATOM      4  C   UNL     1      35.750 -48.494 -16.080  1.00  0.00     0.214 C 
ATOM      5  C   UNL     1      37.250 -48.221 -16.458  1.00  0.00     0.339 C 
ATOM      6  O   UNL     1      38.258 -48.627 -15.571  1.00  0.00    -0.332 OA
ENDROOT
BRANCH   1   7
ATOM      7  C   UNL     1      38.598 -48.584 -13.287  1.00  0.00     0.198 C 
BRANCH   7   8
ATOM      8  O   UNL     1      39.584 -49.183 -12.373  1.00  0.00    -0.347 OA
BRANCH   8   9
ATOM      9  C   UNL     1      40.877 -48.604 -12.475  1.00  0.00     0.281 C 
ATOM     10  C   UNL     1      43.157 -46.064 -13.086  1.00  0.00     0.041 C 
ATOM     11  C   UNL     1      41.819 -46.680 -13.753  1.00  0.00     0.150 C 
ATOM     12  C   UNL     1      41.845 -47.462 -15.093  1.00  0.00     0.174 C 
ATOM     13  O   UNL     1      40.836 -47.260 -12.898  1.00  0.00    -0.344 OA
ATOM     14  C   UNL     1      42.014 -49.024 -14.887  1.00  0.00     0.179 C 
ATOM     15  C   UNL     1      41.849 -49.435 -13.338  1.00  0.00     0.202 C 
BRANCH  12  16
ATOM     16  O   UNL     1      42.790 -46.909 -15.948  1.00  0.00    -0.388 OA
ATOM     17  H   UNL     1      42.355 -46.194 -16.513  1.00  0.00     0.211 HD
ENDBRANCH  12  16
BRANCH  14  18
ATOM     18  O   UNL     1      41.158 -49.852 -15.611  1.00  0.00    -0.387 OA
ATOM     19  H   UNL     1      41.036 -49.462 -16.518  1.00  0.00     0.211 HD
ENDBRANCH  14  18
BRANCH  15  20
ATOM     20  O   UNL     1      43.118 -49.539 -12.662  1.00  0.00    -0.385 OA
ATOM     21  H   UNL     1      43.749 -49.999 -13.256  1.00  0.00     0.211 HD
ENDBRANCH  15  20
ENDBRANCH   8   9
ENDBRANCH   7   8
ENDBRANCH   1   7
BRANCH   2  22
ATOM     22  O   UNL     1      36.306 -50.701 -13.137  1.00  0.00    -0.387 OA
ATOM     23  H   UNL     1      35.763 -49.901 -12.784  1.00  0.00     0.211 HD
ENDBRANCH   2  22
BRANCH   3  24
ATOM     24  O   UNL     1      34.916 -50.801 -16.098  1.00  0.00    -0.387 OA
ATOM     25  H   UNL     1      35.063 -51.697 -15.631  1.00  0.00     0.211 HD
ENDBRANCH   3  24
BRANCH   5  26
ATOM     26  O   UNL     1      37.637 -46.889 -16.852  1.00  0.00    -0.462 OA
BRANCH  26  27
ATOM     27  C   UNL     1      38.539 -46.904 -18.058  1.00  0.00     0.130 A 
ATOM     28  C   UNL     1      37.927 -47.446 -19.188  1.00  0.00     0.093 A 
ATOM     29  C   UNL     1      39.956 -46.835 -18.021  1.00  0.00     0.094 A 
ATOM     30  C   UNL     1      38.816 -48.137 -20.074  1.00  0.00     0.133 A 
ATOM     31  C   UNL     1      40.735 -47.855 -18.773  1.00  0.00     0.138 A 
ATOM     32  C   UNL     1      39.892 -48.705 -19.540  1.00  0.00     0.102 A 
ATOM     33  O   UNL     1      42.216 -48.140 -18.826  1.00  0.00    -0.484 OA
ATOM     34  C   UNL     1      40.456 -49.953 -20.150  1.00  0.00     0.174 C 
ATOM     35  C   UNL     1      42.665 -49.172 -19.884  1.00  0.00     0.211 C 
ATOM     36  O   UNL     1      39.974 -50.388 -21.335  1.00  0.00    -0.294 OA
ATOM     37  C   UNL     1      41.740 -50.398 -19.651  1.00  0.00     0.131 C 
BRANCH  30  38
ATOM     38  O   UNL     1      38.858 -47.742 -21.411  1.00  0.00    -0.507 OA
ATOM     39  H   UNL     1      38.038 -47.386 -21.826  1.00  0.00     0.293 HD
ENDBRANCH  30  38
BRANCH  35  40
ATOM     40  C   UNL     1      43.871 -49.828 -20.831  1.00  0.00    -0.003 A 
ATOM     41  C   UNL     1      44.086 -48.926 -21.952  1.00  0.00     0.057 A 
ATOM     42  C   UNL     1      44.345 -51.159 -21.054  1.00  0.00     0.011 A 
ATOM     43  C   UNL     1      44.827 -49.279 -23.069  1.00  0.00     0.158 A 
ATOM     44  C   UNL     1      45.035 -51.546 -22.332  1.00  0.00     0.051 A 
ATOM     45  C   UNL     1      45.399 -50.563 -23.253  1.00  0.00     0.160 A 
BRANCH  43  46
ATOM     46  O   UNL     1      44.958 -48.429 -24.168  1.00  0.00    -0.504 OA
ATOM     47  H   UNL     1      44.181 -48.370 -24.901  1.00  0.00     0.293 HD
ENDBRANCH  43  46
BRANCH  45  48
ATOM     48  O   UNL     1      46.173 -50.898 -24.346  1.00  0.00    -0.493 OA
ATOM     49  C   UNL     1      45.701 -51.691 -25.335  1.00  0.00     0.278 C 
ENDBRANCH  45  48
ENDBRANCH  35  40
ENDBRANCH  26  27
ENDBRANCH   5  26
BRANCH   4  50
ATOM     50  O   UNL     1      34.879 -48.429 -17.247  1.00  0.00    -0.384 OA
ATOM     51  H   UNL     1      35.390 -48.539 -18.165  1.00  0.00     0.211 HD
ENDBRANCH   4  50
TORSDOF 15
ENDMDL
MODEL 4
REMARK VINA RESULT:    -6.387      2.758      3.760
REMARK INTER + INTRA:         -12.709
REMARK INTER:                 -10.640
REMARK INTRA:                  -2.069
REMARK UNBOUND:                -2.214
REMARK SMILES COc1ccc([C@H]2CC(=O)c3c(O)cc(O[C@H]4O[C@@H](CO[C@@H]5O[C@@H](C)[C@@H](O)[C@H](O)[C@H]5O)[C@@H](O)[C@H](O)[C@@H]4O)cc3O2)cc1O
REMARK SMILES IDX 19 1 32 2 34 3 36 4 17 5 18 6 20 7 21 8 22 9 25 10 24 11
REMARK SMILES IDX 26 12 23 13 28 14 30 15 27 16 29 18 31 20 33 22 35 24 16 26
REMARK SMILES IDX 15 27 14 28 38 29 12 30 39 31 11 32 40 33 9 34 7 35 10 36
REMARK SMILES IDX 8 37 13 38 6 40 41 41 5 42 42 43 4 44 3 45 43 46 2 48 1 49
REMARK SMILES IDX 37 50
REMARK H PARENT 27 17 29 19 31 21 33 23 35 25 13 39 43 47 37 51
REMARK Flexibility Score: inf
ROOT
ATOM      1  C   UNL     1      35.861 -49.187 -15.613  1.00  0.00     0.180 C 
ATOM      2  C   UNL     1      36.045 -50.429 -16.708  1.00  0.00     0.177 C 
ATOM      3  C   UNL     1      37.418 -50.718 -17.382  1.00  0.00     0.180 C 
ATOM      4  C   UNL     1      38.546 -49.839 -16.809  1.00  0.00     0.214 C 
ATOM      5  C   UNL     1      38.341 -49.167 -15.404  1.00  0.00     0.339 C 
ATOM      6  O   UNL     1      37.046 -48.800 -15.010  1.00  0.00    -0.332 OA
ENDROOT
BRANCH   1   7
ATOM      7  C   UNL     1      35.212 -47.802 -15.997  1.00  0.00     0.198 C 
BRANCH   7   8
ATOM      8  O   UNL     1      36.105 -46.632 -16.011  1.00  0.00    -0.347 OA
BRANCH   8   9
ATOM      9  C   UNL     1      36.450 -46.196 -17.318  1.00  0.00     0.281 C 
ATOM     10  C   UNL     1      37.545 -46.584 -20.585  1.00  0.00     0.041 C 
ATOM     11  C   UNL     1      37.948 -47.088 -19.103  1.00  0.00     0.150 C 
ATOM     12  C   UNL     1      39.239 -46.613 -18.387  1.00  0.00     0.174 C 
ATOM     13  O   UNL     1      36.914 -47.249 -18.133  1.00  0.00    -0.344 OA
ATOM     14  C   UNL     1      39.003 -45.333 -17.482  1.00  0.00     0.179 C 
ATOM     15  C   UNL     1      37.433 -45.007 -17.323  1.00  0.00     0.202 C 
BRANCH  12  16
ATOM     16  O   UNL     1      40.266 -46.458 -19.310  1.00  0.00    -0.388 OA
ATOM     17  H   UNL     1      41.149 -46.397 -18.824  1.00  0.00     0.211 HD
ENDBRANCH  12  16
BRANCH  14  18
ATOM     18  O   UNL     1      39.535 -45.363 -16.195  1.00  0.00    -0.387 OA
ATOM     19  H   UNL     1      39.672 -44.425 -15.890  1.00  0.00     0.211 HD
ENDBRANCH  14  18
BRANCH  15  20
ATOM     20  O   UNL     1      36.981 -44.019 -18.270  1.00  0.00    -0.385 OA
ATOM     21  H   UNL     1      36.033 -44.185 -18.462  1.00  0.00     0.211 HD
ENDBRANCH  15  20
ENDBRANCH   8   9
ENDBRANCH   7   8
ENDBRANCH   1   7
BRANCH   2  22
ATOM     22  O   UNL     1      34.975 -50.426 -17.674  1.00  0.00    -0.387 OA
ATOM     23  H   UNL     1      35.101 -49.523 -18.152  1.00  0.00     0.211 HD
ENDBRANCH   2  22
BRANCH   3  24
ATOM     24  O   UNL     1      37.727 -52.124 -17.169  1.00  0.00    -0.387 OA
ATOM     25  H   UNL     1      37.164 -52.684 -17.810  1.00  0.00     0.211 HD
ENDBRANCH   3  24
BRANCH   5  26
ATOM     26  O   UNL     1      39.157 -48.032 -15.050  1.00  0.00    -0.462 OA
BRANCH  26  27
ATOM     27  C   UNL     1      40.395 -48.445 -14.299  1.00  0.00     0.130 A 
ATOM     28  C   UNL     1      40.252 -48.341 -12.916  1.00  0.00     0.093 A 
ATOM     29  C   UNL     1      41.703 -48.494 -14.844  1.00  0.00     0.094 A 
ATOM     30  C   UNL     1      41.457 -48.009 -12.215  1.00  0.00     0.133 A 
ATOM     31  C   UNL     1      42.802 -47.806 -14.113  1.00  0.00     0.138 A 
ATOM     32  C   UNL     1      42.362 -47.286 -12.865  1.00  0.00     0.102 A 
ATOM     33  O   UNL     1      44.244 -47.556 -14.484  1.00  0.00    -0.484 OA
ATOM     34  C   UNL     1      43.240 -46.335 -12.108  1.00  0.00     0.174 C 
ATOM     35  C   UNL     1      45.132 -46.967 -13.367  1.00  0.00     0.211 C 
ATOM     36  O   UNL     1      43.224 -46.351 -10.758  1.00  0.00    -0.294 OA
ATOM     37  C   UNL     1      44.337 -45.740 -12.841  1.00  0.00     0.131 C 
BRANCH  30  38
ATOM     38  O   UNL     1      41.880 -48.853 -11.190  1.00  0.00    -0.507 OA
ATOM     39  H   UNL     1      42.149 -48.456 -10.328  1.00  0.00     0.293 HD
ENDBRANCH  30  38
BRANCH  35  40
ATOM     40  C   UNL     1      46.650 -46.689 -12.734  1.00  0.00    -0.003 A 
ATOM     41  C   UNL     1      47.463 -47.863 -13.013  1.00  0.00     0.057 A 
ATOM     42  C   UNL     1      47.147 -45.875 -11.666  1.00  0.00     0.011 A 
ATOM     43  C   UNL     1      48.691 -48.086 -12.411  1.00  0.00     0.158 A 
ATOM     44  C   UNL     1      48.422 -46.215 -10.946  1.00  0.00     0.051 A 
ATOM     45  C   UNL     1      49.249 -47.228 -11.431  1.00  0.00     0.160 A 
BRANCH  43  46
ATOM     46  O   UNL     1      49.420 -49.255 -12.633  1.00  0.00    -0.504 OA
ATOM     47  H   UNL     1      49.513 -49.656 -13.620  1.00  0.00     0.293 HD
ENDBRANCH  43  46
BRANCH  45  48
ATOM     48  O   UNL     1      50.492 -47.430 -10.866  1.00  0.00    -0.493 OA
ATOM     49  C   UNL     1      50.672 -48.280  -9.829  1.00  0.00     0.278 C 
ENDBRANCH  45  48
ENDBRANCH  35  40
ENDBRANCH  26  27
ENDBRANCH   5  26
BRANCH   4  50
ATOM     50  O   UNL     1      39.819 -50.544 -16.889  1.00  0.00    -0.384 OA
ATOM     51  H   UNL     1      40.531 -50.217 -16.181  1.00  0.00     0.211 HD
ENDBRANCH   4  50
TORSDOF 15
ENDMDL
MODEL 5
REMARK VINA RESULT:    -6.369      4.406      7.930
REMARK INTER + INTRA:         -12.679
REMARK INTER:                 -10.804
REMARK INTRA:                  -1.875
REMARK UNBOUND:                -2.214
REMARK SMILES COc1ccc([C@H]2CC(=O)c3c(O)cc(O[C@H]4O[C@@H](CO[C@@H]5O[C@@H](C)[C@@H](O)[C@H](O)[C@H]5O)[C@@H](O)[C@H](O)[C@@H]4O)cc3O2)cc1O
REMARK SMILES IDX 19 1 32 2 34 3 36 4 17 5 18 6 20 7 21 8 22 9 25 10 24 11
REMARK SMILES IDX 26 12 23 13 28 14 30 15 27 16 29 18 31 20 33 22 35 24 16 26
REMARK SMILES IDX 15 27 14 28 38 29 12 30 39 31 11 32 40 33 9 34 7 35 10 36
REMARK SMILES IDX 8 37 13 38 6 40 41 41 5 42 42 43 4 44 3 45 43 46 2 48 1 49
REMARK SMILES IDX 37 50
REMARK H PARENT 27 17 29 19 31 21 33 23 35 25 13 39 43 47 37 51
REMARK Flexibility Score: inf
ROOT
ATOM      1  C   UNL     1      36.408 -47.403 -18.339  1.00  0.00     0.180 C 
ATOM      2  C   UNL     1      37.201 -47.271 -19.798  1.00  0.00     0.177 C 
ATOM      3  C   UNL     1      38.599 -47.918 -20.022  1.00  0.00     0.180 C 
ATOM      4  C   UNL     1      39.044 -48.774 -18.821  1.00  0.00     0.214 C 
ATOM      5  C   UNL     1      37.957 -49.277 -17.806  1.00  0.00     0.339 C 
ATOM      6  O   UNL     1      36.821 -48.484 -17.580  1.00  0.00    -0.332 OA
ENDROOT
BRANCH   1   7
ATOM      7  C   UNL     1      36.379 -46.238 -17.277  1.00  0.00     0.198 C 
BRANCH   7   8
ATOM      8  O   UNL     1      37.358 -45.154 -17.454  1.00  0.00    -0.347 OA
BRANCH   8   9
ATOM      9  C   UNL     1      36.766 -43.872 -17.603  1.00  0.00     0.281 C 
ATOM     10  C   UNL     1      35.420 -41.205 -19.364  1.00  0.00     0.041 C 
ATOM     11  C   UNL     1      36.689 -42.203 -19.456  1.00  0.00     0.150 C 
ATOM     12  C   UNL     1      38.143 -41.723 -19.210  1.00  0.00     0.174 C 
ATOM     13  O   UNL     1      36.549 -43.531 -18.953  1.00  0.00    -0.344 OA
ATOM     14  C   UNL     1      38.595 -41.889 -17.700  1.00  0.00     0.179 C 
ATOM     15  C   UNL     1      37.531 -42.758 -16.859  1.00  0.00     0.202 C 
BRANCH  12  16
ATOM     16  O   UNL     1      38.307 -40.433 -19.700  1.00  0.00    -0.388 OA
ATOM     17  H   UNL     1      38.552 -39.814 -18.941  1.00  0.00     0.211 HD
ENDBRANCH  12  16
BRANCH  14  18
ATOM     18  O   UNL     1      39.844 -42.466 -17.475  1.00  0.00    -0.387 OA
ATOM     19  H   UNL     1      40.463 -42.165 -18.195  1.00  0.00     0.211 HD
ENDBRANCH  14  18
BRANCH  15  20
ATOM     20  O   UNL     1      36.592 -41.930 -16.144  1.00  0.00    -0.385 OA
ATOM     21  H   UNL     1      36.393 -42.358 -15.284  1.00  0.00     0.211 HD
ENDBRANCH  15  20
ENDBRANCH   8   9
ENDBRANCH   7   8
ENDBRANCH   1   7
BRANCH   2  22
ATOM     22  O   UNL     1      37.167 -45.913 -20.282  1.00  0.00    -0.387 OA
ATOM     23  H   UNL     1      36.407 -45.492 -19.729  1.00  0.00     0.211 HD
ENDBRANCH   2  22
BRANCH   3  24
ATOM     24  O   UNL     1      38.517 -48.744 -21.217  1.00  0.00    -0.387 OA
ATOM     25  H   UNL     1      37.543 -48.787 -21.520  1.00  0.00     0.211 HD
ENDBRANCH   3  24
BRANCH   5  26
ATOM     26  O   UNL     1      38.371 -49.690 -16.488  1.00  0.00    -0.462 OA
BRANCH  26  27
ATOM     27  C   UNL     1      39.226 -48.646 -15.818  1.00  0.00     0.130 A 
ATOM     28  C   UNL     1      40.441 -49.153 -15.358  1.00  0.00     0.093 A 
ATOM     29  C   UNL     1      38.749 -47.426 -15.274  1.00  0.00     0.094 A 
ATOM     30  C   UNL     1      40.940 -48.520 -14.173  1.00  0.00     0.133 A 
ATOM     31  C   UNL     1      39.129 -47.076 -13.879  1.00  0.00     0.138 A 
ATOM     32  C   UNL     1      40.048 -48.012 -13.330  1.00  0.00     0.102 A 
ATOM     33  O   UNL     1      38.687 -45.948 -12.977  1.00  0.00    -0.484 OA
ATOM     34  C   UNL     1      40.342 -47.987 -11.860  1.00  0.00     0.174 C 
ATOM     35  C   UNL     1      39.459 -45.810 -11.647  1.00  0.00     0.211 C 
ATOM     36  O   UNL     1      41.578 -48.318 -11.426  1.00  0.00    -0.294 OA
ATOM     37  C   UNL     1      39.428 -47.234 -11.027  1.00  0.00     0.131 C 
BRANCH  30  38
ATOM     38  O   UNL     1      42.223 -47.976 -14.204  1.00  0.00    -0.507 OA
ATOM     39  H   UNL     1      42.523 -47.424 -13.444  1.00  0.00     0.293 HD
ENDBRANCH  30  38
BRANCH  35  40
ATOM     40  C   UNL     1      39.919 -44.878 -10.342  1.00  0.00    -0.003 A 
ATOM     41  C   UNL     1      40.113 -45.774  -9.212  1.00  0.00     0.057 A 
ATOM     42  C   UNL     1      39.708 -43.512  -9.974  1.00  0.00     0.011 A 
ATOM     43  C   UNL     1      40.245 -45.321  -7.909  1.00  0.00     0.158 A 
ATOM     44  C   UNL     1      39.731 -43.070  -8.537  1.00  0.00     0.051 A 
ATOM     45  C   UNL     1      40.149 -43.954  -7.543  1.00  0.00     0.160 A 
BRANCH  43  46
ATOM     46  O   UNL     1      40.353 -46.198  -6.829  1.00  0.00    -0.504 OA
ATOM     47  H   UNL     1      39.664 -47.009  -6.720  1.00  0.00     0.293 HD
ENDBRANCH  43  46
BRANCH  45  48
ATOM     48  O   UNL     1      40.325 -43.503  -6.250  1.00  0.00    -0.493 OA
ATOM     49  C   UNL     1      41.444 -42.841  -5.875  1.00  0.00     0.278 C 
ENDBRANCH  45  48
ENDBRANCH  35  40
ENDBRANCH  26  27
ENDBRANCH   5  26
BRANCH   4  50
ATOM     50  O   UNL     1      39.904 -49.861 -19.273  1.00  0.00    -0.384 OA
ATOM     51  H   UNL     1      40.111 -49.837 -20.308  1.00  0.00     0.211 HD
ENDBRANCH   4  50
TORSDOF 15
ENDMDL
MODEL 6
REMARK VINA RESULT:    -6.368      3.608      7.674
REMARK INTER + INTRA:         -12.677
REMARK INTER:                 -10.092
REMARK INTRA:                  -2.585
REMARK UNBOUND:                -2.214
REMARK SMILES COc1ccc([C@H]2CC(=O)c3c(O)cc(O[C@H]4O[C@@H](CO[C@@H]5O[C@@H](C)[C@@H](O)[C@H](O)[C@H]5O)[C@@H](O)[C@H](O)[C@@H]4O)cc3O2)cc1O
REMARK SMILES IDX 19 1 32 2 34 3 36 4 17 5 18 6 20 7 21 8 22 9 25 10 24 11
REMARK SMILES IDX 26 12 23 13 28 14 30 15 27 16 29 18 31 20 33 22 35 24 16 26
REMARK SMILES IDX 15 27 14 28 38 29 12 30 39 31 11 32 40 33 9 34 7 35 10 36
REMARK SMILES IDX 8 37 13 38 6 40 41 41 5 42 42 43 4 44 3 45 43 46 2 48 1 49
REMARK SMILES IDX 37 50
REMARK H PARENT 27 17 29 19 31 21 33 23 35 25 13 39 43 47 37 51
REMARK Flexibility Score: inf
ROOT
ATOM      1  C   UNL     1      39.745 -50.547 -20.205  1.00  0.00     0.180 C 
ATOM      2  C   UNL     1      41.060 -50.314 -21.200  1.00  0.00     0.177 C 
ATOM      3  C   UNL     1      42.516 -50.438 -20.660  1.00  0.00     0.180 C 
ATOM      4  C   UNL     1      42.556 -50.927 -19.200  1.00  0.00     0.214 C 
ATOM      5  C   UNL     1      41.299 -51.662 -18.612  1.00  0.00     0.339 C 
ATOM      6  O   UNL     1      40.025 -51.309 -19.084  1.00  0.00    -0.332 OA
ENDROOT
BRANCH   1   7
ATOM      7  C   UNL     1      38.912 -49.352 -19.600  1.00  0.00     0.198 C 
BRANCH   7   8
ATOM      8  O   UNL     1      38.731 -48.169 -20.457  1.00  0.00    -0.347 OA
BRANCH   8   9
ATOM      9  C   UNL     1      38.638 -46.952 -19.731  1.00  0.00     0.281 C 
ATOM     10  C   UNL     1      39.310 -44.783 -17.111  1.00  0.00     0.041 C 
ATOM     11  C   UNL     1      38.928 -46.338 -17.330  1.00  0.00     0.150 C 
ATOM     12  C   UNL     1      37.551 -46.921 -16.918  1.00  0.00     0.174 C 
ATOM     13  O   UNL     1      39.366 -46.986 -18.524  1.00  0.00    -0.344 OA
ATOM     14  C   UNL     1      36.491 -46.880 -18.097  1.00  0.00     0.179 C 
ATOM     15  C   UNL     1      37.185 -46.492 -19.498  1.00  0.00     0.202 C 
BRANCH  12  16
ATOM     16  O   UNL     1      37.107 -46.312 -15.751  1.00  0.00    -0.388 OA
ATOM     17  H   UNL     1      37.582 -46.719 -14.958  1.00  0.00     0.211 HD
ENDBRANCH  12  16
BRANCH  14  18
ATOM     18  O   UNL     1      35.756 -48.041 -18.325  1.00  0.00    -0.387 OA
ATOM     19  H   UNL     1      35.774 -48.592 -17.496  1.00  0.00     0.211 HD
ENDBRANCH  14  18
BRANCH  15  20
ATOM     20  O   UNL     1      37.077 -45.084 -19.791  1.00  0.00    -0.385 OA
ATOM     21  H   UNL     1      37.904 -44.795 -20.232  1.00  0.00     0.211 HD
ENDBRANCH  15  20
ENDBRANCH   8   9
ENDBRANCH   7   8
ENDBRANCH   1   7
BRANCH   2  22
ATOM     22  O   UNL     1      40.897 -49.128 -22.002  1.00  0.00    -0.387 OA
ATOM     23  H   UNL     1      39.918 -48.863 -21.821  1.00  0.00     0.211 HD
ENDBRANCH   2  22
BRANCH   3  24
ATOM     24  O   UNL     1      43.226 -51.375 -21.518  1.00  0.00    -0.387 OA
ATOM     25  H   UNL     1      43.015 -52.325 -21.210  1.00  0.00     0.211 HD
ENDBRANCH   3  24
BRANCH   5  26
ATOM     26  O   UNL     1      41.141 -51.737 -17.181  1.00  0.00    -0.462 OA
BRANCH  26  27
ATOM     27  C   UNL     1      41.189 -50.376 -16.540  1.00  0.00     0.130 A 
ATOM     28  C   UNL     1      42.403 -50.117 -15.905  1.00  0.00     0.093 A 
ATOM     29  C   UNL     1      40.057 -49.600 -16.183  1.00  0.00     0.094 A 
ATOM     30  C   UNL     1      42.303 -49.277 -14.748  1.00  0.00     0.133 A 
ATOM     31  C   UNL     1      39.979 -49.055 -14.800  1.00  0.00     0.138 A 
ATOM     32  C   UNL     1      41.166 -49.315 -14.062  1.00  0.00     0.102 A 
ATOM     33  O   UNL     1      38.874 -48.326 -14.075  1.00  0.00    -0.484 OA
ATOM     34  C   UNL     1      41.182 -49.086 -12.580  1.00  0.00     0.174 C 
ATOM     35  C   UNL     1      39.245 -47.745 -12.694  1.00  0.00     0.211 C 
ATOM     36  O   UNL     1      42.322 -48.671 -11.986  1.00  0.00    -0.294 OA
ATOM     37  C   UNL     1      39.896 -48.932 -11.933  1.00  0.00     0.131 C 
BRANCH  30  38
ATOM     38  O   UNL     1      43.079 -48.120 -14.702  1.00  0.00    -0.507 OA
ATOM     39  H   UNL     1      43.703 -47.996 -13.948  1.00  0.00     0.293 HD
ENDBRANCH  30  38
BRANCH  35  40
ATOM     40  C   UNL     1      38.934 -46.672 -11.455  1.00  0.00    -0.003 A 
ATOM     41  C   UNL     1      38.571 -45.399 -12.059  1.00  0.00     0.057 A 
ATOM     42  C   UNL     1      39.372 -46.570 -10.097  1.00  0.00     0.011 A 
ATOM     43  C   UNL     1      38.500 -44.219 -11.336  1.00  0.00     0.158 A 
ATOM     44  C   UNL     1      39.404 -45.251  -9.377  1.00  0.00     0.051 A 
ATOM     45  C   UNL     1      38.825 -44.124  -9.960  1.00  0.00     0.160 A 
BRANCH  43  46
ATOM     46  O   UNL     1      38.226 -42.994 -11.947  1.00  0.00    -0.504 OA
ATOM     47  H   UNL     1      38.587 -42.788 -12.933  1.00  0.00     0.293 HD
ENDBRANCH  43  46
BRANCH  45  48
ATOM     48  O   UNL     1      38.711 -42.956  -9.234  1.00  0.00    -0.493 OA
ATOM     49  C   UNL     1      39.226 -42.841  -7.987  1.00  0.00     0.278 C 
ENDBRANCH  45  48
ENDBRANCH  35  40
ENDBRANCH  26  27
ENDBRANCH   5  26
BRANCH   4  50
ATOM     50  O   UNL     1      43.782 -51.679 -18.958  1.00  0.00    -0.384 OA
ATOM     51  H   UNL     1      44.640 -51.245 -19.394  1.00  0.00     0.211 HD
ENDBRANCH   4  50
TORSDOF 15
ENDMDL
MODEL 7
REMARK VINA RESULT:    -6.309      3.269      5.081
REMARK INTER + INTRA:         -12.581
REMARK INTER:                 -10.237
REMARK INTRA:                  -2.344
REMARK UNBOUND:                -2.214
REMARK SMILES COc1ccc([C@H]2CC(=O)c3c(O)cc(O[C@H]4O[C@@H](CO[C@@H]5O[C@@H](C)[C@@H](O)[C@H](O)[C@H]5O)[C@@H](O)[C@H](O)[C@@H]4O)cc3O2)cc1O
REMARK SMILES IDX 19 1 32 2 34 3 36 4 17 5 18 6 20 7 21 8 22 9 25 10 24 11
REMARK SMILES IDX 26 12 23 13 28 14 30 15 27 16 29 18 31 20 33 22 35 24 16 26
REMARK SMILES IDX 15 27 14 28 38 29 12 30 39 31 11 32 40 33 9 34 7 35 10 36
REMARK SMILES IDX 8 37 13 38 6 40 41 41 5 42 42 43 4 44 3 45 43 46 2 48 1 49
REMARK SMILES IDX 37 50
REMARK H PARENT 27 17 29 19 31 21 33 23 35 25 13 39 43 47 37 51
REMARK Flexibility Score: inf
ROOT
ATOM      1  C   UNL     1      36.090 -48.575 -15.904  1.00  0.00     0.180 C 
ATOM      2  C   UNL     1      35.487 -49.886 -15.072  1.00  0.00     0.177 C 
ATOM      3  C   UNL     1      36.325 -50.603 -13.974  1.00  0.00     0.180 C 
ATOM      4  C   UNL     1      37.651 -49.874 -13.683  1.00  0.00     0.214 C 
ATOM      5  C   UNL     1      37.794 -48.367 -14.102  1.00  0.00     0.339 C 
ATOM      6  O   UNL     1      37.101 -47.910 -15.234  1.00  0.00    -0.332 OA
ENDROOT
BRANCH   1   7
ATOM      7  C   UNL     1      36.673 -48.689 -17.365  1.00  0.00     0.198 C 
BRANCH   7   8
ATOM      8  O   UNL     1      36.427 -47.553 -18.268  1.00  0.00    -0.347 OA
BRANCH   8   9
ATOM      9  C   UNL     1      37.068 -46.354 -17.860  1.00  0.00     0.281 C 
ATOM     10  C   UNL     1      37.801 -42.967 -17.990  1.00  0.00     0.041 C 
ATOM     11  C   UNL     1      37.630 -44.211 -19.009  1.00  0.00     0.150 C 
ATOM     12  C   UNL     1      38.829 -44.827 -19.774  1.00  0.00     0.174 C 
ATOM     13  O   UNL     1      36.716 -45.252 -18.666  1.00  0.00    -0.344 OA
ATOM     14  C   UNL     1      39.496 -46.037 -18.997  1.00  0.00     0.179 C 
ATOM     15  C   UNL     1      38.600 -46.493 -17.739  1.00  0.00     0.202 C 
BRANCH  12  16
ATOM     16  O   UNL     1      39.731 -43.831 -20.128  1.00  0.00    -0.388 OA
ATOM     17  H   UNL     1      39.331 -43.259 -20.858  1.00  0.00     0.211 HD
ENDBRANCH  12  16
BRANCH  14  18
ATOM     18  O   UNL     1      39.763 -47.190 -19.733  1.00  0.00    -0.387 OA
ATOM     19  H   UNL     1      39.230 -47.938 -19.349  1.00  0.00     0.211 HD
ENDBRANCH  14  18
BRANCH  15  20
ATOM     20  O   UNL     1      39.038 -45.887 -16.506  1.00  0.00    -0.385 OA
ATOM     21  H   UNL     1      39.742 -46.449 -16.118  1.00  0.00     0.211 HD
ENDBRANCH  15  20
ENDBRANCH   8   9
ENDBRANCH   7   8
ENDBRANCH   1   7
BRANCH   2  22
ATOM     22  O   UNL     1      34.880 -50.833 -15.972  1.00  0.00    -0.387 OA
ATOM     23  H   UNL     1      33.874 -50.719 -15.781  1.00  0.00     0.211 HD
ENDBRANCH   2  22
BRANCH   3  24
ATOM     24  O   UNL     1      35.515 -50.661 -12.767  1.00  0.00    -0.387 OA
ATOM     25  H   UNL     1      34.658 -50.130 -12.922  1.00  0.00     0.211 HD
ENDBRANCH   3  24
BRANCH   5  26
ATOM     26  O   UNL     1      39.113 -47.804 -14.240  1.00  0.00    -0.462 OA
BRANCH  26  27
ATOM     27  C   UNL     1      40.074 -48.777 -14.870  1.00  0.00     0.130 A 
ATOM     28  C   UNL     1      41.376 -48.645 -14.388  1.00  0.00     0.093 A 
ATOM     29  C   UNL     1      39.873 -49.438 -16.109  1.00  0.00     0.094 A 
ATOM     30  C   UNL     1      42.400 -48.947 -15.345  1.00  0.00     0.133 A 
ATOM     31  C   UNL     1      40.955 -49.379 -17.128  1.00  0.00     0.138 A 
ATOM     32  C   UNL     1      42.120 -48.736 -16.626  1.00  0.00     0.102 A 
ATOM     33  O   UNL     1      41.002 -49.845 -18.563  1.00  0.00    -0.484 OA
ATOM     34  C   UNL     1      43.214 -48.341 -17.572  1.00  0.00     0.174 C 
ATOM     35  C   UNL     1      42.385 -49.780 -19.247  1.00  0.00     0.211 C 
ATOM     36  O   UNL     1      44.497 -48.374 -17.151  1.00  0.00    -0.294 OA
ATOM     37  C   UNL     1      42.883 -48.332 -18.981  1.00  0.00     0.131 C 
BRANCH  30  38
ATOM     38  O   UNL     1      43.351 -49.912 -15.014  1.00  0.00    -0.507 OA
ATOM     39  H   UNL     1      43.332 -50.306 -14.110  1.00  0.00     0.293 HD
ENDBRANCH  30  38
BRANCH  35  40
ATOM     40  C   UNL     1      43.413 -50.278 -20.462  1.00  0.00    -0.003 A 
ATOM     41  C   UNL     1      43.304 -49.318 -21.549  1.00  0.00     0.057 A 
ATOM     42  C   UNL     1      43.943 -51.548 -20.855  1.00  0.00     0.011 A 
ATOM     43  C   UNL     1      43.817 -49.555 -22.815  1.00  0.00     0.158 A 
ATOM     44  C   UNL     1      44.375 -51.817 -22.270  1.00  0.00     0.051 A 
ATOM     45  C   UNL     1      44.445 -50.770 -23.188  1.00  0.00     0.160 A 
BRANCH  43  46
ATOM     46  O   UNL     1      43.635 -48.656 -23.866  1.00  0.00    -0.504 OA
ATOM     47  H   UNL     1      43.976 -47.646 -23.779  1.00  0.00     0.293 HD
ENDBRANCH  43  46
BRANCH  45  48
ATOM     48  O   UNL     1      44.994 -50.985 -24.436  1.00  0.00    -0.493 OA
ATOM     49  C   UNL     1      46.334 -51.010 -24.629  1.00  0.00     0.278 C 
ENDBRANCH  45  48
ENDBRANCH  35  40
ENDBRANCH  26  27
ENDBRANCH   5  26
BRANCH   4  50
ATOM     50  O   UNL     1      38.045 -50.087 -12.296  1.00  0.00    -0.384 OA
ATOM     51  H   UNL     1      37.235 -50.287 -11.650  1.00  0.00     0.211 HD
ENDBRANCH   4  50
TORSDOF 15
ENDMDL
MODEL 8
REMARK VINA RESULT:    -6.206      2.307      5.567
REMARK INTER + INTRA:         -12.412
REMARK INTER:                  -9.668
REMARK INTRA:                  -2.743
REMARK UNBOUND:                -2.214
REMARK SMILES COc1ccc([C@H]2CC(=O)c3c(O)cc(O[C@H]4O[C@@H](CO[C@@H]5O[C@@H](C)[C@@H](O)[C@H](O)[C@H]5O)[C@@H](O)[C@H](O)[C@@H]4O)cc3O2)cc1O
REMARK SMILES IDX 19 1 32 2 34 3 36 4 17 5 18 6 20 7 21 8 22 9 25 10 24 11
REMARK SMILES IDX 26 12 23 13 28 14 30 15 27 16 29 18 31 20 33 22 35 24 16 26
REMARK SMILES IDX 15 27 14 28 38 29 12 30 39 31 11 32 40 33 9 34 7 35 10 36
REMARK SMILES IDX 8 37 13 38 6 40 41 41 5 42 42 43 4 44 3 45 43 46 2 48 1 49
REMARK SMILES IDX 37 50
REMARK H PARENT 27 17 29 19 31 21 33 23 35 25 13 39 43 47 37 51
REMARK Flexibility Score: inf
ROOT
ATOM      1  C   UNL     1      36.682 -45.901 -16.272  1.00  0.00     0.180 C 
ATOM      2  C   UNL     1      36.855 -44.432 -17.039  1.00  0.00     0.177 C 
ATOM      3  C   UNL     1      37.551 -44.320 -18.427  1.00  0.00     0.180 C 
ATOM      4  C   UNL     1      37.898 -45.699 -19.018  1.00  0.00     0.214 C 
ATOM      5  C   UNL     1      37.150 -46.967 -18.472  1.00  0.00     0.339 C 
ATOM      6  O   UNL     1      36.734 -46.985 -17.132  1.00  0.00    -0.332 OA
ENDROOT
BRANCH   1   7
ATOM      7  C   UNL     1      37.623 -46.362 -15.094  1.00  0.00     0.198 C 
BRANCH   7   8
ATOM      8  O   UNL     1      38.966 -45.762 -15.043  1.00  0.00    -0.347 OA
BRANCH   8   9
ATOM      9  C   UNL     1      39.522 -45.726 -13.736  1.00  0.00     0.281 C 
ATOM     10  C   UNL     1      42.072 -45.466 -11.400  1.00  0.00     0.041 C 
ATOM     11  C   UNL     1      41.782 -46.219 -12.801  1.00  0.00     0.150 C 
ATOM     12  C   UNL     1      41.588 -47.755 -12.892  1.00  0.00     0.174 C 
ATOM     13  O   UNL     1      40.925 -45.587 -13.751  1.00  0.00    -0.344 OA
ATOM     14  C   UNL     1      40.067 -48.188 -12.773  1.00  0.00     0.179 C 
ATOM     15  C   UNL     1      39.085 -46.915 -12.856  1.00  0.00     0.202 C 
BRANCH  12  16
ATOM     16  O   UNL     1      42.420 -48.395 -11.982  1.00  0.00    -0.388 OA
ATOM     17  H   UNL     1      42.870 -47.707 -11.397  1.00  0.00     0.211 HD
ENDBRANCH  12  16
BRANCH  14  18
ATOM     18  O   UNL     1      39.599 -49.112 -13.707  1.00  0.00    -0.387 OA
ATOM     19  H   UNL     1      38.614 -48.998 -13.793  1.00  0.00     0.211 HD
ENDBRANCH  14  18
BRANCH  15  20
ATOM     20  O   UNL     1      38.708 -46.429 -11.552  1.00  0.00    -0.385 OA
ATOM     21  H   UNL     1      39.524 -46.300 -11.021  1.00  0.00     0.211 HD
ENDBRANCH  15  20
ENDBRANCH   8   9
ENDBRANCH   7   8
ENDBRANCH   1   7
BRANCH   2  22
ATOM     22  O   UNL     1      37.339 -43.428 -16.125  1.00  0.00    -0.387 OA
ATOM     23  H   UNL     1      38.358 -43.579 -16.137  1.00  0.00     0.211 HD
ENDBRANCH   2  22
BRANCH   3  24
ATOM     24  O   UNL     1      36.646 -43.610 -19.319  1.00  0.00    -0.387 OA
ATOM     25  H   UNL     1      36.089 -42.956 -18.768  1.00  0.00     0.211 HD
ENDBRANCH   3  24
BRANCH   5  26
ATOM     26  O   UNL     1      37.737 -48.267 -18.680  1.00  0.00    -0.462 OA
BRANCH  26  27
ATOM     27  C   UNL     1      39.225 -48.252 -18.448  1.00  0.00     0.130 A 
ATOM     28  C   UNL     1      39.955 -48.605 -19.582  1.00  0.00     0.093 A 
ATOM     29  C   UNL     1      39.855 -48.339 -17.180  1.00  0.00     0.094 A 
ATOM     30  C   UNL     1      41.184 -49.291 -19.311  1.00  0.00     0.133 A 
ATOM     31  C   UNL     1      40.927 -49.353 -16.990  1.00  0.00     0.138 A 
ATOM     32  C   UNL     1      41.242 -50.024 -18.204  1.00  0.00     0.102 A 
ATOM     33  O   UNL     1      41.682 -49.788 -15.757  1.00  0.00    -0.484 OA
ATOM     34  C   UNL     1      42.098 -51.255 -18.170  1.00  0.00     0.174 C 
ATOM     35  C   UNL     1      42.869 -50.746 -15.999  1.00  0.00     0.211 C 
ATOM     36  O   UNL     1      42.934 -51.509 -19.200  1.00  0.00    -0.294 OA
ATOM     37  C   UNL     1      42.280 -51.884 -16.878  1.00  0.00     0.131 C 
BRANCH  30  38
ATOM     38  O   UNL     1      42.365 -48.766 -19.833  1.00  0.00    -0.507 OA
ATOM     39  H   UNL     1      43.017 -48.359 -19.216  1.00  0.00     0.293 HD
ENDBRANCH  30  38
BRANCH  35  40
ATOM     40  C   UNL     1      44.299 -51.425 -15.473  1.00  0.00    -0.003 A 
ATOM     41  C   UNL     1      44.563 -50.909 -14.138  1.00  0.00     0.057 A 
ATOM     42  C   UNL     1      45.455 -51.944 -16.137  1.00  0.00     0.011 A 
ATOM     43  C   UNL     1      45.787 -51.056 -13.505  1.00  0.00     0.158 A 
ATOM     44  C   UNL     1      46.801 -51.975 -15.467  1.00  0.00     0.051 A 
ATOM     45  C   UNL     1      46.912 -51.670 -14.111  1.00  0.00     0.160 A 
BRANCH  43  46
ATOM     46  O   UNL     1      46.046 -50.488 -12.257  1.00  0.00    -0.504 OA
ATOM     47  H   UNL     1      46.546 -51.053 -11.499  1.00  0.00     0.293 HD
ENDBRANCH  43  46
BRANCH  45  48
ATOM     48  O   UNL     1      48.115 -51.855 -13.461  1.00  0.00    -0.493 OA
ATOM     49  C   UNL     1      49.247 -51.236 -13.872  1.00  0.00     0.278 C 
ENDBRANCH  45  48
ENDBRANCH  35  40
ENDBRANCH  26  27
ENDBRANCH   5  26
BRANCH   4  50
ATOM     50  O   UNL     1      37.868 -45.641 -20.475  1.00  0.00    -0.384 OA
ATOM     51  H   UNL     1      38.488 -44.890 -20.883  1.00  0.00     0.211 HD
ENDBRANCH   4  50
TORSDOF 15
ENDMDL
MODEL 9
REMARK VINA RESULT:    -6.158      2.666      7.037
REMARK INTER + INTRA:         -12.332
REMARK INTER:                  -9.898
REMARK INTRA:                  -2.433
REMARK UNBOUND:                -2.214
REMARK SMILES COc1ccc([C@H]2CC(=O)c3c(O)cc(O[C@H]4O[C@@H](CO[C@@H]5O[C@@H](C)[C@@H](O)[C@H](O)[C@H]5O)[C@@H](O)[C@H](O)[C@@H]4O)cc3O2)cc1O
REMARK SMILES IDX 19 1 32 2 34 3 36 4 17 5 18 6 20 7 21 8 22 9 25 10 24 11
REMARK SMILES IDX 26 12 23 13 28 14 30 15 27 16 29 18 31 20 33 22 35 24 16 26
REMARK SMILES IDX 15 27 14 28 38 29 12 30 39 31 11 32 40 33 9 34 7 35 10 36
REMARK SMILES IDX 8 37 13 38 6 40 41 41 5 42 42 43 4 44 3 45 43 46 2 48 1 49
REMARK SMILES IDX 37 50
REMARK H PARENT 27 17 29 19 31 21 33 23 35 25 13 39 43 47 37 51
REMARK Flexibility Score: inf
ROOT
ATOM      1  C   UNL     1      39.859 -50.962 -20.350  1.00  0.00     0.180 C 
ATOM      2  C   UNL     1      40.514 -50.093 -21.612  1.00  0.00     0.177 C 
ATOM      3  C   UNL     1      42.030 -49.745 -21.655  1.00  0.00     0.180 C 
ATOM      4  C   UNL     1      42.814 -50.411 -20.508  1.00  0.00     0.214 C 
ATOM      5  C   UNL     1      42.181 -51.650 -19.778  1.00  0.00     0.339 C 
ATOM      6  O   UNL     1      40.784 -51.731 -19.668  1.00  0.00    -0.332 OA
ENDROOT
BRANCH   1   7
ATOM      7  C   UNL     1      39.055 -50.282 -19.176  1.00  0.00     0.198 C 
BRANCH   7   8
ATOM      8  O   UNL     1      39.210 -48.827 -19.020  1.00  0.00    -0.347 OA
BRANCH   8   9
ATOM      9  C   UNL     1      38.931 -48.364 -17.707  1.00  0.00     0.281 C 
ATOM     10  C   UNL     1      38.220 -48.697 -14.329  1.00  0.00     0.041 C 
ATOM     11  C   UNL     1      37.755 -49.344 -15.736  1.00  0.00     0.150 C 
ATOM     12  C   UNL     1      36.347 -49.099 -16.338  1.00  0.00     0.174 C 
ATOM     13  O   UNL     1      38.705 -49.418 -16.799  1.00  0.00    -0.344 OA
ATOM     14  C   UNL     1      36.308 -47.857 -17.322  1.00  0.00     0.179 C 
ATOM     15  C   UNL     1      37.791 -47.326 -17.657  1.00  0.00     0.202 C 
BRANCH  12  16
ATOM     16  O   UNL     1      35.401 -49.032 -15.322  1.00  0.00    -0.388 OA
ATOM     17  H   UNL     1      35.774 -48.497 -14.550  1.00  0.00     0.211 HD
ENDBRANCH  12  16
BRANCH  14  18
ATOM     18  O   UNL     1      35.666 -48.041 -18.545  1.00  0.00    -0.387 OA
ATOM     19  H   UNL     1      34.771 -47.607 -18.498  1.00  0.00     0.211 HD
ENDBRANCH  14  18
BRANCH  15  20
ATOM     20  O   UNL     1      38.183 -46.227 -16.811  1.00  0.00    -0.385 OA
ATOM     21  H   UNL     1      37.531 -46.149 -16.082  1.00  0.00     0.211 HD
ENDBRANCH  15  20
ENDBRANCH   8   9
ENDBRANCH   7   8
ENDBRANCH   1   7
BRANCH   2  22
ATOM     22  O   UNL     1      39.702 -48.943 -21.923  1.00  0.00    -0.387 OA
ATOM     23  H   UNL     1      39.809 -48.856 -22.943  1.00  0.00     0.211 HD
ENDBRANCH   2  22
BRANCH   3  24
ATOM     24  O   UNL     1      42.551 -50.194 -22.938  1.00  0.00    -0.387 OA
ATOM     25  H   UNL     1      41.986 -49.784 -23.682  1.00  0.00     0.211 HD
ENDBRANCH   3  24
BRANCH   5  26
ATOM     26  O   UNL     1      42.664 -52.009 -18.468  1.00  0.00    -0.462 OA
BRANCH  26  27
ATOM     27  C   UNL     1      43.134 -50.805 -17.696  1.00  0.00     0.130 A 
ATOM     28  C   UNL     1      44.371 -51.001 -17.084  1.00  0.00     0.093 A 
ATOM     29  C   UNL     1      42.298 -49.763 -17.219  1.00  0.00     0.094 A 
ATOM     30  C   UNL     1      44.542 -50.300 -15.845  1.00  0.00     0.133 A 
ATOM     31  C   UNL     1      42.400 -49.372 -15.786  1.00  0.00     0.138 A 
ATOM     32  C   UNL     1      43.453 -50.061 -15.124  1.00  0.00     0.102 A 
ATOM     33  O   UNL     1      41.577 -48.422 -14.950  1.00  0.00    -0.484 OA
ATOM     34  C   UNL     1      43.546 -50.009 -13.628  1.00  0.00     0.174 C 
ATOM     35  C   UNL     1      42.117 -48.135 -13.533  1.00  0.00     0.211 C 
ATOM     36  O   UNL     1      44.762 -50.030 -13.040  1.00  0.00    -0.294 OA
ATOM     37  C   UNL     1      42.374 -49.539 -12.920  1.00  0.00     0.131 C 
BRANCH  30  38
ATOM     38  O   UNL     1      45.637 -49.448 -15.712  1.00  0.00    -0.507 OA
ATOM     39  H   UNL     1      45.477 -48.499 -15.497  1.00  0.00     0.293 HD
ENDBRANCH  30  38
BRANCH  35  40
ATOM     40  C   UNL     1      42.158 -47.158 -12.181  1.00  0.00    -0.003 A 
ATOM     41  C   UNL     1      40.878 -47.295 -11.503  1.00  0.00     0.057 A 
ATOM     42  C   UNL     1      42.878 -45.971 -11.835  1.00  0.00     0.011 A 
ATOM     43  C   UNL     1      40.467 -46.438 -10.494  1.00  0.00     0.158 A 
ATOM     44  C   UNL     1      42.344 -44.992 -10.826  1.00  0.00     0.051 A 
ATOM     45  C   UNL     1      41.223 -45.319 -10.063  1.00  0.00     0.160 A 
BRANCH  43  46
ATOM     46  O   UNL     1      39.204 -46.538  -9.909  1.00  0.00    -0.504 OA
ATOM     47  H   UNL     1      38.961 -47.372  -9.285  1.00  0.00     0.293 HD
ENDBRANCH  43  46
BRANCH  45  48
ATOM     48  O   UNL     1      40.831 -44.494  -9.029  1.00  0.00    -0.493 OA
ATOM     49  C   UNL     1      41.604 -44.312  -7.933  1.00  0.00     0.278 C 
ENDBRANCH  45  48
ENDBRANCH  35  40
ENDBRANCH  26  27
ENDBRANCH   5  26
BRANCH   4  50
ATOM     50  O   UNL     1      44.185 -50.675 -20.925  1.00  0.00    -0.384 OA
ATOM     51  H   UNL     1      44.865 -49.911 -20.661  1.00  0.00     0.211 HD
ENDBRANCH   4  50
TORSDOF 15
ENDMDL
