MODEL 1
REMARK VINA RESULT:     9.182      0.000      0.000
REMARK INTER + INTRA:          13.825
REMARK INTER:                  14.013
REMARK INTRA:                  -0.188
REMARK UNBOUND:                -0.188
REMARK SMILES CCCCCCCCCCC(=O)[O-]
REMARK SMILES IDX 7 1 8 2 9 3 10 4 11 5 12 6 13 7 6 8 5 9 4 10 3 11 2 12 1 13
REMARK H PARENT
REMARK Flexibility Score: inf
ROOT
ATOM      1  C   UNL     1      -7.567 -16.976  27.231  1.00  0.00     0.000 C 
ENDROOT
BRANCH   1   2
ATOM      2  C   UNL     1      -8.890 -17.637  27.655  1.00  0.00     0.000 C 
BRANCH   2   3
ATOM      3  C   UNL     1      -9.197 -17.439  29.148  1.00  0.00     0.006 C 
BRANCH   3   4
ATOM      4  C   UNL     1      -7.949 -17.573  30.032  1.00  0.00     0.053 C 
BRANCH   4   5
ATOM      5  C   UNL     1      -8.278 -17.236  31.452  1.00  0.00     0.041 C 
ATOM      6  O   UNL     1      -7.506 -16.503  32.124  1.00  0.00    -0.550 OA
ATOM      7  O   UNL     1      -9.413 -17.768  32.048  1.00  0.00    -0.550 OA
ENDBRANCH   4   5
ENDBRANCH   3   4
ENDBRANCH   2   3
ENDBRANCH   1   2
BRANCH   1   8
ATOM      8  C   UNL     1      -6.486 -18.003  26.856  1.00  0.00     0.000 C 
BRANCH   8   9
ATOM      9  C   UNL     1      -6.352 -18.195  25.338  1.00  0.00    -0.000 C 
BRANCH   9  10
ATOM     10  C   UNL     1      -5.139 -19.071  25.001  1.00  0.00    -0.000 C 
BRANCH  10  11
ATOM     11  C   UNL     1      -4.852 -19.058  23.492  1.00  0.00    -0.000 C 
BRANCH  11  12
ATOM     12  C   UNL     1      -4.462 -20.443  22.953  1.00  0.00    -0.003 C 
ATOM     13  C   UNL     1      -3.036 -20.484  22.405  1.00  0.00     0.004 C 
ENDBRANCH  11  12
ENDBRANCH  10  11
ENDBRANCH   9  10
ENDBRANCH   8   9
ENDBRANCH   1   8
TORSDOF 9
ENDMDL
MODEL 2
REMARK VINA RESULT:     9.703      0.628      1.266
REMARK INTER + INTRA:          14.621
REMARK INTER:                  14.700
REMARK INTRA:                  -0.079
REMARK UNBOUND:                -0.188
REMARK SMILES CCCCCCCCCCC(=O)[O-]
REMARK SMILES IDX 7 1 8 2 9 3 10 4 11 5 12 6 13 7 6 8 5 9 4 10 3 11 2 12 1 13
REMARK H PARENT
REMARK Flexibility Score: inf
ROOT
ATOM      1  C   UNL     1      -8.397 -17.742  26.914  1.00  0.00     0.000 C 
ENDROOT
BRANCH   1   2
ATOM      2  C   UNL     1      -9.406 -17.052  27.848  1.00  0.00     0.000 C 
BRANCH   2   3
ATOM      3  C   UNL     1      -9.410 -17.655  29.261  1.00  0.00     0.006 C 
BRANCH   3   4
ATOM      4  C   UNL     1      -8.054 -17.517  29.967  1.00  0.00     0.053 C 
BRANCH   4   5
ATOM      5  C   UNL     1      -8.246 -17.412  31.447  1.00  0.00     0.041 C 
ATOM      6  O   UNL     1      -8.780 -18.356  32.086  1.00  0.00    -0.550 OA
ATOM      7  O   UNL     1      -7.878 -16.252  32.115  1.00  0.00    -0.550 OA
ENDBRANCH   4   5
ENDBRANCH   3   4
ENDBRANCH   2   3
ENDBRANCH   1   2
BRANCH   1   8
ATOM      8  C   UNL     1      -6.999 -17.106  26.982  1.00  0.00     0.000 C 
BRANCH   8   9
ATOM      9  C   UNL     1      -5.871 -18.136  26.820  1.00  0.00    -0.000 C 
BRANCH   9  10
ATOM     10  C   UNL     1      -6.035 -18.931  25.519  1.00  0.00    -0.000 C 
BRANCH  10  11
ATOM     11  C   UNL     1      -4.773 -18.831  24.649  1.00  0.00    -0.000 C 
BRANCH  11  12
ATOM     12  C   UNL     1      -5.033 -19.220  23.186  1.00  0.00    -0.003 C 
ATOM     13  C   UNL     1      -4.007 -20.218  22.647  1.00  0.00     0.004 C 
ENDBRANCH  11  12
ENDBRANCH  10  11
ENDBRANCH   9  10
ENDBRANCH   8   9
ENDBRANCH   1   8
TORSDOF 9
ENDMDL
MODEL 3
REMARK VINA RESULT:     9.719      4.475      7.881
REMARK INTER + INTRA:          14.645
REMARK INTER:                  14.963
REMARK INTRA:                  -0.319
REMARK UNBOUND:                -0.188
REMARK SMILES CCCCCCCCCCC(=O)[O-]
REMARK SMILES IDX 7 1 8 2 9 3 10 4 11 5 12 6 13 7 6 8 5 9 4 10 3 11 2 12 1 13
REMARK H PARENT
REMARK Flexibility Score: inf
ROOT
ATOM      1  C   UNL     1      -6.012 -18.156  26.726  1.00  0.00     0.000 C 
ENDROOT
BRANCH   1   2
ATOM      2  C   UNL     1      -6.058 -18.322  25.197  1.00  0.00     0.000 C 
BRANCH   2   3
ATOM      3  C   UNL     1      -4.872 -19.137  24.656  1.00  0.00     0.006 C 
BRANCH   3   4
ATOM      4  C   UNL     1      -4.923 -19.316  23.132  1.00  0.00     0.053 C 
BRANCH   4   5
ATOM      5  C   UNL     1      -3.984 -20.398  22.704  1.00  0.00     0.041 C 
ATOM      6  O   UNL     1      -4.369 -21.596  22.674  1.00  0.00    -0.550 OA
ATOM      7  O   UNL     1      -2.669 -20.091  22.381  1.00  0.00    -0.550 OA
ENDBRANCH   4   5
ENDBRANCH   3   4
ENDBRANCH   2   3
ENDBRANCH   1   2
BRANCH   1   8
ATOM      8  C   UNL     1      -7.071 -17.171  27.246  1.00  0.00     0.000 C 
BRANCH   8   9
ATOM      9  C   UNL     1      -8.503 -17.704  27.092  1.00  0.00    -0.000 C 
BRANCH   9  10
ATOM     10  C   UNL     1      -9.244 -17.683  28.434  1.00  0.00    -0.000 C 
BRANCH  10  11
ATOM     11  C   UNL     1      -8.278 -17.388  29.592  1.00  0.00    -0.000 C 
BRANCH  11  12
ATOM     12  C   UNL     1      -8.955 -17.489  30.967  1.00  0.00    -0.003 C 
ATOM     13  C   UNL     1      -7.962 -17.396  32.125  1.00  0.00     0.004 C 
ENDBRANCH  11  12
ENDBRANCH  10  11
ENDBRANCH   9  10
ENDBRANCH   8   9
ENDBRANCH   1   8
TORSDOF 9
ENDMDL
MODEL 4
REMARK VINA RESULT:     9.743      4.866      7.959
REMARK INTER + INTRA:          14.681
REMARK INTER:                  15.106
REMARK INTRA:                  -0.425
REMARK UNBOUND:                -0.188
REMARK SMILES CCCCCCCCCCC(=O)[O-]
REMARK SMILES IDX 7 1 8 2 9 3 10 4 11 5 12 6 13 7 6 8 5 9 4 10 3 11 2 12 1 13
REMARK H PARENT
REMARK Flexibility Score: inf
ROOT
ATOM      1  C   UNL     1      -6.281 -18.095  24.571  1.00  0.00     0.000 C 
ENDROOT
BRANCH   1   2
ATOM      2  C   UNL     1      -5.448 -18.552  23.362  1.00  0.00     0.000 C 
BRANCH   2   3
ATOM      3  C   UNL     1      -4.442 -19.658  23.723  1.00  0.00     0.006 C 
BRANCH   3   4
ATOM      4  C   UNL     1      -4.127 -20.581  22.538  1.00  0.00     0.053 C 
BRANCH   4   5
ATOM      5  C   UNL     1      -2.650 -20.771  22.404  1.00  0.00     0.041 C 
ATOM      6  O   UNL     1      -2.050 -21.607  23.131  1.00  0.00    -0.550 OA
ATOM      7  O   UNL     1      -1.927 -19.993  21.510  1.00  0.00    -0.550 OA
ENDBRANCH   4   5
ENDBRANCH   3   4
ENDBRANCH   2   3
ENDBRANCH   1   2
BRANCH   1   8
ATOM      8  C   UNL     1      -5.750 -18.654  25.901  1.00  0.00     0.000 C 
BRANCH   8   9
ATOM      9  C   UNL     1      -6.172 -17.807  27.111  1.00  0.00    -0.000 C 
BRANCH   9  10
ATOM     10  C   UNL     1      -7.535 -17.146  26.870  1.00  0.00    -0.000 C 
BRANCH  10  11
ATOM     11  C   UNL     1      -8.547 -17.560  27.949  1.00  0.00    -0.000 C 
BRANCH  11  12
ATOM     12  C   UNL     1      -9.855 -16.759  27.870  1.00  0.00    -0.003 C 
ATOM     13  C   UNL     1      -9.753 -15.548  26.942  1.00  0.00     0.004 C 
ENDBRANCH  11  12
ENDBRANCH  10  11
ENDBRANCH   9  10
ENDBRANCH   8   9
ENDBRANCH   1   8
TORSDOF 9
ENDMDL
MODEL 5
REMARK VINA RESULT:     9.940      1.635      2.507
REMARK INTER + INTRA:          14.982
REMARK INTER:                  15.299
REMARK INTRA:                  -0.316
REMARK UNBOUND:                -0.188
REMARK SMILES CCCCCCCCCCC(=O)[O-]
REMARK SMILES IDX 7 1 8 2 9 3 10 4 11 5 12 6 13 7 6 8 5 9 4 10 3 11 2 12 1 13
REMARK H PARENT
REMARK Flexibility Score: inf
ROOT
ATOM      1  C   UNL     1      -5.449 -18.092  26.531  1.00  0.00     0.000 C 
ENDROOT
BRANCH   1   2
ATOM      2  C   UNL     1      -6.563 -17.492  27.405  1.00  0.00     0.000 C 
BRANCH   2   3
ATOM      3  C   UNL     1      -7.725 -16.926  26.574  1.00  0.00     0.006 C 
BRANCH   3   4
ATOM      4  C   UNL     1      -8.974 -16.640  27.420  1.00  0.00     0.053 C 
BRANCH   4   5
ATOM      5  C   UNL     1      -9.184 -17.729  28.424  1.00  0.00     0.041 C 
ATOM      6  O   UNL     1      -8.943 -17.523  29.642  1.00  0.00    -0.550 OA
ATOM      7  O   UNL     1      -9.602 -18.986  28.009  1.00  0.00    -0.550 OA
ENDBRANCH   4   5
ENDBRANCH   3   4
ENDBRANCH   2   3
ENDBRANCH   1   2
BRANCH   1   8
ATOM      8  C   UNL     1      -5.996 -19.001  25.418  1.00  0.00     0.000 C 
BRANCH   8   9
ATOM      9  C   UNL     1      -5.550 -18.557  24.017  1.00  0.00    -0.000 C 
BRANCH   9  10
ATOM     10  C   UNL     1      -4.244 -19.251  23.611  1.00  0.00    -0.000 C 
BRANCH  10  11
ATOM     11  C   UNL     1      -4.522 -20.480  22.733  1.00  0.00    -0.000 C 
BRANCH  11  12
ATOM     12  C   UNL     1      -3.236 -21.206  22.310  1.00  0.00    -0.003 C 
ATOM     13  C   UNL     1      -2.031 -20.271  22.218  1.00  0.00     0.004 C 
ENDBRANCH  11  12
ENDBRANCH  10  11
ENDBRANCH   9  10
ENDBRANCH   8   9
ENDBRANCH   1   8
TORSDOF 9
ENDMDL
MODEL 6
REMARK VINA RESULT:    10.050      4.851      7.802
REMARK INTER + INTRA:          15.149
REMARK INTER:                  15.524
REMARK INTRA:                  -0.375
REMARK UNBOUND:                -0.188
REMARK SMILES CCCCCCCCCCC(=O)[O-]
REMARK SMILES IDX 7 1 8 2 9 3 10 4 11 5 12 6 13 7 6 8 5 9 4 10 3 11 2 12 1 13
REMARK H PARENT
REMARK Flexibility Score: inf
ROOT
ATOM      1  C   UNL     1      -5.902 -18.844  25.774  1.00  0.00     0.000 C 
ENDROOT
BRANCH   1   2
ATOM      2  C   UNL     1      -5.870 -18.101  24.428  1.00  0.00     0.000 C 
BRANCH   2   3
ATOM      3  C   UNL     1      -5.343 -18.979  23.282  1.00  0.00     0.006 C 
BRANCH   3   4
ATOM      4  C   UNL     1      -3.929 -19.514  23.547  1.00  0.00     0.053 C 
BRANCH   4   5
ATOM      5  C   UNL     1      -3.563 -20.546  22.529  1.00  0.00     0.041 C 
ATOM      6  O   UNL     1      -2.391 -20.597  22.071  1.00  0.00    -0.550 OA
ATOM      7  O   UNL     1      -4.527 -21.423  22.049  1.00  0.00    -0.550 OA
ENDBRANCH   4   5
ENDBRANCH   3   4
ENDBRANCH   2   3
ENDBRANCH   1   2
BRANCH   1   8
ATOM      8  C   UNL     1      -6.178 -17.907  26.961  1.00  0.00     0.000 C 
BRANCH   8   9
ATOM      9  C   UNL     1      -7.447 -17.063  26.767  1.00  0.00    -0.000 C 
BRANCH   9  10
ATOM     10  C   UNL     1      -8.536 -17.471  27.767  1.00  0.00    -0.000 C 
BRANCH  10  11
ATOM     11  C   UNL     1      -9.778 -16.577  27.625  1.00  0.00    -0.000 C 
BRANCH  11  12
ATOM     12  C   UNL     1      -9.503 -15.311  26.802  1.00  0.00    -0.003 C 
ATOM     13  C   UNL     1     -10.701 -14.362  26.757  1.00  0.00     0.004 C 
ENDBRANCH  11  12
ENDBRANCH  10  11
ENDBRANCH   9  10
ENDBRANCH   8   9
ENDBRANCH   1   8
TORSDOF 9
ENDMDL
MODEL 7
REMARK VINA RESULT:    10.349      2.169      3.822
REMARK INTER + INTRA:          15.606
REMARK INTER:                  15.811
REMARK INTRA:                  -0.205
REMARK UNBOUND:                -0.188
REMARK SMILES CCCCCCCCCCC(=O)[O-]
REMARK SMILES IDX 7 1 8 2 9 3 10 4 11 5 12 6 13 7 6 8 5 9 4 10 3 11 2 12 1 13
REMARK H PARENT
REMARK Flexibility Score: inf
ROOT
ATOM      1  C   UNL     1      -5.595 -18.554  24.114  1.00  0.00     0.000 C 
ENDROOT
BRANCH   1   2
ATOM      2  C   UNL     1      -5.904 -18.498  25.620  1.00  0.00     0.000 C 
BRANCH   2   3
ATOM      3  C   UNL     1      -7.252 -17.823  25.920  1.00  0.00     0.006 C 
BRANCH   3   4
ATOM      4  C   UNL     1      -7.340 -17.289  27.357  1.00  0.00     0.053 C 
BRANCH   4   5
ATOM      5  C   UNL     1      -8.769 -17.140  27.770  1.00  0.00     0.041 C 
ATOM      6  O   UNL     1      -9.278 -17.945  28.594  1.00  0.00    -0.550 OA
ATOM      7  O   UNL     1      -9.555 -16.140  27.212  1.00  0.00    -0.550 OA
ENDBRANCH   4   5
ENDBRANCH   3   4
ENDBRANCH   2   3
ENDBRANCH   1   2
BRANCH   1   8
ATOM      8  C   UNL     1      -4.286 -19.300  23.807  1.00  0.00     0.000 C 
BRANCH   8   9
ATOM      9  C   UNL     1      -4.444 -20.340  22.688  1.00  0.00    -0.000 C 
BRANCH   9  10
ATOM     10  C   UNL     1      -3.116 -21.055  22.411  1.00  0.00    -0.000 C 
BRANCH  10  11
ATOM     11  C   UNL     1      -1.939 -20.069  22.456  1.00  0.00    -0.000 C 
BRANCH  11  12
ATOM     12  C   UNL     1      -1.062 -20.252  23.703  1.00  0.00    -0.003 C 
ATOM     13  C   UNL     1      -0.624 -18.924  24.320  1.00  0.00     0.004 C 
ENDBRANCH  11  12
ENDBRANCH  10  11
ENDBRANCH   9  10
ENDBRANCH   8   9
ENDBRANCH   1   8
TORSDOF 9
ENDMDL
MODEL 8
REMARK VINA RESULT:    12.156     12.862     14.649
REMARK INTER + INTRA:          18.363
REMARK INTER:                  18.740
REMARK INTRA:                  -0.377
REMARK UNBOUND:                -0.188
REMARK SMILES CCCCCCCCCCC(=O)[O-]
REMARK SMILES IDX 7 1 8 2 9 3 10 4 11 5 12 6 13 7 6 8 5 9 4 10 3 11 2 12 1 13
REMARK H PARENT
REMARK Flexibility Score: inf
ROOT
ATOM      1  C   UNL     1      -8.126 -17.943  15.510  1.00  0.00     0.000 C 
ENDROOT
BRANCH   1   2
ATOM      2  C   UNL     1      -7.789 -18.630  14.176  1.00  0.00     0.000 C 
BRANCH   2   3
ATOM      3  C   UNL     1      -6.897 -19.868  14.358  1.00  0.00     0.006 C 
BRANCH   3   4
ATOM      4  C   UNL     1      -6.217 -20.305  13.053  1.00  0.00     0.053 C 
BRANCH   4   5
ATOM      5  C   UNL     1      -6.635 -21.694  12.688  1.00  0.00     0.041 C 
ATOM      6  O   UNL     1      -5.858 -22.438  12.033  1.00  0.00    -0.550 OA
ATOM      7  O   UNL     1      -7.900 -22.152  13.029  1.00  0.00    -0.550 OA
ENDBRANCH   4   5
ENDBRANCH   3   4
ENDBRANCH   2   3
ENDBRANCH   1   2
BRANCH   1   8
ATOM      8  C   UNL     1      -9.293 -16.949  15.386  1.00  0.00     0.000 C 
BRANCH   8   9
ATOM      9  C   UNL     1     -10.307 -17.078  16.532  1.00  0.00    -0.000 C 
BRANCH   9  10
ATOM     10  C   UNL     1     -11.724 -17.302  15.989  1.00  0.00    -0.000 C 
BRANCH  10  11
ATOM     11  C   UNL     1     -12.269 -18.672  16.418  1.00  0.00    -0.000 C 
BRANCH  11  12
ATOM     12  C   UNL     1     -12.821 -19.484  15.237  1.00  0.00    -0.003 C 
ATOM     13  C   UNL     1     -12.602 -20.988  15.398  1.00  0.00     0.004 C 
ENDBRANCH  11  12
ENDBRANCH  10  11
ENDBRANCH   9  10
ENDBRANCH   8   9
ENDBRANCH   1   8
TORSDOF 9
ENDMDL
