MODEL 1
REMARK VINA RESULT:    -5.083      0.000      0.000
REMARK INTER + INTRA:          -5.083
REMARK INTER:                  -5.083
REMARK INTRA:                   0.000
REMARK UNBOUND:                 0.000
REMARK SMILES CC1=CC(=O)[C@@H]2C[C@H]1C2(C)C
REMARK SMILES IDX 1 1 2 2 3 3 4 4 5 5 6 6 7 7 8 8 9 9 10 10 11 11
REMARK H PARENT
REMARK Flexibility Score: inf
ROOT
ATOM      1  C   UNL     1       6.340  30.833  53.801  1.00  0.00     0.040 C 
ATOM      2  C   UNL     1       5.369  29.713  53.603  1.00  0.00    -0.066 C 
ATOM      3  C   UNL     1       4.071  29.821  54.004  1.00  0.00     0.047 C 
ATOM      4  C   UNL     1       3.190  28.641  53.721  1.00  0.00     0.159 C 
ATOM      5  O   UNL     1       1.964  28.634  54.008  1.00  0.00    -0.295 OA
ATOM      6  C   UNL     1       3.883  27.450  53.058  1.00  0.00     0.067 C 
ATOM      7  C   UNL     1       5.192  27.281  53.861  1.00  0.00     0.021 C 
ATOM      8  C   UNL     1       5.789  28.378  52.952  1.00  0.00     0.022 C 
ATOM      9  C   UNL     1       4.743  27.975  51.873  1.00  0.00    -0.019 C 
ATOM     10  C   UNL     1       4.151  29.093  50.969  1.00  0.00     0.012 C 
ATOM     11  C   UNL     1       5.248  26.829  50.960  1.00  0.00     0.012 C 
ENDROOT
TORSDOF 0
ENDMDL
MODEL 2
REMARK VINA RESULT:    -4.923     12.098     13.420
REMARK INTER + INTRA:          -4.923
REMARK INTER:                  -4.923
REMARK INTRA:                   0.000
REMARK UNBOUND:                 0.000
REMARK SMILES CC1=CC(=O)[C@@H]2C[C@H]1C2(C)C
REMARK SMILES IDX 1 1 2 2 3 3 4 4 5 5 6 6 7 7 8 8 9 9 10 10 11 11
REMARK H PARENT
REMARK Flexibility Score: inf
ROOT
ATOM      1  C   UNL     1      11.310  22.737  60.018  1.00  0.00     0.040 C 
ATOM      2  C   UNL     1      12.720  22.494  59.584  1.00  0.00    -0.066 C 
ATOM      3  C   UNL     1      13.773  22.784  60.399  1.00  0.00     0.047 C 
ATOM      4  C   UNL     1      15.135  22.466  59.861  1.00  0.00     0.159 C 
ATOM      5  O   UNL     1      16.183  22.652  60.533  1.00  0.00    -0.295 OA
ATOM      6  C   UNL     1      15.162  21.899  58.441  1.00  0.00     0.067 C 
ATOM      7  C   UNL     1      14.197  22.811  57.652  1.00  0.00     0.021 C 
ATOM      8  C   UNL     1      13.054  21.921  58.191  1.00  0.00     0.022 C 
ATOM      9  C   UNL     1      14.094  20.773  58.338  1.00  0.00    -0.019 C 
ATOM     10  C   UNL     1      13.940  19.789  59.532  1.00  0.00     0.012 C 
ATOM     11  C   UNL     1      14.241  19.939  57.039  1.00  0.00     0.012 C 
ENDROOT
TORSDOF 0
ENDMDL
MODEL 3
REMARK VINA RESULT:    -4.758     11.846     12.918
REMARK INTER + INTRA:          -4.758
REMARK INTER:                  -4.758
REMARK INTRA:                   0.000
REMARK UNBOUND:                 0.000
REMARK SMILES CC1=CC(=O)[C@@H]2C[C@H]1C2(C)C
REMARK SMILES IDX 1 1 2 2 3 3 4 4 5 5 6 6 7 7 8 8 9 9 10 10 11 11
REMARK H PARENT
REMARK Flexibility Score: inf
ROOT
ATOM      1  C   UNL     1      15.053  22.719  61.078  1.00  0.00     0.040 C 
ATOM      2  C   UNL     1      14.205  22.079  60.026  1.00  0.00    -0.066 C 
ATOM      3  C   UNL     1      12.885  22.387  59.896  1.00  0.00     0.047 C 
ATOM      4  C   UNL     1      12.150  21.700  58.783  1.00  0.00     0.159 C 
ATOM      5  O   UNL     1      10.938  21.931  58.536  1.00  0.00    -0.295 OA
ATOM      6  C   UNL     1      12.978  20.705  57.969  1.00  0.00     0.067 C 
ATOM      7  C   UNL     1      13.737  19.884  59.035  1.00  0.00     0.021 C 
ATOM      8  C   UNL     1      14.776  21.028  59.050  1.00  0.00     0.022 C 
ATOM      9  C   UNL     1      14.332  21.374  57.599  1.00  0.00    -0.019 C 
ATOM     10  C   UNL     1      14.325  22.867  57.168  1.00  0.00     0.012 C 
ATOM     11  C   UNL     1      15.116  20.565  56.533  1.00  0.00     0.012 C 
ENDROOT
TORSDOF 0
ENDMDL
MODEL 4
REMARK VINA RESULT:    -4.715     12.449     13.885
REMARK INTER + INTRA:          -4.715
REMARK INTER:                  -4.715
REMARK INTRA:                   0.000
REMARK UNBOUND:                 0.000
REMARK SMILES CC1=CC(=O)[C@@H]2C[C@H]1C2(C)C
REMARK SMILES IDX 1 1 2 2 3 3 4 4 5 5 6 6 7 7 8 8 9 9 10 10 11 11
REMARK H PARENT
REMARK Flexibility Score: inf
ROOT
ATOM      1  C   UNL     1      14.509  19.091  57.690  1.00  0.00     0.040 C 
ATOM      2  C   UNL     1      14.636  20.360  58.471  1.00  0.00    -0.066 C 
ATOM      3  C   UNL     1      15.733  21.158  58.353  1.00  0.00     0.047 C 
ATOM      4  C   UNL     1      15.727  22.418  59.165  1.00  0.00     0.159 C 
ATOM      5  O   UNL     1      16.665  23.256  59.113  1.00  0.00    -0.295 OA
ATOM      6  C   UNL     1      14.502  22.615  60.058  1.00  0.00     0.067 C 
ATOM      7  C   UNL     1      14.303  21.241  60.735  1.00  0.00     0.021 C 
ATOM      8  C   UNL     1      13.542  20.819  59.458  1.00  0.00     0.022 C 
ATOM      9  C   UNL     1      13.226  22.324  59.218  1.00  0.00    -0.019 C 
ATOM     10  C   UNL     1      13.172  22.839  57.752  1.00  0.00     0.012 C 
ATOM     11  C   UNL     1      11.930  22.777  59.939  1.00  0.00     0.012 C 
ENDROOT
TORSDOF 0
ENDMDL
MODEL 5
REMARK VINA RESULT:    -4.547     12.240     13.761
REMARK INTER + INTRA:          -4.547
REMARK INTER:                  -4.547
REMARK INTRA:                   0.000
REMARK UNBOUND:                 0.000
REMARK SMILES CC1=CC(=O)[C@@H]2C[C@H]1C2(C)C
REMARK SMILES IDX 1 1 2 2 3 3 4 4 5 5 6 6 7 7 8 8 9 9 10 10 11 11
REMARK H PARENT
REMARK Flexibility Score: inf
ROOT
ATOM      1  C   UNL     1      15.161  18.927  57.842  1.00  0.00     0.040 C 
ATOM      2  C   UNL     1      14.448  20.163  58.289  1.00  0.00    -0.066 C 
ATOM      3  C   UNL     1      13.088  20.243  58.270  1.00  0.00     0.047 C 
ATOM      4  C   UNL     1      12.492  21.523  58.772  1.00  0.00     0.159 C 
ATOM      5  O   UNL     1      11.248  21.704  58.842  1.00  0.00    -0.295 OA
ATOM      6  C   UNL     1      13.500  22.592  59.197  1.00  0.00     0.067 C 
ATOM      7  C   UNL     1      14.542  22.602  58.057  1.00  0.00     0.021 C 
ATOM      8  C   UNL     1      15.213  21.411  58.776  1.00  0.00     0.022 C 
ATOM      9  C   UNL     1      14.576  21.926  60.100  1.00  0.00    -0.019 C 
ATOM     10  C   UNL     1      14.114  20.876  61.150  1.00  0.00     0.012 C 
ATOM     11  C   UNL     1      15.470  22.969  60.819  1.00  0.00     0.012 C 
ENDROOT
TORSDOF 0
ENDMDL
MODEL 6
REMARK VINA RESULT:    -4.519      2.120      3.511
REMARK INTER + INTRA:          -4.519
REMARK INTER:                  -4.519
REMARK INTRA:                   0.000
REMARK UNBOUND:                 0.000
REMARK SMILES CC1=CC(=O)[C@@H]2C[C@H]1C2(C)C
REMARK SMILES IDX 1 1 2 2 3 3 4 4 5 5 6 6 7 7 8 8 9 9 10 10 11 11
REMARK H PARENT
REMARK Flexibility Score: inf
ROOT
ATOM      1  C   UNL     1       4.504  26.892  52.615  1.00  0.00     0.040 C 
ATOM      2  C   UNL     1       4.600  28.309  53.084  1.00  0.00    -0.066 C 
ATOM      3  C   UNL     1       5.752  28.803  53.615  1.00  0.00     0.047 C 
ATOM      4  C   UNL     1       5.730  30.247  54.020  1.00  0.00     0.159 C 
ATOM      5  O   UNL     1       6.744  30.830  54.486  1.00  0.00    -0.295 OA
ATOM      6  C   UNL     1       4.393  30.962  53.822  1.00  0.00     0.067 C 
ATOM      7  C   UNL     1       3.349  29.971  54.383  1.00  0.00     0.021 C 
ATOM      8  C   UNL     1       3.398  29.274  53.005  1.00  0.00     0.022 C 
ATOM      9  C   UNL     1       3.861  30.630  52.398  1.00  0.00    -0.019 C 
ATOM     10  C   UNL     1       4.874  30.601  51.219  1.00  0.00     0.012 C 
ATOM     11  C   UNL     1       2.668  31.533  51.991  1.00  0.00     0.012 C 
ENDROOT
TORSDOF 0
ENDMDL
MODEL 7
REMARK VINA RESULT:    -4.472      1.877      2.956
REMARK INTER + INTRA:          -4.472
REMARK INTER:                  -4.472
REMARK INTRA:                   0.000
REMARK UNBOUND:                 0.000
REMARK SMILES CC1=CC(=O)[C@@H]2C[C@H]1C2(C)C
REMARK SMILES IDX 1 1 2 2 3 3 4 4 5 5 6 6 7 7 8 8 9 9 10 10 11 11
REMARK H PARENT
REMARK Flexibility Score: inf
ROOT
ATOM      1  C   UNL     1       2.257  30.379  53.285  1.00  0.00     0.040 C 
ATOM      2  C   UNL     1       3.677  29.978  53.040  1.00  0.00    -0.066 C 
ATOM      3  C   UNL     1       4.673  30.340  53.895  1.00  0.00     0.047 C 
ATOM      4  C   UNL     1       6.049  29.850  53.555  1.00  0.00     0.159 C 
ATOM      5  O   UNL     1       7.045  30.084  54.288  1.00  0.00    -0.295 OA
ATOM      6  C   UNL     1       6.156  29.045  52.260  1.00  0.00     0.067 C 
ATOM      7  C   UNL     1       5.336  29.864  51.238  1.00  0.00     0.021 C 
ATOM      8  C   UNL     1       4.086  29.153  51.801  1.00  0.00     0.022 C 
ATOM      9  C   UNL     1       5.017  27.986  52.241  1.00  0.00    -0.019 C 
ATOM     10  C   UNL     1       4.683  27.236  53.561  1.00  0.00     0.012 C 
ATOM     11  C   UNL     1       5.212  26.932  51.120  1.00  0.00     0.012 C 
ENDROOT
TORSDOF 0
ENDMDL
MODEL 8
REMARK VINA RESULT:    -4.460      1.989      3.747
REMARK INTER + INTRA:          -4.460
REMARK INTER:                  -4.460
REMARK INTRA:                   0.000
REMARK UNBOUND:                 0.000
REMARK SMILES CC1=CC(=O)[C@@H]2C[C@H]1C2(C)C
REMARK SMILES IDX 1 1 2 2 3 3 4 4 5 5 6 6 7 7 8 8 9 9 10 10 11 11
REMARK H PARENT
REMARK Flexibility Score: inf
ROOT
ATOM      1  C   UNL     1       4.163  27.238  53.306  1.00  0.00     0.040 C 
ATOM      2  C   UNL     1       4.857  28.473  52.828  1.00  0.00    -0.066 C 
ATOM      3  C   UNL     1       4.349  29.223  51.811  1.00  0.00     0.047 C 
ATOM      4  C   UNL     1       5.121  30.455  51.446  1.00  0.00     0.159 C 
ATOM      5  O   UNL     1       4.734  31.250  50.550  1.00  0.00    -0.295 OA
ATOM      6  C   UNL     1       6.410  30.678  52.238  1.00  0.00     0.067 C 
ATOM      7  C   UNL     1       7.093  29.293  52.246  1.00  0.00     0.021 C 
ATOM      8  C   UNL     1       6.187  28.949  53.449  1.00  0.00     0.022 C 
ATOM      9  C   UNL     1       6.103  30.474  53.749  1.00  0.00    -0.019 C 
ATOM     10  C   UNL     1       4.770  31.039  54.316  1.00  0.00     0.012 C 
ATOM     11  C   UNL     1       7.262  30.962  54.656  1.00  0.00     0.012 C 
ENDROOT
TORSDOF 0
ENDMDL
MODEL 9
REMARK VINA RESULT:    -4.435      1.042      3.176
REMARK INTER + INTRA:          -4.435
REMARK INTER:                  -4.435
REMARK INTRA:                   0.000
REMARK UNBOUND:                 0.000
REMARK SMILES CC1=CC(=O)[C@@H]2C[C@H]1C2(C)C
REMARK SMILES IDX 1 1 2 2 3 3 4 4 5 5 6 6 7 7 8 8 9 9 10 10 11 11
REMARK H PARENT
REMARK Flexibility Score: inf
ROOT
ATOM      1  C   UNL     1       5.590  26.508  50.708  1.00  0.00     0.040 C 
ATOM      2  C   UNL     1       4.945  27.602  51.497  1.00  0.00    -0.066 C 
ATOM      3  C   UNL     1       4.038  27.330  52.475  1.00  0.00     0.047 C 
ATOM      4  C   UNL     1       3.485  28.512  53.215  1.00  0.00     0.159 C 
ATOM      5  O   UNL     1       2.670  28.388  54.166  1.00  0.00    -0.295 OA
ATOM      6  C   UNL     1       3.984  29.875  52.735  1.00  0.00     0.067 C 
ATOM      7  C   UNL     1       3.885  29.793  51.195  1.00  0.00     0.021 C 
ATOM      8  C   UNL     1       5.260  29.089  51.232  1.00  0.00     0.022 C 
ATOM      9  C   UNL     1       5.530  29.811  52.584  1.00  0.00    -0.019 C 
ATOM     10  C   UNL     1       6.348  29.057  53.669  1.00  0.00     0.012 C 
ATOM     11  C   UNL     1       6.161  31.214  52.388  1.00  0.00     0.012 C 
ENDROOT
TORSDOF 0
ENDMDL
