MODEL 1
REMARK VINA RESULT:    -4.065      0.000      0.000
REMARK INTER + INTRA:         -11.970
REMARK INTER:                  -9.293
REMARK INTRA:                  -2.677
REMARK UNBOUND:                -2.677
REMARK SMILES CCCCCCCCCCCCCCCCCCCCCCCC(=O)[O-]
REMARK SMILES IDX 13 1 14 2 15 3 16 4 17 5 18 6 19 7 20 8 21 9 22 10 23 11
REMARK SMILES IDX 24 12 25 13 26 14 12 15 11 16 10 17 9 18 8 19 7 20 6 21 5 22
REMARK SMILES IDX 4 23 3 24 2 25 1 26
REMARK H PARENT
REMARK Flexibility Score: inf
ROOT
ATOM      1  C   UNL     1     155.747 132.306 166.941  1.00  0.00     0.000 C 
ENDROOT
BRANCH   1   2
ATOM      2  C   UNL     1     155.052 132.212 165.573  1.00  0.00     0.000 C 
BRANCH   2   3
ATOM      3  C   UNL     1     154.333 133.517 165.184  1.00  0.00     0.000 C 
BRANCH   3   4
ATOM      4  C   UNL     1     154.638 134.726 166.095  1.00  0.00     0.000 C 
BRANCH   4   5
ATOM      5  C   UNL     1     153.435 135.251 166.905  1.00  0.00     0.000 C 
BRANCH   5   6
ATOM      6  C   UNL     1     153.179 134.503 168.229  1.00  0.00     0.000 C 
BRANCH   6   7
ATOM      7  C   UNL     1     152.286 133.251 168.102  1.00  0.00     0.000 C 
BRANCH   7   8
ATOM      8  C   UNL     1     150.996 133.445 167.281  1.00  0.00     0.000 C 
BRANCH   8   9
ATOM      9  C   UNL     1     150.989 132.626 165.979  1.00  0.00     0.000 C 
BRANCH   9  10
ATOM     10  C   UNL     1     150.366 133.384 164.791  1.00  0.00     0.006 C 
BRANCH  10  11
ATOM     11  C   UNL     1     149.984 132.498 163.595  1.00  0.00     0.053 C 
BRANCH  11  12
ATOM     12  C   UNL     1     148.565 132.707 163.156  1.00  0.00     0.041 C 
ATOM     13  O   UNL     1     147.612 132.305 163.876  1.00  0.00    -0.550 OA
ATOM     14  O   UNL     1     148.297 133.357 161.955  1.00  0.00    -0.550 OA
ENDBRANCH  11  12
ENDBRANCH  10  11
ENDBRANCH   9  10
ENDBRANCH   8   9
ENDBRANCH   7   8
ENDBRANCH   6   7
ENDBRANCH   5   6
ENDBRANCH   4   5
ENDBRANCH   3   4
ENDBRANCH   2   3
ENDBRANCH   1   2
BRANCH   1  15
ATOM     15  C   UNL     1     157.281 132.240 166.840  1.00  0.00     0.000 C 
BRANCH  15  16
ATOM     16  C   UNL     1     158.042 133.003 167.944  1.00  0.00     0.000 C 
BRANCH  16  17
ATOM     17  C   UNL     1     157.339 133.060 169.313  1.00  0.00     0.000 C 
BRANCH  17  18
ATOM     18  C   UNL     1     156.747 134.430 169.693  1.00  0.00    -0.000 C 
BRANCH  18  19
ATOM     19  C   UNL     1     156.954 135.523 168.623  1.00  0.00    -0.000 C 
BRANCH  19  20
ATOM     20  C   UNL     1     156.424 136.899 169.068  1.00  0.00    -0.000 C 
BRANCH  20  21
ATOM     21  C   UNL     1     157.351 138.053 168.636  1.00  0.00    -0.000 C 
BRANCH  21  22
ATOM     22  C   UNL     1     157.041 138.622 167.236  1.00  0.00    -0.000 C 
BRANCH  22  23
ATOM     23  C   UNL     1     158.109 139.569 166.647  1.00  0.00    -0.000 C 
BRANCH  23  24
ATOM     24  C   UNL     1     157.576 140.608 165.636  1.00  0.00    -0.000 C 
BRANCH  24  25
ATOM     25  C   UNL     1     156.678 141.691 166.260  1.00  0.00    -0.003 C 
ATOM     26  C   UNL     1     157.383 143.035 166.435  1.00  0.00     0.004 C 
ENDBRANCH  24  25
ENDBRANCH  23  24
ENDBRANCH  22  23
ENDBRANCH  21  22
ENDBRANCH  20  21
ENDBRANCH  19  20
ENDBRANCH  18  19
ENDBRANCH  17  18
ENDBRANCH  16  17
ENDBRANCH  15  16
ENDBRANCH   1  15
TORSDOF 22
ENDMDL
MODEL 2
REMARK VINA RESULT:    -3.940      1.900      4.686
REMARK INTER + INTRA:         -11.685
REMARK INTER:                  -7.926
REMARK INTRA:                  -3.758
REMARK UNBOUND:                -2.677
REMARK SMILES CCCCCCCCCCCCCCCCCCCCCCCC(=O)[O-]
REMARK SMILES IDX 13 1 14 2 15 3 16 4 17 5 18 6 19 7 20 8 21 9 22 10 23 11
REMARK SMILES IDX 24 12 25 13 26 14 12 15 11 16 10 17 9 18 8 19 7 20 6 21 5 22
REMARK SMILES IDX 4 23 3 24 2 25 1 26
REMARK H PARENT
REMARK Flexibility Score: inf
ROOT
ATOM      1  C   UNL     1     154.225 135.286 167.132  1.00  0.00     0.000 C 
ENDROOT
BRANCH   1   2
ATOM      2  C   UNL     1     152.808 135.851 167.329  1.00  0.00     0.000 C 
BRANCH   2   3
ATOM      3  C   UNL     1     151.857 134.843 168.001  1.00  0.00     0.000 C 
BRANCH   3   4
ATOM      4  C   UNL     1     152.556 133.668 168.720  1.00  0.00     0.000 C 
BRANCH   4   5
ATOM      5  C   UNL     1     152.356 132.289 168.060  1.00  0.00     0.000 C 
BRANCH   5   6
ATOM      6  C   UNL     1     151.553 132.319 166.744  1.00  0.00     0.000 C 
BRANCH   6   7
ATOM      7  C   UNL     1     152.370 131.982 165.479  1.00  0.00     0.000 C 
BRANCH   7   8
ATOM      8  C   UNL     1     152.322 133.045 164.364  1.00  0.00     0.000 C 
BRANCH   8   9
ATOM      9  C   UNL     1     150.894 133.527 164.060  1.00  0.00     0.000 C 
BRANCH   9  10
ATOM     10  C   UNL     1     150.025 132.452 163.379  1.00  0.00     0.006 C 
BRANCH  10  11
ATOM     11  C   UNL     1     148.551 132.451 163.812  1.00  0.00     0.053 C 
BRANCH  11  12
ATOM     12  C   UNL     1     147.664 133.158 162.832  1.00  0.00     0.041 C 
ATOM     13  O   UNL     1     146.877 132.501 162.099  1.00  0.00    -0.550 OA
ATOM     14  O   UNL     1     147.699 134.546 162.736  1.00  0.00    -0.550 OA
ENDBRANCH  11  12
ENDBRANCH  10  11
ENDBRANCH   9  10
ENDBRANCH   8   9
ENDBRANCH   7   8
ENDBRANCH   6   7
ENDBRANCH   5   6
ENDBRANCH   4   5
ENDBRANCH   3   4
ENDBRANCH   2   3
ENDBRANCH   1   2
BRANCH   1  15
ATOM     15  C   UNL     1     155.156 136.255 166.382  1.00  0.00     0.000 C 
BRANCH  15  16
ATOM     16  C   UNL     1     156.581 136.373 166.965  1.00  0.00     0.000 C 
BRANCH  16  17
ATOM     17  C   UNL     1     156.934 137.740 167.578  1.00  0.00     0.000 C 
BRANCH  17  18
ATOM     18  C   UNL     1     156.363 137.997 168.987  1.00  0.00    -0.000 C 
BRANCH  18  19
ATOM     19  C   UNL     1     156.670 136.877 170.004  1.00  0.00    -0.000 C 
BRANCH  19  20
ATOM     20  C   UNL     1     155.400 136.175 170.515  1.00  0.00    -0.000 C 
BRANCH  20  21
ATOM     21  C   UNL     1     155.545 134.639 170.538  1.00  0.00    -0.000 C 
BRANCH  21  22
ATOM     22  C   UNL     1     156.993 134.139 170.363  1.00  0.00    -0.000 C 
BRANCH  22  23
ATOM     23  C   UNL     1     157.171 132.911 169.443  1.00  0.00    -0.000 C 
BRANCH  23  24
ATOM     24  C   UNL     1     157.804 133.211 168.066  1.00  0.00    -0.000 C 
BRANCH  24  25
ATOM     25  C   UNL     1     157.435 132.197 166.969  1.00  0.00    -0.003 C 
ATOM     26  C   UNL     1     155.953 132.219 166.598  1.00  0.00     0.004 C 
ENDBRANCH  24  25
ENDBRANCH  23  24
ENDBRANCH  22  23
ENDBRANCH  21  22
ENDBRANCH  20  21
ENDBRANCH  19  20
ENDBRANCH  18  19
ENDBRANCH  17  18
ENDBRANCH  16  17
ENDBRANCH  15  16
ENDBRANCH   1  15
TORSDOF 22
ENDMDL
MODEL 3
REMARK VINA RESULT:    -3.935      3.529      7.833
REMARK INTER + INTRA:         -11.673
REMARK INTER:                  -7.893
REMARK INTRA:                  -3.781
REMARK UNBOUND:                -2.677
REMARK SMILES CCCCCCCCCCCCCCCCCCCCCCCC(=O)[O-]
REMARK SMILES IDX 13 1 14 2 15 3 16 4 17 5 18 6 19 7 20 8 21 9 22 10 23 11
REMARK SMILES IDX 24 12 25 13 26 14 12 15 11 16 10 17 9 18 8 19 7 20 6 21 5 22
REMARK SMILES IDX 4 23 3 24 2 25 1 26
REMARK H PARENT
REMARK Flexibility Score: inf
ROOT
ATOM      1  C   UNL     1     153.033 131.875 165.078  1.00  0.00     0.000 C 
ENDROOT
BRANCH   1   2
ATOM      2  C   UNL     1     154.515 132.144 165.391  1.00  0.00     0.000 C 
BRANCH   2   3
ATOM      3  C   UNL     1     154.795 132.226 166.903  1.00  0.00     0.000 C 
BRANCH   3   4
ATOM      4  C   UNL     1     156.263 132.523 167.278  1.00  0.00     0.000 C 
BRANCH   4   5
ATOM      5  C   UNL     1     156.486 132.964 168.739  1.00  0.00     0.000 C 
BRANCH   5   6
ATOM      6  C   UNL     1     156.766 134.470 168.917  1.00  0.00     0.000 C 
BRANCH   6   7
ATOM      7  C   UNL     1     157.029 135.239 167.605  1.00  0.00     0.000 C 
BRANCH   7   8
ATOM      8  C   UNL     1     156.491 136.684 167.572  1.00  0.00     0.000 C 
BRANCH   8   9
ATOM      9  C   UNL     1     156.783 137.459 168.869  1.00  0.00     0.000 C 
BRANCH   9  10
ATOM     10  C   UNL     1     157.434 138.832 168.619  1.00  0.00     0.006 C 
BRANCH  10  11
ATOM     11  C   UNL     1     157.795 139.113 167.152  1.00  0.00     0.053 C 
BRANCH  11  12
ATOM     12  C   UNL     1     156.978 140.224 166.563  1.00  0.00     0.041 C 
ATOM     13  O   UNL     1     157.443 140.926 165.625  1.00  0.00    -0.550 OA
ATOM     14  O   UNL     1     155.697 140.477 167.044  1.00  0.00    -0.550 OA
ENDBRANCH  11  12
ENDBRANCH  10  11
ENDBRANCH   9  10
ENDBRANCH   8   9
ENDBRANCH   7   8
ENDBRANCH   6   7
ENDBRANCH   5   6
ENDBRANCH   4   5
ENDBRANCH   3   4
ENDBRANCH   2   3
ENDBRANCH   1   2
BRANCH   1  15
ATOM     15  C   UNL     1     152.630 132.314 163.659  1.00  0.00     0.000 C 
BRANCH  15  16
ATOM     16  C   UNL     1     151.147 132.708 163.494  1.00  0.00     0.000 C 
BRANCH  16  17
ATOM     17  C   UNL     1     150.267 132.510 164.742  1.00  0.00     0.000 C 
BRANCH  17  18
ATOM     18  C   UNL     1     149.775 133.807 165.413  1.00  0.00    -0.000 C 
BRANCH  18  19
ATOM     19  C   UNL     1     149.379 133.635 166.895  1.00  0.00    -0.000 C 
BRANCH  19  20
ATOM     20  C   UNL     1     150.043 132.411 167.550  1.00  0.00    -0.000 C 
BRANCH  20  21
ATOM     21  C   UNL     1     150.541 132.706 168.979  1.00  0.00    -0.000 C 
BRANCH  21  22
ATOM     22  C   UNL     1     152.054 132.990 169.075  1.00  0.00    -0.000 C 
BRANCH  22  23
ATOM     23  C   UNL     1     152.441 134.429 169.481  1.00  0.00    -0.000 C 
BRANCH  23  24
ATOM     24  C   UNL     1     153.233 135.219 168.416  1.00  0.00    -0.000 C 
BRANCH  24  25
ATOM     25  C   UNL     1     152.614 135.172 167.007  1.00  0.00    -0.003 C 
ATOM     26  C   UNL     1     153.545 135.706 165.919  1.00  0.00     0.004 C 
ENDBRANCH  24  25
ENDBRANCH  23  24
ENDBRANCH  22  23
ENDBRANCH  21  22
ENDBRANCH  20  21
ENDBRANCH  19  20
ENDBRANCH  18  19
ENDBRANCH  17  18
ENDBRANCH  16  17
ENDBRANCH  15  16
ENDBRANCH   1  15
TORSDOF 22
ENDMDL
MODEL 4
REMARK VINA RESULT:    -3.916      2.336      4.110
REMARK INTER + INTRA:         -11.629
REMARK INTER:                  -8.509
REMARK INTRA:                  -3.120
REMARK UNBOUND:                -2.677
REMARK SMILES CCCCCCCCCCCCCCCCCCCCCCCC(=O)[O-]
REMARK SMILES IDX 13 1 14 2 15 3 16 4 17 5 18 6 19 7 20 8 21 9 22 10 23 11
REMARK SMILES IDX 24 12 25 13 26 14 12 15 11 16 10 17 9 18 8 19 7 20 6 21 5 22
REMARK SMILES IDX 4 23 3 24 2 25 1 26
REMARK H PARENT
REMARK Flexibility Score: inf
ROOT
ATOM      1  C   UNL     1     156.628 134.751 168.407  1.00  0.00     0.000 C 
ENDROOT
BRANCH   1   2
ATOM      2  C   UNL     1     156.577 133.262 168.025  1.00  0.00     0.000 C 
BRANCH   2   3
ATOM      3  C   UNL     1     155.222 132.611 168.361  1.00  0.00     0.000 C 
BRANCH   3   4
ATOM      4  C   UNL     1     154.330 132.295 167.142  1.00  0.00     0.000 C 
BRANCH   4   5
ATOM      5  C   UNL     1     155.064 132.280 165.784  1.00  0.00     0.000 C 
BRANCH   5   6
ATOM      6  C   UNL     1     154.283 132.935 164.628  1.00  0.00     0.000 C 
BRANCH   6   7
ATOM      7  C   UNL     1     153.136 132.076 164.054  1.00  0.00     0.000 C 
BRANCH   7   8
ATOM      8  C   UNL     1     151.767 132.781 163.970  1.00  0.00     0.000 C 
BRANCH   8   9
ATOM      9  C   UNL     1     150.968 132.690 165.281  1.00  0.00     0.000 C 
BRANCH   9  10
ATOM     10  C   UNL     1     151.052 133.972 166.131  1.00  0.00     0.006 C 
BRANCH  10  11
ATOM     11  C   UNL     1     151.658 135.183 165.405  1.00  0.00     0.053 C 
BRANCH  11  12
ATOM     12  C   UNL     1     150.640 136.244 165.110  1.00  0.00     0.041 C 
ATOM     13  O   UNL     1     149.614 136.358 165.833  1.00  0.00    -0.550 OA
ATOM     14  O   UNL     1     150.831 137.114 164.041  1.00  0.00    -0.550 OA
ENDBRANCH  11  12
ENDBRANCH  10  11
ENDBRANCH   9  10
ENDBRANCH   8   9
ENDBRANCH   7   8
ENDBRANCH   6   7
ENDBRANCH   5   6
ENDBRANCH   4   5
ENDBRANCH   3   4
ENDBRANCH   2   3
ENDBRANCH   1   2
BRANCH   1  15
ATOM     15  C   UNL     1     156.010 135.666 167.335  1.00  0.00     0.000 C 
BRANCH  15  16
ATOM     16  C   UNL     1     156.772 136.985 167.085  1.00  0.00     0.000 C 
BRANCH  16  17
ATOM     17  C   UNL     1     157.038 137.843 168.336  1.00  0.00     0.000 C 
BRANCH  17  18
ATOM     18  C   UNL     1     157.224 139.350 168.074  1.00  0.00    -0.000 C 
BRANCH  18  19
ATOM     19  C   UNL     1     158.009 139.672 166.784  1.00  0.00    -0.000 C 
BRANCH  19  20
ATOM     20  C   UNL     1     157.777 141.112 166.291  1.00  0.00    -0.000 C 
BRANCH  20  21
ATOM     21  C   UNL     1     156.571 141.220 165.337  1.00  0.00    -0.000 C 
BRANCH  21  22
ATOM     22  C   UNL     1     156.106 139.872 164.750  1.00  0.00    -0.000 C 
BRANCH  22  23
ATOM     23  C   UNL     1     154.748 139.894 164.014  1.00  0.00    -0.000 C 
BRANCH  23  24
ATOM     24  C   UNL     1     153.525 139.535 164.887  1.00  0.00    -0.000 C 
BRANCH  24  25
ATOM     25  C   UNL     1     153.719 138.280 165.757  1.00  0.00    -0.003 C 
ATOM     26  C   UNL     1     153.406 138.513 167.235  1.00  0.00     0.004 C 
ENDBRANCH  24  25
ENDBRANCH  23  24
ENDBRANCH  22  23
ENDBRANCH  21  22
ENDBRANCH  20  21
ENDBRANCH  19  20
ENDBRANCH  18  19
ENDBRANCH  17  18
ENDBRANCH  16  17
ENDBRANCH  15  16
ENDBRANCH   1  15
TORSDOF 22
ENDMDL
MODEL 5
REMARK VINA RESULT:    -3.915      1.475      2.286
REMARK INTER + INTRA:         -11.627
REMARK INTER:                  -7.936
REMARK INTRA:                  -3.692
REMARK UNBOUND:                -2.677
REMARK SMILES CCCCCCCCCCCCCCCCCCCCCCCC(=O)[O-]
REMARK SMILES IDX 13 1 14 2 15 3 16 4 17 5 18 6 19 7 20 8 21 9 22 10 23 11
REMARK SMILES IDX 24 12 25 13 26 14 12 15 11 16 10 17 9 18 8 19 7 20 6 21 5 22
REMARK SMILES IDX 4 23 3 24 2 25 1 26
REMARK H PARENT
REMARK Flexibility Score: inf
ROOT
ATOM      1  C   UNL     1     154.540 133.550 165.019  1.00  0.00     0.000 C 
ENDROOT
BRANCH   1   2
ATOM      2  C   UNL     1     154.290 134.908 165.697  1.00  0.00     0.000 C 
BRANCH   2   3
ATOM      3  C   UNL     1     152.804 135.311 165.686  1.00  0.00     0.000 C 
BRANCH   3   4
ATOM      4  C   UNL     1     152.253 135.803 167.042  1.00  0.00     0.000 C 
BRANCH   4   5
ATOM      5  C   UNL     1     151.160 134.909 167.663  1.00  0.00     0.000 C 
BRANCH   5   6
ATOM      6  C   UNL     1     151.648 133.516 168.107  1.00  0.00     0.000 C 
BRANCH   6   7
ATOM      7  C   UNL     1     150.999 132.333 167.357  1.00  0.00     0.000 C 
BRANCH   7   8
ATOM      8  C   UNL     1     150.339 132.692 166.011  1.00  0.00     0.000 C 
BRANCH   8   9
ATOM      9  C   UNL     1     151.134 132.177 164.800  1.00  0.00     0.000 C 
BRANCH   9  10
ATOM     10  C   UNL     1     150.544 132.631 163.451  1.00  0.00     0.006 C 
BRANCH  10  11
ATOM     11  C   UNL     1     149.515 133.767 163.552  1.00  0.00     0.053 C 
BRANCH  11  12
ATOM     12  C   UNL     1     148.183 133.387 162.977  1.00  0.00     0.041 C 
ATOM     13  O   UNL     1     147.501 134.235 162.340  1.00  0.00    -0.550 OA
ATOM     14  O   UNL     1     147.700 132.092 163.135  1.00  0.00    -0.550 OA
ENDBRANCH  11  12
ENDBRANCH  10  11
ENDBRANCH   9  10
ENDBRANCH   8   9
ENDBRANCH   7   8
ENDBRANCH   6   7
ENDBRANCH   5   6
ENDBRANCH   4   5
ENDBRANCH   3   4
ENDBRANCH   2   3
ENDBRANCH   1   2
BRANCH   1  15
ATOM     15  C   UNL     1     154.432 132.364 165.994  1.00  0.00     0.000 C 
BRANCH  15  16
ATOM     16  C   UNL     1     155.586 132.251 167.013  1.00  0.00     0.000 C 
BRANCH  16  17
ATOM     17  C   UNL     1     155.224 132.615 168.464  1.00  0.00     0.000 C 
BRANCH  17  18
ATOM     18  C   UNL     1     155.755 133.976 168.954  1.00  0.00    -0.000 C 
BRANCH  18  19
ATOM     19  C   UNL     1     157.013 134.467 168.205  1.00  0.00    -0.000 C 
BRANCH  19  20
ATOM     20  C   UNL     1     156.849 135.887 167.635  1.00  0.00    -0.000 C 
BRANCH  20  21
ATOM     21  C   UNL     1     156.539 136.928 168.729  1.00  0.00    -0.000 C 
BRANCH  21  22
ATOM     22  C   UNL     1     157.446 138.175 168.690  1.00  0.00    -0.000 C 
BRANCH  22  23
ATOM     23  C   UNL     1     157.044 139.263 167.669  1.00  0.00    -0.000 C 
BRANCH  23  24
ATOM     24  C   UNL     1     155.665 139.914 167.916  1.00  0.00    -0.000 C 
BRANCH  24  25
ATOM     25  C   UNL     1     154.687 139.783 166.734  1.00  0.00    -0.003 C 
ATOM     26  C   UNL     1     155.047 138.651 165.773  1.00  0.00     0.004 C 
ENDBRANCH  24  25
ENDBRANCH  23  24
ENDBRANCH  22  23
ENDBRANCH  21  22
ENDBRANCH  20  21
ENDBRANCH  19  20
ENDBRANCH  18  19
ENDBRANCH  17  18
ENDBRANCH  16  17
ENDBRANCH  15  16
ENDBRANCH   1  15
TORSDOF 22
ENDMDL
MODEL 6
REMARK VINA RESULT:    -3.887      1.997      4.411
REMARK INTER + INTRA:         -11.564
REMARK INTER:                  -9.287
REMARK INTRA:                  -2.277
REMARK UNBOUND:                -2.677
REMARK SMILES CCCCCCCCCCCCCCCCCCCCCCCC(=O)[O-]
REMARK SMILES IDX 13 1 14 2 15 3 16 4 17 5 18 6 19 7 20 8 21 9 22 10 23 11
REMARK SMILES IDX 24 12 25 13 26 14 12 15 11 16 10 17 9 18 8 19 7 20 6 21 5 22
REMARK SMILES IDX 4 23 3 24 2 25 1 26
REMARK H PARENT
REMARK Flexibility Score: inf
ROOT
ATOM      1  C   UNL     1     152.725 134.279 166.614  1.00  0.00     0.000 C 
ENDROOT
BRANCH   1   2
ATOM      2  C   UNL     1     151.460 134.158 165.747  1.00  0.00     0.000 C 
BRANCH   2   3
ATOM      3  C   UNL     1     151.102 132.697 165.422  1.00  0.00     0.000 C 
BRANCH   3   4
ATOM      4  C   UNL     1     151.143 132.333 163.922  1.00  0.00     0.000 C 
BRANCH   4   5
ATOM      5  C   UNL     1     149.999 132.929 163.076  1.00  0.00     0.000 C 
BRANCH   5   6
ATOM      6  C   UNL     1     148.604 132.352 163.388  1.00  0.00     0.000 C 
BRANCH   6   7
ATOM      7  C   UNL     1     147.620 133.350 164.033  1.00  0.00     0.000 C 
BRANCH   7   8
ATOM      8  C   UNL     1     146.285 132.742 164.508  1.00  0.00     0.000 C 
BRANCH   8   9
ATOM      9  C   UNL     1     145.074 133.277 163.725  1.00  0.00     0.000 C 
BRANCH   9  10
ATOM     10  C   UNL     1     145.450 134.358 162.693  1.00  0.00     0.006 C 
BRANCH  10  11
ATOM     11  C   UNL     1     144.995 134.058 161.256  1.00  0.00     0.053 C 
BRANCH  11  12
ATOM     12  C   UNL     1     145.901 133.089 160.558  1.00  0.00     0.041 C 
ATOM     13  O   UNL     1     147.121 133.364 160.394  1.00  0.00    -0.550 OA
ATOM     14  O   UNL     1     145.401 131.875 160.097  1.00  0.00    -0.550 OA
ENDBRANCH  11  12
ENDBRANCH  10  11
ENDBRANCH   9  10
ENDBRANCH   8   9
ENDBRANCH   7   8
ENDBRANCH   6   7
ENDBRANCH   5   6
ENDBRANCH   4   5
ENDBRANCH   3   4
ENDBRANCH   2   3
ENDBRANCH   1   2
BRANCH   1  15
ATOM     15  C   UNL     1     154.005 134.477 165.784  1.00  0.00     0.000 C 
BRANCH  15  16
ATOM     16  C   UNL     1     154.534 133.206 165.086  1.00  0.00     0.000 C 
BRANCH  16  17
ATOM     17  C   UNL     1     154.852 132.023 166.019  1.00  0.00     0.000 C 
BRANCH  17  18
ATOM     18  C   UNL     1     155.994 132.265 167.024  1.00  0.00    -0.000 C 
BRANCH  18  19
ATOM     19  C   UNL     1     155.514 132.605 168.452  1.00  0.00    -0.000 C 
BRANCH  19  20
ATOM     20  C   UNL     1     156.461 133.573 169.183  1.00  0.00    -0.000 C 
BRANCH  20  21
ATOM     21  C   UNL     1     157.016 134.669 168.251  1.00  0.00    -0.000 C 
BRANCH  21  22
ATOM     22  C   UNL     1     156.172 135.960 168.223  1.00  0.00    -0.000 C 
BRANCH  22  23
ATOM     23  C   UNL     1     156.635 137.040 167.220  1.00  0.00    -0.000 C 
BRANCH  23  24
ATOM     24  C   UNL     1     157.358 138.251 167.849  1.00  0.00    -0.000 C 
BRANCH  24  25
ATOM     25  C   UNL     1     157.550 139.439 166.889  1.00  0.00    -0.003 C 
ATOM     26  C   UNL     1     156.359 139.661 165.956  1.00  0.00     0.004 C 
ENDBRANCH  24  25
ENDBRANCH  23  24
ENDBRANCH  22  23
ENDBRANCH  21  22
ENDBRANCH  20  21
ENDBRANCH  19  20
ENDBRANCH  18  19
ENDBRANCH  17  18
ENDBRANCH  16  17
ENDBRANCH  15  16
ENDBRANCH   1  15
TORSDOF 22
ENDMDL
MODEL 7
REMARK VINA RESULT:    -3.854      3.249      9.311
REMARK INTER + INTRA:         -11.487
REMARK INTER:                  -8.785
REMARK INTRA:                  -2.702
REMARK UNBOUND:                -2.677
REMARK SMILES CCCCCCCCCCCCCCCCCCCCCCCC(=O)[O-]
REMARK SMILES IDX 13 1 14 2 15 3 16 4 17 5 18 6 19 7 20 8 21 9 22 10 23 11
REMARK SMILES IDX 24 12 25 13 26 14 12 15 11 16 10 17 9 18 8 19 7 20 6 21 5 22
REMARK SMILES IDX 4 23 3 24 2 25 1 26
REMARK H PARENT
REMARK Flexibility Score: inf
ROOT
ATOM      1  C   UNL     1     151.048 133.793 165.474  1.00  0.00     0.000 C 
ENDROOT
BRANCH   1   2
ATOM      2  C   UNL     1     151.233 132.413 166.129  1.00  0.00     0.000 C 
BRANCH   2   3
ATOM      3  C   UNL     1     152.692 132.143 166.539  1.00  0.00     0.000 C 
BRANCH   3   4
ATOM      4  C   UNL     1     153.738 132.399 165.432  1.00  0.00     0.000 C 
BRANCH   4   5
ATOM      5  C   UNL     1     155.194 132.077 165.826  1.00  0.00     0.000 C 
BRANCH   5   6
ATOM      6  C   UNL     1     155.541 132.377 167.298  1.00  0.00     0.000 C 
BRANCH   6   7
ATOM      7  C   UNL     1     157.048 132.528 167.590  1.00  0.00     0.000 C 
BRANCH   7   8
ATOM      8  C   UNL     1     157.394 133.352 168.847  1.00  0.00     0.000 C 
BRANCH   8   9
ATOM      9  C   UNL     1     156.389 134.486 169.113  1.00  0.00     0.000 C 
BRANCH   9  10
ATOM     10  C   UNL     1     156.692 135.764 168.308  1.00  0.00     0.006 C 
BRANCH  10  11
ATOM     11  C   UNL     1     155.460 136.619 167.975  1.00  0.00     0.053 C 
BRANCH  11  12
ATOM     12  C   UNL     1     154.470 135.889 167.118  1.00  0.00     0.041 C 
ATOM     13  O   UNL     1     154.773 135.557 165.940  1.00  0.00    -0.550 OA
ATOM     14  O   UNL     1     153.215 135.564 167.625  1.00  0.00    -0.550 OA
ENDBRANCH  11  12
ENDBRANCH  10  11
ENDBRANCH   9  10
ENDBRANCH   8   9
ENDBRANCH   7   8
ENDBRANCH   6   7
ENDBRANCH   5   6
ENDBRANCH   4   5
ENDBRANCH   3   4
ENDBRANCH   2   3
ENDBRANCH   1   2
BRANCH   1  15
ATOM     15  C   UNL     1     150.717 133.705 163.974  1.00  0.00     0.000 C 
BRANCH  15  16
ATOM     16  C   UNL     1     149.804 132.526 163.575  1.00  0.00     0.000 C 
BRANCH  16  17
ATOM     17  C   UNL     1     148.313 132.698 163.918  1.00  0.00     0.000 C 
BRANCH  17  18
ATOM     18  C   UNL     1     147.329 132.304 162.800  1.00  0.00    -0.000 C 
BRANCH  18  19
ATOM     19  C   UNL     1     147.562 133.048 161.467  1.00  0.00    -0.000 C 
BRANCH  19  20
ATOM     20  C   UNL     1     146.316 133.052 160.563  1.00  0.00    -0.000 C 
BRANCH  20  21
ATOM     21  C   UNL     1     145.085 133.665 161.261  1.00  0.00    -0.000 C 
BRANCH  21  22
ATOM     22  C   UNL     1     145.095 135.205 161.322  1.00  0.00    -0.000 C 
BRANCH  22  23
ATOM     23  C   UNL     1     144.900 135.822 162.725  1.00  0.00    -0.000 C 
BRANCH  23  24
ATOM     24  C   UNL     1     146.120 135.704 163.666  1.00  0.00    -0.000 C 
BRANCH  24  25
ATOM     25  C   UNL     1     147.344 136.521 163.214  1.00  0.00    -0.003 C 
ATOM     26  C   UNL     1     148.470 136.544 164.247  1.00  0.00     0.004 C 
ENDBRANCH  24  25
ENDBRANCH  23  24
ENDBRANCH  22  23
ENDBRANCH  21  22
ENDBRANCH  20  21
ENDBRANCH  19  20
ENDBRANCH  18  19
ENDBRANCH  17  18
ENDBRANCH  16  17
ENDBRANCH  15  16
ENDBRANCH   1  15
TORSDOF 22
ENDMDL
MODEL 8
REMARK VINA RESULT:    -3.819      2.312      3.869
REMARK INTER + INTRA:         -11.408
REMARK INTER:                  -7.866
REMARK INTRA:                  -3.542
REMARK UNBOUND:                -2.677
REMARK SMILES CCCCCCCCCCCCCCCCCCCCCCCC(=O)[O-]
REMARK SMILES IDX 13 1 14 2 15 3 16 4 17 5 18 6 19 7 20 8 21 9 22 10 23 11
REMARK SMILES IDX 24 12 25 13 26 14 12 15 11 16 10 17 9 18 8 19 7 20 6 21 5 22
REMARK SMILES IDX 4 23 3 24 2 25 1 26
REMARK H PARENT
REMARK Flexibility Score: inf
ROOT
ATOM      1  C   UNL     1     153.836 133.076 165.313  1.00  0.00     0.000 C 
ENDROOT
BRANCH   1   2
ATOM      2  C   UNL     1     153.099 132.661 164.028  1.00  0.00     0.000 C 
BRANCH   2   3
ATOM      3  C   UNL     1     151.807 131.875 164.316  1.00  0.00     0.000 C 
BRANCH   3   4
ATOM      4  C   UNL     1     150.513 132.717 164.291  1.00  0.00     0.000 C 
BRANCH   4   5
ATOM      5  C   UNL     1     150.018 133.192 165.673  1.00  0.00     0.000 C 
BRANCH   5   6
ATOM      6  C   UNL     1     150.615 132.419 166.866  1.00  0.00     0.000 C 
BRANCH   6   7
ATOM      7  C   UNL     1     150.885 133.275 168.122  1.00  0.00     0.000 C 
BRANCH   7   8
ATOM      8  C   UNL     1     150.932 134.797 167.882  1.00  0.00     0.000 C 
BRANCH   8   9
ATOM      9  C   UNL     1     152.362 135.324 167.673  1.00  0.00     0.000 C 
BRANCH   9  10
ATOM     10  C   UNL     1     152.474 136.325 166.507  1.00  0.00     0.006 C 
BRANCH  10  11
ATOM     11  C   UNL     1     151.133 136.709 165.862  1.00  0.00     0.053 C 
BRANCH  11  12
ATOM     12  C   UNL     1     151.295 137.702 164.751  1.00  0.00     0.041 C 
ATOM     13  O   UNL     1     152.217 138.560 164.795  1.00  0.00    -0.550 OA
ATOM     14  O   UNL     1     150.432 137.673 163.659  1.00  0.00    -0.550 OA
ENDBRANCH  11  12
ENDBRANCH  10  11
ENDBRANCH   9  10
ENDBRANCH   8   9
ENDBRANCH   7   8
ENDBRANCH   6   7
ENDBRANCH   5   6
ENDBRANCH   4   5
ENDBRANCH   3   4
ENDBRANCH   2   3
ENDBRANCH   1   2
BRANCH   1  15
ATOM     15  C   UNL     1     154.401 131.877 166.094  1.00  0.00     0.000 C 
BRANCH  15  16
ATOM     16  C   UNL     1     155.451 132.233 167.167  1.00  0.00     0.000 C 
BRANCH  16  17
ATOM     17  C   UNL     1     156.919 132.143 166.712  1.00  0.00     0.000 C 
BRANCH  17  18
ATOM     18  C   UNL     1     157.930 132.902 167.593  1.00  0.00    -0.000 C 
BRANCH  18  19
ATOM     19  C   UNL     1     157.744 132.666 169.108  1.00  0.00    -0.000 C 
BRANCH  19  20
ATOM     20  C   UNL     1     156.869 133.742 169.774  1.00  0.00    -0.000 C 
BRANCH  20  21
ATOM     21  C   UNL     1     157.061 135.134 169.137  1.00  0.00    -0.000 C 
BRANCH  21  22
ATOM     22  C   UNL     1     155.831 135.649 168.363  1.00  0.00    -0.000 C 
BRANCH  22  23
ATOM     23  C   UNL     1     156.113 136.199 166.947  1.00  0.00    -0.000 C 
BRANCH  23  24
ATOM     24  C   UNL     1     156.558 137.677 166.896  1.00  0.00    -0.000 C 
BRANCH  24  25
ATOM     25  C   UNL     1     155.507 138.630 166.297  1.00  0.00    -0.003 C 
ATOM     26  C   UNL     1     154.612 139.283 167.350  1.00  0.00     0.004 C 
ENDBRANCH  24  25
ENDBRANCH  23  24
ENDBRANCH  22  23
ENDBRANCH  21  22
ENDBRANCH  20  21
ENDBRANCH  19  20
ENDBRANCH  18  19
ENDBRANCH  17  18
ENDBRANCH  16  17
ENDBRANCH  15  16
ENDBRANCH   1  15
TORSDOF 22
ENDMDL
MODEL 9
REMARK VINA RESULT:    -3.816      3.546      7.804
REMARK INTER + INTRA:         -11.400
REMARK INTER:                  -7.553
REMARK INTRA:                  -3.847
REMARK UNBOUND:                -2.677
REMARK SMILES CCCCCCCCCCCCCCCCCCCCCCCC(=O)[O-]
REMARK SMILES IDX 13 1 14 2 15 3 16 4 17 5 18 6 19 7 20 8 21 9 22 10 23 11
REMARK SMILES IDX 24 12 25 13 26 14 12 15 11 16 10 17 9 18 8 19 7 20 6 21 5 22
REMARK SMILES IDX 4 23 3 24 2 25 1 26
REMARK H PARENT
REMARK Flexibility Score: inf
ROOT
ATOM      1  C   UNL     1     152.929 133.477 164.899  1.00  0.00     0.000 C 
ENDROOT
BRANCH   1   2
ATOM      2  C   UNL     1     154.432 133.576 165.213  1.00  0.00     0.000 C 
BRANCH   2   3
ATOM      3  C   UNL     1     155.025 132.240 165.697  1.00  0.00     0.000 C 
BRANCH   3   4
ATOM      4  C   UNL     1     155.700 132.292 167.085  1.00  0.00     0.000 C 
BRANCH   4   5
ATOM      5  C   UNL     1     157.242 132.315 167.059  1.00  0.00     0.000 C 
BRANCH   5   6
ATOM      6  C   UNL     1     157.892 133.000 168.277  1.00  0.00     0.000 C 
BRANCH   6   7
ATOM      7  C   UNL     1     156.932 133.277 169.453  1.00  0.00     0.000 C 
BRANCH   7   8
ATOM      8  C   UNL     1     156.805 134.758 169.861  1.00  0.00     0.000 C 
BRANCH   8   9
ATOM      9  C   UNL     1     155.443 135.367 169.486  1.00  0.00     0.000 C 
BRANCH   9  10
ATOM     10  C   UNL     1     155.366 135.818 168.015  1.00  0.00     0.006 C 
BRANCH  10  11
ATOM     11  C   UNL     1     156.635 136.508 167.490  1.00  0.00     0.053 C 
BRANCH  11  12
ATOM     12  C   UNL     1     156.510 138.002 167.471  1.00  0.00     0.041 C 
ATOM     13  O   UNL     1     155.599 138.571 168.130  1.00  0.00    -0.550 OA
ATOM     14  O   UNL     1     157.409 138.766 166.733  1.00  0.00    -0.550 OA
ENDBRANCH  11  12
ENDBRANCH  10  11
ENDBRANCH   9  10
ENDBRANCH   8   9
ENDBRANCH   7   8
ENDBRANCH   6   7
ENDBRANCH   5   6
ENDBRANCH   4   5
ENDBRANCH   3   4
ENDBRANCH   2   3
ENDBRANCH   1   2
BRANCH   1  15
ATOM     15  C   UNL     1     152.543 132.143 164.235  1.00  0.00     0.000 C 
BRANCH  15  16
ATOM     16  C   UNL     1     151.081 132.055 163.750  1.00  0.00     0.000 C 
BRANCH  16  17
ATOM     17  C   UNL     1     150.280 133.367 163.822  1.00  0.00     0.000 C 
BRANCH  17  18
ATOM     18  C   UNL     1     149.081 133.356 164.790  1.00  0.00    -0.000 C 
BRANCH  18  19
ATOM     19  C   UNL     1     149.448 132.967 166.239  1.00  0.00    -0.000 C 
BRANCH  19  20
ATOM     20  C   UNL     1     149.478 134.178 167.189  1.00  0.00    -0.000 C 
BRANCH  20  21
ATOM     21  C   UNL     1     150.863 134.854 167.236  1.00  0.00    -0.000 C 
BRANCH  21  22
ATOM     22  C   UNL     1     151.707 134.480 168.471  1.00  0.00    -0.000 C 
BRANCH  22  23
ATOM     23  C   UNL     1     152.266 133.039 168.488  1.00  0.00    -0.000 C 
BRANCH  23  24
ATOM     24  C   UNL     1     153.142 132.692 169.712  1.00  0.00    -0.000 C 
BRANCH  24  25
ATOM     25  C   UNL     1     152.426 132.855 171.065  1.00  0.00    -0.003 C 
ATOM     26  C   UNL     1     153.130 133.831 172.008  1.00  0.00     0.004 C 
ENDBRANCH  24  25
ENDBRANCH  23  24
ENDBRANCH  22  23
ENDBRANCH  21  22
ENDBRANCH  20  21
ENDBRANCH  19  20
ENDBRANCH  18  19
ENDBRANCH  17  18
ENDBRANCH  16  17
ENDBRANCH  15  16
ENDBRANCH   1  15
TORSDOF 22
ENDMDL
