MODEL 1
REMARK VINA RESULT:    -4.483      0.000      0.000
REMARK INTER + INTRA:          -6.754
REMARK INTER:                  -6.055
REMARK INTRA:                  -0.699
REMARK UNBOUND:                -0.699
REMARK SMILES CCCCCCC=CC(=O)[O-]
REMARK SMILES IDX 5 1 6 2 7 3 8 4 9 5 10 6 11 7 4 8 3 9 2 10 1 11
REMARK H PARENT
REMARK Flexibility Score: inf
ROOT
ATOM      1  C   UNL     1     -11.672 -25.738 -33.935  1.00  0.00     0.004 C 
ENDROOT
BRANCH   1   2
ATOM      2  C   UNL     1     -11.088 -25.913 -32.527  1.00  0.00     0.027 C 
BRANCH   2   3
ATOM      3  C   UNL     1     -12.138 -25.704 -31.470  1.00  0.00    -0.025 C 
ATOM      4  C   UNL     1     -12.590 -26.632 -30.610  1.00  0.00     0.020 C 
BRANCH   4   5
ATOM      5  C   UNL     1     -12.184 -28.052 -30.553  1.00  0.00     0.064 C 
ATOM      6  O   UNL     1     -11.053 -28.341 -30.081  1.00  0.00    -0.545 OA
ATOM      7  O   UNL     1     -13.014 -29.080 -30.979  1.00  0.00    -0.545 OA
ENDBRANCH   4   5
ENDBRANCH   2   3
ENDBRANCH   1   2
BRANCH   1   8
ATOM      8  C   UNL     1     -11.446 -26.995 -34.784  1.00  0.00     0.000 C 
BRANCH   8   9
ATOM      9  C   UNL     1     -12.358 -28.142 -34.322  1.00  0.00    -0.000 C 
BRANCH   9  10
ATOM     10  C   UNL     1     -13.824 -27.706 -34.173  1.00  0.00    -0.003 C 
ATOM     11  C   UNL     1     -14.538 -27.562 -35.516  1.00  0.00     0.004 C 
ENDBRANCH   9  10
ENDBRANCH   8   9
ENDBRANCH   1   8
TORSDOF 6
ENDMDL
MODEL 2
REMARK VINA RESULT:    -4.438      3.043      4.786
REMARK INTER + INTRA:          -6.693
REMARK INTER:                  -5.921
REMARK INTRA:                  -0.773
REMARK UNBOUND:                -0.699
REMARK SMILES CCCCCCC=CC(=O)[O-]
REMARK SMILES IDX 5 1 6 2 7 3 8 4 9 5 10 6 11 7 4 8 3 9 2 10 1 11
REMARK H PARENT
REMARK Flexibility Score: inf
ROOT
ATOM      1  C   UNL     1     -13.696 -27.520 -33.528  1.00  0.00     0.004 C 
ENDROOT
BRANCH   1   2
ATOM      2  C   UNL     1     -13.075 -27.932 -34.869  1.00  0.00     0.027 C 
BRANCH   2   3
ATOM      3  C   UNL     1     -11.710 -27.324 -35.048  1.00  0.00    -0.025 C 
ATOM      4  C   UNL     1     -11.450 -26.037 -35.332  1.00  0.00     0.020 C 
BRANCH   4   5
ATOM      5  C   UNL     1     -12.443 -24.969 -35.568  1.00  0.00     0.064 C 
ATOM      6  O   UNL     1     -12.531 -24.027 -34.738  1.00  0.00    -0.545 OA
ATOM      7  O   UNL     1     -13.266 -24.953 -36.687  1.00  0.00    -0.545 OA
ENDBRANCH   4   5
ENDBRANCH   2   3
ENDBRANCH   1   2
BRANCH   1   8
ATOM      8  C   UNL     1     -13.003 -28.231 -32.360  1.00  0.00     0.000 C 
BRANCH   8   9
ATOM      9  C   UNL     1     -12.728 -27.254 -31.207  1.00  0.00    -0.000 C 
BRANCH   9  10
ATOM     10  C   UNL     1     -12.261 -25.876 -31.700  1.00  0.00    -0.003 C 
ATOM     11  C   UNL     1     -10.739 -25.739 -31.717  1.00  0.00     0.004 C 
ENDBRANCH   9  10
ENDBRANCH   8   9
ENDBRANCH   1   8
TORSDOF 6
ENDMDL
MODEL 3
REMARK VINA RESULT:    -4.327      1.895      2.913
REMARK INTER + INTRA:          -6.544
REMARK INTER:                  -5.860
REMARK INTRA:                  -0.684
REMARK UNBOUND:                -0.699
REMARK SMILES CCCCCCC=CC(=O)[O-]
REMARK SMILES IDX 5 1 6 2 7 3 8 4 9 5 10 6 11 7 4 8 3 9 2 10 1 11
REMARK H PARENT
REMARK Flexibility Score: inf
ROOT
ATOM      1  C   UNL     1     -12.006 -27.822 -35.001  1.00  0.00     0.004 C 
ENDROOT
BRANCH   1   2
ATOM      2  C   UNL     1     -12.102 -28.628 -33.698  1.00  0.00     0.027 C 
BRANCH   2   3
ATOM      3  C   UNL     1     -12.971 -27.930 -32.688  1.00  0.00    -0.025 C 
ATOM      4  C   UNL     1     -12.571 -26.989 -31.816  1.00  0.00     0.020 C 
BRANCH   4   5
ATOM      5  C   UNL     1     -11.195 -26.479 -31.642  1.00  0.00     0.064 C 
ATOM      6  O   UNL     1     -10.425 -27.071 -30.840  1.00  0.00    -0.545 OA
ATOM      7  O   UNL     1     -10.712 -25.386 -32.349  1.00  0.00    -0.545 OA
ENDBRANCH   4   5
ENDBRANCH   2   3
ENDBRANCH   1   2
BRANCH   1   8
ATOM      8  C   UNL     1     -13.395 -27.577 -35.599  1.00  0.00     0.000 C 
BRANCH   8   9
ATOM      9  C   UNL     1     -13.606 -26.087 -35.908  1.00  0.00    -0.000 C 
BRANCH   9  10
ATOM     10  C   UNL     1     -12.429 -25.216 -35.442  1.00  0.00    -0.003 C 
ATOM     11  C   UNL     1     -12.625 -23.735 -35.763  1.00  0.00     0.004 C 
ENDBRANCH   9  10
ENDBRANCH   8   9
ENDBRANCH   1   8
TORSDOF 6
ENDMDL
MODEL 4
REMARK VINA RESULT:    -4.325      2.785      4.762
REMARK INTER + INTRA:          -6.541
REMARK INTER:                  -5.872
REMARK INTRA:                  -0.670
REMARK UNBOUND:                -0.699
REMARK SMILES CCCCCCC=CC(=O)[O-]
REMARK SMILES IDX 5 1 6 2 7 3 8 4 9 5 10 6 11 7 4 8 3 9 2 10 1 11
REMARK H PARENT
REMARK Flexibility Score: inf
ROOT
ATOM      1  C   UNL     1     -12.777 -28.457 -31.071  1.00  0.00     0.004 C 
ENDROOT
BRANCH   1   2
ATOM      2  C   UNL     1     -13.274 -27.940 -32.428  1.00  0.00     0.027 C 
BRANCH   2   3
ATOM      3  C   UNL     1     -12.365 -28.374 -33.544  1.00  0.00    -0.025 C 
ATOM      4  C   UNL     1     -12.501 -28.058 -34.843  1.00  0.00     0.020 C 
BRANCH   4   5
ATOM      5  C   UNL     1     -13.590 -27.261 -35.446  1.00  0.00     0.064 C 
ATOM      6  O   UNL     1     -14.723 -27.790 -35.588  1.00  0.00    -0.545 OA
ATOM      7  O   UNL     1     -13.415 -25.940 -35.837  1.00  0.00    -0.545 OA
ENDBRANCH   4   5
ENDBRANCH   2   3
ENDBRANCH   1   2
BRANCH   1   8
ATOM      8  C   UNL     1     -11.293 -28.128 -30.869  1.00  0.00     0.000 C 
BRANCH   8   9
ATOM      9  C   UNL     1     -11.106 -26.660 -30.460  1.00  0.00    -0.000 C 
BRANCH   9  10
ATOM     10  C   UNL     1     -10.216 -25.883 -31.443  1.00  0.00    -0.003 C 
ATOM     11  C   UNL     1     -11.017 -24.973 -32.373  1.00  0.00     0.004 C 
ENDBRANCH   9  10
ENDBRANCH   8   9
ENDBRANCH   1   8
TORSDOF 6
ENDMDL
MODEL 5
REMARK VINA RESULT:    -4.276      2.951      4.748
REMARK INTER + INTRA:          -6.475
REMARK INTER:                  -5.690
REMARK INTRA:                  -0.785
REMARK UNBOUND:                -0.699
REMARK SMILES CCCCCCC=CC(=O)[O-]
REMARK SMILES IDX 5 1 6 2 7 3 8 4 9 5 10 6 11 7 4 8 3 9 2 10 1 11
REMARK H PARENT
REMARK Flexibility Score: inf
ROOT
ATOM      1  C   UNL     1     -12.521 -28.257 -32.999  1.00  0.00     0.004 C 
ENDROOT
BRANCH   1   2
ATOM      2  C   UNL     1     -13.722 -27.359 -33.327  1.00  0.00     0.027 C 
BRANCH   2   3
ATOM      3  C   UNL     1     -14.142 -27.513 -34.763  1.00  0.00    -0.025 C 
ATOM      4  C   UNL     1     -13.666 -26.811 -35.806  1.00  0.00     0.020 C 
BRANCH   4   5
ATOM      5  C   UNL     1     -12.670 -25.722 -35.752  1.00  0.00     0.064 C 
ATOM      6  O   UNL     1     -13.051 -24.539 -35.956  1.00  0.00    -0.545 OA
ATOM      7  O   UNL     1     -11.332 -25.952 -35.460  1.00  0.00    -0.545 OA
ENDBRANCH   4   5
ENDBRANCH   2   3
ENDBRANCH   1   2
BRANCH   1   8
ATOM      8  C   UNL     1     -11.510 -27.520 -32.113  1.00  0.00     0.000 C 
BRANCH   8   9
ATOM      9  C   UNL     1     -12.072 -26.170 -31.643  1.00  0.00    -0.000 C 
BRANCH   9  10
ATOM     10  C   UNL     1     -11.211 -24.982 -32.097  1.00  0.00    -0.003 C 
ATOM     11  C   UNL     1     -12.044 -23.815 -32.624  1.00  0.00     0.004 C 
ENDBRANCH   9  10
ENDBRANCH   8   9
ENDBRANCH   1   8
TORSDOF 6
ENDMDL
MODEL 6
REMARK VINA RESULT:    -4.248      2.270      3.111
REMARK INTER + INTRA:          -6.438
REMARK INTER:                  -5.848
REMARK INTRA:                  -0.590
REMARK UNBOUND:                -0.699
REMARK SMILES CCCCCCC=CC(=O)[O-]
REMARK SMILES IDX 5 1 6 2 7 3 8 4 9 5 10 6 11 7 4 8 3 9 2 10 1 11
REMARK H PARENT
REMARK Flexibility Score: inf
ROOT
ATOM      1  C   UNL     1     -12.874 -28.614 -31.502  1.00  0.00     0.004 C 
ENDROOT
BRANCH   1   2
ATOM      2  C   UNL     1     -12.231 -27.611 -30.535  1.00  0.00     0.027 C 
BRANCH   2   3
ATOM      3  C   UNL     1     -10.751 -27.491 -30.777  1.00  0.00    -0.025 C 
ATOM      4  C   UNL     1     -10.124 -26.442 -31.336  1.00  0.00     0.020 C 
BRANCH   4   5
ATOM      5  C   UNL     1     -10.759 -25.217 -31.865  1.00  0.00     0.064 C 
ATOM      6  O   UNL     1     -11.161 -25.208 -33.058  1.00  0.00    -0.545 OA
ATOM      7  O   UNL     1     -10.951 -24.084 -31.086  1.00  0.00    -0.545 OA
ENDBRANCH   4   5
ENDBRANCH   2   3
ENDBRANCH   1   2
BRANCH   1   8
ATOM      8  C   UNL     1     -13.355 -27.915 -32.779  1.00  0.00     0.000 C 
BRANCH   8   9
ATOM      9  C   UNL     1     -12.515 -28.345 -33.991  1.00  0.00    -0.000 C 
BRANCH   9  10
ATOM     10  C   UNL     1     -12.974 -27.674 -35.294  1.00  0.00    -0.003 C 
ATOM     11  C   UNL     1     -14.495 -27.584 -35.409  1.00  0.00     0.004 C 
ENDBRANCH   9  10
ENDBRANCH   8   9
ENDBRANCH   1   8
TORSDOF 6
ENDMDL
MODEL 7
REMARK VINA RESULT:    -4.165      4.222      5.082
REMARK INTER + INTRA:          -6.325
REMARK INTER:                  -5.779
REMARK INTRA:                  -0.546
REMARK UNBOUND:                -0.699
REMARK SMILES CCCCCCC=CC(=O)[O-]
REMARK SMILES IDX 5 1 6 2 7 3 8 4 9 5 10 6 11 7 4 8 3 9 2 10 1 11
REMARK H PARENT
REMARK Flexibility Score: inf
ROOT
ATOM      1  C   UNL     1     -11.930 -25.735 -32.882  1.00  0.00     0.004 C 
ENDROOT
BRANCH   1   2
ATOM      2  C   UNL     1     -12.248 -24.363 -33.490  1.00  0.00     0.027 C 
BRANCH   2   3
ATOM      3  C   UNL     1     -12.478 -24.463 -34.973  1.00  0.00    -0.025 C 
ATOM      4  C   UNL     1     -12.633 -23.431 -35.820  1.00  0.00     0.020 C 
BRANCH   4   5
ATOM      5  C   UNL     1     -12.653 -21.997 -35.466  1.00  0.00     0.064 C 
ATOM      6  O   UNL     1     -11.774 -21.239 -35.954  1.00  0.00    -0.545 OA
ATOM      7  O   UNL     1     -13.621 -21.450 -34.635  1.00  0.00    -0.545 OA
ENDBRANCH   4   5
ENDBRANCH   2   3
ENDBRANCH   1   2
BRANCH   1   8
ATOM      8  C   UNL     1     -13.148 -26.664 -32.953  1.00  0.00     0.000 C 
BRANCH   8   9
ATOM      9  C   UNL     1     -12.783 -28.000 -33.616  1.00  0.00    -0.000 C 
BRANCH   9  10
ATOM     10  C   UNL     1     -13.118 -28.025 -35.115  1.00  0.00    -0.003 C 
ATOM     11  C   UNL     1     -14.529 -27.521 -35.414  1.00  0.00     0.004 C 
ENDBRANCH   9  10
ENDBRANCH   8   9
ENDBRANCH   1   8
TORSDOF 6
ENDMDL
MODEL 8
REMARK VINA RESULT:    -4.128      2.101      4.133
REMARK INTER + INTRA:          -6.275
REMARK INTER:                  -5.508
REMARK INTRA:                  -0.766
REMARK UNBOUND:                -0.699
REMARK SMILES CCCCCCC=CC(=O)[O-]
REMARK SMILES IDX 5 1 6 2 7 3 8 4 9 5 10 6 11 7 4 8 3 9 2 10 1 11
REMARK H PARENT
REMARK Flexibility Score: inf
ROOT
ATOM      1  C   UNL     1     -11.269 -25.792 -32.339  1.00  0.00     0.004 C 
ENDROOT
BRANCH   1   2
ATOM      2  C   UNL     1     -11.491 -25.646 -33.850  1.00  0.00     0.027 C 
BRANCH   2   3
ATOM      3  C   UNL     1     -11.381 -26.974 -34.548  1.00  0.00    -0.025 C 
ATOM      4  C   UNL     1     -12.405 -27.707 -35.018  1.00  0.00     0.020 C 
BRANCH   4   5
ATOM      5  C   UNL     1     -13.843 -27.383 -34.909  1.00  0.00     0.064 C 
ATOM      6  O   UNL     1     -14.420 -27.547 -33.802  1.00  0.00    -0.545 OA
ATOM      7  O   UNL     1     -14.575 -26.880 -35.976  1.00  0.00    -0.545 OA
ENDBRANCH   4   5
ENDBRANCH   2   3
ENDBRANCH   1   2
BRANCH   1   8
ATOM      8  C   UNL     1     -12.459 -25.230 -31.552  1.00  0.00     0.000 C 
BRANCH   8   9
ATOM      9  C   UNL     1     -13.151 -26.334 -30.739  1.00  0.00    -0.000 C 
BRANCH   9  10
ATOM     10  C   UNL     1     -12.279 -27.590 -30.588  1.00  0.00    -0.003 C 
ATOM     11  C   UNL     1     -12.995 -28.864 -31.033  1.00  0.00     0.004 C 
ENDBRANCH   9  10
ENDBRANCH   8   9
ENDBRANCH   1   8
TORSDOF 6
ENDMDL
MODEL 9
REMARK VINA RESULT:    -4.104      3.173      4.100
REMARK INTER + INTRA:          -6.243
REMARK INTER:                  -5.554
REMARK INTRA:                  -0.689
REMARK UNBOUND:                -0.699
REMARK SMILES CCCCCCC=CC(=O)[O-]
REMARK SMILES IDX 5 1 6 2 7 3 8 4 9 5 10 6 11 7 4 8 3 9 2 10 1 11
REMARK H PARENT
REMARK Flexibility Score: inf
ROOT
ATOM      1  C   UNL     1     -12.295 -26.235 -31.813  1.00  0.00     0.004 C 
ENDROOT
BRANCH   1   2
ATOM      2  C   UNL     1     -11.487 -25.479 -32.875  1.00  0.00     0.027 C 
BRANCH   2   3
ATOM      3  C   UNL     1     -12.199 -24.229 -33.316  1.00  0.00    -0.025 C 
ATOM      4  C   UNL     1     -12.585 -23.941 -34.570  1.00  0.00     0.020 C 
BRANCH   4   5
ATOM      5  C   UNL     1     -12.354 -24.766 -35.774  1.00  0.00     0.064 C 
ATOM      6  O   UNL     1     -13.267 -24.850 -36.637  1.00  0.00    -0.545 OA
ATOM      7  O   UNL     1     -11.157 -25.431 -36.001  1.00  0.00    -0.545 OA
ENDBRANCH   4   5
ENDBRANCH   2   3
ENDBRANCH   1   2
BRANCH   1   8
ATOM      8  C   UNL     1     -13.038 -27.425 -32.432  1.00  0.00     0.000 C 
BRANCH   8   9
ATOM      9  C   UNL     1     -12.243 -28.021 -33.603  1.00  0.00    -0.000 C 
BRANCH   9  10
ATOM     10  C   UNL     1     -13.101 -28.205 -34.865  1.00  0.00    -0.003 C 
ATOM     11  C   UNL     1     -14.478 -27.555 -34.744  1.00  0.00     0.004 C 
ENDBRANCH   9  10
ENDBRANCH   8   9
ENDBRANCH   1   8
TORSDOF 6
ENDMDL
