MODEL 1
REMARK VINA RESULT:    -5.659      0.000      0.000
REMARK INTER + INTRA:          -7.146
REMARK INTER:                  -6.982
REMARK INTRA:                  -0.164
REMARK UNBOUND:                -0.164
REMARK SMILES O=C1c2c(O)cc(O)cc2O[C@@H](c2cc(O)c(O)c(O)c2)[C@H]1O
REMARK SMILES IDX 12 1 22 2 2 3 1 4 3 5 4 6 6 7 7 8 9 9 10 10 11 11 13 12
REMARK SMILES IDX 14 13 15 14 21 15 17 16 19 17 16 18 18 20 20 22 23 24 5 26
REMARK SMILES IDX 8 28
REMARK H PARENT 16 19 18 21 20 23 23 25 5 27 8 29
REMARK Flexibility Score: inf
ROOT
ATOM      1  C   UNL     1      45.744  15.056  -3.671  1.00  0.00     0.240 C 
ATOM      2  C   UNL     1      47.054  15.457  -4.376  1.00  0.00     0.231 C 
ATOM      3  C   UNL     1      47.977  14.268  -4.424  1.00  0.00     0.202 C 
ATOM      4  O   UNL     1      48.735  14.112  -5.419  1.00  0.00    -0.291 OA
ATOM      5  C   UNL     1      48.020  13.333  -3.272  1.00  0.00     0.105 A 
ATOM      6  C   UNL     1      49.019  12.348  -3.126  1.00  0.00     0.133 A 
ATOM      7  C   UNL     1      49.027  11.530  -1.986  1.00  0.00     0.093 A 
ATOM      8  C   UNL     1      48.060  11.690  -0.989  1.00  0.00     0.123 A 
ATOM      9  C   UNL     1      47.066  12.667  -1.135  1.00  0.00     0.093 A 
ATOM     10  C   UNL     1      47.036  13.474  -2.275  1.00  0.00     0.138 A 
ATOM     11  O   UNL     1      46.020  14.427  -2.416  1.00  0.00    -0.481 OA
ENDROOT
BRANCH   1  12
ATOM     12  C   UNL     1      44.827  16.244  -3.480  1.00  0.00     0.003 A 
ATOM     13  C   UNL     1      44.778  17.278  -4.429  1.00  0.00     0.058 A 
ATOM     14  C   UNL     1      43.900  18.357  -4.262  1.00  0.00     0.161 A 
ATOM     15  C   UNL     1      43.964  16.288  -2.374  1.00  0.00     0.058 A 
ATOM     16  C   UNL     1      43.050  18.403  -3.142  1.00  0.00     0.200 A 
ATOM     17  C   UNL     1      43.084  17.362  -2.199  1.00  0.00     0.161 A 
BRANCH  14  18
ATOM     18  O   UNL     1      43.866  19.382  -5.206  1.00  0.00    -0.504 OA
ATOM     19  H   UNL     1      43.245  20.176  -5.106  1.00  0.00     0.293 HD
ENDBRANCH  14  18
BRANCH  16  20
ATOM     20  O   UNL     1      42.172  19.472  -2.959  1.00  0.00    -0.502 OA
ATOM     21  H   UNL     1      41.432  19.682  -3.618  1.00  0.00     0.293 HD
ENDBRANCH  16  20
BRANCH  17  22
ATOM     22  O   UNL     1      42.249  17.375  -1.082  1.00  0.00    -0.504 OA
ATOM     23  H   UNL     1      42.588  17.149  -0.154  1.00  0.00     0.293 HD
ENDBRANCH  17  22
ENDBRANCH   1  12
BRANCH   2  24
ATOM     24  O   UNL     1      47.682  16.500  -3.675  1.00  0.00    -0.381 OA
ATOM     25  H   UNL     1      47.227  16.566  -2.795  1.00  0.00     0.211 HD
ENDBRANCH   2  24
BRANCH   6  26
ATOM     26  O   UNL     1      50.005  12.183  -4.099  1.00  0.00    -0.507 OA
ATOM     27  H   UNL     1      50.397  12.972  -4.600  1.00  0.00     0.293 HD
ENDBRANCH   6  26
BRANCH   8  28
ATOM     28  O   UNL     1      48.093  10.875   0.139  1.00  0.00    -0.508 OA
ATOM     29  H   UNL     1      47.547  10.023   0.195  1.00  0.00     0.293 HD
ENDBRANCH   8  28
TORSDOF 7
ENDMDL
MODEL 2
REMARK VINA RESULT:    -5.646      1.974      6.740
REMARK INTER + INTRA:          -7.131
REMARK INTER:                  -6.772
REMARK INTRA:                  -0.358
REMARK UNBOUND:                -0.164
REMARK SMILES O=C1c2c(O)cc(O)cc2O[C@@H](c2cc(O)c(O)c(O)c2)[C@H]1O
REMARK SMILES IDX 12 1 22 2 2 3 1 4 3 5 4 6 6 7 7 8 9 9 10 10 11 11 13 12
REMARK SMILES IDX 14 13 15 14 21 15 17 16 19 17 16 18 18 20 20 22 23 24 5 26
REMARK SMILES IDX 8 28
REMARK H PARENT 16 19 18 21 20 23 23 25 5 27 8 29
REMARK Flexibility Score: inf
ROOT
ATOM      1  C   UNL     1      46.624  16.762  -3.943  1.00  0.00     0.240 C 
ATOM      2  C   UNL     1      46.068  17.199  -5.312  1.00  0.00     0.231 C 
ATOM      3  C   UNL     1      44.768  17.931  -5.110  1.00  0.00     0.202 C 
ATOM      4  O   UNL     1      44.470  18.887  -5.875  1.00  0.00    -0.291 OA
ATOM      5  C   UNL     1      43.834  17.476  -4.049  1.00  0.00     0.105 A 
ATOM      6  C   UNL     1      42.504  17.938  -3.955  1.00  0.00     0.133 A 
ATOM      7  C   UNL     1      41.660  17.428  -2.956  1.00  0.00     0.093 A 
ATOM      8  C   UNL     1      42.123  16.458  -2.062  1.00  0.00     0.123 A 
ATOM      9  C   UNL     1      43.444  16.001  -2.155  1.00  0.00     0.093 A 
ATOM     10  C   UNL     1      44.300  16.516  -3.131  1.00  0.00     0.138 A 
ATOM     11  O   UNL     1      45.624  16.066  -3.193  1.00  0.00    -0.481 OA
ENDROOT
BRANCH   1  12
ATOM     12  C   UNL     1      47.866  15.912  -4.091  1.00  0.00     0.003 A 
ATOM     13  C   UNL     1      48.965  16.363  -4.839  1.00  0.00     0.058 A 
ATOM     14  C   UNL     1      50.125  15.584  -4.941  1.00  0.00     0.161 A 
ATOM     15  C   UNL     1      47.953  14.681  -3.421  1.00  0.00     0.058 A 
ATOM     16  C   UNL     1      50.199  14.344  -4.282  1.00  0.00     0.200 A 
ATOM     17  C   UNL     1      49.107  13.896  -3.518  1.00  0.00     0.161 A 
BRANCH  14  18
ATOM     18  O   UNL     1      51.208  16.038  -5.693  1.00  0.00    -0.504 OA
ATOM     19  H   UNL     1      51.335  17.021  -5.901  1.00  0.00     0.293 HD
ENDBRANCH  14  18
BRANCH  16  20
ATOM     20  O   UNL     1      51.345  13.554  -4.375  1.00  0.00    -0.502 OA
ATOM     21  H   UNL     1      51.600  12.886  -3.659  1.00  0.00     0.293 HD
ENDBRANCH  16  20
BRANCH  17  22
ATOM     22  O   UNL     1      49.151  12.675  -2.846  1.00  0.00    -0.504 OA
ATOM     23  H   UNL     1      49.578  11.851  -3.252  1.00  0.00     0.293 HD
ENDBRANCH  17  22
ENDBRANCH   1  12
BRANCH   2  24
ATOM     24  O   UNL     1      45.844  16.076  -6.124  1.00  0.00    -0.381 OA
ATOM     25  H   UNL     1      45.212  15.489  -5.632  1.00  0.00     0.211 HD
ENDBRANCH   2  24
BRANCH   6  26
ATOM     26  O   UNL     1      42.015  18.892  -4.848  1.00  0.00    -0.507 OA
ATOM     27  H   UNL     1      41.182  18.727  -5.400  1.00  0.00     0.293 HD
ENDBRANCH   6  26
BRANCH   8  28
ATOM     28  O   UNL     1      41.266  15.957  -1.086  1.00  0.00    -0.508 OA
ATOM     29  H   UNL     1      41.390  15.030  -0.696  1.00  0.00     0.293 HD
ENDBRANCH   8  28
TORSDOF 7
ENDMDL
MODEL 3
REMARK VINA RESULT:    -5.409      1.740      3.776
REMARK INTER + INTRA:          -6.838
REMARK INTER:                  -6.490
REMARK INTRA:                  -0.348
REMARK UNBOUND:                -0.164
REMARK SMILES O=C1c2c(O)cc(O)cc2O[C@@H](c2cc(O)c(O)c(O)c2)[C@H]1O
REMARK SMILES IDX 12 1 22 2 2 3 1 4 3 5 4 6 6 7 7 8 9 9 10 10 11 11 13 12
REMARK SMILES IDX 14 13 15 14 21 15 17 16 19 17 16 18 18 20 20 22 23 24 5 26
REMARK SMILES IDX 8 28
REMARK H PARENT 16 19 18 21 20 23 23 25 5 27 8 29
REMARK Flexibility Score: inf
ROOT
ATOM      1  C   UNL     1      45.816  15.941  -2.856  1.00  0.00     0.240 C 
ATOM      2  C   UNL     1      45.846  14.400  -2.870  1.00  0.00     0.231 C 
ATOM      3  C   UNL     1      47.277  13.933  -2.909  1.00  0.00     0.202 C 
ATOM      4  O   UNL     1      47.599  12.874  -2.305  1.00  0.00    -0.291 OA
ATOM      5  C   UNL     1      48.271  14.694  -3.707  1.00  0.00     0.105 A 
ATOM      6  C   UNL     1      49.558  14.196  -3.998  1.00  0.00     0.133 A 
ATOM      7  C   UNL     1      50.429  14.948  -4.801  1.00  0.00     0.093 A 
ATOM      8  C   UNL     1      50.028  16.182  -5.322  1.00  0.00     0.123 A 
ATOM      9  C   UNL     1      48.751  16.678  -5.031  1.00  0.00     0.093 A 
ATOM     10  C   UNL     1      47.882  15.947  -4.217  1.00  0.00     0.138 A 
ATOM     11  O   UNL     1      46.618  16.470  -3.915  1.00  0.00    -0.481 OA
ENDROOT
BRANCH   1  12
ATOM     12  C   UNL     1      44.402  16.471  -2.944  1.00  0.00     0.003 A 
ATOM     13  C   UNL     1      43.406  16.024  -2.060  1.00  0.00     0.058 A 
ATOM     14  C   UNL     1      42.108  16.548  -2.127  1.00  0.00     0.161 A 
ATOM     15  C   UNL     1      44.089  17.472  -3.878  1.00  0.00     0.058 A 
ATOM     16  C   UNL     1      41.797  17.537  -3.077  1.00  0.00     0.200 A 
ATOM     17  C   UNL     1      42.795  17.999  -3.952  1.00  0.00     0.161 A 
BRANCH  14  18
ATOM     18  O   UNL     1      41.125  16.090  -1.249  1.00  0.00    -0.504 OA
ATOM     19  H   UNL     1      41.362  15.655  -0.367  1.00  0.00     0.293 HD
ENDBRANCH  14  18
BRANCH  16  20
ATOM     20  O   UNL     1      40.509  18.066  -3.158  1.00  0.00    -0.502 OA
ATOM     21  H   UNL     1      40.058  18.254  -4.045  1.00  0.00     0.293 HD
ENDBRANCH  16  20
BRANCH  17  22
ATOM     22  O   UNL     1      42.521  18.984  -4.900  1.00  0.00    -0.504 OA
ATOM     23  H   UNL     1      43.229  19.634  -5.222  1.00  0.00     0.293 HD
ENDBRANCH  17  22
ENDBRANCH   1  12
BRANCH   2  24
ATOM     24  O   UNL     1      45.170  13.913  -4.001  1.00  0.00    -0.381 OA
ATOM     25  H   UNL     1      44.245  13.699  -3.711  1.00  0.00     0.211 HD
ENDBRANCH   2  24
BRANCH   6  26
ATOM     26  O   UNL     1      49.972  12.959  -3.504  1.00  0.00    -0.507 OA
ATOM     27  H   UNL     1      50.246  12.203  -4.121  1.00  0.00     0.293 HD
ENDBRANCH   6  26
BRANCH   8  28
ATOM     28  O   UNL     1      50.904  16.907  -6.125  1.00  0.00    -0.508 OA
ATOM     29  H   UNL     1      51.102  16.630  -7.079  1.00  0.00     0.293 HD
ENDBRANCH   8  28
TORSDOF 7
ENDMDL
MODEL 4
REMARK VINA RESULT:    -5.407      1.773      3.377
REMARK INTER + INTRA:          -6.835
REMARK INTER:                  -6.502
REMARK INTRA:                  -0.333
REMARK UNBOUND:                -0.164
REMARK SMILES O=C1c2c(O)cc(O)cc2O[C@@H](c2cc(O)c(O)c(O)c2)[C@H]1O
REMARK SMILES IDX 12 1 22 2 2 3 1 4 3 5 4 6 6 7 7 8 9 9 10 10 11 11 13 12
REMARK SMILES IDX 14 13 15 14 21 15 17 16 19 17 16 18 18 20 20 22 23 24 5 26
REMARK SMILES IDX 8 28
REMARK H PARENT 16 19 18 21 20 23 23 25 5 27 8 29
REMARK Flexibility Score: inf
ROOT
ATOM      1  C   UNL     1      45.771  15.993  -2.831  1.00  0.00     0.240 C 
ATOM      2  C   UNL     1      45.798  14.452  -2.829  1.00  0.00     0.231 C 
ATOM      3  C   UNL     1      47.228  13.981  -2.867  1.00  0.00     0.202 C 
ATOM      4  O   UNL     1      47.549  12.928  -2.252  1.00  0.00    -0.291 OA
ATOM      5  C   UNL     1      48.221  14.731  -3.675  1.00  0.00     0.105 A 
ATOM      6  C   UNL     1      49.507  14.227  -3.965  1.00  0.00     0.133 A 
ATOM      7  C   UNL     1      50.377  14.969  -4.778  1.00  0.00     0.093 A 
ATOM      8  C   UNL     1      49.977  16.198  -5.311  1.00  0.00     0.123 A 
ATOM      9  C   UNL     1      48.702  16.700  -5.022  1.00  0.00     0.093 A 
ATOM     10  C   UNL     1      47.834  15.980  -4.198  1.00  0.00     0.138 A 
ATOM     11  O   UNL     1      46.572  16.509  -3.898  1.00  0.00    -0.481 OA
ENDROOT
BRANCH   1  12
ATOM     12  C   UNL     1      44.359  16.525  -2.921  1.00  0.00     0.003 A 
ATOM     13  C   UNL     1      43.996  17.448  -3.917  1.00  0.00     0.058 A 
ATOM     14  C   UNL     1      42.677  17.908  -4.015  1.00  0.00     0.161 A 
ATOM     15  C   UNL     1      43.375  16.047  -2.042  1.00  0.00     0.058 A 
ATOM     16  C   UNL     1      41.700  17.437  -3.119  1.00  0.00     0.200 A 
ATOM     17  C   UNL     1      42.055  16.502  -2.132  1.00  0.00     0.161 A 
BRANCH  14  18
ATOM     18  O   UNL     1      42.330  18.829  -5.003  1.00  0.00    -0.504 OA
ATOM     19  H   UNL     1      41.794  19.661  -4.789  1.00  0.00     0.293 HD
ENDBRANCH  14  18
BRANCH  16  20
ATOM     20  O   UNL     1      40.382  17.888  -3.202  1.00  0.00    -0.502 OA
ATOM     21  H   UNL     1      40.143  18.869  -3.139  1.00  0.00     0.293 HD
ENDBRANCH  16  20
BRANCH  17  22
ATOM     22  O   UNL     1      41.109  16.010  -1.233  1.00  0.00    -0.504 OA
ATOM     23  H   UNL     1      40.393  15.349  -1.512  1.00  0.00     0.293 HD
ENDBRANCH  17  22
ENDBRANCH   1  12
BRANCH   2  24
ATOM     24  O   UNL     1      45.119  13.954  -3.952  1.00  0.00    -0.381 OA
ATOM     25  H   UNL     1      44.999  12.980  -3.805  1.00  0.00     0.211 HD
ENDBRANCH   2  24
BRANCH   6  26
ATOM     26  O   UNL     1      49.920  12.995  -3.458  1.00  0.00    -0.507 OA
ATOM     27  H   UNL     1      49.909  12.155  -4.026  1.00  0.00     0.293 HD
ENDBRANCH   6  26
BRANCH   8  28
ATOM     28  O   UNL     1      50.853  16.913  -6.124  1.00  0.00    -0.508 OA
ATOM     29  H   UNL     1      51.759  17.219  -5.789  1.00  0.00     0.293 HD
ENDBRANCH   8  28
TORSDOF 7
ENDMDL
MODEL 5
REMARK VINA RESULT:    -5.260      1.584      3.157
REMARK INTER + INTRA:          -6.654
REMARK INTER:                  -6.271
REMARK INTRA:                  -0.383
REMARK UNBOUND:                -0.164
REMARK SMILES O=C1c2c(O)cc(O)cc2O[C@@H](c2cc(O)c(O)c(O)c2)[C@H]1O
REMARK SMILES IDX 12 1 22 2 2 3 1 4 3 5 4 6 6 7 7 8 9 9 10 10 11 11 13 12
REMARK SMILES IDX 14 13 15 14 21 15 17 16 19 17 16 18 18 20 20 22 23 24 5 26
REMARK SMILES IDX 8 28
REMARK H PARENT 16 19 18 21 20 23 23 25 5 27 8 29
REMARK Flexibility Score: inf
ROOT
ATOM      1  C   UNL     1      44.911  15.416  -2.543  1.00  0.00     0.240 C 
ATOM      2  C   UNL     1      44.287  14.107  -3.063  1.00  0.00     0.231 C 
ATOM      3  C   UNL     1      45.275  12.983  -2.893  1.00  0.00     0.202 C 
ATOM      4  O   UNL     1      44.856  11.827  -2.616  1.00  0.00    -0.291 OA
ATOM      5  C   UNL     1      46.720  13.245  -3.111  1.00  0.00     0.105 A 
ATOM      6  C   UNL     1      47.675  12.212  -3.217  1.00  0.00     0.133 A 
ATOM      7  C   UNL     1      49.017  12.530  -3.473  1.00  0.00     0.093 A 
ATOM      8  C   UNL     1      49.414  13.861  -3.636  1.00  0.00     0.123 A 
ATOM      9  C   UNL     1      48.466  14.887  -3.529  1.00  0.00     0.093 A 
ATOM     10  C   UNL     1      47.130  14.585  -3.254  1.00  0.00     0.138 A 
ATOM     11  O   UNL     1      46.202  15.624  -3.125  1.00  0.00    -0.481 OA
ENDROOT
BRANCH   1  12
ATOM     12  C   UNL     1      44.013  16.604  -2.804  1.00  0.00     0.003 A 
ATOM     13  C   UNL     1      42.807  16.766  -2.102  1.00  0.00     0.058 A 
ATOM     14  C   UNL     1      41.998  17.889  -2.325  1.00  0.00     0.161 A 
ATOM     15  C   UNL     1      44.414  17.596  -3.713  1.00  0.00     0.058 A 
ATOM     16  C   UNL     1      42.398  18.870  -3.250  1.00  0.00     0.200 A 
ATOM     17  C   UNL     1      43.611  18.720  -3.943  1.00  0.00     0.161 A 
BRANCH  14  18
ATOM     18  O   UNL     1      40.800  18.035  -1.628  1.00  0.00    -0.504 OA
ATOM     19  H   UNL     1      40.237  18.873  -1.709  1.00  0.00     0.293 HD
ENDBRANCH  14  18
BRANCH  16  20
ATOM     20  O   UNL     1      41.603  19.992  -3.486  1.00  0.00    -0.502 OA
ATOM     21  H   UNL     1      40.593  19.937  -3.535  1.00  0.00     0.293 HD
ENDBRANCH  16  20
BRANCH  17  22
ATOM     22  O   UNL     1      44.040  19.678  -4.861  1.00  0.00    -0.504 OA
ATOM     23  H   UNL     1      44.711  20.397  -4.616  1.00  0.00     0.293 HD
ENDBRANCH  17  22
ENDBRANCH   1  12
BRANCH   2  24
ATOM     24  O   UNL     1      43.961  14.232  -4.424  1.00  0.00    -0.381 OA
ATOM     25  H   UNL     1      43.973  13.316  -4.806  1.00  0.00     0.211 HD
ENDBRANCH   2  24
BRANCH   6  26
ATOM     26  O   UNL     1      47.299  10.877  -3.076  1.00  0.00    -0.507 OA
ATOM     27  H   UNL     1      47.246  10.431  -2.167  1.00  0.00     0.293 HD
ENDBRANCH   6  26
BRANCH   8  28
ATOM     28  O   UNL     1      50.749  14.154  -3.901  1.00  0.00    -0.508 OA
ATOM     29  H   UNL     1      51.053  15.096  -4.116  1.00  0.00     0.293 HD
ENDBRANCH   8  28
TORSDOF 7
ENDMDL
MODEL 6
REMARK VINA RESULT:    -5.162      1.493      6.864
REMARK INTER + INTRA:          -6.533
REMARK INTER:                  -6.140
REMARK INTRA:                  -0.393
REMARK UNBOUND:                -0.164
REMARK SMILES O=C1c2c(O)cc(O)cc2O[C@@H](c2cc(O)c(O)c(O)c2)[C@H]1O
REMARK SMILES IDX 12 1 22 2 2 3 1 4 3 5 4 6 6 7 7 8 9 9 10 10 11 11 13 12
REMARK SMILES IDX 14 13 15 14 21 15 17 16 19 17 16 18 18 20 20 22 23 24 5 26
REMARK SMILES IDX 8 28
REMARK H PARENT 16 19 18 21 20 23 23 25 5 27 8 29
REMARK Flexibility Score: inf
ROOT
ATOM      1  C   UNL     1      46.344  16.124  -3.498  1.00  0.00     0.240 C 
ATOM      2  C   UNL     1      46.166  16.416  -5.001  1.00  0.00     0.231 C 
ATOM      3  C   UNL     1      45.252  17.601  -5.171  1.00  0.00     0.202 C 
ATOM      4  O   UNL     1      45.449  18.402  -6.125  1.00  0.00    -0.291 OA
ATOM      5  C   UNL     1      44.102  17.773  -4.249  1.00  0.00     0.105 A 
ATOM      6  C   UNL     1      43.066  18.701  -4.486  1.00  0.00     0.133 A 
ATOM      7  C   UNL     1      41.983  18.776  -3.597  1.00  0.00     0.093 A 
ATOM      8  C   UNL     1      41.917  17.930  -2.485  1.00  0.00     0.123 A 
ATOM      9  C   UNL     1      42.946  17.010  -2.249  1.00  0.00     0.093 A 
ATOM     10  C   UNL     1      44.040  16.940  -3.115  1.00  0.00     0.138 A 
ATOM     11  O   UNL     1      45.072  16.033  -2.849  1.00  0.00    -0.481 OA
ENDROOT
BRANCH   1  12
ATOM     12  C   UNL     1      47.150  14.866  -3.267  1.00  0.00     0.003 A 
ATOM     13  C   UNL     1      48.479  14.767  -3.712  1.00  0.00     0.058 A 
ATOM     14  C   UNL     1      49.230  13.611  -3.462  1.00  0.00     0.161 A 
ATOM     15  C   UNL     1      46.591  13.802  -2.541  1.00  0.00     0.058 A 
ATOM     16  C   UNL     1      48.657  12.542  -2.750  1.00  0.00     0.200 A 
ATOM     17  C   UNL     1      47.334  12.643  -2.288  1.00  0.00     0.161 A 
BRANCH  14  18
ATOM     18  O   UNL     1      50.545  13.521  -3.915  1.00  0.00    -0.504 OA
ATOM     19  H   UNL     1      51.029  12.633  -3.970  1.00  0.00     0.293 HD
ENDBRANCH  14  18
BRANCH  16  20
ATOM     20  O   UNL     1      49.390  11.383  -2.494  1.00  0.00    -0.502 OA
ATOM     21  H   UNL     1      50.335  11.410  -2.132  1.00  0.00     0.293 HD
ENDBRANCH  16  20
BRANCH  17  22
ATOM     22  O   UNL     1      46.739  11.604  -1.572  1.00  0.00    -0.504 OA
ATOM     23  H   UNL     1      47.249  11.064  -0.883  1.00  0.00     0.293 HD
ENDBRANCH  17  22
ENDBRANCH   1  12
BRANCH   2  24
ATOM     24  O   UNL     1      45.603  15.303  -5.647  1.00  0.00    -0.381 OA
ATOM     25  H   UNL     1      44.788  15.626  -6.112  1.00  0.00     0.211 HD
ENDBRANCH   2  24
BRANCH   6  26
ATOM     26  O   UNL     1      43.103  19.542  -5.598  1.00  0.00    -0.507 OA
ATOM     27  H   UNL     1      42.796  20.506  -5.548  1.00  0.00     0.293 HD
ENDBRANCH   6  26
BRANCH   8  28
ATOM     28  O   UNL     1      40.828  18.013  -1.622  1.00  0.00    -0.508 OA
ATOM     29  H   UNL     1      40.510  17.211  -1.091  1.00  0.00     0.293 HD
ENDBRANCH   8  28
TORSDOF 7
ENDMDL
MODEL 7
REMARK VINA RESULT:    -5.117      1.847      7.561
REMARK INTER + INTRA:          -6.478
REMARK INTER:                  -6.103
REMARK INTRA:                  -0.375
REMARK UNBOUND:                -0.164
REMARK SMILES O=C1c2c(O)cc(O)cc2O[C@@H](c2cc(O)c(O)c(O)c2)[C@H]1O
REMARK SMILES IDX 12 1 22 2 2 3 1 4 3 5 4 6 6 7 7 8 9 9 10 10 11 11 13 12
REMARK SMILES IDX 14 13 15 14 21 15 17 16 19 17 16 18 18 20 20 22 23 24 5 26
REMARK SMILES IDX 8 28
REMARK H PARENT 16 19 18 21 20 23 23 25 5 27 8 29
REMARK Flexibility Score: inf
ROOT
ATOM      1  C   UNL     1      44.933  16.184  -4.222  1.00  0.00     0.240 C 
ATOM      2  C   UNL     1      44.115  16.163  -2.916  1.00  0.00     0.231 C 
ATOM      3  C   UNL     1      42.877  17.002  -3.094  1.00  0.00     0.202 C 
ATOM      4  O   UNL     1      41.809  16.658  -2.518  1.00  0.00    -0.291 OA
ATOM      5  C   UNL     1      42.950  18.249  -3.895  1.00  0.00     0.105 A 
ATOM      6  C   UNL     1      41.918  19.211  -3.906  1.00  0.00     0.133 A 
ATOM      7  C   UNL     1      42.076  20.392  -4.647  1.00  0.00     0.093 A 
ATOM      8  C   UNL     1      43.252  20.627  -5.367  1.00  0.00     0.123 A 
ATOM      9  C   UNL     1      44.276  19.672  -5.357  1.00  0.00     0.093 A 
ATOM     10  C   UNL     1      44.122  18.484  -4.639  1.00  0.00     0.138 A 
ATOM     11  O   UNL     1      45.145  17.528  -4.663  1.00  0.00    -0.481 OA
ENDROOT
BRANCH   1  12
ATOM     12  C   UNL     1      46.253  15.462  -4.064  1.00  0.00     0.003 A 
ATOM     13  C   UNL     1      47.472  16.137  -4.240  1.00  0.00     0.058 A 
ATOM     14  C   UNL     1      48.689  15.469  -4.056  1.00  0.00     0.161 A 
ATOM     15  C   UNL     1      46.268  14.113  -3.673  1.00  0.00     0.058 A 
ATOM     16  C   UNL     1      48.697  14.114  -3.682  1.00  0.00     0.200 A 
ATOM     17  C   UNL     1      47.480  13.438  -3.489  1.00  0.00     0.161 A 
BRANCH  14  18
ATOM     18  O   UNL     1      49.893  16.148  -4.242  1.00  0.00    -0.504 OA
ATOM     19  H   UNL     1      50.449  16.466  -3.458  1.00  0.00     0.293 HD
ENDBRANCH  14  18
BRANCH  16  20
ATOM     20  O   UNL     1      49.900  13.432  -3.498  1.00  0.00    -0.502 OA
ATOM     21  H   UNL     1      50.760  13.724  -3.947  1.00  0.00     0.293 HD
ENDBRANCH  16  20
BRANCH  17  22
ATOM     22  O   UNL     1      47.453  12.096  -3.109  1.00  0.00    -0.504 OA
ATOM     23  H   UNL     1      47.661  11.348  -3.760  1.00  0.00     0.293 HD
ENDBRANCH  17  22
ENDBRANCH   1  12
BRANCH   2  24
ATOM     24  O   UNL     1      44.878  16.685  -1.859  1.00  0.00    -0.381 OA
ATOM     25  H   UNL     1      44.564  17.616  -1.712  1.00  0.00     0.211 HD
ENDBRANCH   2  24
BRANCH   6  26
ATOM     26  O   UNL     1      40.744  19.005  -3.181  1.00  0.00    -0.507 OA
ATOM     27  H   UNL     1      40.550  18.123  -2.720  1.00  0.00     0.293 HD
ENDBRANCH   6  26
BRANCH   8  28
ATOM     28  O   UNL     1      43.392  21.811  -6.087  1.00  0.00    -0.508 OA
ATOM     29  H   UNL     1      42.794  22.610  -5.915  1.00  0.00     0.293 HD
ENDBRANCH   8  28
TORSDOF 7
ENDMDL
MODEL 8
REMARK VINA RESULT:    -5.031      1.920      7.570
REMARK INTER + INTRA:          -6.372
REMARK INTER:                  -6.203
REMARK INTRA:                  -0.169
REMARK UNBOUND:                -0.164
REMARK SMILES O=C1c2c(O)cc(O)cc2O[C@@H](c2cc(O)c(O)c(O)c2)[C@H]1O
REMARK SMILES IDX 12 1 22 2 2 3 1 4 3 5 4 6 6 7 7 8 9 9 10 10 11 11 13 12
REMARK SMILES IDX 14 13 15 14 21 15 17 16 19 17 16 18 18 20 20 22 23 24 5 26
REMARK SMILES IDX 8 28
REMARK H PARENT 16 19 18 21 20 23 23 25 5 27 8 29
REMARK Flexibility Score: inf
ROOT
ATOM      1  C   UNL     1      45.563  15.889  -4.302  1.00  0.00     0.240 C 
ATOM      2  C   UNL     1      44.732  15.632  -3.029  1.00  0.00     0.231 C 
ATOM      3  C   UNL     1      43.370  16.253  -3.191  1.00  0.00     0.202 C 
ATOM      4  O   UNL     1      42.367  15.687  -2.677  1.00  0.00    -0.291 OA
ATOM      5  C   UNL     1      43.240  17.549  -3.903  1.00  0.00     0.105 A 
ATOM      6  C   UNL     1      42.055  18.314  -3.884  1.00  0.00     0.133 A 
ATOM      7  C   UNL     1      42.019  19.555  -4.538  1.00  0.00     0.093 A 
ATOM      8  C   UNL     1      43.150  20.043  -5.199  1.00  0.00     0.123 A 
ATOM      9  C   UNL     1      44.326  19.283  -5.220  1.00  0.00     0.093 A 
ATOM     10  C   UNL     1      44.368  18.037  -4.589  1.00  0.00     0.138 A 
ATOM     11  O   UNL     1      45.544  17.278  -4.642  1.00  0.00    -0.481 OA
ENDROOT
BRANCH   1  12
ATOM     12  C   UNL     1      46.985  15.398  -4.148  1.00  0.00     0.003 A 
ATOM     13  C   UNL     1      47.274  14.247  -3.397  1.00  0.00     0.058 A 
ATOM     14  C   UNL     1      48.591  13.779  -3.290  1.00  0.00     0.161 A 
ATOM     15  C   UNL     1      48.028  16.061  -4.814  1.00  0.00     0.058 A 
ATOM     16  C   UNL     1      49.633  14.458  -3.946  1.00  0.00     0.200 A 
ATOM     17  C   UNL     1      49.345  15.601  -4.711  1.00  0.00     0.161 A 
BRANCH  14  18
ATOM     18  O   UNL     1      48.868  12.640  -2.536  1.00  0.00    -0.504 OA
ATOM     19  H   UNL     1      48.341  12.415  -1.701  1.00  0.00     0.293 HD
ENDBRANCH  14  18
BRANCH  16  20
ATOM     20  O   UNL     1      50.950  14.008  -3.847  1.00  0.00    -0.502 OA
ATOM     21  H   UNL     1      51.213  13.056  -4.072  1.00  0.00     0.293 HD
ENDBRANCH  16  20
BRANCH  17  22
ATOM     22  O   UNL     1      50.355  16.293  -5.381  1.00  0.00    -0.504 OA
ATOM     23  H   UNL     1      50.703  15.996  -6.285  1.00  0.00     0.293 HD
ENDBRANCH  17  22
ENDBRANCH   1  12
BRANCH   2  24
ATOM     24  O   UNL     1      45.368  16.200  -1.913  1.00  0.00    -0.381 OA
ATOM     25  H   UNL     1      45.968  16.912  -2.258  1.00  0.00     0.211 HD
ENDBRANCH   2  24
BRANCH   6  26
ATOM     26  O   UNL     1      40.920  17.855  -3.216  1.00  0.00    -0.507 OA
ATOM     27  H   UNL     1      40.984  17.386  -2.319  1.00  0.00     0.293 HD
ENDBRANCH   6  26
BRANCH   8  28
ATOM     28  O   UNL     1      43.095  21.282  -5.832  1.00  0.00    -0.508 OA
ATOM     29  H   UNL     1      42.684  22.091  -5.381  1.00  0.00     0.293 HD
ENDBRANCH   8  28
TORSDOF 7
ENDMDL
MODEL 9
REMARK VINA RESULT:    -4.977      2.270      6.956
REMARK INTER + INTRA:          -6.304
REMARK INTER:                  -6.396
REMARK INTRA:                   0.092
REMARK UNBOUND:                -0.164
REMARK SMILES O=C1c2c(O)cc(O)cc2O[C@@H](c2cc(O)c(O)c(O)c2)[C@H]1O
REMARK SMILES IDX 12 1 22 2 2 3 1 4 3 5 4 6 6 7 7 8 9 9 10 10 11 11 13 12
REMARK SMILES IDX 14 13 15 14 21 15 17 16 19 17 16 18 18 20 20 22 23 24 5 26
REMARK SMILES IDX 8 28
REMARK H PARENT 16 19 18 21 20 23 23 25 5 27 8 29
REMARK Flexibility Score: inf
ROOT
ATOM      1  C   UNL     1      46.090  15.689  -4.312  1.00  0.00     0.240 C 
ATOM      2  C   UNL     1      45.699  14.622  -3.270  1.00  0.00     0.231 C 
ATOM      3  C   UNL     1      44.219  14.707  -3.004  1.00  0.00     0.202 C 
ATOM      4  O   UNL     1      43.574  13.652  -2.759  1.00  0.00    -0.291 OA
ATOM      5  C   UNL     1      43.559  16.036  -2.977  1.00  0.00     0.105 A 
ATOM      6  C   UNL     1      42.246  16.226  -2.495  1.00  0.00     0.133 A 
ATOM      7  C   UNL     1      41.702  17.518  -2.452  1.00  0.00     0.093 A 
ATOM      8  C   UNL     1      42.454  18.620  -2.872  1.00  0.00     0.123 A 
ATOM      9  C   UNL     1      43.756  18.431  -3.351  1.00  0.00     0.093 A 
ATOM     10  C   UNL     1      44.302  17.147  -3.418  1.00  0.00     0.138 A 
ATOM     11  O   UNL     1      45.596  16.974  -3.925  1.00  0.00    -0.481 OA
ENDROOT
BRANCH   1  12
ATOM     12  C   UNL     1      47.586  15.737  -4.526  1.00  0.00     0.003 A 
ATOM     13  C   UNL     1      48.410  14.679  -4.108  1.00  0.00     0.058 A 
ATOM     14  C   UNL     1      49.791  14.716  -4.343  1.00  0.00     0.161 A 
ATOM     15  C   UNL     1      48.159  16.821  -5.210  1.00  0.00     0.058 A 
ATOM     16  C   UNL     1      50.360  15.814  -5.013  1.00  0.00     0.200 A 
ATOM     17  C   UNL     1      49.537  16.867  -5.448  1.00  0.00     0.161 A 
BRANCH  14  18
ATOM     18  O   UNL     1      50.600  13.664  -3.917  1.00  0.00    -0.504 OA
ATOM     19  H   UNL     1      50.369  12.699  -4.122  1.00  0.00     0.293 HD
ENDBRANCH  14  18
BRANCH  16  20
ATOM     20  O   UNL     1      51.733  15.868  -5.253  1.00  0.00    -0.502 OA
ATOM     21  H   UNL     1      52.133  15.639  -6.154  1.00  0.00     0.293 HD
ENDBRANCH  16  20
BRANCH  17  22
ATOM     22  O   UNL     1      50.069  17.966  -6.121  1.00  0.00    -0.504 OA
ATOM     23  H   UNL     1      51.057  18.042  -6.332  1.00  0.00     0.293 HD
ENDBRANCH  17  22
ENDBRANCH   1  12
BRANCH   2  24
ATOM     24  O   UNL     1      46.397  14.838  -2.071  1.00  0.00    -0.381 OA
ATOM     25  H   UNL     1      47.059  14.103  -1.989  1.00  0.00     0.211 HD
ENDBRANCH   2  24
BRANCH   6  26
ATOM     26  O   UNL     1      41.485  15.143  -2.054  1.00  0.00    -0.507 OA
ATOM     27  H   UNL     1      40.679  15.268  -1.453  1.00  0.00     0.293 HD
ENDBRANCH   6  26
BRANCH   8  28
ATOM     28  O   UNL     1      41.899  19.896  -2.809  1.00  0.00    -0.508 OA
ATOM     29  H   UNL     1      41.037  20.075  -2.308  1.00  0.00     0.293 HD
ENDBRANCH   8  28
TORSDOF 7
ENDMDL
