MODEL 1
REMARK VINA RESULT:    -6.803      0.000      0.000
REMARK INTER + INTRA:          -8.197
REMARK INTER:                  -8.195
REMARK INTRA:                  -0.002
REMARK UNBOUND:                -0.002
REMARK SMILES O=c1c(O)c(-c2ccc(O)c(O)c2)oc2cc(O)cc(O)c12
REMARK SMILES IDX 5 1 3 2 2 3 1 4 22 5 20 6 19 7 17 8 16 9 15 10 14 11 6 12
REMARK SMILES IDX 7 13 8 14 9 15 13 16 11 17 10 18 12 20 4 22 21 24 18 26
REMARK H PARENT 10 19 12 21 4 23 21 25 18 27
REMARK Flexibility Score: inf
ROOT
ATOM      1  C   UNL     1      20.773   0.654 -17.604  1.00  0.00     0.180 A 
ATOM      2  C   UNL     1      19.540   0.514 -16.943  1.00  0.00     0.208 A 
ATOM      3  C   UNL     1      19.446   0.884 -15.592  1.00  0.00     0.238 A 
ATOM      4  O   UNL     1      18.355   0.705 -14.991  1.00  0.00    -0.285 OA
ATOM      5  C   UNL     1      20.580   1.405 -14.923  1.00  0.00     0.111 A 
ATOM      6  C   UNL     1      20.588   1.849 -13.567  1.00  0.00     0.134 A 
ATOM      7  C   UNL     1      21.798   2.224 -12.970  1.00  0.00     0.093 A 
ATOM      8  C   UNL     1      22.989   2.233 -13.700  1.00  0.00     0.123 A 
ATOM      9  C   UNL     1      22.980   1.858 -15.041  1.00  0.00     0.094 A 
ATOM     10  C   UNL     1      21.796   1.443 -15.655  1.00  0.00     0.146 A 
ATOM     11  O   UNL     1      21.834   1.084 -16.932  1.00  0.00    -0.452 OA
ENDROOT
BRANCH   1  12
ATOM     12  C   UNL     1      20.944   0.309 -19.033  1.00  0.00     0.025 A 
ATOM     13  C   UNL     1      20.539  -0.939 -19.539  1.00  0.00     0.016 A 
ATOM     14  C   UNL     1      20.689  -1.235 -20.897  1.00  0.00     0.051 A 
ATOM     15  C   UNL     1      21.230  -0.282 -21.770  1.00  0.00     0.157 A 
ATOM     16  C   UNL     1      21.467   1.267 -19.919  1.00  0.00     0.062 A 
ATOM     17  C   UNL     1      21.618   0.971 -21.281  1.00  0.00     0.158 A 
BRANCH  15  18
ATOM     18  O   UNL     1      21.382  -0.574 -23.125  1.00  0.00    -0.504 OA
ATOM     19  H   UNL     1      20.607  -0.907 -23.685  1.00  0.00     0.293 HD
ENDBRANCH  15  18
BRANCH  17  20
ATOM     20  O   UNL     1      22.150   1.919 -22.154  1.00  0.00    -0.504 OA
ATOM     21  H   UNL     1      21.634   2.245 -22.962  1.00  0.00     0.293 HD
ENDBRANCH  17  20
ENDBRANCH   1  12
BRANCH   2  22
ATOM     22  O   UNL     1      18.440  -0.023 -17.615  1.00  0.00    -0.502 OA
ATOM     23  H   UNL     1      17.908   0.503 -18.298  1.00  0.00     0.293 HD
ENDBRANCH   2  22
BRANCH   6  24
ATOM     24  O   UNL     1      19.440   1.966 -12.778  1.00  0.00    -0.507 OA
ATOM     25  H   UNL     1      19.213   1.367 -11.999  1.00  0.00     0.293 HD
ENDBRANCH   6  24
BRANCH   8  26
ATOM     26  O   UNL     1      24.186   2.622 -13.104  1.00  0.00    -0.508 OA
ATOM     27  H   UNL     1      24.545   3.565 -13.201  1.00  0.00     0.293 HD
ENDBRANCH   8  26
TORSDOF 6
ENDMDL
MODEL 2
REMARK VINA RESULT:    -6.539      3.571      5.242
REMARK INTER + INTRA:          -7.879
REMARK INTER:                  -7.676
REMARK INTRA:                  -0.202
REMARK UNBOUND:                -0.002
REMARK SMILES O=c1c(O)c(-c2ccc(O)c(O)c2)oc2cc(O)cc(O)c12
REMARK SMILES IDX 5 1 3 2 2 3 1 4 22 5 20 6 19 7 17 8 16 9 15 10 14 11 6 12
REMARK SMILES IDX 7 13 8 14 9 15 13 16 11 17 10 18 12 20 4 22 21 24 18 26
REMARK H PARENT 10 19 12 21 4 23 21 25 18 27
REMARK Flexibility Score: inf
ROOT
ATOM      1  C   UNL     1      18.545  -0.963 -16.670  1.00  0.00     0.180 A 
ATOM      2  C   UNL     1      17.920  -0.115 -15.739  1.00  0.00     0.208 A 
ATOM      3  C   UNL     1      17.175  -0.683 -14.693  1.00  0.00     0.238 A 
ATOM      4  O   UNL     1      16.573   0.081 -13.896  1.00  0.00    -0.285 OA
ATOM      5  C   UNL     1      17.079  -2.092 -14.582  1.00  0.00     0.111 A 
ATOM      6  C   UNL     1      16.384  -2.776 -13.539  1.00  0.00     0.134 A 
ATOM      7  C   UNL     1      16.245  -4.168 -13.600  1.00  0.00     0.093 A 
ATOM      8  C   UNL     1      16.830  -4.906 -14.632  1.00  0.00     0.123 A 
ATOM      9  C   UNL     1      17.560  -4.252 -15.621  1.00  0.00     0.094 A 
ATOM     10  C   UNL     1      17.686  -2.861 -15.608  1.00  0.00     0.146 A 
ATOM     11  O   UNL     1      18.382  -2.277 -16.575  1.00  0.00    -0.452 OA
ENDROOT
BRANCH   1  12
ATOM     12  C   UNL     1      19.367  -0.440 -17.784  1.00  0.00     0.025 A 
ATOM     13  C   UNL     1      18.926  -0.515 -19.118  1.00  0.00     0.016 A 
ATOM     14  C   UNL     1      19.708   0.007 -20.152  1.00  0.00     0.051 A 
ATOM     15  C   UNL     1      20.933   0.624 -19.867  1.00  0.00     0.157 A 
ATOM     16  C   UNL     1      20.587   0.198 -17.505  1.00  0.00     0.062 A 
ATOM     17  C   UNL     1      21.373   0.722 -18.541  1.00  0.00     0.158 A 
BRANCH  15  18
ATOM     18  O   UNL     1      21.716   1.145 -20.896  1.00  0.00    -0.504 OA
ATOM     19  H   UNL     1      21.301   1.586 -21.707  1.00  0.00     0.293 HD
ENDBRANCH  15  18
BRANCH  17  20
ATOM     20  O   UNL     1      22.589   1.342 -18.261  1.00  0.00    -0.504 OA
ATOM     21  H   UNL     1      23.044   1.236 -17.361  1.00  0.00     0.293 HD
ENDBRANCH  17  20
ENDBRANCH   1  12
BRANCH   2  22
ATOM     22  O   UNL     1      18.009   1.272 -15.881  1.00  0.00    -0.502 OA
ATOM     23  H   UNL     1      18.722   1.717 -16.448  1.00  0.00     0.293 HD
ENDBRANCH   2  22
BRANCH   6  24
ATOM     24  O   UNL     1      15.843  -2.143 -12.416  1.00  0.00    -0.507 OA
ATOM     25  H   UNL     1      16.001  -1.179 -12.167  1.00  0.00     0.293 HD
ENDBRANCH   6  24
BRANCH   8  26
ATOM     26  O   UNL     1      16.699  -6.292 -14.677  1.00  0.00    -0.508 OA
ATOM     27  H   UNL     1      17.255  -6.856 -15.309  1.00  0.00     0.293 HD
ENDBRANCH   8  26
TORSDOF 6
ENDMDL
MODEL 3
REMARK VINA RESULT:    -6.489      1.275      2.966
REMARK INTER + INTRA:          -7.819
REMARK INTER:                  -7.698
REMARK INTRA:                  -0.121
REMARK UNBOUND:                -0.002
REMARK SMILES O=c1c(O)c(-c2ccc(O)c(O)c2)oc2cc(O)cc(O)c12
REMARK SMILES IDX 5 1 3 2 2 3 1 4 22 5 20 6 19 7 17 8 16 9 15 10 14 11 6 12
REMARK SMILES IDX 7 13 8 14 9 15 13 16 11 17 10 18 12 20 4 22 21 24 18 26
REMARK H PARENT 10 19 12 21 4 23 21 25 18 27
REMARK Flexibility Score: inf
ROOT
ATOM      1  C   UNL     1      20.817   0.781 -17.295  1.00  0.00     0.180 A 
ATOM      2  C   UNL     1      21.951   1.112 -16.533  1.00  0.00     0.208 A 
ATOM      3  C   UNL     1      21.784   1.485 -15.190  1.00  0.00     0.238 A 
ATOM      4  O   UNL     1      22.795   1.833 -14.528  1.00  0.00    -0.285 OA
ATOM      5  C   UNL     1      20.487   1.505 -14.621  1.00  0.00     0.111 A 
ATOM      6  C   UNL     1      20.204   1.828 -13.259  1.00  0.00     0.134 A 
ATOM      7  C   UNL     1      18.873   1.943 -12.839  1.00  0.00     0.093 A 
ATOM      8  C   UNL     1      17.816   1.684 -13.715  1.00  0.00     0.123 A 
ATOM      9  C   UNL     1      18.084   1.310 -15.029  1.00  0.00     0.094 A 
ATOM     10  C   UNL     1      19.400   1.223 -15.489  1.00  0.00     0.146 A 
ATOM     11  O   UNL     1      19.610   0.874 -16.751  1.00  0.00    -0.452 OA
ENDROOT
BRANCH   1  12
ATOM     12  C   UNL     1      20.916   0.356 -18.710  1.00  0.00     0.025 A 
ATOM     13  C   UNL     1      20.463  -0.909 -19.127  1.00  0.00     0.016 A 
ATOM     14  C   UNL     1      20.545  -1.280 -20.472  1.00  0.00     0.051 A 
ATOM     15  C   UNL     1      21.066  -0.389 -21.420  1.00  0.00     0.157 A 
ATOM     16  C   UNL     1      21.419   1.251 -19.669  1.00  0.00     0.062 A 
ATOM     17  C   UNL     1      21.502   0.879 -21.018  1.00  0.00     0.158 A 
BRANCH  15  18
ATOM     18  O   UNL     1      21.150  -0.757 -22.762  1.00  0.00    -0.504 OA
ATOM     19  H   UNL     1      20.324  -0.985 -23.302  1.00  0.00     0.293 HD
ENDBRANCH  15  18
BRANCH  17  20
ATOM     20  O   UNL     1      22.014   1.765 -21.964  1.00  0.00    -0.504 OA
ATOM     21  H   UNL     1      21.407   2.306 -22.568  1.00  0.00     0.293 HD
ENDBRANCH  17  20
ENDBRANCH   1  12
BRANCH   2  22
ATOM     22  O   UNL     1      23.219   1.107 -17.120  1.00  0.00    -0.502 OA
ATOM     23  H   UNL     1      23.627   1.933 -17.542  1.00  0.00     0.293 HD
ENDBRANCH   2  22
BRANCH   6  24
ATOM     24  O   UNL     1      21.186   2.015 -12.282  1.00  0.00    -0.507 OA
ATOM     25  H   UNL     1      22.136   2.296 -12.468  1.00  0.00     0.293 HD
ENDBRANCH   6  24
BRANCH   8  26
ATOM     26  O   UNL     1      16.495   1.786 -13.285  1.00  0.00    -0.508 OA
ATOM     27  H   UNL     1      15.764   1.205 -13.677  1.00  0.00     0.293 HD
ENDBRANCH   8  26
TORSDOF 6
ENDMDL
MODEL 4
REMARK VINA RESULT:    -6.382      3.627      5.337
REMARK INTER + INTRA:          -7.690
REMARK INTER:                  -7.520
REMARK INTRA:                  -0.169
REMARK UNBOUND:                -0.002
REMARK SMILES O=c1c(O)c(-c2ccc(O)c(O)c2)oc2cc(O)cc(O)c12
REMARK SMILES IDX 5 1 3 2 2 3 1 4 22 5 20 6 19 7 17 8 16 9 15 10 14 11 6 12
REMARK SMILES IDX 7 13 8 14 9 15 13 16 11 17 10 18 12 20 4 22 21 24 18 26
REMARK H PARENT 10 19 12 21 4 23 21 25 18 27
REMARK Flexibility Score: inf
ROOT
ATOM      1  C   UNL     1      18.506  -0.842 -16.462  1.00  0.00     0.180 A 
ATOM      2  C   UNL     1      17.744  -0.024 -15.610  1.00  0.00     0.208 A 
ATOM      3  C   UNL     1      16.931  -0.626 -14.635  1.00  0.00     0.238 A 
ATOM      4  O   UNL     1      16.209   0.109 -13.912  1.00  0.00    -0.285 OA
ATOM      5  C   UNL     1      16.903  -2.036 -14.515  1.00  0.00     0.111 A 
ATOM      6  C   UNL     1      16.147  -2.752 -13.537  1.00  0.00     0.134 A 
ATOM      7  C   UNL     1      16.092  -4.149 -13.594  1.00  0.00     0.093 A 
ATOM      8  C   UNL     1      16.818  -4.861 -14.552  1.00  0.00     0.123 A 
ATOM      9  C   UNL     1      17.606  -4.174 -15.472  1.00  0.00     0.094 A 
ATOM     10  C   UNL     1      17.652  -2.778 -15.465  1.00  0.00     0.146 A 
ATOM     11  O   UNL     1      18.407  -2.162 -16.366  1.00  0.00    -0.452 OA
ENDROOT
BRANCH   1  12
ATOM     12  C   UNL     1      19.405  -0.281 -17.496  1.00  0.00     0.025 A 
ATOM     13  C   UNL     1      20.504   0.525 -17.150  1.00  0.00     0.016 A 
ATOM     14  C   UNL     1      21.353   1.024 -18.142  1.00  0.00     0.051 A 
ATOM     15  C   UNL     1      21.124   0.714 -19.489  1.00  0.00     0.157 A 
ATOM     16  C   UNL     1      19.193  -0.604 -18.846  1.00  0.00     0.062 A 
ATOM     17  C   UNL     1      20.044  -0.104 -19.842  1.00  0.00     0.158 A 
BRANCH  15  18
ATOM     18  O   UNL     1      21.969   1.212 -20.480  1.00  0.00    -0.504 OA
ATOM     19  H   UNL     1      21.663   1.928 -21.127  1.00  0.00     0.293 HD
ENDBRANCH  15  18
BRANCH  17  20
ATOM     20  O   UNL     1      19.822  -0.416 -21.182  1.00  0.00    -0.504 OA
ATOM     21  H   UNL     1      20.378  -1.113 -21.663  1.00  0.00     0.293 HD
ENDBRANCH  17  20
ENDBRANCH   1  12
BRANCH   2  22
ATOM     22  O   UNL     1      17.769   1.365 -15.760  1.00  0.00    -0.502 OA
ATOM     23  H   UNL     1      18.404   1.958 -15.239  1.00  0.00     0.293 HD
ENDBRANCH   2  22
BRANCH   6  24
ATOM     24  O   UNL     1      15.460  -2.141 -12.483  1.00  0.00    -0.507 OA
ATOM     25  H   UNL     1      15.407  -2.505 -11.544  1.00  0.00     0.293 HD
ENDBRANCH   6  24
BRANCH   8  26
ATOM     26  O   UNL     1      16.770  -6.252 -14.592  1.00  0.00    -0.508 OA
ATOM     27  H   UNL     1      16.292  -6.787 -13.876  1.00  0.00     0.293 HD
ENDBRANCH   8  26
TORSDOF 6
ENDMDL
MODEL 5
REMARK VINA RESULT:    -6.362      2.625      7.025
REMARK INTER + INTRA:          -7.666
REMARK INTER:                  -7.358
REMARK INTRA:                  -0.308
REMARK UNBOUND:                -0.002
REMARK SMILES O=c1c(O)c(-c2ccc(O)c(O)c2)oc2cc(O)cc(O)c12
REMARK SMILES IDX 5 1 3 2 2 3 1 4 22 5 20 6 19 7 17 8 16 9 15 10 14 11 6 12
REMARK SMILES IDX 7 13 8 14 9 15 13 16 11 17 10 18 12 20 4 22 21 24 18 26
REMARK H PARENT 10 19 12 21 4 23 21 25 18 27
REMARK Flexibility Score: inf
ROOT
ATOM      1  C   UNL     1      18.691  -0.260 -16.389  1.00  0.00     0.180 A 
ATOM      2  C   UNL     1      19.765   0.545 -15.970  1.00  0.00     0.208 A 
ATOM      3  C   UNL     1      20.736   0.927 -16.910  1.00  0.00     0.238 A 
ATOM      4  O   UNL     1      21.723   1.601 -16.519  1.00  0.00    -0.285 OA
ATOM      5  C   UNL     1      20.612   0.512 -18.259  1.00  0.00     0.111 A 
ATOM      6  C   UNL     1      21.515   0.874 -19.304  1.00  0.00     0.134 A 
ATOM      7  C   UNL     1      21.367   0.301 -20.573  1.00  0.00     0.093 A 
ATOM      8  C   UNL     1      20.311  -0.570 -20.852  1.00  0.00     0.123 A 
ATOM      9  C   UNL     1      19.391  -0.882 -19.854  1.00  0.00     0.094 A 
ATOM     10  C   UNL     1      19.532  -0.355 -18.568  1.00  0.00     0.146 A 
ATOM     11  O   UNL     1      18.639  -0.686 -17.645  1.00  0.00    -0.452 OA
ENDROOT
BRANCH   1  12
ATOM     12  C   UNL     1      17.616  -0.682 -15.462  1.00  0.00     0.025 A 
ATOM     13  C   UNL     1      17.656  -1.930 -14.814  1.00  0.00     0.016 A 
ATOM     14  C   UNL     1      16.641  -2.298 -13.926  1.00  0.00     0.051 A 
ATOM     15  C   UNL     1      15.583  -1.419 -13.660  1.00  0.00     0.157 A 
ATOM     16  C   UNL     1      16.562   0.202 -15.176  1.00  0.00     0.062 A 
ATOM     17  C   UNL     1      15.544  -0.166 -14.284  1.00  0.00     0.158 A 
BRANCH  15  18
ATOM     18  O   UNL     1      14.569  -1.783 -12.775  1.00  0.00    -0.504 OA
ATOM     19  H   UNL     1      14.719  -1.795 -11.774  1.00  0.00     0.293 HD
ENDBRANCH  15  18
BRANCH  17  20
ATOM     20  O   UNL     1      14.493   0.708 -14.014  1.00  0.00    -0.504 OA
ATOM     21  H   UNL     1      14.173   1.381 -14.700  1.00  0.00     0.293 HD
ENDBRANCH  17  20
ENDBRANCH   1  12
BRANCH   2  22
ATOM     22  O   UNL     1      19.880   0.923 -14.631  1.00  0.00    -0.502 OA
ATOM     23  H   UNL     1      19.861   1.892 -14.335  1.00  0.00     0.293 HD
ENDBRANCH   2  22
BRANCH   6  24
ATOM     24  O   UNL     1      22.547   1.805 -19.155  1.00  0.00    -0.507 OA
ATOM     25  H   UNL     1      23.203   2.058 -19.877  1.00  0.00     0.293 HD
ENDBRANCH   6  24
BRANCH   8  26
ATOM     26  O   UNL     1      20.163  -1.125 -22.121  1.00  0.00    -0.508 OA
ATOM     27  H   UNL     1      19.310  -1.006 -22.655  1.00  0.00     0.293 HD
ENDBRANCH   8  26
TORSDOF 6
ENDMDL
MODEL 6
REMARK VINA RESULT:    -6.276      1.263      6.654
REMARK INTER + INTRA:          -7.562
REMARK INTER:                  -7.303
REMARK INTRA:                  -0.258
REMARK UNBOUND:                -0.002
REMARK SMILES O=c1c(O)c(-c2ccc(O)c(O)c2)oc2cc(O)cc(O)c12
REMARK SMILES IDX 5 1 3 2 2 3 1 4 22 5 20 6 19 7 17 8 16 9 15 10 14 11 6 12
REMARK SMILES IDX 7 13 8 14 9 15 13 16 11 17 10 18 12 20 4 22 21 24 18 26
REMARK H PARENT 10 19 12 21 4 23 21 25 18 27
REMARK Flexibility Score: inf
ROOT
ATOM      1  C   UNL     1      21.429   1.244 -16.147  1.00  0.00     0.180 A 
ATOM      2  C   UNL     1      20.172   0.631 -16.005  1.00  0.00     0.208 A 
ATOM      3  C   UNL     1      19.503   0.176 -17.153  1.00  0.00     0.238 A 
ATOM      4  O   UNL     1      18.355  -0.322 -17.025  1.00  0.00    -0.285 OA
ATOM      5  C   UNL     1      20.106   0.325 -18.425  1.00  0.00     0.111 A 
ATOM      6  C   UNL     1      19.536  -0.135 -19.651  1.00  0.00     0.134 A 
ATOM      7  C   UNL     1      20.160   0.182 -20.864  1.00  0.00     0.093 A 
ATOM      8  C   UNL     1      21.366   0.886 -20.892  1.00  0.00     0.123 A 
ATOM      9  C   UNL     1      21.959   1.287 -19.698  1.00  0.00     0.094 A 
ATOM     10  C   UNL     1      21.344   1.018 -18.473  1.00  0.00     0.146 A 
ATOM     11  O   UNL     1      21.938   1.427 -17.360  1.00  0.00    -0.452 OA
ENDROOT
BRANCH   1  12
ATOM     12  C   UNL     1      22.206   1.726 -14.983  1.00  0.00     0.025 A 
ATOM     13  C   UNL     1      21.844   2.899 -14.296  1.00  0.00     0.016 A 
ATOM     14  C   UNL     1      22.579   3.322 -13.185  1.00  0.00     0.051 A 
ATOM     15  C   UNL     1      23.675   2.573 -12.736  1.00  0.00     0.157 A 
ATOM     16  C   UNL     1      23.294   0.969 -14.515  1.00  0.00     0.062 A 
ATOM     17  C   UNL     1      24.031   1.393 -13.400  1.00  0.00     0.158 A 
BRANCH  15  18
ATOM     18  O   UNL     1      24.410   2.993 -11.629  1.00  0.00    -0.504 OA
ATOM     19  H   UNL     1      25.203   2.465 -11.287  1.00  0.00     0.293 HD
ENDBRANCH  15  18
BRANCH  17  20
ATOM     20  O   UNL     1      25.117   0.647 -12.947  1.00  0.00    -0.504 OA
ATOM     21  H   UNL     1      25.984   1.089 -12.667  1.00  0.00     0.293 HD
ENDBRANCH  17  20
ENDBRANCH   1  12
BRANCH   2  22
ATOM     22  O   UNL     1      19.586   0.514 -14.743  1.00  0.00    -0.502 OA
ATOM     23  H   UNL     1      19.139   1.295 -14.275  1.00  0.00     0.293 HD
ENDBRANCH   2  22
BRANCH   6  24
ATOM     24  O   UNL     1      18.384  -0.924 -19.728  1.00  0.00    -0.507 OA
ATOM     25  H   UNL     1      17.447  -0.566 -19.828  1.00  0.00     0.293 HD
ENDBRANCH   6  24
BRANCH   8  26
ATOM     26  O   UNL     1      21.987   1.184 -22.102  1.00  0.00    -0.508 OA
ATOM     27  H   UNL     1      22.402   0.460 -22.677  1.00  0.00     0.293 HD
ENDBRANCH   8  26
TORSDOF 6
ENDMDL
MODEL 7
REMARK VINA RESULT:    -5.962     12.078     13.719
REMARK INTER + INTRA:          -7.183
REMARK INTER:                  -6.855
REMARK INTRA:                  -0.328
REMARK UNBOUND:                -0.002
REMARK SMILES O=c1c(O)c(-c2ccc(O)c(O)c2)oc2cc(O)cc(O)c12
REMARK SMILES IDX 5 1 3 2 2 3 1 4 22 5 20 6 19 7 17 8 16 9 15 10 14 11 6 12
REMARK SMILES IDX 7 13 8 14 9 15 13 16 11 17 10 18 12 20 4 22 21 24 18 26
REMARK H PARENT 10 19 12 21 4 23 21 25 18 27
REMARK Flexibility Score: inf
ROOT
ATOM      1  C   UNL     1      10.195   7.902 -19.231  1.00  0.00     0.180 A 
ATOM      2  C   UNL     1      11.315   8.498 -18.625  1.00  0.00     0.208 A 
ATOM      3  C   UNL     1      12.370   7.679 -18.191  1.00  0.00     0.238 A 
ATOM      4  O   UNL     1      13.345   8.211 -17.600  1.00  0.00    -0.285 OA
ATOM      5  C   UNL     1      12.299   6.278 -18.385  1.00  0.00     0.111 A 
ATOM      6  C   UNL     1      13.328   5.356 -18.022  1.00  0.00     0.134 A 
ATOM      7  C   UNL     1      13.096   3.981 -18.141  1.00  0.00     0.093 A 
ATOM      8  C   UNL     1      11.898   3.495 -18.670  1.00  0.00     0.123 A 
ATOM      9  C   UNL     1      10.912   4.388 -19.082  1.00  0.00     0.094 A 
ATOM     10  C   UNL     1      11.099   5.766 -18.942  1.00  0.00     0.146 A 
ATOM     11  O   UNL     1      10.130   6.581 -19.338  1.00  0.00    -0.452 OA
ENDROOT
BRANCH   1  12
ATOM     12  C   UNL     1       9.055   8.702 -19.735  1.00  0.00     0.025 A 
ATOM     13  C   UNL     1       9.076   9.278 -21.018  1.00  0.00     0.016 A 
ATOM     14  C   UNL     1       7.979  10.009 -21.482  1.00  0.00     0.051 A 
ATOM     15  C   UNL     1       6.841  10.161 -20.678  1.00  0.00     0.157 A 
ATOM     16  C   UNL     1       7.903   8.841 -18.943  1.00  0.00     0.062 A 
ATOM     17  C   UNL     1       6.802   9.573 -19.408  1.00  0.00     0.158 A 
BRANCH  15  18
ATOM     18  O   UNL     1       5.745  10.890 -21.138  1.00  0.00    -0.504 OA
ATOM     19  H   UNL     1       5.673  11.889 -20.991  1.00  0.00     0.293 HD
ENDBRANCH  15  18
BRANCH  17  20
ATOM     20  O   UNL     1       5.666   9.721 -18.614  1.00  0.00    -0.504 OA
ATOM     21  H   UNL     1       5.725  10.067 -17.663  1.00  0.00     0.293 HD
ENDBRANCH  17  20
ENDBRANCH   1  12
BRANCH   2  22
ATOM     22  O   UNL     1      11.354   9.879 -18.423  1.00  0.00    -0.502 OA
ATOM     23  H   UNL     1      10.571  10.397 -18.042  1.00  0.00     0.293 HD
ENDBRANCH   2  22
BRANCH   6  24
ATOM     24  O   UNL     1      14.594   5.740 -17.570  1.00  0.00    -0.507 OA
ATOM     25  H   UNL     1      15.160   5.211 -16.925  1.00  0.00     0.293 HD
ENDBRANCH   6  24
BRANCH   8  26
ATOM     26  O   UNL     1      11.681   2.125 -18.798  1.00  0.00    -0.508 OA
ATOM     27  H   UNL     1      12.092   1.593 -19.557  1.00  0.00     0.293 HD
ENDBRANCH   8  26
TORSDOF 6
ENDMDL
MODEL 8
REMARK VINA RESULT:    -5.908      7.254      8.702
REMARK INTER + INTRA:          -7.119
REMARK INTER:                  -6.857
REMARK INTRA:                  -0.262
REMARK UNBOUND:                -0.002
REMARK SMILES O=c1c(O)c(-c2ccc(O)c(O)c2)oc2cc(O)cc(O)c12
REMARK SMILES IDX 5 1 3 2 2 3 1 4 22 5 20 6 19 7 17 8 16 9 15 10 14 11 6 12
REMARK SMILES IDX 7 13 8 14 9 15 13 16 11 17 10 18 12 20 4 22 21 24 18 26
REMARK H PARENT 10 19 12 21 4 23 21 25 18 27
REMARK Flexibility Score: inf
ROOT
ATOM      1  C   UNL     1      15.836  -1.132 -11.646  1.00  0.00     0.180 A 
ATOM      2  C   UNL     1      15.740  -2.518 -11.429  1.00  0.00     0.208 A 
ATOM      3  C   UNL     1      16.404  -3.081 -10.327  1.00  0.00     0.238 A 
ATOM      4  O   UNL     1      16.361  -4.329 -10.169  1.00  0.00    -0.285 OA
ATOM      5  C   UNL     1      17.141  -2.251  -9.449  1.00  0.00     0.111 A 
ATOM      6  C   UNL     1      17.820  -2.708  -8.279  1.00  0.00     0.134 A 
ATOM      7  C   UNL     1      18.625  -1.820  -7.556  1.00  0.00     0.093 A 
ATOM      8  C   UNL     1      18.724  -0.476  -7.923  1.00  0.00     0.123 A 
ATOM      9  C   UNL     1      18.018  -0.007  -9.028  1.00  0.00     0.094 A 
ATOM     10  C   UNL     1      17.236  -0.876  -9.791  1.00  0.00     0.146 A 
ATOM     11  O   UNL     1      16.588  -0.391 -10.842  1.00  0.00    -0.452 OA
ENDROOT
BRANCH   1  12
ATOM     12  C   UNL     1      15.144  -0.462 -12.771  1.00  0.00     0.025 A 
ATOM     13  C   UNL     1      15.841  -0.062 -13.925  1.00  0.00     0.016 A 
ATOM     14  C   UNL     1      15.162   0.547 -14.985  1.00  0.00     0.051 A 
ATOM     15  C   UNL     1      13.778   0.752 -14.912  1.00  0.00     0.157 A 
ATOM     16  C   UNL     1      13.753  -0.272 -12.713  1.00  0.00     0.062 A 
ATOM     17  C   UNL     1      13.072   0.339 -13.775  1.00  0.00     0.158 A 
BRANCH  15  18
ATOM     18  O   UNL     1      13.099   1.361 -15.966  1.00  0.00    -0.504 OA
ATOM     19  H   UNL     1      12.761   0.827 -16.757  1.00  0.00     0.293 HD
ENDBRANCH  15  18
BRANCH  17  20
ATOM     20  O   UNL     1      11.694   0.538 -13.708  1.00  0.00    -0.504 OA
ATOM     21  H   UNL     1      11.266   1.028 -12.932  1.00  0.00     0.293 HD
ENDBRANCH  17  20
ENDBRANCH   1  12
BRANCH   2  22
ATOM     22  O   UNL     1      15.027  -3.322 -12.321  1.00  0.00    -0.502 OA
ATOM     23  H   UNL     1      15.361  -4.229 -12.624  1.00  0.00     0.293 HD
ENDBRANCH   2  22
BRANCH   6  24
ATOM     24  O   UNL     1      17.714  -4.008  -7.774  1.00  0.00    -0.507 OA
ATOM     25  H   UNL     1      16.988  -4.326  -7.151  1.00  0.00     0.293 HD
ENDBRANCH   6  24
BRANCH   8  26
ATOM     26  O   UNL     1      19.516   0.405  -7.189  1.00  0.00    -0.508 OA
ATOM     27  H   UNL     1      20.525   0.413  -7.282  1.00  0.00     0.293 HD
ENDBRANCH   8  26
TORSDOF 6
ENDMDL
MODEL 9
REMARK VINA RESULT:    -5.867      9.200     10.517
REMARK INTER + INTRA:          -7.069
REMARK INTER:                  -6.747
REMARK INTRA:                  -0.322
REMARK UNBOUND:                -0.002
REMARK SMILES O=c1c(O)c(-c2ccc(O)c(O)c2)oc2cc(O)cc(O)c12
REMARK SMILES IDX 5 1 3 2 2 3 1 4 22 5 20 6 19 7 17 8 16 9 15 10 14 11 6 12
REMARK SMILES IDX 7 13 8 14 9 15 13 16 11 17 10 18 12 20 4 22 21 24 18 26
REMARK H PARENT 10 19 12 21 4 23 21 25 18 27
REMARK Flexibility Score: inf
ROOT
ATOM      1  C   UNL     1      19.199  -2.267  -8.270  1.00  0.00     0.180 A 
ATOM      2  C   UNL     1      19.143  -2.712  -6.938  1.00  0.00     0.208 A 
ATOM      3  C   UNL     1      20.326  -3.134  -6.311  1.00  0.00     0.238 A 
ATOM      4  O   UNL     1      20.262  -3.582  -5.138  1.00  0.00    -0.285 OA
ATOM      5  C   UNL     1      21.553  -3.090  -7.018  1.00  0.00     0.111 A 
ATOM      6  C   UNL     1      22.819  -3.454  -6.469  1.00  0.00     0.134 A 
ATOM      7  C   UNL     1      23.946  -3.495  -7.299  1.00  0.00     0.093 A 
ATOM      8  C   UNL     1      23.865  -3.122  -8.643  1.00  0.00     0.123 A 
ATOM      9  C   UNL     1      22.645  -2.708  -9.172  1.00  0.00     0.094 A 
ATOM     10  C   UNL     1      21.496  -2.691  -8.379  1.00  0.00     0.146 A 
ATOM     11  O   UNL     1      20.352  -2.299  -8.927  1.00  0.00    -0.452 OA
ENDROOT
BRANCH   1  12
ATOM     12  C   UNL     1      17.998  -1.784  -8.990  1.00  0.00     0.025 A 
ATOM     13  C   UNL     1      17.677  -0.415  -9.041  1.00  0.00     0.016 A 
ATOM     14  C   UNL     1      16.552   0.020  -9.747  1.00  0.00     0.051 A 
ATOM     15  C   UNL     1      15.741  -0.902 -10.422  1.00  0.00     0.157 A 
ATOM     16  C   UNL     1      17.193  -2.701  -9.686  1.00  0.00     0.062 A 
ATOM     17  C   UNL     1      16.064  -2.265 -10.394  1.00  0.00     0.158 A 
BRANCH  15  18
ATOM     18  O   UNL     1      14.618  -0.471 -11.125  1.00  0.00    -0.504 OA
ATOM     19  H   UNL     1      13.713  -0.386 -10.679  1.00  0.00     0.293 HD
ENDBRANCH  15  18
BRANCH  17  20
ATOM     20  O   UNL     1      15.259  -3.179 -11.071  1.00  0.00    -0.504 OA
ATOM     21  H   UNL     1      14.975  -3.026 -12.031  1.00  0.00     0.293 HD
ENDBRANCH  17  20
ENDBRANCH   1  12
BRANCH   2  22
ATOM     22  O   UNL     1      17.920  -2.769  -6.266  1.00  0.00    -0.502 OA
ATOM     23  H   UNL     1      17.203  -3.448  -6.495  1.00  0.00     0.293 HD
ENDBRANCH   2  22
BRANCH   6  24
ATOM     24  O   UNL     1      23.026  -3.755  -5.119  1.00  0.00    -0.507 OA
ATOM     25  H   UNL     1      23.666  -4.454  -4.777  1.00  0.00     0.293 HD
ENDBRANCH   6  24
BRANCH   8  26
ATOM     26  O   UNL     1      24.994  -3.152  -9.458  1.00  0.00    -0.508 OA
ATOM     27  H   UNL     1      24.961  -3.538 -10.394  1.00  0.00     0.293 HD
ENDBRANCH   8  26
TORSDOF 6
ENDMDL
