MODEL 1
REMARK VINA RESULT:    -4.093      0.000      0.000
REMARK INTER + INTRA:          -4.472
REMARK INTER:                  -4.452
REMARK INTRA:                  -0.020
REMARK UNBOUND:                -0.020
REMARK SMILES OCc1ccccc1
REMARK SMILES IDX 2 1 3 2 6 3 5 4 7 5 4 6 8 7 1 8
REMARK H PARENT 1 9
REMARK Flexibility Score: inf
ROOT
ATOM      1  C   UNL     1       9.151  -0.576 -12.293  1.00  0.00     0.191 C 
ENDROOT
BRANCH   1   2
ATOM      2  C   UNL     1       9.494   0.877 -12.478  1.00  0.00    -0.023 A 
ATOM      3  C   UNL     1      10.158   3.571 -12.896  1.00  0.00     0.000 A 
ATOM      4  C   UNL     1       8.863   3.121 -13.166  1.00  0.00     0.000 A 
ATOM      5  C   UNL     1      11.124   2.678 -12.426  1.00  0.00     0.000 A 
ATOM      6  C   UNL     1       8.531   1.777 -12.964  1.00  0.00     0.006 A 
ATOM      7  C   UNL     1      10.798   1.334 -12.223  1.00  0.00     0.006 A 
ENDBRANCH   1   2
BRANCH   1   8
ATOM      8  O   UNL     1       7.849  -0.824 -12.749  1.00  0.00    -0.392 OA
ATOM      9  H   UNL     1       7.776  -1.807 -12.876  1.00  0.00     0.211 HD
ENDBRANCH   1   8
TORSDOF 2
ENDMDL
MODEL 2
REMARK VINA RESULT:    -4.088      0.053      1.714
REMARK INTER + INTRA:          -4.466
REMARK INTER:                  -4.447
REMARK INTRA:                  -0.019
REMARK UNBOUND:                -0.020
REMARK SMILES OCc1ccccc1
REMARK SMILES IDX 2 1 3 2 6 3 5 4 7 5 4 6 8 7 1 8
REMARK H PARENT 1 9
REMARK Flexibility Score: inf
ROOT
ATOM      1  C   UNL     1       9.202  -0.550 -12.286  1.00  0.00     0.191 C 
ENDROOT
BRANCH   1   2
ATOM      2  C   UNL     1       9.540   0.898 -12.514  1.00  0.00    -0.023 A 
ATOM      3  C   UNL     1      10.149   3.614 -12.866  1.00  0.00     0.000 A 
ATOM      4  C   UNL     1      11.135   2.729 -12.421  1.00  0.00     0.000 A 
ATOM      5  C   UNL     1       8.858   3.148 -13.126  1.00  0.00     0.000 A 
ATOM      6  C   UNL     1      10.832   1.376 -12.239  1.00  0.00     0.006 A 
ATOM      7  C   UNL     1       8.550   1.796 -12.946  1.00  0.00     0.006 A 
ENDBRANCH   1   2
BRANCH   1   8
ATOM      8  O   UNL     1       7.900  -0.816 -12.729  1.00  0.00    -0.392 OA
ATOM      9  H   UNL     1       7.285  -0.389 -12.076  1.00  0.00     0.211 HD
ENDBRANCH   1   8
TORSDOF 2
ENDMDL
MODEL 3
REMARK VINA RESULT:    -4.087     13.017     13.655
REMARK INTER + INTRA:          -4.465
REMARK INTER:                  -4.447
REMARK INTRA:                  -0.018
REMARK UNBOUND:                -0.020
REMARK SMILES OCc1ccccc1
REMARK SMILES IDX 2 1 3 2 6 3 5 4 7 5 4 6 8 7 1 8
REMARK H PARENT 1 9
REMARK Flexibility Score: inf
ROOT
ATOM      1  C   UNL     1      21.296  -2.401 -19.447  1.00  0.00     0.191 C 
ENDROOT
BRANCH   1   2
ATOM      2  C   UNL     1      20.839  -1.015 -19.811  1.00  0.00    -0.023 A 
ATOM      3  C   UNL     1      20.007   1.556 -20.567  1.00  0.00     0.000 A 
ATOM      4  C   UNL     1      19.095   0.496 -20.573  1.00  0.00     0.000 A 
ATOM      5  C   UNL     1      21.335   1.333 -20.194  1.00  0.00     0.000 A 
ATOM      6  C   UNL     1      19.510  -0.787 -20.202  1.00  0.00     0.006 A 
ATOM      7  C   UNL     1      21.753   0.051 -19.823  1.00  0.00     0.006 A 
ENDBRANCH   1   2
BRANCH   1   8
ATOM      8  O   UNL     1      22.480  -2.337 -18.701  1.00  0.00    -0.392 OA
ATOM      9  H   UNL     1      22.215  -2.376 -17.744  1.00  0.00     0.211 HD
ENDBRANCH   1   8
TORSDOF 2
ENDMDL
MODEL 4
REMARK VINA RESULT:    -4.033      9.689     10.576
REMARK INTER + INTRA:          -4.406
REMARK INTER:                  -4.389
REMARK INTRA:                  -0.017
REMARK UNBOUND:                -0.020
REMARK SMILES OCc1ccccc1
REMARK SMILES IDX 2 1 3 2 6 3 5 4 7 5 4 6 8 7 1 8
REMARK H PARENT 1 9
REMARK Flexibility Score: inf
ROOT
ATOM      1  C   UNL     1       5.235  -6.902 -14.994  1.00  0.00     0.191 C 
ENDROOT
BRANCH   1   2
ATOM      2  C   UNL     1       6.339  -7.761 -14.438  1.00  0.00    -0.023 A 
ATOM      3  C   UNL     1       8.342  -9.410 -13.371  1.00  0.00     0.000 A 
ATOM      4  C   UNL     1       7.862  -9.641 -14.662  1.00  0.00     0.000 A 
ATOM      5  C   UNL     1       7.818  -8.363 -12.607  1.00  0.00     0.000 A 
ATOM      6  C   UNL     1       6.859  -8.824 -15.194  1.00  0.00     0.006 A 
ATOM      7  C   UNL     1       6.816  -7.543 -13.135  1.00  0.00     0.006 A 
ENDBRANCH   1   2
BRANCH   1   8
ATOM      8  O   UNL     1       5.269  -6.923 -16.395  1.00  0.00    -0.392 OA
ATOM      9  H   UNL     1       4.634  -7.631 -16.682  1.00  0.00     0.211 HD
ENDBRANCH   1   8
TORSDOF 2
ENDMDL
MODEL 5
REMARK VINA RESULT:    -4.025     10.110     11.411
REMARK INTER + INTRA:          -4.398
REMARK INTER:                  -4.387
REMARK INTRA:                  -0.011
REMARK UNBOUND:                -0.020
REMARK SMILES OCc1ccccc1
REMARK SMILES IDX 2 1 3 2 6 3 5 4 7 5 4 6 8 7 1 8
REMARK H PARENT 1 9
REMARK Flexibility Score: inf
ROOT
ATOM      1  C   UNL     1       8.257 -11.200 -15.250  1.00  0.00     0.191 C 
ENDROOT
BRANCH   1   2
ATOM      2  C   UNL     1       7.805  -9.876 -14.697  1.00  0.00    -0.023 A 
ATOM      3  C   UNL     1       6.899  -7.443 -13.634  1.00  0.00     0.000 A 
ATOM      4  C   UNL     1       7.756  -8.255 -12.887  1.00  0.00     0.000 A 
ATOM      5  C   UNL     1       6.486  -7.847 -14.907  1.00  0.00     0.000 A 
ATOM      6  C   UNL     1       8.204  -9.471 -13.413  1.00  0.00     0.006 A 
ATOM      7  C   UNL     1       6.931  -9.062 -15.436  1.00  0.00     0.006 A 
ENDBRANCH   1   2
BRANCH   1   8
ATOM      8  O   UNL     1       7.205 -12.125 -15.205  1.00  0.00    -0.392 OA
ATOM      9  H   UNL     1       7.567 -12.945 -14.778  1.00  0.00     0.211 HD
ENDBRANCH   1   8
TORSDOF 2
ENDMDL
MODEL 6
REMARK VINA RESULT:    -4.023      7.799      8.323
REMARK INTER + INTRA:          -4.395
REMARK INTER:                  -4.386
REMARK INTRA:                  -0.010
REMARK UNBOUND:                -0.020
REMARK SMILES OCc1ccccc1
REMARK SMILES IDX 2 1 3 2 6 3 5 4 7 5 4 6 8 7 1 8
REMARK H PARENT 1 9
REMARK Flexibility Score: inf
ROOT
ATOM      1  C   UNL     1       8.497   4.004 -20.351  1.00  0.00     0.191 C 
ENDROOT
BRANCH   1   2
ATOM      2  C   UNL     1       8.566   5.297 -19.584  1.00  0.00    -0.023 A 
ATOM      3  C   UNL     1       8.746   7.672 -18.102  1.00  0.00     0.000 A 
ATOM      4  C   UNL     1       9.631   7.439 -19.158  1.00  0.00     0.000 A 
ATOM      5  C   UNL     1       7.777   6.718 -17.779  1.00  0.00     0.000 A 
ATOM      6  C   UNL     1       9.547   6.253 -19.894  1.00  0.00     0.006 A 
ATOM      7  C   UNL     1       7.690   5.531 -18.512  1.00  0.00     0.006 A 
ENDBRANCH   1   2
BRANCH   1   8
ATOM      8  O   UNL     1       7.899   4.218 -21.600  1.00  0.00    -0.392 OA
ATOM      9  H   UNL     1       7.262   3.468 -21.741  1.00  0.00     0.211 HD
ENDBRANCH   1   8
TORSDOF 2
ENDMDL
MODEL 7
REMARK VINA RESULT:    -4.009     10.642     11.670
REMARK INTER + INTRA:          -4.381
REMARK INTER:                  -4.361
REMARK INTRA:                  -0.019
REMARK UNBOUND:                -0.020
REMARK SMILES OCc1ccccc1
REMARK SMILES IDX 2 1 3 2 6 3 5 4 7 5 4 6 8 7 1 8
REMARK H PARENT 1 9
REMARK Flexibility Score: inf
ROOT
ATOM      1  C   UNL     1       9.281  -5.511 -20.312  1.00  0.00     0.191 C 
ENDROOT
BRANCH   1   2
ATOM      2  C   UNL     1       9.997  -6.738 -19.816  1.00  0.00    -0.023 A 
ATOM      3  C   UNL     1      11.368  -8.982 -18.836  1.00  0.00     0.000 A 
ATOM      4  C   UNL     1      10.101  -8.664 -18.338  1.00  0.00     0.000 A 
ATOM      5  C   UNL     1      11.955  -8.177 -19.815  1.00  0.00     0.000 A 
ATOM      6  C   UNL     1       9.419  -7.543 -18.821  1.00  0.00     0.006 A 
ATOM      7  C   UNL     1      11.277  -7.055 -20.301  1.00  0.00     0.006 A 
ENDBRANCH   1   2
BRANCH   1   8
ATOM      8  O   UNL     1       9.976  -4.953 -21.393  1.00  0.00    -0.392 OA
ATOM      9  H   UNL     1      10.251  -4.040 -21.112  1.00  0.00     0.211 HD
ENDBRANCH   1   8
TORSDOF 2
ENDMDL
MODEL 8
REMARK VINA RESULT:    -3.984     10.346     11.289
REMARK INTER + INTRA:          -4.353
REMARK INTER:                  -4.341
REMARK INTRA:                  -0.012
REMARK UNBOUND:                -0.020
REMARK SMILES OCc1ccccc1
REMARK SMILES IDX 2 1 3 2 6 3 5 4 7 5 4 6 8 7 1 8
REMARK H PARENT 1 9
REMARK Flexibility Score: inf
ROOT
ATOM      1  C   UNL     1       8.662  -9.271 -10.762  1.00  0.00     0.191 C 
ENDROOT
BRANCH   1   2
ATOM      2  C   UNL     1       8.380  -9.370 -12.237  1.00  0.00    -0.023 A 
ATOM      3  C   UNL     1       7.786  -9.592 -14.970  1.00  0.00     0.000 A 
ATOM      4  C   UNL     1       7.352  -8.476 -14.250  1.00  0.00     0.000 A 
ATOM      5  C   UNL     1       8.508 -10.601 -14.327  1.00  0.00     0.000 A 
ATOM      6  C   UNL     1       7.641  -8.366 -12.885  1.00  0.00     0.006 A 
ATOM      7  C   UNL     1       8.800 -10.495 -12.964  1.00  0.00     0.006 A 
ENDBRANCH   1   2
BRANCH   1   8
ATOM      8  O   UNL     1       7.461  -9.284 -10.041  1.00  0.00    -0.392 OA
ATOM      9  H   UNL     1       6.793  -8.798 -10.593  1.00  0.00     0.211 HD
ENDBRANCH   1   8
TORSDOF 2
ENDMDL
MODEL 9
REMARK VINA RESULT:    -3.970     13.106     13.693
REMARK INTER + INTRA:          -4.338
REMARK INTER:                  -4.327
REMARK INTRA:                  -0.010
REMARK UNBOUND:                -0.020
REMARK SMILES OCc1ccccc1
REMARK SMILES IDX 2 1 3 2 6 3 5 4 7 5 4 6 8 7 1 8
REMARK H PARENT 1 9
REMARK Flexibility Score: inf
ROOT
ATOM      1  C   UNL     1      20.613  -4.277 -18.953  1.00  0.00     0.191 C 
ENDROOT
BRANCH   1   2
ATOM      2  C   UNL     1      20.566  -2.817 -19.312  1.00  0.00    -0.023 A 
ATOM      3  C   UNL     1      20.495  -0.113 -20.056  1.00  0.00     0.000 A 
ATOM      4  C   UNL     1      19.329  -0.881 -20.104  1.00  0.00     0.000 A 
ATOM      5  C   UNL     1      21.698  -0.694 -19.647  1.00  0.00     0.000 A 
ATOM      6  C   UNL     1      19.363  -2.231 -19.738  1.00  0.00     0.006 A 
ATOM      7  C   UNL     1      21.737  -2.043 -19.281  1.00  0.00     0.006 A 
ENDBRANCH   1   2
BRANCH   1   8
ATOM      8  O   UNL     1      21.117  -5.021 -20.028  1.00  0.00    -0.392 OA
ATOM      9  H   UNL     1      22.099  -4.873 -20.039  1.00  0.00     0.211 HD
ENDBRANCH   1   8
TORSDOF 2
ENDMDL
