MODEL 1
REMARK VINA RESULT:     6.456      0.000      0.000
REMARK INTER + INTRA:           8.224
REMARK INTER:                   8.721
REMARK INTRA:                  -0.497
REMARK UNBOUND:                -0.497
REMARK SMILES O=c1c(-c2ccc(O)cc2)coc2c([C@@H]3O[C@@H](CO)[C@@H](O)[C@H](O)[C@H]3O)c(O)ccc12
REMARK SMILES IDX 3 1 11 2 12 3 13 4 30 5 2 6 1 7 29 8 28 9 26 10 14 11 4 12
REMARK SMILES IDX 5 13 6 14 7 15 10 16 9 17 8 18 15 20 24 21 16 22 22 23 17 24
REMARK SMILES IDX 20 25 25 26 23 28 18 30 19 31 21 33 27 35
REMARK H PARENT 8 19 25 27 23 29 19 32 21 34 27 36
REMARK Flexibility Score: inf
ROOT
ATOM      1  C   UNL     1     -44.526  29.077  -7.595  1.00  0.00     0.065 A 
ATOM      2  C   UNL     1     -45.409  28.761  -6.554  1.00  0.00     0.208 A 
ATOM      3  O   UNL     1     -45.031  28.856  -5.286  1.00  0.00    -0.463 OA
ATOM      4  C   UNL     1     -43.814  29.250  -4.916  1.00  0.00     0.147 A 
ATOM      5  C   UNL     1     -42.861  29.596  -5.903  1.00  0.00     0.066 A 
ATOM      6  C   UNL     1     -43.231  29.511  -7.257  1.00  0.00     0.200 A 
ATOM      7  O   UNL     1     -42.415  29.840  -8.162  1.00  0.00    -0.288 OA
ATOM      8  C   UNL     1     -41.584  30.025  -5.511  1.00  0.00     0.020 A 
ATOM      9  C   UNL     1     -41.258  30.115  -4.160  1.00  0.00     0.047 A 
ATOM     10  C   UNL     1     -42.193  29.776  -3.175  1.00  0.00     0.125 A 
ATOM     11  C   UNL     1     -43.480  29.323  -3.544  1.00  0.00     0.069 A 
ENDROOT
BRANCH   1  12
ATOM     12  C   UNL     1     -44.971  28.955  -9.007  1.00  0.00    -0.011 A 
ATOM     13  C   UNL     1     -44.990  27.699  -9.639  1.00  0.00     0.013 A 
ATOM     14  C   UNL     1     -45.399  27.584 -10.970  1.00  0.00     0.047 A 
ATOM     15  C   UNL     1     -45.789  28.722 -11.689  1.00  0.00     0.115 A 
ATOM     16  C   UNL     1     -45.357  30.094  -9.737  1.00  0.00     0.013 A 
ATOM     17  C   UNL     1     -45.766  29.975 -11.069  1.00  0.00     0.047 A 
BRANCH  15  18
ATOM     18  O   UNL     1     -46.199  28.618 -13.016  1.00  0.00    -0.508 OA
ATOM     19  H   UNL     1     -45.571  28.288 -13.740  1.00  0.00     0.293 HD
ENDBRANCH  15  18
ENDBRANCH   1  12
BRANCH  11  20
ATOM     20  C   UNL     1     -44.508  28.974  -2.475  1.00  0.00     0.188 C 
ATOM     21  C   UNL     1     -44.081  27.687  -1.729  1.00  0.00     0.179 C 
ATOM     22  O   UNL     1     -44.634  30.072  -1.584  1.00  0.00    -0.362 OA
ATOM     23  C   UNL     1     -45.105  27.339  -0.642  1.00  0.00     0.177 C 
ATOM     24  C   UNL     1     -45.599  29.858  -0.562  1.00  0.00     0.176 C 
ATOM     25  C   UNL     1     -45.340  28.563   0.260  1.00  0.00     0.177 C 
BRANCH  21  26
ATOM     26  O   UNL     1     -43.923  26.610  -2.621  1.00  0.00    -0.387 OA
ATOM     27  H   UNL     1     -43.060  26.168  -2.409  1.00  0.00     0.211 HD
ENDBRANCH  21  26
BRANCH  23  28
ATOM     28  O   UNL     1     -44.616  26.269   0.124  1.00  0.00    -0.387 OA
ATOM     29  H   UNL     1     -44.834  26.466   1.071  1.00  0.00     0.211 HD
ENDBRANCH  23  28
BRANCH  24  30
ATOM     30  C   UNL     1     -47.049  30.060  -1.061  1.00  0.00     0.191 C 
BRANCH  30  31
ATOM     31  O   UNL     1     -47.125  30.090  -2.459  1.00  0.00    -0.394 OA
ATOM     32  H   UNL     1     -48.025  29.745  -2.694  1.00  0.00     0.210 HD
ENDBRANCH  30  31
ENDBRANCH  24  30
BRANCH  25  33
ATOM     33  O   UNL     1     -46.407  28.306   1.136  1.00  0.00    -0.388 OA
ATOM     34  H   UNL     1     -46.255  28.862   1.943  1.00  0.00     0.211 HD
ENDBRANCH  25  33
ENDBRANCH  11  20
BRANCH  10  35
ATOM     35  O   UNL     1     -41.842  29.893  -1.830  1.00  0.00    -0.507 OA
ATOM     36  H   UNL     1     -40.999  30.375  -1.537  1.00  0.00     0.293 HD
ENDBRANCH  10  35
TORSDOF 9
ENDMDL
MODEL 2
REMARK VINA RESULT:     7.123      1.866      8.319
REMARK INTER + INTRA:           9.125
REMARK INTER:                   9.736
REMARK INTRA:                  -0.611
REMARK UNBOUND:                -0.497
REMARK SMILES O=c1c(-c2ccc(O)cc2)coc2c([C@@H]3O[C@@H](CO)[C@@H](O)[C@H](O)[C@H]3O)c(O)ccc12
REMARK SMILES IDX 3 1 11 2 12 3 13 4 30 5 2 6 1 7 29 8 28 9 26 10 14 11 4 12
REMARK SMILES IDX 5 13 6 14 7 15 10 16 9 17 8 18 15 20 24 21 16 22 22 23 17 24
REMARK SMILES IDX 20 25 25 26 23 28 18 30 19 31 21 33 27 35
REMARK H PARENT 8 19 25 27 23 29 19 32 21 34 27 36
REMARK Flexibility Score: inf
ROOT
ATOM      1  C   UNL     1     -45.134  28.421  -3.196  1.00  0.00     0.065 A 
ATOM      2  C   UNL     1     -45.796  27.796  -4.261  1.00  0.00     0.208 A 
ATOM      3  O   UNL     1     -45.358  27.926  -5.507  1.00  0.00    -0.463 OA
ATOM      4  C   UNL     1     -44.283  28.642  -5.830  1.00  0.00     0.147 A 
ATOM      5  C   UNL     1     -43.549  29.300  -4.815  1.00  0.00     0.066 A 
ATOM      6  C   UNL     1     -43.984  29.179  -3.484  1.00  0.00     0.200 A 
ATOM      7  O   UNL     1     -43.336  29.729  -2.550  1.00  0.00    -0.288 OA
ATOM      8  C   UNL     1     -42.408  30.041  -5.157  1.00  0.00     0.020 A 
ATOM      9  C   UNL     1     -41.997  30.125  -6.485  1.00  0.00     0.047 A 
ATOM     10  C   UNL     1     -42.714  29.477  -7.497  1.00  0.00     0.125 A 
ATOM     11  C   UNL     1     -43.878  28.739  -7.182  1.00  0.00     0.069 A 
ENDROOT
BRANCH   1  12
ATOM     12  C   UNL     1     -45.648  28.267  -1.811  1.00  0.00    -0.011 A 
ATOM     13  C   UNL     1     -46.430  29.279  -1.228  1.00  0.00     0.013 A 
ATOM     14  C   UNL     1     -46.907  29.139   0.079  1.00  0.00     0.047 A 
ATOM     15  C   UNL     1     -46.603  27.990   0.821  1.00  0.00     0.115 A 
ATOM     16  C   UNL     1     -45.341  27.119  -1.057  1.00  0.00     0.013 A 
ATOM     17  C   UNL     1     -45.820  26.983   0.250  1.00  0.00     0.047 A 
BRANCH  15  18
ATOM     18  O   UNL     1     -47.073  27.841   2.124  1.00  0.00    -0.508 OA
ATOM     19  H   UNL     1     -47.267  26.926   2.515  1.00  0.00     0.293 HD
ENDBRANCH  15  18
ENDBRANCH   1  12
BRANCH  11  20
ATOM     20  C   UNL     1     -44.649  28.014  -8.278  1.00  0.00     0.188 C 
ATOM     21  C   UNL     1     -44.875  28.961  -9.481  1.00  0.00     0.179 C 
ATOM     22  O   UNL     1     -43.924  26.855  -8.659  1.00  0.00    -0.362 OA
ATOM     23  C   UNL     1     -45.639  28.231 -10.594  1.00  0.00     0.177 C 
ATOM     24  C   UNL     1     -44.579  26.087  -9.660  1.00  0.00     0.176 C 
ATOM     25  C   UNL     1     -44.926  26.911 -10.932  1.00  0.00     0.177 C 
BRANCH  21  26
ATOM     26  O   UNL     1     -45.562  30.125  -9.092  1.00  0.00    -0.387 OA
ATOM     27  H   UNL     1     -46.405  30.165  -9.614  1.00  0.00     0.211 HD
ENDBRANCH  21  26
BRANCH  23  28
ATOM     28  O   UNL     1     -45.687  29.053 -11.731  1.00  0.00    -0.387 OA
ATOM     29  H   UNL     1     -45.198  29.887 -11.507  1.00  0.00     0.211 HD
ENDBRANCH  23  28
BRANCH  24  30
ATOM     30  C   UNL     1     -45.724  25.218  -9.088  1.00  0.00     0.191 C 
BRANCH  30  31
ATOM     31  O   UNL     1     -45.851  24.000  -9.766  1.00  0.00    -0.394 OA
ATOM     32  H   UNL     1     -45.343  24.100 -10.612  1.00  0.00     0.210 HD
ENDBRANCH  30  31
ENDBRANCH  24  30
BRANCH  25  33
ATOM     33  O   UNL     1     -45.719  26.159 -11.814  1.00  0.00    -0.388 OA
ATOM     34  H   UNL     1     -45.285  25.271 -11.903  1.00  0.00     0.211 HD
ENDBRANCH  25  33
ENDBRANCH  11  20
BRANCH  10  35
ATOM     35  O   UNL     1     -42.267  29.565  -8.816  1.00  0.00    -0.507 OA
ATOM     36  H   UNL     1     -42.895  29.792  -9.579  1.00  0.00     0.293 HD
ENDBRANCH  10  35
TORSDOF 9
ENDMDL
MODEL 3
REMARK VINA RESULT:     8.942      2.342      3.800
REMARK INTER + INTRA:          11.582
REMARK INTER:                  12.141
REMARK INTRA:                  -0.558
REMARK UNBOUND:                -0.497
REMARK SMILES O=c1c(-c2ccc(O)cc2)coc2c([C@@H]3O[C@@H](CO)[C@@H](O)[C@H](O)[C@H]3O)c(O)ccc12
REMARK SMILES IDX 3 1 11 2 12 3 13 4 30 5 2 6 1 7 29 8 28 9 26 10 14 11 4 12
REMARK SMILES IDX 5 13 6 14 7 15 10 16 9 17 8 18 15 20 24 21 16 22 22 23 17 24
REMARK SMILES IDX 20 25 25 26 23 28 18 30 19 31 21 33 27 35
REMARK H PARENT 8 19 25 27 23 29 19 32 21 34 27 36
REMARK Flexibility Score: inf
ROOT
ATOM      1  C   UNL     1     -45.011  27.458  -6.350  1.00  0.00     0.065 A 
ATOM      2  C   UNL     1     -44.074  27.072  -5.381  1.00  0.00     0.208 A 
ATOM      3  O   UNL     1     -44.150  27.531  -4.138  1.00  0.00    -0.463 OA
ATOM      4  C   UNL     1     -45.097  28.371  -3.728  1.00  0.00     0.147 A 
ATOM      5  C   UNL     1     -46.088  28.807  -4.639  1.00  0.00     0.066 A 
ATOM      6  C   UNL     1     -46.040  28.335  -5.963  1.00  0.00     0.200 A 
ATOM      7  O   UNL     1     -46.926  28.680  -6.794  1.00  0.00    -0.288 OA
ATOM      8  C   UNL     1     -47.094  29.680  -4.201  1.00  0.00     0.020 A 
ATOM      9  C   UNL     1     -47.122  30.113  -2.877  1.00  0.00     0.047 A 
ATOM     10  C   UNL     1     -46.147  29.688  -1.967  1.00  0.00     0.125 A 
ATOM     11  C   UNL     1     -45.112  28.822  -2.387  1.00  0.00     0.069 A 
ENDROOT
BRANCH   1  12
ATOM     12  C   UNL     1     -44.900  26.936  -7.736  1.00  0.00    -0.011 A 
ATOM     13  C   UNL     1     -44.268  27.699  -8.733  1.00  0.00     0.013 A 
ATOM     14  C   UNL     1     -44.171  27.214 -10.040  1.00  0.00     0.047 A 
ATOM     15  C   UNL     1     -44.711  25.964 -10.369  1.00  0.00     0.115 A 
ATOM     16  C   UNL     1     -45.446  25.685  -8.075  1.00  0.00     0.013 A 
ATOM     17  C   UNL     1     -45.349  25.203  -9.385  1.00  0.00     0.047 A 
BRANCH  15  18
ATOM     18  O   UNL     1     -44.621  25.471 -11.669  1.00  0.00    -0.508 OA
ATOM     19  H   UNL     1     -44.521  24.479 -11.853  1.00  0.00     0.293 HD
ENDBRANCH  15  18
ENDBRANCH   1  12
BRANCH  11  20
ATOM     20  C   UNL     1     -44.061  28.340  -1.395  1.00  0.00     0.188 C 
ATOM     21  C   UNL     1     -43.088  29.493  -1.052  1.00  0.00     0.179 C 
ATOM     22  O   UNL     1     -44.717  27.853  -0.234  1.00  0.00    -0.362 OA
ATOM     23  C   UNL     1     -42.036  29.017  -0.041  1.00  0.00     0.177 C 
ATOM     24  C   UNL     1     -43.821  27.347   0.747  1.00  0.00     0.176 C 
ATOM     25  C   UNL     1     -42.735  28.377   1.170  1.00  0.00     0.177 C 
BRANCH  21  26
ATOM     26  O   UNL     1     -42.467  29.997  -2.209  1.00  0.00    -0.387 OA
ATOM     27  H   UNL     1     -41.988  30.829  -1.957  1.00  0.00     0.211 HD
ENDBRANCH  21  26
BRANCH  23  28
ATOM     28  O   UNL     1     -41.270  30.118   0.376  1.00  0.00    -0.387 OA
ATOM     29  H   UNL     1     -41.355  30.173   1.363  1.00  0.00     0.211 HD
ENDBRANCH  23  28
BRANCH  24  30
ATOM     30  C   UNL     1     -43.306  25.928   0.406  1.00  0.00     0.191 C 
BRANCH  30  31
ATOM     31  O   UNL     1     -43.577  25.574  -0.921  1.00  0.00    -0.394 OA
ATOM     32  H   UNL     1     -44.550  25.715  -1.052  1.00  0.00     0.210 HD
ENDBRANCH  30  31
ENDBRANCH  24  30
BRANCH  25  33
ATOM     33  O   UNL     1     -41.777  27.778   2.005  1.00  0.00    -0.388 OA
ATOM     34  H   UNL     1     -40.990  28.382   2.017  1.00  0.00     0.211 HD
ENDBRANCH  25  33
ENDBRANCH  11  20
BRANCH  10  35
ATOM     35  O   UNL     1     -46.211  30.125  -0.643  1.00  0.00    -0.507 OA
ATOM     36  H   UNL     1     -45.374  30.297  -0.096  1.00  0.00     0.293 HD
ENDBRANCH  10  35
TORSDOF 9
ENDMDL
