MODEL 1
REMARK VINA RESULT:    -6.031      0.000      0.000
REMARK INTER + INTRA:          -9.265
REMARK INTER:                  -8.146
REMARK INTRA:                  -1.120
REMARK UNBOUND:                -1.120
REMARK SMILES CC(=O)CCC=C(C)CCC=C(C)C
REMARK SMILES IDX 7 1 6 2 8 3 9 4 10 5 11 6 13 7 12 8 14 9 5 10 4 11 2 12 3 13
REMARK SMILES IDX 1 14
REMARK H PARENT
REMARK Flexibility Score: inf
ROOT
ATOM      1  C   UNL     1      -3.249 -13.302  27.906  1.00  0.00    -0.077 C 
ATOM      2  C   UNL     1      -2.155 -13.939  28.377  1.00  0.00    -0.028 C 
ATOM      3  C   UNL     1      -3.211 -11.836  27.543  1.00  0.00     0.039 C 
ENDROOT
BRANCH   1   4
ATOM      4  C   UNL     1      -4.542 -14.071  27.744  1.00  0.00     0.034 C 
BRANCH   4   5
ATOM      5  C   UNL     1      -5.606 -13.560  28.722  1.00  0.00     0.032 C 
BRANCH   5   6
ATOM      6  C   UNL     1      -5.756 -14.506  29.887  1.00  0.00    -0.028 C 
ATOM      7  C   UNL     1      -5.342 -15.410  32.134  1.00  0.00     0.039 C 
ATOM      8  C   UNL     1      -5.125 -14.363  31.074  1.00  0.00    -0.080 C 
ATOM      9  C   UNL     1      -4.228 -13.183  31.365  1.00  0.00     0.039 C 
ENDBRANCH   5   6
ENDBRANCH   4   5
ENDBRANCH   1   4
BRANCH   2  10
ATOM     10  C   UNL     1      -0.821 -13.256  28.570  1.00  0.00     0.035 C 
BRANCH  10  11
ATOM     11  C   UNL     1      -0.185 -13.596  29.925  1.00  0.00     0.079 C 
BRANCH  11  12
ATOM     12  C   UNL     1      -0.176 -12.412  30.857  1.00  0.00     0.130 C 
ATOM     13  O   UNL     1       0.602 -12.387  31.798  1.00  0.00    -0.300 OA
ATOM     14  C   UNL     1      -1.140 -11.281  30.660  1.00  0.00     0.087 C 
ENDBRANCH  11  12
ENDBRANCH  10  11
ENDBRANCH   2  10
TORSDOF 6
ENDMDL
MODEL 2
REMARK VINA RESULT:    -6.006      1.537      2.496
REMARK INTER + INTRA:          -9.233
REMARK INTER:                  -8.327
REMARK INTRA:                  -0.905
REMARK UNBOUND:                -1.120
REMARK SMILES CC(=O)CCC=C(C)CCC=C(C)C
REMARK SMILES IDX 7 1 6 2 8 3 9 4 10 5 11 6 13 7 12 8 14 9 5 10 4 11 2 12 3 13
REMARK SMILES IDX 1 14
REMARK H PARENT
REMARK Flexibility Score: inf
ROOT
ATOM      1  C   UNL     1      -3.774 -11.880  29.629  1.00  0.00    -0.077 C 
ATOM      2  C   UNL     1      -3.570 -12.618  30.742  1.00  0.00    -0.028 C 
ATOM      3  C   UNL     1      -2.890 -10.703  29.292  1.00  0.00     0.039 C 
ENDROOT
BRANCH   1   4
ATOM      4  C   UNL     1      -4.915 -12.238  28.702  1.00  0.00     0.034 C 
BRANCH   4   5
ATOM      5  C   UNL     1      -4.777 -13.679  28.200  1.00  0.00     0.032 C 
BRANCH   5   6
ATOM      6  C   UNL     1      -6.132 -14.325  28.053  1.00  0.00    -0.028 C 
ATOM      7  C   UNL     1      -8.102 -15.629  28.730  1.00  0.00     0.039 C 
ATOM      8  C   UNL     1      -6.766 -15.003  29.036  1.00  0.00    -0.080 C 
ATOM      9  C   UNL     1      -6.183 -15.134  30.423  1.00  0.00     0.039 C 
ENDBRANCH   5   6
ENDBRANCH   4   5
ENDBRANCH   1   4
BRANCH   2  10
ATOM     10  C   UNL     1      -2.456 -12.339  31.725  1.00  0.00     0.035 C 
BRANCH  10  11
ATOM     11  C   UNL     1      -1.351 -13.403  31.668  1.00  0.00     0.079 C 
BRANCH  11  12
ATOM     12  C   UNL     1      -0.142 -12.920  30.911  1.00  0.00     0.130 C 
ATOM     13  O   UNL     1       0.764 -12.358  31.508  1.00  0.00    -0.300 OA
ATOM     14  C   UNL     1      -0.057 -13.089  29.424  1.00  0.00     0.087 C 
ENDBRANCH  11  12
ENDBRANCH  10  11
ENDBRANCH   2  10
TORSDOF 6
ENDMDL
MODEL 3
REMARK VINA RESULT:    -5.949      2.821      5.440
REMARK INTER + INTRA:          -9.155
REMARK INTER:                  -8.326
REMARK INTRA:                  -0.829
REMARK UNBOUND:                -1.120
REMARK SMILES CC(=O)CCC=C(C)CCC=C(C)C
REMARK SMILES IDX 7 1 6 2 8 3 9 4 10 5 11 6 13 7 12 8 14 9 5 10 4 11 2 12 3 13
REMARK SMILES IDX 1 14
REMARK H PARENT
REMARK Flexibility Score: inf
ROOT
ATOM      1  C   UNL     1      -3.735 -12.432  28.302  1.00  0.00    -0.077 C 
ATOM      2  C   UNL     1      -4.398 -13.600  28.161  1.00  0.00    -0.028 C 
ATOM      3  C   UNL     1      -4.409 -11.207  28.874  1.00  0.00     0.039 C 
ENDROOT
BRANCH   1   4
ATOM      4  C   UNL     1      -2.286 -12.347  27.875  1.00  0.00     0.034 C 
BRANCH   4   5
ATOM      5  C   UNL     1      -1.482 -13.526  28.437  1.00  0.00     0.032 C 
BRANCH   5   6
ATOM      6  C   UNL     1      -0.481 -13.049  29.459  1.00  0.00    -0.028 C 
ATOM      7  C   UNL     1       0.350 -12.391  31.676  1.00  0.00     0.039 C 
ATOM      8  C   UNL     1      -0.740 -12.917  30.779  1.00  0.00    -0.080 C 
ATOM      9  C   UNL     1      -2.076 -13.294  31.374  1.00  0.00     0.039 C 
ENDBRANCH   5   6
ENDBRANCH   4   5
ENDBRANCH   1   4
BRANCH   2  10
ATOM     10  C   UNL     1      -5.844 -13.781  28.561  1.00  0.00     0.035 C 
BRANCH  10  11
ATOM     11  C   UNL     1      -6.024 -14.897  29.599  1.00  0.00     0.079 C 
BRANCH  11  12
ATOM     12  C   UNL     1      -7.057 -15.907  29.168  1.00  0.00     0.130 C 
ATOM     13  O   UNL     1      -6.836 -17.100  29.312  1.00  0.00    -0.300 OA
ATOM     14  C   UNL     1      -8.337 -15.461  28.529  1.00  0.00     0.087 C 
ENDBRANCH  11  12
ENDBRANCH  10  11
ENDBRANCH   2  10
TORSDOF 6
ENDMDL
MODEL 4
REMARK VINA RESULT:    -5.766      1.744      4.300
REMARK INTER + INTRA:          -8.908
REMARK INTER:                  -8.472
REMARK INTRA:                  -0.436
REMARK UNBOUND:                -1.120
REMARK SMILES CC(=O)CCC=C(C)CCC=C(C)C
REMARK SMILES IDX 7 1 6 2 8 3 9 4 10 5 11 6 13 7 12 8 14 9 5 10 4 11 2 12 3 13
REMARK SMILES IDX 1 14
REMARK H PARENT
REMARK Flexibility Score: inf
ROOT
ATOM      1  C   UNL     1      -5.202 -14.324  30.332  1.00  0.00    -0.077 C 
ATOM      2  C   UNL     1      -4.576 -13.515  29.451  1.00  0.00    -0.028 C 
ATOM      3  C   UNL     1      -6.359 -15.201  29.913  1.00  0.00     0.039 C 
ENDROOT
BRANCH   1   4
ATOM      4  C   UNL     1      -4.738 -14.352  31.772  1.00  0.00     0.034 C 
BRANCH   4   5
ATOM      5  C   UNL     1      -3.874 -13.126  32.089  1.00  0.00     0.032 C 
BRANCH   5   6
ATOM      6  C   UNL     1      -2.423 -13.404  31.788  1.00  0.00    -0.028 C 
ATOM      7  C   UNL     1      -0.116 -12.897  31.109  1.00  0.00     0.039 C 
ATOM      8  C   UNL     1      -1.525 -12.463  31.416  1.00  0.00    -0.080 C 
ATOM      9  C   UNL     1      -1.893 -11.002  31.317  1.00  0.00     0.039 C 
ENDBRANCH   5   6
ENDBRANCH   4   5
ENDBRANCH   1   4
BRANCH   2  10
ATOM     10  C   UNL     1      -4.967 -13.422  27.994  1.00  0.00     0.035 C 
BRANCH  10  11
ATOM     11  C   UNL     1      -3.780 -13.679  27.056  1.00  0.00     0.079 C 
BRANCH  11  12
ATOM     12  C   UNL     1      -2.797 -12.537  27.065  1.00  0.00     0.130 C 
ATOM     13  O   UNL     1      -1.902 -12.513  27.896  1.00  0.00    -0.300 OA
ATOM     14  C   UNL     1      -2.930 -11.411  26.085  1.00  0.00     0.087 C 
ENDBRANCH  11  12
ENDBRANCH  10  11
ENDBRANCH   2  10
TORSDOF 6
ENDMDL
MODEL 5
REMARK VINA RESULT:    -5.721      2.804      5.083
REMARK INTER + INTRA:          -8.847
REMARK INTER:                  -7.877
REMARK INTRA:                  -0.970
REMARK UNBOUND:                -1.120
REMARK SMILES CC(=O)CCC=C(C)CCC=C(C)C
REMARK SMILES IDX 7 1 6 2 8 3 9 4 10 5 11 6 13 7 12 8 14 9 5 10 4 11 2 12 3 13
REMARK SMILES IDX 1 14
REMARK H PARENT
REMARK Flexibility Score: inf
ROOT
ATOM      1  C   UNL     1      -3.842 -11.614  28.387  1.00  0.00    -0.077 C 
ATOM      2  C   UNL     1      -4.773 -12.500  28.801  1.00  0.00    -0.028 C 
ATOM      3  C   UNL     1      -2.944 -11.907  27.209  1.00  0.00     0.039 C 
ENDROOT
BRANCH   1   4
ATOM      4  C   UNL     1      -3.694 -10.299  29.121  1.00  0.00     0.034 C 
BRANCH   4   5
ATOM      5  C   UNL     1      -3.353 -10.534  30.597  1.00  0.00     0.032 C 
BRANCH   5   6
ATOM      6  C   UNL     1      -1.917 -10.968  30.750  1.00  0.00    -0.028 C 
ATOM      7  C   UNL     1      -0.054 -12.451  31.356  1.00  0.00     0.039 C 
ATOM      8  C   UNL     1      -1.528 -12.173  31.222  1.00  0.00    -0.080 C 
ATOM      9  C   UNL     1      -2.525 -13.244  31.600  1.00  0.00     0.039 C 
ENDBRANCH   5   6
ENDBRANCH   4   5
ENDBRANCH   1   4
BRANCH   2  10
ATOM     10  C   UNL     1      -4.996 -13.836  28.130  1.00  0.00     0.035 C 
BRANCH  10  11
ATOM     11  C   UNL     1      -6.413 -14.376  28.369  1.00  0.00     0.079 C 
BRANCH  11  12
ATOM     12  C   UNL     1      -6.439 -15.437  29.438  1.00  0.00     0.130 C 
ATOM     13  O   UNL     1      -6.826 -16.564  29.166  1.00  0.00    -0.300 OA
ATOM     14  C   UNL     1      -6.031 -15.112  30.843  1.00  0.00     0.087 C 
ENDBRANCH  11  12
ENDBRANCH  10  11
ENDBRANCH   2  10
TORSDOF 6
ENDMDL
MODEL 6
REMARK VINA RESULT:    -5.635      1.604      3.473
REMARK INTER + INTRA:          -8.731
REMARK INTER:                  -7.976
REMARK INTRA:                  -0.756
REMARK UNBOUND:                -1.120
REMARK SMILES CC(=O)CCC=C(C)CCC=C(C)C
REMARK SMILES IDX 7 1 6 2 8 3 9 4 10 5 11 6 13 7 12 8 14 9 5 10 4 11 2 12 3 13
REMARK SMILES IDX 1 14
REMARK H PARENT
REMARK Flexibility Score: inf
ROOT
ATOM      1  C   UNL     1      -3.350 -13.205  31.888  1.00  0.00    -0.077 C 
ATOM      2  C   UNL     1      -2.030 -13.468  31.767  1.00  0.00    -0.028 C 
ATOM      3  C   UNL     1      -3.882 -11.793  31.816  1.00  0.00     0.039 C 
ENDROOT
BRANCH   1   4
ATOM      4  C   UNL     1      -4.316 -14.350  32.102  1.00  0.00     0.034 C 
BRANCH   4   5
ATOM      5  C   UNL     1      -5.378 -14.380  30.997  1.00  0.00     0.032 C 
BRANCH   5   6
ATOM      6  C   UNL     1      -4.759 -14.080  29.655  1.00  0.00    -0.028 C 
ATOM      7  C   UNL     1      -4.616 -13.968  27.204  1.00  0.00     0.039 C 
ATOM      8  C   UNL     1      -5.375 -14.277  28.468  1.00  0.00    -0.080 C 
ATOM      9  C   UNL     1      -6.797 -14.780  28.378  1.00  0.00     0.039 C 
ENDBRANCH   5   6
ENDBRANCH   4   5
ENDBRANCH   1   4
BRANCH   2  10
ATOM     10  C   UNL     1      -0.992 -12.393  31.549  1.00  0.00     0.035 C 
BRANCH  10  11
ATOM     11  C   UNL     1      -0.192 -12.611  30.257  1.00  0.00     0.079 C 
BRANCH  11  12
ATOM     12  C   UNL     1      -1.090 -12.867  29.074  1.00  0.00     0.130 C 
ATOM     13  O   UNL     1      -1.882 -12.008  28.717  1.00  0.00    -0.300 OA
ATOM     14  C   UNL     1      -1.046 -14.181  28.355  1.00  0.00     0.087 C 
ENDBRANCH  11  12
ENDBRANCH  10  11
ENDBRANCH   2  10
TORSDOF 6
ENDMDL
MODEL 7
REMARK VINA RESULT:    -5.629      2.232      4.274
REMARK INTER + INTRA:          -8.723
REMARK INTER:                  -7.543
REMARK INTRA:                  -1.180
REMARK UNBOUND:                -1.120
REMARK SMILES CC(=O)CCC=C(C)CCC=C(C)C
REMARK SMILES IDX 7 1 6 2 8 3 9 4 10 5 11 6 13 7 12 8 14 9 5 10 4 11 2 12 3 13
REMARK SMILES IDX 1 14
REMARK H PARENT
REMARK Flexibility Score: inf
ROOT
ATOM      1  C   UNL     1      -0.961 -13.045  29.174  1.00  0.00    -0.077 C 
ATOM      2  C   UNL     1      -1.811 -12.061  28.806  1.00  0.00    -0.028 C 
ATOM      3  C   UNL     1      -0.862 -14.333  28.391  1.00  0.00     0.039 C 
ENDROOT
BRANCH   1   4
ATOM      4  C   UNL     1      -0.093 -12.855  30.398  1.00  0.00     0.034 C 
BRANCH   4   5
ATOM      5  C   UNL     1      -0.950 -12.541  31.630  1.00  0.00     0.032 C 
BRANCH   5   6
ATOM      6  C   UNL     1      -2.069 -13.542  31.770  1.00  0.00    -0.028 C 
ATOM      7  C   UNL     1      -4.381 -14.326  32.043  1.00  0.00     0.039 C 
ATOM      8  C   UNL     1      -3.377 -13.218  31.868  1.00  0.00    -0.080 C 
ATOM      9  C   UNL     1      -3.854 -11.787  31.789  1.00  0.00     0.039 C 
ENDBRANCH   5   6
ENDBRANCH   4   5
ENDBRANCH   1   4
BRANCH   2  10
ATOM     10  C   UNL     1      -2.714 -12.160  27.598  1.00  0.00     0.035 C 
BRANCH  10  11
ATOM     11  C   UNL     1      -4.195 -12.266  27.988  1.00  0.00     0.079 C 
BRANCH  11  12
ATOM     12  C   UNL     1      -4.733 -13.659  27.783  1.00  0.00     0.130 C 
ATOM     13  O   UNL     1      -4.289 -14.354  26.882  1.00  0.00    -0.300 OA
ATOM     14  C   UNL     1      -5.835 -14.184  28.652  1.00  0.00     0.087 C 
ENDBRANCH  11  12
ENDBRANCH  10  11
ENDBRANCH   2  10
TORSDOF 6
ENDMDL
MODEL 8
REMARK VINA RESULT:    -5.416      1.470      2.017
REMARK INTER + INTRA:          -8.435
REMARK INTER:                  -7.445
REMARK INTRA:                  -0.991
REMARK UNBOUND:                -1.120
REMARK SMILES CC(=O)CCC=C(C)CCC=C(C)C
REMARK SMILES IDX 7 1 6 2 8 3 9 4 10 5 11 6 13 7 12 8 14 9 5 10 4 11 2 12 3 13
REMARK SMILES IDX 1 14
REMARK H PARENT
REMARK Flexibility Score: inf
ROOT
ATOM      1  C   UNL     1      -4.279 -12.385  28.506  1.00  0.00    -0.077 C 
ATOM      2  C   UNL     1      -3.992 -11.367  29.346  1.00  0.00    -0.028 C 
ATOM      3  C   UNL     1      -3.351 -12.758  27.374  1.00  0.00     0.039 C 
ENDROOT
BRANCH   1   4
ATOM      4  C   UNL     1      -5.560 -13.166  28.700  1.00  0.00     0.034 C 
BRANCH   4   5
ATOM      5  C   UNL     1      -5.264 -14.579  29.215  1.00  0.00     0.032 C 
BRANCH   5   6
ATOM      6  C   UNL     1      -5.750 -14.742  30.634  1.00  0.00    -0.028 C 
ATOM      7  C   UNL     1      -5.605 -14.761  33.086  1.00  0.00     0.039 C 
ATOM      8  C   UNL     1      -4.994 -14.518  31.732  1.00  0.00    -0.080 C 
ATOM      9  C   UNL     1      -3.571 -14.020  31.635  1.00  0.00     0.039 C 
ENDBRANCH   5   6
ENDBRANCH   4   5
ENDBRANCH   1   4
BRANCH   2  10
ATOM     10  C   UNL     1      -2.737 -10.533  29.233  1.00  0.00     0.035 C 
BRANCH  10  11
ATOM     11  C   UNL     1      -1.883 -10.592  30.507  1.00  0.00     0.079 C 
BRANCH  11  12
ATOM     12  C   UNL     1      -0.882 -11.717  30.463  1.00  0.00     0.130 C 
ATOM     13  O   UNL     1      -0.615 -12.250  29.397  1.00  0.00    -0.300 OA
ATOM     14  C   UNL     1      -0.237 -12.211  31.722  1.00  0.00     0.087 C 
ENDBRANCH  11  12
ENDBRANCH  10  11
ENDBRANCH   2  10
TORSDOF 6
ENDMDL
MODEL 9
REMARK VINA RESULT:    -5.326      1.761      3.691
REMARK INTER + INTRA:          -8.314
REMARK INTER:                  -7.193
REMARK INTRA:                  -1.121
REMARK UNBOUND:                -1.120
REMARK SMILES CC(=O)CCC=C(C)CCC=C(C)C
REMARK SMILES IDX 7 1 6 2 8 3 9 4 10 5 11 6 13 7 12 8 14 9 5 10 4 11 2 12 3 13
REMARK SMILES IDX 1 14
REMARK H PARENT
REMARK Flexibility Score: inf
ROOT
ATOM      1  C   UNL     1      -3.069 -10.859  31.013  1.00  0.00    -0.077 C 
ATOM      2  C   UNL     1      -1.719 -10.838  31.043  1.00  0.00    -0.028 C 
ATOM      3  C   UNL     1      -3.859 -11.848  31.838  1.00  0.00     0.039 C 
ENDROOT
BRANCH   1   4
ATOM      4  C   UNL     1      -3.806  -9.875  30.132  1.00  0.00     0.034 C 
BRANCH   4   5
ATOM      5  C   UNL     1      -4.709 -10.608  29.133  1.00  0.00     0.032 C 
BRANCH   5   6
ATOM      6  C   UNL     1      -3.896 -11.521  28.249  1.00  0.00    -0.028 C 
ATOM      7  C   UNL     1      -3.211 -13.636  27.203  1.00  0.00     0.039 C 
ATOM      8  C   UNL     1      -4.134 -12.842  28.090  1.00  0.00    -0.080 C 
ATOM      9  C   UNL     1      -5.298 -13.532  28.760  1.00  0.00     0.039 C 
ENDBRANCH   5   6
ENDBRANCH   4   5
ENDBRANCH   1   4
BRANCH   2  10
ATOM     10  C   UNL     1      -0.897 -11.778  31.893  1.00  0.00     0.035 C 
BRANCH  10  11
ATOM     11  C   UNL     1       0.145 -12.547  31.069  1.00  0.00     0.079 C 
BRANCH  11  12
ATOM     12  C   UNL     1      -0.499 -13.459  30.057  1.00  0.00     0.130 C 
ATOM     13  O   UNL     1      -1.561 -14.004  30.319  1.00  0.00    -0.300 OA
ATOM     14  C   UNL     1       0.172 -13.735  28.745  1.00  0.00     0.087 C 
ENDBRANCH  11  12
ENDBRANCH  10  11
ENDBRANCH   2  10
TORSDOF 6
ENDMDL
