MODEL 1
REMARK VINA RESULT:    -2.453      0.000      0.000
REMARK INTER + INTRA:          -5.774
REMARK INTER:                  -4.173
REMARK INTRA:                  -1.600
REMARK UNBOUND:                -1.600
REMARK SMILES CCCCCCCCCCCCCC(=O)[O-]
REMARK SMILES IDX 8 1 9 2 10 3 11 4 12 5 13 6 14 7 15 8 16 9 7 10 6 11 5 12
REMARK SMILES IDX 4 13 3 14 2 15 1 16
REMARK H PARENT
REMARK Flexibility Score: inf
ROOT
ATOM      1  C   UNL     1      -4.078  -7.084   3.924  1.00  0.00     0.000 C 
ENDROOT
BRANCH   1   2
ATOM      2  C   UNL     1      -4.118  -8.360   4.781  1.00  0.00     0.000 C 
BRANCH   2   3
ATOM      3  C   UNL     1      -2.851  -9.219   4.624  1.00  0.00     0.000 C 
BRANCH   3   4
ATOM      4  C   UNL     1      -2.322  -9.228   3.181  1.00  0.00     0.000 C 
BRANCH   4   5
ATOM      5  C   UNL     1      -0.799  -9.020   3.105  1.00  0.00     0.006 C 
BRANCH   5   6
ATOM      6  C   UNL     1      -0.222  -8.481   4.420  1.00  0.00     0.053 C 
BRANCH   6   7
ATOM      7  C   UNL     1      -0.028  -6.996   4.372  1.00  0.00     0.041 C 
ATOM      8  O   UNL     1      -0.743  -6.239   5.078  1.00  0.00    -0.550 OA
ATOM      9  O   UNL     1       0.922  -6.447   3.519  1.00  0.00    -0.550 OA
ENDBRANCH   6   7
ENDBRANCH   5   6
ENDBRANCH   4   5
ENDBRANCH   3   4
ENDBRANCH   2   3
ENDBRANCH   1   2
BRANCH   1  10
ATOM     10  C   UNL     1      -5.480  -6.510   3.650  1.00  0.00     0.000 C 
BRANCH  10  11
ATOM     11  C   UNL     1      -6.599  -7.512   3.979  1.00  0.00    -0.000 C 
BRANCH  11  12
ATOM     12  C   UNL     1      -7.124  -8.241   2.730  1.00  0.00    -0.000 C 
BRANCH  12  13
ATOM     13  C   UNL     1      -6.638  -9.699   2.638  1.00  0.00    -0.000 C 
BRANCH  13  14
ATOM     14  C   UNL     1      -5.614  -9.976   1.523  1.00  0.00    -0.000 C 
BRANCH  14  15
ATOM     15  C   UNL     1      -5.319  -8.742   0.660  1.00  0.00    -0.003 C 
ATOM     16  C   UNL     1      -6.215  -8.704  -0.574  1.00  0.00     0.004 C 
ENDBRANCH  14  15
ENDBRANCH  13  14
ENDBRANCH  12  13
ENDBRANCH  11  12
ENDBRANCH  10  11
ENDBRANCH   1  10
TORSDOF 12
ENDMDL
MODEL 2
REMARK VINA RESULT:    -2.266      1.006      2.796
REMARK INTER + INTRA:          -5.456
REMARK INTER:                  -4.101
REMARK INTRA:                  -1.355
REMARK UNBOUND:                -1.600
REMARK SMILES CCCCCCCCCCCCCC(=O)[O-]
REMARK SMILES IDX 8 1 9 2 10 3 11 4 12 5 13 6 14 7 15 8 16 9 7 10 6 11 5 12
REMARK SMILES IDX 4 13 3 14 2 15 1 16
REMARK H PARENT
REMARK Flexibility Score: inf
ROOT
ATOM      1  C   UNL     1      -3.852 -10.762   2.246  1.00  0.00     0.000 C 
ENDROOT
BRANCH   1   2
ATOM      2  C   UNL     1      -3.854 -10.824   3.782  1.00  0.00     0.000 C 
BRANCH   2   3
ATOM      3  C   UNL     1      -2.726  -9.987   4.409  1.00  0.00     0.000 C 
BRANCH   3   4
ATOM      4  C   UNL     1      -2.152  -8.947   3.433  1.00  0.00     0.000 C 
BRANCH   4   5
ATOM      5  C   UNL     1      -0.614  -8.952   3.395  1.00  0.00     0.006 C 
BRANCH   5   6
ATOM      6  C   UNL     1      -0.002  -8.239   4.607  1.00  0.00     0.053 C 
BRANCH   6   7
ATOM      7  C   UNL     1       0.173  -6.772   4.355  1.00  0.00     0.041 C 
ATOM      8  O   UNL     1       0.973  -6.371   3.470  1.00  0.00    -0.550 OA
ATOM      9  O   UNL     1      -0.525  -5.848   5.122  1.00  0.00    -0.550 OA
ENDBRANCH   6   7
ENDBRANCH   5   6
ENDBRANCH   4   5
ENDBRANCH   3   4
ENDBRANCH   2   3
ENDBRANCH   1   2
BRANCH   1  10
ATOM     10  C   UNL     1      -5.270 -10.832   1.649  1.00  0.00     0.000 C 
BRANCH  10  11
ATOM     11  C   UNL     1      -5.546  -9.693   0.654  1.00  0.00    -0.000 C 
BRANCH  11  12
ATOM     12  C   UNL     1      -6.624  -8.719   1.157  1.00  0.00    -0.000 C 
BRANCH  12  13
ATOM     13  C   UNL     1      -6.907  -8.863   2.663  1.00  0.00    -0.000 C 
BRANCH  13  14
ATOM     14  C   UNL     1      -6.411  -7.696   3.535  1.00  0.00    -0.000 C 
BRANCH  14  15
ATOM     15  C   UNL     1      -5.087  -7.098   3.040  1.00  0.00    -0.003 C 
ATOM     16  C   UNL     1      -4.886  -5.684   3.577  1.00  0.00     0.004 C 
ENDBRANCH  14  15
ENDBRANCH  13  14
ENDBRANCH  12  13
ENDBRANCH  11  12
ENDBRANCH  10  11
ENDBRANCH   1  10
TORSDOF 12
ENDMDL
MODEL 3
REMARK VINA RESULT:    -2.166      1.021      1.879
REMARK INTER + INTRA:          -5.286
REMARK INTER:                  -4.167
REMARK INTRA:                  -1.119
REMARK UNBOUND:                -1.600
REMARK SMILES CCCCCCCCCCCCCC(=O)[O-]
REMARK SMILES IDX 8 1 9 2 10 3 11 4 12 5 13 6 14 7 15 8 16 9 7 10 6 11 5 12
REMARK SMILES IDX 4 13 3 14 2 15 1 16
REMARK H PARENT
REMARK Flexibility Score: inf
ROOT
ATOM      1  C   UNL     1      -3.398  -9.428   2.771  1.00  0.00     0.000 C 
ENDROOT
BRANCH   1   2
ATOM      2  C   UNL     1      -2.379 -10.443   3.316  1.00  0.00     0.000 C 
BRANCH   2   3
ATOM      3  C   UNL     1      -0.928  -9.945   3.200  1.00  0.00     0.000 C 
BRANCH   3   4
ATOM      4  C   UNL     1      -0.150 -10.088   4.519  1.00  0.00     0.000 C 
BRANCH   4   5
ATOM      5  C   UNL     1       0.378  -8.742   5.047  1.00  0.00     0.006 C 
BRANCH   5   6
ATOM      6  C   UNL     1      -0.664  -7.623   4.923  1.00  0.00     0.053 C 
BRANCH   6   7
ATOM      7  C   UNL     1      -0.036  -6.328   4.504  1.00  0.00     0.041 C 
ATOM      8  O   UNL     1      -0.302  -5.264   5.123  1.00  0.00    -0.550 OA
ATOM      9  O   UNL     1       0.817  -6.292   3.409  1.00  0.00    -0.550 OA
ENDBRANCH   6   7
ENDBRANCH   5   6
ENDBRANCH   4   5
ENDBRANCH   3   4
ENDBRANCH   2   3
ENDBRANCH   1   2
BRANCH   1  10
ATOM     10  C   UNL     1      -3.810  -8.381   3.821  1.00  0.00     0.000 C 
BRANCH  10  11
ATOM     11  C   UNL     1      -4.951  -7.474   3.332  1.00  0.00    -0.000 C 
BRANCH  11  12
ATOM     12  C   UNL     1      -6.330  -8.142   3.459  1.00  0.00    -0.000 C 
BRANCH  12  13
ATOM     13  C   UNL     1      -7.056  -8.282   2.108  1.00  0.00    -0.000 C 
BRANCH  13  14
ATOM     14  C   UNL     1      -7.105  -9.712   1.540  1.00  0.00    -0.000 C 
BRANCH  14  15
ATOM     15  C   UNL     1      -6.030  -9.972   0.476  1.00  0.00    -0.003 C 
ATOM     16  C   UNL     1      -5.537  -8.665  -0.141  1.00  0.00     0.004 C 
ENDBRANCH  14  15
ENDBRANCH  13  14
ENDBRANCH  12  13
ENDBRANCH  11  12
ENDBRANCH  10  11
ENDBRANCH   1  10
TORSDOF 12
ENDMDL
MODEL 4
REMARK VINA RESULT:    -2.121      3.235      6.380
REMARK INTER + INTRA:          -5.210
REMARK INTER:                  -3.829
REMARK INTRA:                  -1.381
REMARK UNBOUND:                -1.600
REMARK SMILES CCCCCCCCCCCCCC(=O)[O-]
REMARK SMILES IDX 8 1 9 2 10 3 11 4 12 5 13 6 14 7 15 8 16 9 7 10 6 11 5 12
REMARK SMILES IDX 4 13 3 14 2 15 1 16
REMARK H PARENT
REMARK Flexibility Score: inf
ROOT
ATOM      1  C   UNL     1      -3.582  -7.709   3.993  1.00  0.00     0.000 C 
ENDROOT
BRANCH   1   2
ATOM      2  C   UNL     1      -4.559  -7.825   2.811  1.00  0.00     0.000 C 
BRANCH   2   3
ATOM      3  C   UNL     1      -6.030  -7.857   3.260  1.00  0.00     0.000 C 
BRANCH   3   4
ATOM      4  C   UNL     1      -6.584  -9.288   3.360  1.00  0.00     0.000 C 
BRANCH   4   5
ATOM      5  C   UNL     1      -6.149 -10.178   2.183  1.00  0.00     0.006 C 
BRANCH   5   6
ATOM      6  C   UNL     1      -7.124 -10.094   1.002  1.00  0.00     0.053 C 
BRANCH   6   7
ATOM      7  C   UNL     1      -6.423  -9.725  -0.269  1.00  0.00     0.041 C 
ATOM      8  O   UNL     1      -6.097  -8.529  -0.490  1.00  0.00    -0.550 OA
ATOM      9  O   UNL     1      -6.161 -10.697  -1.226  1.00  0.00    -0.550 OA
ENDBRANCH   6   7
ENDBRANCH   5   6
ENDBRANCH   4   5
ENDBRANCH   3   4
ENDBRANCH   2   3
ENDBRANCH   1   2
BRANCH   1  10
ATOM     10  C   UNL     1      -3.066  -9.079   4.470  1.00  0.00     0.000 C 
BRANCH  10  11
ATOM     11  C   UNL     1      -2.326  -9.847   3.363  1.00  0.00    -0.000 C 
BRANCH  11  12
ATOM     12  C   UNL     1      -0.899  -9.321   3.134  1.00  0.00    -0.000 C 
BRANCH  12  13
ATOM     13  C   UNL     1      -0.030  -9.370   4.404  1.00  0.00    -0.000 C 
BRANCH  13  14
ATOM     14  C   UNL     1       0.483  -8.004   4.896  1.00  0.00    -0.000 C 
BRANCH  14  15
ATOM     15  C   UNL     1      -0.032  -6.831   4.051  1.00  0.00    -0.003 C 
ATOM     16  C   UNL     1      -0.171  -5.565   4.892  1.00  0.00     0.004 C 
ENDBRANCH  14  15
ENDBRANCH  13  14
ENDBRANCH  12  13
ENDBRANCH  11  12
ENDBRANCH  10  11
ENDBRANCH   1  10
TORSDOF 12
ENDMDL
MODEL 5
REMARK VINA RESULT:    -2.079      2.072      5.859
REMARK INTER + INTRA:          -5.138
REMARK INTER:                  -4.238
REMARK INTRA:                  -0.900
REMARK UNBOUND:                -1.600
REMARK SMILES CCCCCCCCCCCCCC(=O)[O-]
REMARK SMILES IDX 8 1 9 2 10 3 11 4 12 5 13 6 14 7 15 8 16 9 7 10 6 11 5 12
REMARK SMILES IDX 4 13 3 14 2 15 1 16
REMARK H PARENT
REMARK Flexibility Score: inf
ROOT
ATOM      1  C   UNL     1      -3.538 -10.156   3.031  1.00  0.00     0.000 C 
ENDROOT
BRANCH   1   2
ATOM      2  C   UNL     1      -4.477 -10.754   1.970  1.00  0.00     0.000 C 
BRANCH   2   3
ATOM      3  C   UNL     1      -5.601  -9.786   1.561  1.00  0.00     0.000 C 
BRANCH   3   4
ATOM      4  C   UNL     1      -6.533  -9.438   2.732  1.00  0.00     0.000 C 
BRANCH   4   5
ATOM      5  C   UNL     1      -7.009  -7.975   2.700  1.00  0.00     0.006 C 
BRANCH   5   6
ATOM      6  C   UNL     1      -6.673  -7.228   3.997  1.00  0.00     0.053 C 
BRANCH   6   7
ATOM      7  C   UNL     1      -5.609  -6.195   3.780  1.00  0.00     0.041 C 
ATOM      8  O   UNL     1      -4.434  -6.545   3.491  1.00  0.00    -0.550 OA
ATOM      9  O   UNL     1      -5.908  -4.847   3.931  1.00  0.00    -0.550 OA
ENDBRANCH   6   7
ENDBRANCH   5   6
ENDBRANCH   4   5
ENDBRANCH   3   4
ENDBRANCH   2   3
ENDBRANCH   1   2
BRANCH   1  10
ATOM     10  C   UNL     1      -2.095 -10.678   2.906  1.00  0.00     0.000 C 
BRANCH  10  11
ATOM     11  C   UNL     1      -1.146 -10.033   3.930  1.00  0.00    -0.000 C 
BRANCH  11  12
ATOM     12  C   UNL     1      -1.890  -9.169   4.961  1.00  0.00    -0.000 C 
BRANCH  12  13
ATOM     13  C   UNL     1      -1.415  -7.704   4.971  1.00  0.00    -0.000 C 
BRANCH  13  14
ATOM     14  C   UNL     1       0.047  -7.490   4.539  1.00  0.00    -0.000 C 
BRANCH  14  15
ATOM     15  C   UNL     1       0.341  -6.045   4.115  1.00  0.00    -0.003 C 
ATOM     16  C   UNL     1      -0.559  -5.059   4.854  1.00  0.00     0.004 C 
ENDBRANCH  14  15
ENDBRANCH  13  14
ENDBRANCH  12  13
ENDBRANCH  11  12
ENDBRANCH  10  11
ENDBRANCH   1  10
TORSDOF 12
ENDMDL
MODEL 6
REMARK VINA RESULT:    -1.909      2.304      5.633
REMARK INTER + INTRA:          -4.848
REMARK INTER:                  -3.429
REMARK INTRA:                  -1.419
REMARK UNBOUND:                -1.600
REMARK SMILES CCCCCCCCCCCCCC(=O)[O-]
REMARK SMILES IDX 8 1 9 2 10 3 11 4 12 5 13 6 14 7 15 8 16 9 7 10 6 11 5 12
REMARK SMILES IDX 4 13 3 14 2 15 1 16
REMARK H PARENT
REMARK Flexibility Score: inf
ROOT
ATOM      1  C   UNL     1      -4.202  -9.168   2.149  1.00  0.00     0.000 C 
ENDROOT
BRANCH   1   2
ATOM      2  C   UNL     1      -5.308  -9.758   1.257  1.00  0.00     0.000 C 
BRANCH   2   3
ATOM      3  C   UNL     1      -6.702  -9.662   1.901  1.00  0.00     0.000 C 
BRANCH   3   4
ATOM      4  C   UNL     1      -6.973  -8.279   2.514  1.00  0.00     0.000 C 
BRANCH   4   5
ATOM      5  C   UNL     1      -7.121  -8.325   4.045  1.00  0.00     0.006 C 
BRANCH   5   6
ATOM      6  C   UNL     1      -6.121  -7.401   4.751  1.00  0.00     0.053 C 
BRANCH   6   7
ATOM      7  C   UNL     1      -6.043  -6.060   4.088  1.00  0.00     0.041 C 
ATOM      8  O   UNL     1      -4.998  -5.713   3.478  1.00  0.00    -0.550 OA
ATOM      9  O   UNL     1      -7.114  -5.180   4.172  1.00  0.00    -0.550 OA
ENDBRANCH   6   7
ENDBRANCH   5   6
ENDBRANCH   4   5
ENDBRANCH   3   4
ENDBRANCH   2   3
ENDBRANCH   1   2
BRANCH   1  10
ATOM     10  C   UNL     1      -3.323 -10.254   2.797  1.00  0.00     0.000 C 
BRANCH  10  11
ATOM     11  C   UNL     1      -3.634 -10.448   4.290  1.00  0.00    -0.000 C 
BRANCH  11  12
ATOM     12  C   UNL     1      -2.382 -10.790   5.114  1.00  0.00    -0.000 C 
BRANCH  12  13
ATOM     13  C   UNL     1      -1.075 -10.621   4.317  1.00  0.00    -0.000 C 
BRANCH  13  14
ATOM     14  C   UNL     1      -0.165  -9.473   4.792  1.00  0.00    -0.000 C 
BRANCH  14  15
ATOM     15  C   UNL     1      -0.432  -8.153   4.057  1.00  0.00    -0.003 C 
ATOM     16  C   UNL     1      -1.413  -7.278   4.833  1.00  0.00     0.004 C 
ENDBRANCH  14  15
ENDBRANCH  13  14
ENDBRANCH  12  13
ENDBRANCH  11  12
ENDBRANCH  10  11
ENDBRANCH   1  10
TORSDOF 12
ENDMDL
MODEL 7
REMARK VINA RESULT:    -1.881      2.541      4.288
REMARK INTER + INTRA:          -4.801
REMARK INTER:                  -3.713
REMARK INTRA:                  -1.087
REMARK UNBOUND:                -1.600
REMARK SMILES CCCCCCCCCCCCCC(=O)[O-]
REMARK SMILES IDX 8 1 9 2 10 3 11 4 12 5 13 6 14 7 15 8 16 9 7 10 6 11 5 12
REMARK SMILES IDX 4 13 3 14 2 15 1 16
REMARK H PARENT
REMARK Flexibility Score: inf
ROOT
ATOM      1  C   UNL     1      -0.810  -9.323   2.883  1.00  0.00     0.000 C 
ENDROOT
BRANCH   1   2
ATOM      2  C   UNL     1      -0.478  -8.523   4.153  1.00  0.00     0.000 C 
BRANCH   2   3
ATOM      3  C   UNL     1      -1.709  -8.289   5.045  1.00  0.00     0.000 C 
BRANCH   3   4
ATOM      4  C   UNL     1      -2.622  -7.175   4.507  1.00  0.00     0.000 C 
BRANCH   4   5
ATOM      5  C   UNL     1      -4.081  -7.632   4.334  1.00  0.00     0.006 C 
BRANCH   5   6
ATOM      6  C   UNL     1      -4.846  -6.763   3.328  1.00  0.00     0.053 C 
BRANCH   6   7
ATOM      7  C   UNL     1      -5.995  -6.051   3.975  1.00  0.00     0.041 C 
ATOM      8  O   UNL     1      -6.929  -6.707   4.506  1.00  0.00    -0.550 OA
ATOM      9  O   UNL     1      -6.051  -4.664   3.959  1.00  0.00    -0.550 OA
ENDBRANCH   6   7
ENDBRANCH   5   6
ENDBRANCH   4   5
ENDBRANCH   3   4
ENDBRANCH   2   3
ENDBRANCH   1   2
BRANCH   1  10
ATOM     10  C   UNL     1      -1.343 -10.734   3.194  1.00  0.00     0.000 C 
BRANCH  10  11
ATOM     11  C   UNL     1      -2.529 -11.125   2.297  1.00  0.00    -0.000 C 
BRANCH  11  12
ATOM     12  C   UNL     1      -3.804 -10.330   2.627  1.00  0.00    -0.000 C 
BRANCH  12  13
ATOM     13  C   UNL     1      -5.086 -11.016   2.119  1.00  0.00    -0.000 C 
BRANCH  13  14
ATOM     14  C   UNL     1      -6.181 -10.059   1.613  1.00  0.00    -0.000 C 
BRANCH  14  15
ATOM     15  C   UNL     1      -5.659  -9.035   0.597  1.00  0.00    -0.003 C 
ATOM     16  C   UNL     1      -6.611  -8.899  -0.588  1.00  0.00     0.004 C 
ENDBRANCH  14  15
ENDBRANCH  13  14
ENDBRANCH  12  13
ENDBRANCH  11  12
ENDBRANCH  10  11
ENDBRANCH   1  10
TORSDOF 12
ENDMDL
