MODEL 1
REMARK VINA RESULT:    -3.764      0.000      0.000
REMARK INTER + INTRA:          -7.336
REMARK INTER:                  -5.965
REMARK INTRA:                  -1.372
REMARK UNBOUND:                -1.372
REMARK SMILES CCCCCCCCCCCC(=O)[O-]
REMARK SMILES IDX 7 1 8 2 9 3 10 4 11 5 12 6 13 7 14 8 6 9 5 10 4 11 3 12 2 13
REMARK SMILES IDX 1 14
REMARK H PARENT
REMARK Flexibility Score: inf
ROOT
ATOM      1  C   UNL     1      99.330   3.712 -29.365  1.00  0.00     0.000 C 
ENDROOT
BRANCH   1   2
ATOM      2  C   UNL     1      98.706   2.309 -29.271  1.00  0.00     0.000 C 
BRANCH   2   3
ATOM      3  C   UNL     1      99.643   1.216 -28.721  1.00  0.00     0.000 C 
BRANCH   3   4
ATOM      4  C   UNL     1      99.054   0.476 -27.512  1.00  0.00     0.006 C 
BRANCH   4   5
ATOM      5  C   UNL     1     100.010   0.533 -26.316  1.00  0.00     0.053 C 
BRANCH   5   6
ATOM      6  C   UNL     1      99.571  -0.420 -25.249  1.00  0.00     0.041 C 
ATOM      7  O   UNL     1      98.735  -1.324 -25.512  1.00  0.00    -0.550 OA
ATOM      8  O   UNL     1     100.048  -0.280 -23.952  1.00  0.00    -0.550 OA
ENDBRANCH   5   6
ENDBRANCH   4   5
ENDBRANCH   3   4
ENDBRANCH   2   3
ENDBRANCH   1   2
BRANCH   1   9
ATOM      9  C   UNL     1      99.845   4.232 -28.015  1.00  0.00     0.000 C 
BRANCH   9  10
ATOM     10  C   UNL     1      98.680   4.658 -27.110  1.00  0.00    -0.000 C 
BRANCH  10  11
ATOM     11  C   UNL     1      98.580   3.807 -25.834  1.00  0.00    -0.000 C 
BRANCH  11  12
ATOM     12  C   UNL     1      97.196   3.157 -25.663  1.00  0.00    -0.000 C 
BRANCH  12  13
ATOM     13  C   UNL     1      96.192   3.621 -26.729  1.00  0.00    -0.003 C 
ATOM     14  C   UNL     1      94.824   3.967 -26.141  1.00  0.00     0.004 C 
ENDBRANCH  12  13
ENDBRANCH  11  12
ENDBRANCH  10  11
ENDBRANCH   9  10
ENDBRANCH   1   9
TORSDOF 10
ENDMDL
MODEL 2
REMARK VINA RESULT:    -3.735      2.494      4.522
REMARK INTER + INTRA:          -7.290
REMARK INTER:                  -5.796
REMARK INTRA:                  -1.494
REMARK UNBOUND:                -1.372
REMARK SMILES CCCCCCCCCCCC(=O)[O-]
REMARK SMILES IDX 7 1 8 2 9 3 10 4 11 5 12 6 13 7 14 8 6 9 5 10 4 11 3 12 2 13
REMARK SMILES IDX 1 14
REMARK H PARENT
REMARK Flexibility Score: inf
ROOT
ATOM      1  C   UNL     1      99.120   4.478 -29.131  1.00  0.00     0.000 C 
ENDROOT
BRANCH   1   2
ATOM      2  C   UNL     1      99.655   4.769 -27.718  1.00  0.00     0.000 C 
BRANCH   2   3
ATOM      3  C   UNL     1      98.715   4.356 -26.569  1.00  0.00     0.000 C 
BRANCH   3   4
ATOM      4  C   UNL     1      97.240   4.309 -26.990  1.00  0.00     0.006 C 
BRANCH   4   5
ATOM      5  C   UNL     1      96.624   2.941 -26.676  1.00  0.00     0.053 C 
BRANCH   5   6
ATOM      6  C   UNL     1      95.193   3.093 -26.265  1.00  0.00     0.041 C 
ATOM      7  O   UNL     1      94.281   3.083 -27.132  1.00  0.00    -0.550 OA
ATOM      8  O   UNL     1      94.872   3.296 -24.929  1.00  0.00    -0.550 OA
ENDBRANCH   5   6
ENDBRANCH   4   5
ENDBRANCH   3   4
ENDBRANCH   2   3
ENDBRANCH   1   2
BRANCH   1   9
ATOM      9  C   UNL     1      99.645   3.157 -29.713  1.00  0.00     0.000 C 
BRANCH   9  10
ATOM     10  C   UNL     1      98.549   2.082 -29.711  1.00  0.00    -0.000 C 
BRANCH  10  11
ATOM     11  C   UNL     1      98.942   0.838 -28.899  1.00  0.00    -0.000 C 
BRANCH  11  12
ATOM     12  C   UNL     1     100.113   1.104 -27.937  1.00  0.00    -0.000 C 
BRANCH  12  13
ATOM     13  C   UNL     1      99.728   0.884 -26.467  1.00  0.00    -0.003 C 
ATOM     14  C   UNL     1      98.970  -0.424 -26.244  1.00  0.00     0.004 C 
ENDBRANCH  12  13
ENDBRANCH  11  12
ENDBRANCH  10  11
ENDBRANCH   9  10
ENDBRANCH   1   9
TORSDOF 10
ENDMDL
MODEL 3
REMARK VINA RESULT:    -3.664      2.904      4.368
REMARK INTER + INTRA:          -7.178
REMARK INTER:                  -5.992
REMARK INTRA:                  -1.187
REMARK UNBOUND:                -1.372
REMARK SMILES CCCCCCCCCCCC(=O)[O-]
REMARK SMILES IDX 7 1 8 2 9 3 10 4 11 5 12 6 13 7 14 8 6 9 5 10 4 11 3 12 2 13
REMARK SMILES IDX 1 14
REMARK H PARENT
REMARK Flexibility Score: inf
ROOT
ATOM      1  C   UNL     1      98.619   0.114 -25.789  1.00  0.00     0.000 C 
ENDROOT
BRANCH   1   2
ATOM      2  C   UNL     1     100.021   0.530 -26.268  1.00  0.00     0.000 C 
BRANCH   2   3
ATOM      3  C   UNL     1     100.082   1.075 -27.707  1.00  0.00     0.000 C 
BRANCH   3   4
ATOM      4  C   UNL     1      98.920   0.586 -28.582  1.00  0.00     0.006 C 
BRANCH   4   5
ATOM      5  C   UNL     1      99.231   0.787 -30.069  1.00  0.00     0.053 C 
BRANCH   5   6
ATOM      6  C   UNL     1      98.109   1.510 -30.745  1.00  0.00     0.041 C 
ATOM      7  O   UNL     1      97.693   1.124 -31.869  1.00  0.00    -0.550 OA
ATOM      8  O   UNL     1      97.556   2.640 -30.157  1.00  0.00    -0.550 OA
ENDBRANCH   5   6
ENDBRANCH   4   5
ENDBRANCH   3   4
ENDBRANCH   2   3
ENDBRANCH   1   2
BRANCH   1   9
ATOM      9  C   UNL     1      97.832   1.271 -25.158  1.00  0.00     0.000 C 
BRANCH   9  10
ATOM     10  C   UNL     1      98.781   2.359 -24.634  1.00  0.00    -0.000 C 
BRANCH  10  11
ATOM     11  C   UNL     1      98.419   3.760 -25.152  1.00  0.00    -0.000 C 
BRANCH  11  12
ATOM     12  C   UNL     1      98.062   3.764 -26.649  1.00  0.00    -0.000 C 
BRANCH  12  13
ATOM     13  C   UNL     1      98.635   4.983 -27.387  1.00  0.00    -0.003 C 
ATOM     14  C   UNL     1      99.773   4.617 -28.338  1.00  0.00     0.004 C 
ENDBRANCH  12  13
ENDBRANCH  11  12
ENDBRANCH  10  11
ENDBRANCH   9  10
ENDBRANCH   1   9
TORSDOF 10
ENDMDL
MODEL 4
REMARK VINA RESULT:    -3.645      2.837      5.083
REMARK INTER + INTRA:          -7.147
REMARK INTER:                  -5.668
REMARK INTRA:                  -1.479
REMARK UNBOUND:                -1.372
REMARK SMILES CCCCCCCCCCCC(=O)[O-]
REMARK SMILES IDX 7 1 8 2 9 3 10 4 11 5 12 6 13 7 14 8 6 9 5 10 4 11 3 12 2 13
REMARK SMILES IDX 1 14
REMARK H PARENT
REMARK Flexibility Score: inf
ROOT
ATOM      1  C   UNL     1     100.001   1.080 -25.640  1.00  0.00     0.000 C 
ENDROOT
BRANCH   1   2
ATOM      2  C   UNL     1      99.084   1.844 -24.668  1.00  0.00     0.000 C 
BRANCH   2   3
ATOM      3  C   UNL     1      98.404   3.092 -25.262  1.00  0.00     0.000 C 
BRANCH   3   4
ATOM      4  C   UNL     1      96.884   2.933 -25.410  1.00  0.00     0.006 C 
BRANCH   4   5
ATOM      5  C   UNL     1      96.376   3.666 -26.655  1.00  0.00     0.053 C 
BRANCH   5   6
ATOM      6  C   UNL     1      94.881   3.749 -26.641  1.00  0.00     0.041 C 
ATOM      7  O   UNL     1      94.285   4.247 -25.651  1.00  0.00    -0.550 OA
ATOM      8  O   UNL     1      94.146   3.232 -27.699  1.00  0.00    -0.550 OA
ENDBRANCH   5   6
ENDBRANCH   4   5
ENDBRANCH   3   4
ENDBRANCH   2   3
ENDBRANCH   1   2
BRANCH   1   9
ATOM      9  C   UNL     1      99.238   0.448 -26.814  1.00  0.00     0.000 C 
BRANCH   9  10
ATOM     10  C   UNL     1      99.700   1.044 -28.152  1.00  0.00    -0.000 C 
BRANCH  10  11
ATOM     11  C   UNL     1      98.568   1.771 -28.897  1.00  0.00    -0.000 C 
BRANCH  11  12
ATOM     12  C   UNL     1      98.963   3.193 -29.331  1.00  0.00    -0.000 C 
BRANCH  12  13
ATOM     13  C   UNL     1     100.125   3.760 -28.502  1.00  0.00    -0.003 C 
ATOM     14  C   UNL     1      99.855   5.176 -27.997  1.00  0.00     0.004 C 
ENDBRANCH  12  13
ENDBRANCH  11  12
ENDBRANCH  10  11
ENDBRANCH   9  10
ENDBRANCH   1   9
TORSDOF 10
ENDMDL
MODEL 5
REMARK VINA RESULT:    -3.598      1.452      3.615
REMARK INTER + INTRA:          -7.073
REMARK INTER:                  -5.743
REMARK INTRA:                  -1.330
REMARK UNBOUND:                -1.372
REMARK SMILES CCCCCCCCCCCC(=O)[O-]
REMARK SMILES IDX 7 1 8 2 9 3 10 4 11 5 12 6 13 7 14 8 6 9 5 10 4 11 3 12 2 13
REMARK SMILES IDX 1 14
REMARK H PARENT
REMARK Flexibility Score: inf
ROOT
ATOM      1  C   UNL     1      99.095   4.489 -26.956  1.00  0.00     0.000 C 
ENDROOT
BRANCH   1   2
ATOM      2  C   UNL     1      98.524   3.802 -25.703  1.00  0.00     0.000 C 
BRANCH   2   3
ATOM      3  C   UNL     1      97.190   3.063 -25.917  1.00  0.00     0.000 C 
BRANCH   3   4
ATOM      4  C   UNL     1      96.762   2.233 -24.699  1.00  0.00     0.006 C 
BRANCH   4   5
ATOM      5  C   UNL     1      97.348   0.819 -24.766  1.00  0.00     0.053 C 
BRANCH   5   6
ATOM      6  C   UNL     1      98.468   0.669 -23.785  1.00  0.00     0.041 C 
ATOM      7  O   UNL     1      98.223   0.400 -22.580  1.00  0.00    -0.550 OA
ATOM      8  O   UNL     1      99.780   0.873 -24.192  1.00  0.00    -0.550 OA
ENDBRANCH   5   6
ENDBRANCH   4   5
ENDBRANCH   3   4
ENDBRANCH   2   3
ENDBRANCH   1   2
BRANCH   1   9
ATOM      9  C   UNL     1      98.008   4.930 -27.947  1.00  0.00     0.000 C 
BRANCH   9  10
ATOM     10  C   UNL     1      98.194   4.244 -29.307  1.00  0.00    -0.000 C 
BRANCH  10  11
ATOM     11  C   UNL     1      99.647   3.810 -29.557  1.00  0.00    -0.000 C 
BRANCH  11  12
ATOM     12  C   UNL     1      99.764   2.327 -29.952  1.00  0.00    -0.000 C 
BRANCH  12  13
ATOM     13  C   UNL     1      98.743   1.442 -29.221  1.00  0.00    -0.003 C 
ATOM     14  C   UNL     1      99.311   0.812 -27.950  1.00  0.00     0.004 C 
ENDBRANCH  12  13
ENDBRANCH  11  12
ENDBRANCH  10  11
ENDBRANCH   9  10
ENDBRANCH   1   9
TORSDOF 10
ENDMDL
MODEL 6
REMARK VINA RESULT:    -3.597      4.561      6.844
REMARK INTER + INTRA:          -7.071
REMARK INTER:                  -6.210
REMARK INTRA:                  -0.861
REMARK UNBOUND:                -1.372
REMARK SMILES CCCCCCCCCCCC(=O)[O-]
REMARK SMILES IDX 7 1 8 2 9 3 10 4 11 5 12 6 13 7 14 8 6 9 5 10 4 11 3 12 2 13
REMARK SMILES IDX 1 14
REMARK H PARENT
REMARK Flexibility Score: inf
ROOT
ATOM      1  C   UNL     1      95.991   3.095 -26.407  1.00  0.00     0.000 C 
ENDROOT
BRANCH   1   2
ATOM      2  C   UNL     1      94.950   4.228 -26.396  1.00  0.00     0.000 C 
BRANCH   2   3
ATOM      3  C   UNL     1      93.758   4.007 -25.445  1.00  0.00     0.000 C 
BRANCH   3   4
ATOM      4  C   UNL     1      92.985   5.299 -25.144  1.00  0.00     0.006 C 
BRANCH   4   5
ATOM      5  C   UNL     1      92.896   6.187 -26.390  1.00  0.00     0.053 C 
BRANCH   5   6
ATOM      6  C   UNL     1      91.748   5.765 -27.252  1.00  0.00     0.041 C 
ATOM      7  O   UNL     1      91.829   5.856 -28.504  1.00  0.00    -0.550 OA
ATOM      8  O   UNL     1      90.569   5.317 -26.669  1.00  0.00    -0.550 OA
ENDBRANCH   5   6
ENDBRANCH   4   5
ENDBRANCH   3   4
ENDBRANCH   2   3
ENDBRANCH   1   2
BRANCH   1   9
ATOM      9  C   UNL     1      96.815   3.025 -25.113  1.00  0.00     0.000 C 
BRANCH   9  10
ATOM     10  C   UNL     1      98.266   3.462 -25.361  1.00  0.00    -0.000 C 
BRANCH  10  11
ATOM     11  C   UNL     1      98.616   3.527 -26.856  1.00  0.00    -0.000 C 
BRANCH  11  12
ATOM     12  C   UNL     1      99.128   4.913 -27.285  1.00  0.00    -0.000 C 
BRANCH  12  13
ATOM     13  C   UNL     1      98.647   5.308 -28.690  1.00  0.00    -0.003 C 
ATOM     14  C   UNL     1      97.974   4.154 -29.430  1.00  0.00     0.004 C 
ENDBRANCH  12  13
ENDBRANCH  11  12
ENDBRANCH  10  11
ENDBRANCH   9  10
ENDBRANCH   1   9
TORSDOF 10
ENDMDL
MODEL 7
REMARK VINA RESULT:    -3.592      3.067      5.046
REMARK INTER + INTRA:          -7.063
REMARK INTER:                  -5.737
REMARK INTRA:                  -1.325
REMARK UNBOUND:                -1.372
REMARK SMILES CCCCCCCCCCCC(=O)[O-]
REMARK SMILES IDX 7 1 8 2 9 3 10 4 11 5 12 6 13 7 14 8 6 9 5 10 4 11 3 12 2 13
REMARK SMILES IDX 1 14
REMARK H PARENT
REMARK Flexibility Score: inf
ROOT
ATOM      1  C   UNL     1      97.963   4.539 -27.245  1.00  0.00     0.000 C 
ENDROOT
BRANCH   1   2
ATOM      2  C   UNL     1      98.612   4.001 -25.958  1.00  0.00     0.000 C 
BRANCH   2   3
ATOM      3  C   UNL     1      97.684   3.153 -25.067  1.00  0.00     0.000 C 
BRANCH   3   4
ATOM      4  C   UNL     1      96.370   2.772 -25.763  1.00  0.00     0.006 C 
BRANCH   4   5
ATOM      5  C   UNL     1      95.166   3.088 -24.870  1.00  0.00     0.053 C 
BRANCH   5   6
ATOM      6  C   UNL     1      94.084   3.749 -25.665  1.00  0.00     0.041 C 
ATOM      7  O   UNL     1      94.306   4.838 -26.254  1.00  0.00    -0.550 OA
ATOM      8  O   UNL     1      92.816   3.185 -25.716  1.00  0.00    -0.550 OA
ENDBRANCH   5   6
ENDBRANCH   4   5
ENDBRANCH   3   4
ENDBRANCH   2   3
ENDBRANCH   1   2
BRANCH   1   9
ATOM      9  C   UNL     1      98.989   5.061 -28.261  1.00  0.00     0.000 C 
BRANCH   9  10
ATOM     10  C   UNL     1      99.597   3.906 -29.071  1.00  0.00    -0.000 C 
BRANCH  10  11
ATOM     11  C   UNL     1      98.528   3.026 -29.739  1.00  0.00    -0.000 C 
BRANCH  11  12
ATOM     12  C   UNL     1      98.652   1.544 -29.346  1.00  0.00    -0.000 C 
BRANCH  12  13
ATOM     13  C   UNL     1      99.716   1.309 -28.263  1.00  0.00    -0.003 C 
ATOM     14  C   UNL     1      99.212   0.426 -27.122  1.00  0.00     0.004 C 
ENDBRANCH  12  13
ENDBRANCH  11  12
ENDBRANCH  10  11
ENDBRANCH   9  10
ENDBRANCH   1   9
TORSDOF 10
ENDMDL
MODEL 8
REMARK VINA RESULT:    -3.591      1.555      2.882
REMARK INTER + INTRA:          -7.062
REMARK INTER:                  -5.907
REMARK INTRA:                  -1.156
REMARK UNBOUND:                -1.372
REMARK SMILES CCCCCCCCCCCC(=O)[O-]
REMARK SMILES IDX 7 1 8 2 9 3 10 4 11 5 12 6 13 7 14 8 6 9 5 10 4 11 3 12 2 13
REMARK SMILES IDX 1 14
REMARK H PARENT
REMARK Flexibility Score: inf
ROOT
ATOM      1  C   UNL     1      98.906   0.761 -28.430  1.00  0.00     0.000 C 
ENDROOT
BRANCH   1   2
ATOM      2  C   UNL     1     100.125   1.138 -27.569  1.00  0.00     0.000 C 
BRANCH   2   3
ATOM      3  C   UNL     1     100.044   0.692 -26.097  1.00  0.00     0.000 C 
BRANCH   3   4
ATOM      4  C   UNL     1      98.970  -0.377 -25.853  1.00  0.00     0.006 C 
BRANCH   4   5
ATOM      5  C   UNL     1      97.917   0.122 -24.858  1.00  0.00     0.053 C 
BRANCH   5   6
ATOM      6  C   UNL     1      97.492  -0.985 -23.946  1.00  0.00     0.041 C 
ATOM      7  O   UNL     1      97.478  -2.174 -24.357  1.00  0.00    -0.550 OA
ATOM      8  O   UNL     1      97.066  -0.697 -22.656  1.00  0.00    -0.550 OA
ENDBRANCH   5   6
ENDBRANCH   4   5
ENDBRANCH   3   4
ENDBRANCH   2   3
ENDBRANCH   1   2
BRANCH   1   9
ATOM      9  C   UNL     1      98.759   1.641 -29.680  1.00  0.00     0.000 C 
BRANCH   9  10
ATOM     10  C   UNL     1      99.343   3.041 -29.437  1.00  0.00    -0.000 C 
BRANCH  10  11
ATOM     11  C   UNL     1      98.263   4.133 -29.392  1.00  0.00    -0.000 C 
BRANCH  11  12
ATOM     12  C   UNL     1      98.476   5.130 -28.240  1.00  0.00    -0.000 C 
BRANCH  12  13
ATOM     13  C   UNL     1      98.984   4.449 -26.960  1.00  0.00    -0.003 C 
ATOM     14  C   UNL     1      97.869   3.755 -26.178  1.00  0.00     0.004 C 
ENDBRANCH  12  13
ENDBRANCH  11  12
ENDBRANCH  10  11
ENDBRANCH   9  10
ENDBRANCH   1   9
TORSDOF 10
ENDMDL
MODEL 9
REMARK VINA RESULT:    -3.571      1.400      3.504
REMARK INTER + INTRA:          -7.030
REMARK INTER:                  -5.920
REMARK INTRA:                  -1.110
REMARK UNBOUND:                -1.372
REMARK SMILES CCCCCCCCCCCC(=O)[O-]
REMARK SMILES IDX 7 1 8 2 9 3 10 4 11 5 12 6 13 7 14 8 6 9 5 10 4 11 3 12 2 13
REMARK SMILES IDX 1 14
REMARK H PARENT
REMARK Flexibility Score: inf
ROOT
ATOM      1  C   UNL     1      97.623   3.973 -27.402  1.00  0.00     0.000 C 
ENDROOT
BRANCH   1   2
ATOM      2  C   UNL     1      97.249   3.271 -26.085  1.00  0.00     0.000 C 
BRANCH   2   3
ATOM      3  C   UNL     1      98.343   3.296 -25.001  1.00  0.00     0.000 C 
BRANCH   3   4
ATOM      4  C   UNL     1      98.943   1.911 -24.723  1.00  0.00     0.006 C 
BRANCH   4   5
ATOM      5  C   UNL     1      97.938   0.803 -25.054  1.00  0.00     0.053 C 
BRANCH   5   6
ATOM      6  C   UNL     1      98.632  -0.360 -25.692  1.00  0.00     0.041 C 
ATOM      7  O   UNL     1      99.071  -0.268 -26.867  1.00  0.00    -0.550 OA
ATOM      8  O   UNL     1      98.750  -1.561 -25.004  1.00  0.00    -0.550 OA
ENDBRANCH   5   6
ENDBRANCH   4   5
ENDBRANCH   3   4
ENDBRANCH   2   3
ENDBRANCH   1   2
BRANCH   1   9
ATOM      9  C   UNL     1      98.921   4.787 -27.301  1.00  0.00     0.000 C 
BRANCH   9  10
ATOM     10  C   UNL     1      99.957   4.297 -28.324  1.00  0.00    -0.000 C 
BRANCH  10  11
ATOM     11  C   UNL     1     100.125   2.769 -28.309  1.00  0.00    -0.000 C 
BRANCH  11  12
ATOM     12  C   UNL     1     100.026   2.149 -29.714  1.00  0.00    -0.000 C 
BRANCH  12  13
ATOM     13  C   UNL     1      98.624   1.598 -30.016  1.00  0.00    -0.003 C 
ATOM     14  C   UNL     1      98.630   0.099 -30.314  1.00  0.00     0.004 C 
ENDBRANCH  12  13
ENDBRANCH  11  12
ENDBRANCH  10  11
ENDBRANCH   9  10
ENDBRANCH   1   9
TORSDOF 10
ENDMDL
