MODEL 1
REMARK VINA RESULT:    -8.957      0.000      0.000
REMARK INTER + INTRA:         -13.855
REMARK INTER:                 -12.885
REMARK INTRA:                  -0.971
REMARK UNBOUND:                -0.971
REMARK SMILES O=c1cc(-c2ccc(O)c(O)c2)oc2cc(O[C@H]3O[C@@H](CO)[C@@H](O)[C@H](O)[C@H]3O)cc(O)c12
REMARK SMILES IDX 17 1 16 2 4 3 3 4 13 5 2 6 14 7 1 8 32 9 15 10 30 11 29 12
REMARK SMILES IDX 5 13 6 14 7 15 8 16 12 17 10 18 9 19 11 21 31 23 18 25 27 26
REMARK SMILES IDX 19 27 25 28 20 29 23 30 28 31 26 33 21 35 22 36 24 38
REMARK H PARENT 9 20 11 22 31 24 28 32 26 34 22 37 24 39
REMARK Flexibility Score: inf
ROOT
ATOM      1  O   UNL     1      -7.508 -15.615  30.356  1.00  0.00    -0.462 OA
ENDROOT
BRANCH   1   2
ATOM      2  C   UNL     1      -8.832 -16.013  30.143  1.00  0.00     0.130 A 
ATOM      3  C   UNL     1     -12.754 -18.301  31.591  1.00  0.00     0.138 A 
ATOM      4  C   UNL     1     -13.404 -18.094  30.366  1.00  0.00     0.100 A 
ATOM      5  O   UNL     1     -11.512 -17.854  31.746  1.00  0.00    -0.456 OA
ATOM      6  C   UNL     1     -12.771 -17.372  29.357  1.00  0.00     0.197 A 
ATOM      7  C   UNL     1     -10.857 -17.168  30.814  1.00  0.00     0.146 A 
ATOM      8  O   UNL     1     -13.387 -17.212  28.267  1.00  0.00    -0.289 OA
ATOM      9  C   UNL     1     -11.474 -16.849  29.574  1.00  0.00     0.107 A 
ATOM     10  C   UNL     1      -9.547 -16.758  31.083  1.00  0.00     0.094 A 
ATOM     11  C   UNL     1     -10.757 -16.034  28.647  1.00  0.00     0.134 A 
ATOM     12  C   UNL     1      -9.454 -15.628  28.955  1.00  0.00     0.093 A 
BRANCH   3  13
ATOM     13  C   UNL     1     -13.415 -19.004  32.722  1.00  0.00     0.021 A 
ATOM     14  C   UNL     1     -13.952 -18.300  33.817  1.00  0.00     0.016 A 
ATOM     15  C   UNL     1     -14.549 -18.987  34.878  1.00  0.00     0.051 A 
ATOM     16  C   UNL     1     -14.606 -20.385  34.885  1.00  0.00     0.157 A 
ATOM     17  C   UNL     1     -13.468 -20.409  32.732  1.00  0.00     0.062 A 
ATOM     18  C   UNL     1     -14.058 -21.105  33.797  1.00  0.00     0.158 A 
BRANCH  16  19
ATOM     19  O   UNL     1     -15.206 -21.010  35.979  1.00  0.00    -0.504 OA
ATOM     20  H   UNL     1     -14.951 -21.924  36.316  1.00  0.00     0.293 HD
ENDBRANCH  16  19
BRANCH  18  21
ATOM     21  O   UNL     1     -14.073 -22.500  33.736  1.00  0.00    -0.504 OA
ATOM     22  H   UNL     1     -14.177 -23.099  34.541  1.00  0.00     0.293 HD
ENDBRANCH  18  21
ENDBRANCH   3  13
BRANCH  11  23
ATOM     23  O   UNL     1     -11.271 -15.582  27.424  1.00  0.00    -0.507 OA
ATOM     24  H   UNL     1     -11.559 -14.640  27.213  1.00  0.00     0.293 HD
ENDBRANCH  11  23
ENDBRANCH   1   2
BRANCH   1  25
ATOM     25  C   UNL     1      -7.045 -14.260  30.311  1.00  0.00     0.339 C 
ATOM     26  C   UNL     1      -5.628 -14.192  29.700  1.00  0.00     0.214 C 
ATOM     27  O   UNL     1      -7.148 -13.652  31.595  1.00  0.00    -0.332 OA
ATOM     28  C   UNL     1      -5.221 -12.721  29.465  1.00  0.00     0.180 C 
ATOM     29  C   UNL     1      -6.377 -12.462  31.761  1.00  0.00     0.179 C 
ATOM     30  C   UNL     1      -5.959 -11.760  30.432  1.00  0.00     0.177 C 
BRANCH  26  31
ATOM     31  O   UNL     1      -4.711 -14.811  30.573  1.00  0.00    -0.384 OA
ATOM     32  H   UNL     1      -4.901 -15.786  30.577  1.00  0.00     0.211 HD
ENDBRANCH  26  31
BRANCH  28  33
ATOM     33  O   UNL     1      -5.497 -12.366  28.131  1.00  0.00    -0.387 OA
ATOM     34  H   UNL     1      -6.061 -13.089  27.753  1.00  0.00     0.211 HD
ENDBRANCH  28  33
BRANCH  29  35
ATOM     35  C   UNL     1      -5.225 -12.709  32.772  1.00  0.00     0.191 C 
BRANCH  35  36
ATOM     36  O   UNL     1      -5.302 -13.974  33.367  1.00  0.00    -0.394 OA
ATOM     37  H   UNL     1      -4.648 -14.546  32.888  1.00  0.00     0.210 HD
ENDBRANCH  35  36
ENDBRANCH  29  35
BRANCH  30  38
ATOM     38  O   UNL     1      -5.157 -10.636  30.695  1.00  0.00    -0.387 OA
ATOM     39  H   UNL     1      -5.725  -9.977  31.173  1.00  0.00     0.211 HD
ENDBRANCH  30  38
ENDBRANCH   1  25
TORSDOF 11
ENDMDL
MODEL 2
REMARK VINA RESULT:    -8.803      2.311      4.116
REMARK INTER + INTRA:         -13.634
REMARK INTER:                 -12.744
REMARK INTRA:                  -0.890
REMARK UNBOUND:                -0.971
REMARK SMILES O=c1cc(-c2ccc(O)c(O)c2)oc2cc(O[C@H]3O[C@@H](CO)[C@@H](O)[C@H](O)[C@H]3O)cc(O)c12
REMARK SMILES IDX 17 1 16 2 4 3 3 4 13 5 2 6 14 7 1 8 32 9 15 10 30 11 29 12
REMARK SMILES IDX 5 13 6 14 7 15 8 16 12 17 10 18 9 19 11 21 31 23 18 25 27 26
REMARK SMILES IDX 19 27 25 28 20 29 23 30 28 31 26 33 21 35 22 36 24 38
REMARK H PARENT 9 20 11 22 31 24 28 32 26 34 22 37 24 39
REMARK Flexibility Score: inf
ROOT
ATOM      1  O   UNL     1      -6.152 -14.086  26.758  1.00  0.00    -0.462 OA
ENDROOT
BRANCH   1   2
ATOM      2  C   UNL     1      -7.504 -14.438  26.841  1.00  0.00     0.130 A 
ATOM      3  C   UNL     1     -11.053 -16.768  29.007  1.00  0.00     0.138 A 
ATOM      4  C   UNL     1     -11.969 -16.441  27.997  1.00  0.00     0.100 A 
ATOM      5  O   UNL     1      -9.793 -16.361  28.891  1.00  0.00    -0.456 OA
ATOM      6  C   UNL     1     -11.568 -15.644  26.926  1.00  0.00     0.197 A 
ATOM      7  C   UNL     1      -9.353 -15.608  27.887  1.00  0.00     0.146 A 
ATOM      8  O   UNL     1     -12.420 -15.376  26.035  1.00  0.00    -0.289 OA
ATOM      9  C   UNL     1     -10.237 -15.169  26.864  1.00  0.00     0.107 A 
ATOM     10  C   UNL     1      -8.002 -15.249  27.863  1.00  0.00     0.094 A 
ATOM     11  C   UNL     1      -9.731 -14.289  25.860  1.00  0.00     0.134 A 
ATOM     12  C   UNL     1      -8.377 -13.937  25.875  1.00  0.00     0.093 A 
BRANCH   3  13
ATOM     13  C   UNL     1     -11.451 -17.555  30.204  1.00  0.00     0.021 A 
ATOM     14  C   UNL     1     -10.625 -18.566  30.732  1.00  0.00     0.016 A 
ATOM     15  C   UNL     1     -11.033 -19.305  31.845  1.00  0.00     0.051 A 
ATOM     16  C   UNL     1     -12.275 -19.073  32.444  1.00  0.00     0.157 A 
ATOM     17  C   UNL     1     -12.702 -17.325  30.802  1.00  0.00     0.062 A 
ATOM     18  C   UNL     1     -13.121 -18.070  31.915  1.00  0.00     0.158 A 
BRANCH  16  19
ATOM     19  O   UNL     1     -12.627 -19.853  33.547  1.00  0.00    -0.504 OA
ATOM     20  H   UNL     1     -13.404 -20.496  33.559  1.00  0.00     0.293 HD
ENDBRANCH  16  19
BRANCH  18  21
ATOM     21  O   UNL     1     -14.377 -17.784  32.455  1.00  0.00    -0.504 OA
ATOM     22  H   UNL     1     -14.995 -17.070  32.099  1.00  0.00     0.293 HD
ENDBRANCH  18  21
ENDBRANCH   3  13
BRANCH  11  23
ATOM     23  O   UNL     1     -10.505 -13.721  24.839  1.00  0.00    -0.507 OA
ATOM     24  H   UNL     1     -10.819 -12.764  24.796  1.00  0.00     0.293 HD
ENDBRANCH  11  23
ENDBRANCH   1   2
BRANCH   1  25
ATOM     25  C   UNL     1      -5.141 -14.505  27.683  1.00  0.00     0.339 C 
ATOM     26  C   UNL     1      -5.174 -13.629  28.954  1.00  0.00     0.214 C 
ATOM     27  O   UNL     1      -3.867 -14.549  27.046  1.00  0.00    -0.332 OA
ATOM     28  C   UNL     1      -4.226 -14.212  30.025  1.00  0.00     0.180 C 
ATOM     29  C   UNL     1      -2.751 -14.575  27.936  1.00  0.00     0.179 C 
ATOM     30  C   UNL     1      -3.080 -15.039  29.388  1.00  0.00     0.177 C 
BRANCH  26  31
ATOM     31  O   UNL     1      -4.780 -12.315  28.628  1.00  0.00    -0.384 OA
ATOM     32  H   UNL     1      -5.555 -11.858  28.207  1.00  0.00     0.211 HD
ENDBRANCH  26  31
BRANCH  28  33
ATOM     33  O   UNL     1      -4.963 -15.017  30.914  1.00  0.00    -0.387 OA
ATOM     34  H   UNL     1      -5.880 -14.641  30.949  1.00  0.00     0.211 HD
ENDBRANCH  28  33
BRANCH  29  35
ATOM     35  C   UNL     1      -1.951 -13.249  27.827  1.00  0.00     0.191 C 
BRANCH  35  36
ATOM     36  O   UNL     1      -2.305 -12.505  26.694  1.00  0.00    -0.394 OA
ATOM     37  H   UNL     1      -3.206 -12.821  26.425  1.00  0.00     0.210 HD
ENDBRANCH  35  36
ENDBRANCH  29  35
BRANCH  30  38
ATOM     38  O   UNL     1      -1.934 -14.974  30.201  1.00  0.00    -0.387 OA
ATOM     39  H   UNL     1      -1.600 -14.041  30.162  1.00  0.00     0.211 HD
ENDBRANCH  30  38
ENDBRANCH   1  25
TORSDOF 11
ENDMDL
MODEL 3
REMARK VINA RESULT:    -8.758      1.938      2.870
REMARK INTER + INTRA:         -13.568
REMARK INTER:                 -12.722
REMARK INTRA:                  -0.846
REMARK UNBOUND:                -0.971
REMARK SMILES O=c1cc(-c2ccc(O)c(O)c2)oc2cc(O[C@H]3O[C@@H](CO)[C@@H](O)[C@H](O)[C@H]3O)cc(O)c12
REMARK SMILES IDX 17 1 16 2 4 3 3 4 13 5 2 6 14 7 1 8 32 9 15 10 30 11 29 12
REMARK SMILES IDX 5 13 6 14 7 15 8 16 12 17 10 18 9 19 11 21 31 23 18 25 27 26
REMARK SMILES IDX 19 27 25 28 20 29 23 30 28 31 26 33 21 35 22 36 24 38
REMARK H PARENT 9 20 11 22 31 24 28 32 26 34 22 37 24 39
REMARK Flexibility Score: inf
ROOT
ATOM      1  O   UNL     1      -6.454 -14.526  27.136  1.00  0.00    -0.462 OA
ENDROOT
BRANCH   1   2
ATOM      2  C   UNL     1      -7.809 -14.863  27.234  1.00  0.00     0.130 A 
ATOM      3  C   UNL     1     -11.376 -17.075  29.491  1.00  0.00     0.138 A 
ATOM      4  C   UNL     1     -12.290 -16.780  28.471  1.00  0.00     0.100 A 
ATOM      5  O   UNL     1     -10.113 -16.684  29.359  1.00  0.00    -0.456 OA
ATOM      6  C   UNL     1     -11.883 -16.029  27.369  1.00  0.00     0.197 A 
ATOM      7  C   UNL     1      -9.667 -15.975  28.326  1.00  0.00     0.146 A 
ATOM      8  O   UNL     1     -12.734 -15.788  26.469  1.00  0.00    -0.289 OA
ATOM      9  C   UNL     1     -10.548 -15.568  27.288  1.00  0.00     0.107 A 
ATOM     10  C   UNL     1      -8.313 -15.629  28.287  1.00  0.00     0.094 A 
ATOM     11  C   UNL     1     -10.036 -14.732  26.250  1.00  0.00     0.134 A 
ATOM     12  C   UNL     1      -8.679 -14.392  26.249  1.00  0.00     0.093 A 
BRANCH   3  13
ATOM     13  C   UNL     1     -11.779 -17.811  30.719  1.00  0.00     0.021 A 
ATOM     14  C   UNL     1     -10.990 -18.848  31.252  1.00  0.00     0.016 A 
ATOM     15  C   UNL     1     -11.403 -19.538  32.395  1.00  0.00     0.051 A 
ATOM     16  C   UNL     1     -12.616 -19.230  33.019  1.00  0.00     0.157 A 
ATOM     17  C   UNL     1     -13.002 -17.505  31.343  1.00  0.00     0.062 A 
ATOM     18  C   UNL     1     -13.426 -18.200  32.485  1.00  0.00     0.158 A 
BRANCH  16  19
ATOM     19  O   UNL     1     -12.976 -19.964  34.150  1.00  0.00    -0.504 OA
ATOM     20  H   UNL     1     -13.586 -19.621  34.875  1.00  0.00     0.293 HD
ENDBRANCH  16  19
BRANCH  18  21
ATOM     21  O   UNL     1     -14.652 -17.839  33.049  1.00  0.00    -0.504 OA
ATOM     22  H   UNL     1     -15.415 -17.432  32.528  1.00  0.00     0.293 HD
ENDBRANCH  18  21
ENDBRANCH   3  13
BRANCH  11  23
ATOM     23  O   UNL     1     -10.805 -14.197  25.208  1.00  0.00    -0.507 OA
ATOM     24  H   UNL     1     -11.797 -14.322  25.079  1.00  0.00     0.293 HD
ENDBRANCH  11  23
ENDBRANCH   1   2
BRANCH   1  25
ATOM     25  C   UNL     1      -5.774 -13.616  28.008  1.00  0.00     0.339 C 
ATOM     26  C   UNL     1      -4.288 -14.012  28.151  1.00  0.00     0.214 C 
ATOM     27  O   UNL     1      -6.462 -13.503  29.250  1.00  0.00    -0.332 OA
ATOM     28  C   UNL     1      -3.518 -12.917  28.921  1.00  0.00     0.180 C 
ATOM     29  C   UNL     1      -5.693 -12.941  30.315  1.00  0.00     0.179 C 
ATOM     30  C   UNL     1      -4.452 -12.113  29.862  1.00  0.00     0.177 C 
BRANCH  26  31
ATOM     31  O   UNL     1      -4.194 -15.239  28.839  1.00  0.00    -0.384 OA
ATOM     32  H   UNL     1      -3.347 -15.236  29.357  1.00  0.00     0.211 HD
ENDBRANCH  26  31
BRANCH  28  33
ATOM     33  O   UNL     1      -2.896 -12.049  28.004  1.00  0.00    -0.387 OA
ATOM     34  H   UNL     1      -3.011 -12.452  27.104  1.00  0.00     0.211 HD
ENDBRANCH  28  33
BRANCH  29  35
ATOM     35  C   UNL     1      -5.414 -14.020  31.396  1.00  0.00     0.191 C 
BRANCH  35  36
ATOM     36  O   UNL     1      -6.009 -15.249  31.089  1.00  0.00    -0.394 OA
ATOM     37  H   UNL     1      -6.882 -15.260  31.559  1.00  0.00     0.210 HD
ENDBRANCH  35  36
ENDBRANCH  29  35
BRANCH  30  38
ATOM     38  O   UNL     1      -3.728 -11.653  30.977  1.00  0.00    -0.387 OA
ATOM     39  H   UNL     1      -2.948 -11.147  30.630  1.00  0.00     0.211 HD
ENDBRANCH  30  38
ENDBRANCH   1  25
TORSDOF 11
ENDMDL
MODEL 4
REMARK VINA RESULT:    -8.603      2.176      3.855
REMARK INTER + INTRA:         -13.346
REMARK INTER:                 -12.252
REMARK INTRA:                  -1.094
REMARK UNBOUND:                -0.971
REMARK SMILES O=c1cc(-c2ccc(O)c(O)c2)oc2cc(O[C@H]3O[C@@H](CO)[C@@H](O)[C@H](O)[C@H]3O)cc(O)c12
REMARK SMILES IDX 17 1 16 2 4 3 3 4 13 5 2 6 14 7 1 8 32 9 15 10 30 11 29 12
REMARK SMILES IDX 5 13 6 14 7 15 8 16 12 17 10 18 9 19 11 21 31 23 18 25 27 26
REMARK SMILES IDX 19 27 25 28 20 29 23 30 28 31 26 33 21 35 22 36 24 38
REMARK H PARENT 9 20 11 22 31 24 28 32 26 34 22 37 24 39
REMARK Flexibility Score: inf
ROOT
ATOM      1  O   UNL     1      -5.802 -14.202  27.400  1.00  0.00    -0.462 OA
ENDROOT
BRANCH   1   2
ATOM      2  C   UNL     1      -7.170 -14.437  27.222  1.00  0.00     0.130 A 
ATOM      3  C   UNL     1     -11.216 -16.568  28.564  1.00  0.00     0.138 A 
ATOM      4  C   UNL     1     -11.911 -16.100  27.441  1.00  0.00     0.100 A 
ATOM      5  O   UNL     1      -9.928 -16.269  28.698  1.00  0.00    -0.456 OA
ATOM      6  C   UNL     1     -11.266 -15.278  26.518  1.00  0.00     0.197 A 
ATOM      7  C   UNL     1      -9.261 -15.499  27.844  1.00  0.00     0.146 A 
ATOM      8  O   UNL     1     -11.923 -14.882  25.516  1.00  0.00    -0.289 OA
ATOM      9  C   UNL     1      -9.912 -14.920  26.721  1.00  0.00     0.107 A 
ATOM     10  C   UNL     1      -7.903 -15.261  28.080  1.00  0.00     0.094 A 
ATOM     11  C   UNL     1      -9.170 -14.030  25.888  1.00  0.00     0.134 A 
ATOM     12  C   UNL     1      -7.817 -13.802  26.161  1.00  0.00     0.093 A 
BRANCH   3  13
ATOM     13  C   UNL     1     -11.880 -17.389  29.612  1.00  0.00     0.021 A 
ATOM     14  C   UNL     1     -13.266 -17.314  29.843  1.00  0.00     0.016 A 
ATOM     15  C   UNL     1     -13.861 -18.080  30.848  1.00  0.00     0.051 A 
ATOM     16  C   UNL     1     -13.091 -18.919  31.660  1.00  0.00     0.157 A 
ATOM     17  C   UNL     1     -11.104 -18.228  30.432  1.00  0.00     0.062 A 
ATOM     18  C   UNL     1     -11.694 -18.993  31.449  1.00  0.00     0.158 A 
BRANCH  16  19
ATOM     19  O   UNL     1     -13.745 -19.650  32.654  1.00  0.00    -0.504 OA
ATOM     20  H   UNL     1     -14.404 -20.389  32.469  1.00  0.00     0.293 HD
ENDBRANCH  16  19
BRANCH  18  21
ATOM     21  O   UNL     1     -10.859 -19.804  32.222  1.00  0.00    -0.504 OA
ATOM     22  H   UNL     1     -11.069 -20.760  32.466  1.00  0.00     0.293 HD
ENDBRANCH  18  21
ENDBRANCH   3  13
BRANCH  11  23
ATOM     23  O   UNL     1      -9.704 -13.333  24.796  1.00  0.00    -0.507 OA
ATOM     24  H   UNL     1     -10.039 -12.383  24.804  1.00  0.00     0.293 HD
ENDBRANCH  11  23
ENDBRANCH   1   2
BRANCH   1  25
ATOM     25  C   UNL     1      -5.169 -13.976  28.665  1.00  0.00     0.339 C 
ATOM     26  C   UNL     1      -5.699 -12.678  29.310  1.00  0.00     0.214 C 
ATOM     27  O   UNL     1      -3.752 -14.017  28.530  1.00  0.00    -0.332 OA
ATOM     28  C   UNL     1      -5.170 -12.548  30.756  1.00  0.00     0.180 C 
ATOM     29  C   UNL     1      -3.028 -13.436  29.616  1.00  0.00     0.179 C 
ATOM     30  C   UNL     1      -3.831 -13.308  30.946  1.00  0.00     0.177 C 
BRANCH  26  31
ATOM     31  O   UNL     1      -5.281 -11.569  28.545  1.00  0.00    -0.384 OA
ATOM     32  H   UNL     1      -4.474 -11.838  28.032  1.00  0.00     0.211 HD
ENDBRANCH  26  31
BRANCH  28  33
ATOM     33  O   UNL     1      -6.135 -13.043  31.653  1.00  0.00    -0.387 OA
ATOM     34  H   UNL     1      -6.337 -12.310  32.290  1.00  0.00     0.211 HD
ENDBRANCH  28  33
BRANCH  29  35
ATOM     35  C   UNL     1      -2.310 -12.142  29.146  1.00  0.00     0.191 C 
BRANCH  35  36
ATOM     36  O   UNL     1      -2.449 -11.926  27.769  1.00  0.00    -0.394 OA
ATOM     37  H   UNL     1      -1.662 -12.351  27.340  1.00  0.00     0.210 HD
ENDBRANCH  35  36
ENDBRANCH  29  35
BRANCH  30  38
ATOM     38  O   UNL     1      -3.057 -12.673  31.934  1.00  0.00    -0.387 OA
ATOM     39  H   UNL     1      -3.203 -11.696  31.836  1.00  0.00     0.211 HD
ENDBRANCH  30  38
ENDBRANCH   1  25
TORSDOF 11
ENDMDL
MODEL 5
REMARK VINA RESULT:    -8.479      3.138     10.674
REMARK INTER + INTRA:         -13.168
REMARK INTER:                 -12.236
REMARK INTRA:                  -0.932
REMARK UNBOUND:                -0.971
REMARK SMILES O=c1cc(-c2ccc(O)c(O)c2)oc2cc(O[C@H]3O[C@@H](CO)[C@@H](O)[C@H](O)[C@H]3O)cc(O)c12
REMARK SMILES IDX 17 1 16 2 4 3 3 4 13 5 2 6 14 7 1 8 32 9 15 10 30 11 29 12
REMARK SMILES IDX 5 13 6 14 7 15 8 16 12 17 10 18 9 19 11 21 31 23 18 25 27 26
REMARK SMILES IDX 19 27 25 28 20 29 23 30 28 31 26 33 21 35 22 36 24 38
REMARK H PARENT 9 20 11 22 31 24 28 32 26 34 22 37 24 39
REMARK Flexibility Score: inf
ROOT
ATOM      1  O   UNL     1      -9.179 -15.326  29.675  1.00  0.00    -0.462 OA
ENDROOT
BRANCH   1   2
ATOM      2  C   UNL     1      -7.887 -14.900  30.003  1.00  0.00     0.130 A 
ATOM      3  C   UNL     1      -3.368 -14.036  28.757  1.00  0.00     0.138 A 
ATOM      4  C   UNL     1      -2.988 -13.765  30.078  1.00  0.00     0.100 A 
ATOM      5  O   UNL     1      -4.625 -14.388  28.506  1.00  0.00    -0.456 OA
ATOM      6  C   UNL     1      -3.940 -13.803  31.097  1.00  0.00     0.197 A 
ATOM      7  C   UNL     1      -5.571 -14.451  29.439  1.00  0.00     0.146 A 
ATOM      8  O   UNL     1      -3.558 -13.558  32.274  1.00  0.00    -0.289 OA
ATOM      9  C   UNL     1      -5.285 -14.115  30.790  1.00  0.00     0.107 A 
ATOM     10  C   UNL     1      -6.858 -14.846  29.060  1.00  0.00     0.094 A 
ATOM     11  C   UNL     1      -6.358 -14.113  31.732  1.00  0.00     0.134 A 
ATOM     12  C   UNL     1      -7.637 -14.499  31.316  1.00  0.00     0.093 A 
BRANCH   3  13
ATOM     13  C   UNL     1      -2.406 -13.939  27.627  1.00  0.00     0.021 A 
ATOM     14  C   UNL     1      -1.339 -13.021  27.642  1.00  0.00     0.016 A 
ATOM     15  C   UNL     1      -0.462 -12.935  26.557  1.00  0.00     0.051 A 
ATOM     16  C   UNL     1      -0.637 -13.742  25.428  1.00  0.00     0.157 A 
ATOM     17  C   UNL     1      -2.586 -14.747  26.490  1.00  0.00     0.062 A 
ATOM     18  C   UNL     1      -1.714 -14.660  25.395  1.00  0.00     0.158 A 
BRANCH  16  19
ATOM     19  O   UNL     1       0.268 -13.600  24.375  1.00  0.00    -0.504 OA
ATOM     20  H   UNL     1      -0.002 -13.461  23.414  1.00  0.00     0.293 HD
ENDBRANCH  16  19
BRANCH  18  21
ATOM     21  O   UNL     1      -1.956 -15.494  24.301  1.00  0.00    -0.504 OA
ATOM     22  H   UNL     1      -1.241 -16.029  23.831  1.00  0.00     0.293 HD
ENDBRANCH  18  21
ENDBRANCH   3  13
BRANCH  11  23
ATOM     23  O   UNL     1      -6.235 -13.732  33.074  1.00  0.00    -0.507 OA
ATOM     24  H   UNL     1      -5.895 -12.845  33.410  1.00  0.00     0.293 HD
ENDBRANCH  11  23
ENDBRANCH   1   2
BRANCH   1  25
ATOM     25  C   UNL     1      -9.894 -16.365  30.354  1.00  0.00     0.339 C 
ATOM     26  C   UNL     1      -9.817 -17.685  29.557  1.00  0.00     0.214 C 
ATOM     27  O   UNL     1     -11.223 -15.947  30.651  1.00  0.00    -0.332 OA
ATOM     28  C   UNL     1     -10.410 -18.844  30.389  1.00  0.00     0.180 C 
ATOM     29  C   UNL     1     -12.128 -17.004  30.970  1.00  0.00     0.179 C 
ATOM     30  C   UNL     1     -11.451 -18.335  31.419  1.00  0.00     0.177 C 
BRANCH  26  31
ATOM     31  O   UNL     1     -10.532 -17.546  28.350  1.00  0.00    -0.384 OA
ATOM     32  H   UNL     1      -9.950 -17.069  27.702  1.00  0.00     0.211 HD
ENDBRANCH  26  31
BRANCH  28  33
ATOM     33  O   UNL     1      -9.370 -19.523  31.052  1.00  0.00    -0.387 OA
ATOM     34  H   UNL     1      -9.782 -20.001  31.818  1.00  0.00     0.211 HD
ENDBRANCH  28  33
BRANCH  29  35
ATOM     35  C   UNL     1     -13.197 -17.146  29.853  1.00  0.00     0.191 C 
BRANCH  35  36
ATOM     36  O   UNL     1     -14.305 -17.896  30.267  1.00  0.00    -0.394 OA
ATOM     37  H   UNL     1     -15.072 -17.268  30.287  1.00  0.00     0.210 HD
ENDBRANCH  35  36
ENDBRANCH  29  35
BRANCH  30  38
ATOM     38  O   UNL     1     -12.418 -19.330  31.653  1.00  0.00    -0.387 OA
ATOM     39  H   UNL     1     -13.294 -18.872  31.734  1.00  0.00     0.211 HD
ENDBRANCH  30  38
ENDBRANCH   1  25
TORSDOF 11
ENDMDL
MODEL 6
REMARK VINA RESULT:    -8.381      1.599      9.310
REMARK INTER + INTRA:         -13.026
REMARK INTER:                 -12.054
REMARK INTRA:                  -0.972
REMARK UNBOUND:                -0.971
REMARK SMILES O=c1cc(-c2ccc(O)c(O)c2)oc2cc(O[C@H]3O[C@@H](CO)[C@@H](O)[C@H](O)[C@H]3O)cc(O)c12
REMARK SMILES IDX 17 1 16 2 4 3 3 4 13 5 2 6 14 7 1 8 32 9 15 10 30 11 29 12
REMARK SMILES IDX 5 13 6 14 7 15 8 16 12 17 10 18 9 19 11 21 31 23 18 25 27 26
REMARK SMILES IDX 19 27 25 28 20 29 23 30 28 31 26 33 21 35 22 36 24 38
REMARK H PARENT 9 20 11 22 31 24 28 32 26 34 22 37 24 39
REMARK Flexibility Score: inf
ROOT
ATOM      1  O   UNL     1     -13.160 -17.893  32.239  1.00  0.00    -0.462 OA
ENDROOT
BRANCH   1   2
ATOM      2  C   UNL     1     -12.310 -17.458  31.216  1.00  0.00     0.130 A 
ATOM      3  C   UNL     1      -8.319 -15.275  29.794  1.00  0.00     0.138 A 
ATOM      4  C   UNL     1      -8.683 -15.350  28.442  1.00  0.00     0.100 A 
ATOM      5  O   UNL     1      -9.151 -15.752  30.714  1.00  0.00    -0.456 OA
ATOM      6  C   UNL     1      -9.874 -15.977  28.078  1.00  0.00     0.197 A 
ATOM      7  C   UNL     1     -10.303 -16.350  30.424  1.00  0.00     0.146 A 
ATOM      8  O   UNL     1     -10.170 -16.019  26.852  1.00  0.00    -0.289 OA
ATOM      9  C   UNL     1     -10.708 -16.535  29.075  1.00  0.00     0.107 A 
ATOM     10  C   UNL     1     -11.104 -16.802  31.477  1.00  0.00     0.094 A 
ATOM     11  C   UNL     1     -11.910 -17.263  28.819  1.00  0.00     0.134 A 
ATOM     12  C   UNL     1     -12.680 -17.714  29.896  1.00  0.00     0.093 A 
BRANCH   3  13
ATOM     13  C   UNL     1      -7.027 -14.680  30.227  1.00  0.00     0.021 A 
ATOM     14  C   UNL     1      -5.950 -14.520  29.334  1.00  0.00     0.016 A 
ATOM     15  C   UNL     1      -4.739 -13.978  29.773  1.00  0.00     0.051 A 
ATOM     16  C   UNL     1      -4.564 -13.603  31.109  1.00  0.00     0.157 A 
ATOM     17  C   UNL     1      -6.849 -14.308  31.571  1.00  0.00     0.062 A 
ATOM     18  C   UNL     1      -5.634 -13.771  32.020  1.00  0.00     0.158 A 
BRANCH  16  19
ATOM     19  O   UNL     1      -3.327 -13.078  31.485  1.00  0.00    -0.504 OA
ATOM     20  H   UNL     1      -3.124 -12.713  32.403  1.00  0.00     0.293 HD
ENDBRANCH  16  19
BRANCH  18  21
ATOM     21  O   UNL     1      -5.533 -13.425  33.370  1.00  0.00    -0.504 OA
ATOM     22  H   UNL     1      -6.326 -13.290  33.979  1.00  0.00     0.293 HD
ENDBRANCH  18  21
ENDBRANCH   3  13
BRANCH  11  23
ATOM     23  O   UNL     1     -12.387 -17.583  27.542  1.00  0.00    -0.507 OA
ATOM     24  H   UNL     1     -12.068 -18.343  26.962  1.00  0.00     0.293 HD
ENDBRANCH  11  23
ENDBRANCH   1   2
BRANCH   1  25
ATOM     25  C   UNL     1     -13.416 -19.265  32.560  1.00  0.00     0.339 C 
ATOM     26  C   UNL     1     -14.471 -19.370  33.683  1.00  0.00     0.214 C 
ATOM     27  O   UNL     1     -12.200 -19.949  32.845  1.00  0.00    -0.332 OA
ATOM     28  C   UNL     1     -14.893 -20.843  33.880  1.00  0.00     0.180 C 
ATOM     29  C   UNL     1     -12.356 -21.189  33.538  1.00  0.00     0.179 C 
ATOM     30  C   UNL     1     -13.776 -21.823  33.436  1.00  0.00     0.177 C 
BRANCH  26  31
ATOM     31  O   UNL     1     -13.931 -18.861  34.882  1.00  0.00    -0.384 OA
ATOM     32  H   UNL     1     -13.077 -18.405  34.663  1.00  0.00     0.211 HD
ENDBRANCH  26  31
BRANCH  28  33
ATOM     33  O   UNL     1     -16.070 -21.094  33.149  1.00  0.00    -0.387 OA
ATOM     34  H   UNL     1     -15.890 -21.885  32.578  1.00  0.00     0.211 HD
ENDBRANCH  28  33
BRANCH  29  35
ATOM     35  C   UNL     1     -11.781 -21.071  34.975  1.00  0.00     0.191 C 
BRANCH  35  36
ATOM     36  O   UNL     1     -11.262 -22.285  35.443  1.00  0.00    -0.394 OA
ATOM     37  H   UNL     1     -10.936 -22.774  34.643  1.00  0.00     0.210 HD
ENDBRANCH  35  36
ENDBRANCH  29  35
BRANCH  30  38
ATOM     38  O   UNL     1     -13.848 -23.005  34.196  1.00  0.00    -0.387 OA
ATOM     39  H   UNL     1     -14.101 -22.744  35.119  1.00  0.00     0.211 HD
ENDBRANCH  30  38
ENDBRANCH   1  25
TORSDOF 11
ENDMDL
MODEL 7
REMARK VINA RESULT:    -8.221      2.497      4.455
REMARK INTER + INTRA:         -12.796
REMARK INTER:                 -11.975
REMARK INTRA:                  -0.820
REMARK UNBOUND:                -0.971
REMARK SMILES O=c1cc(-c2ccc(O)c(O)c2)oc2cc(O[C@H]3O[C@@H](CO)[C@@H](O)[C@H](O)[C@H]3O)cc(O)c12
REMARK SMILES IDX 17 1 16 2 4 3 3 4 13 5 2 6 14 7 1 8 32 9 15 10 30 11 29 12
REMARK SMILES IDX 5 13 6 14 7 15 8 16 12 17 10 18 9 19 11 21 31 23 18 25 27 26
REMARK SMILES IDX 19 27 25 28 20 29 23 30 28 31 26 33 21 35 22 36 24 38
REMARK H PARENT 9 20 11 22 31 24 28 32 26 34 22 37 24 39
REMARK Flexibility Score: inf
ROOT
ATOM      1  O   UNL     1      -4.667 -13.488  31.401  1.00  0.00    -0.462 OA
ENDROOT
BRANCH   1   2
ATOM      2  C   UNL     1      -5.676 -13.875  30.513  1.00  0.00     0.130 A 
ATOM      3  C   UNL     1      -9.625 -16.368  29.560  1.00  0.00     0.138 A 
ATOM      4  C   UNL     1      -9.590 -16.025  28.201  1.00  0.00     0.100 A 
ATOM      5  O   UNL     1      -8.661 -15.926  30.362  1.00  0.00    -0.456 OA
ATOM      6  C   UNL     1      -8.590 -15.180  27.723  1.00  0.00     0.197 A 
ATOM      7  C   UNL     1      -7.679 -15.127  29.958  1.00  0.00     0.146 A 
ATOM      8  O   UNL     1      -8.590 -14.900  26.492  1.00  0.00    -0.289 OA
ATOM      9  C   UNL     1      -7.616 -14.671  28.613  1.00  0.00     0.107 A 
ATOM     10  C   UNL     1      -6.711 -14.735  30.888  1.00  0.00     0.094 A 
ATOM     11  C   UNL     1      -6.591 -13.742  28.257  1.00  0.00     0.134 A 
ATOM     12  C   UNL     1      -5.648 -13.359  29.216  1.00  0.00     0.093 A 
BRANCH   3  13
ATOM     13  C   UNL     1     -10.711 -17.208  30.131  1.00  0.00     0.021 A 
ATOM     14  C   UNL     1     -10.435 -18.290  30.988  1.00  0.00     0.016 A 
ATOM     15  C   UNL     1     -11.473 -19.077  31.493  1.00  0.00     0.051 A 
ATOM     16  C   UNL     1     -12.803 -18.821  31.143  1.00  0.00     0.157 A 
ATOM     17  C   UNL     1     -12.047 -16.953  29.774  1.00  0.00     0.062 A 
ATOM     18  C   UNL     1     -13.093 -17.745  30.271  1.00  0.00     0.158 A 
BRANCH  16  19
ATOM     19  O   UNL     1     -13.792 -19.651  31.674  1.00  0.00    -0.504 OA
ATOM     20  H   UNL     1     -14.669 -19.319  32.043  1.00  0.00     0.293 HD
ENDBRANCH  16  19
BRANCH  18  21
ATOM     21  O   UNL     1     -14.395 -17.430  29.873  1.00  0.00    -0.504 OA
ATOM     22  H   UNL     1     -14.963 -18.022  29.285  1.00  0.00     0.293 HD
ENDBRANCH  18  21
ENDBRANCH   3  13
BRANCH  11  23
ATOM     23  O   UNL     1      -6.457 -13.155  26.991  1.00  0.00    -0.507 OA
ATOM     24  H   UNL     1      -5.667 -12.622  26.666  1.00  0.00     0.293 HD
ENDBRANCH  11  23
ENDBRANCH   1   2
BRANCH   1  25
ATOM     25  C   UNL     1      -3.613 -12.569  31.090  1.00  0.00     0.339 C 
ATOM     26  C   UNL     1      -2.490 -13.280  30.304  1.00  0.00     0.214 C 
ATOM     27  O   UNL     1      -3.162 -11.906  32.268  1.00  0.00    -0.332 OA
ATOM     28  C   UNL     1      -1.461 -12.246  29.796  1.00  0.00     0.180 C 
ATOM     29  C   UNL     1      -1.888 -11.271  32.150  1.00  0.00     0.179 C 
ATOM     30  C   UNL     1      -1.434 -10.978  30.687  1.00  0.00     0.177 C 
BRANCH  26  31
ATOM     31  O   UNL     1      -1.854 -14.219  31.142  1.00  0.00    -0.384 OA
ATOM     32  H   UNL     1      -1.977 -15.119  30.741  1.00  0.00     0.211 HD
ENDBRANCH  26  31
BRANCH  28  33
ATOM     33  O   UNL     1      -1.768 -11.894  28.468  1.00  0.00    -0.387 OA
ATOM     34  H   UNL     1      -2.752 -11.976  28.370  1.00  0.00     0.211 HD
ENDBRANCH  28  33
BRANCH  29  35
ATOM     35  C   UNL     1      -0.845 -12.003  33.036  1.00  0.00     0.191 C 
BRANCH  35  36
ATOM     36  O   UNL     1      -1.403 -13.076  33.742  1.00  0.00    -0.394 OA
ATOM     37  H   UNL     1      -2.382 -13.027  33.591  1.00  0.00     0.210 HD
ENDBRANCH  35  36
ENDBRANCH  29  35
BRANCH  30  38
ATOM     38  O   UNL     1      -0.148 -10.409  30.672  1.00  0.00    -0.387 OA
ATOM     39  H   UNL     1       0.007 -10.061  29.756  1.00  0.00     0.211 HD
ENDBRANCH  30  38
ENDBRANCH   1  25
TORSDOF 11
ENDMDL
MODEL 8
REMARK VINA RESULT:    -8.101      6.452      9.618
REMARK INTER + INTRA:         -12.623
REMARK INTER:                 -11.572
REMARK INTRA:                  -1.051
REMARK UNBOUND:                -0.971
REMARK SMILES O=c1cc(-c2ccc(O)c(O)c2)oc2cc(O[C@H]3O[C@@H](CO)[C@@H](O)[C@H](O)[C@H]3O)cc(O)c12
REMARK SMILES IDX 17 1 16 2 4 3 3 4 13 5 2 6 14 7 1 8 32 9 15 10 30 11 29 12
REMARK SMILES IDX 5 13 6 14 7 15 8 16 12 17 10 18 9 19 11 21 31 23 18 25 27 26
REMARK SMILES IDX 19 27 25 28 20 29 23 30 28 31 26 33 21 35 22 36 24 38
REMARK H PARENT 9 20 11 22 31 24 28 32 26 34 22 37 24 39
REMARK Flexibility Score: inf
ROOT
ATOM      1  O   UNL     1      -3.579 -13.579  28.172  1.00  0.00    -0.462 OA
ENDROOT
BRANCH   1   2
ATOM      2  C   UNL     1      -2.923 -14.672  27.595  1.00  0.00     0.130 A 
ATOM      3  C   UNL     1      -1.275 -19.136  27.875  1.00  0.00     0.138 A 
ATOM      4  C   UNL     1      -0.637 -19.046  26.630  1.00  0.00     0.100 A 
ATOM      5  O   UNL     1      -1.924 -18.075  28.345  1.00  0.00    -0.456 OA
ATOM      6  C   UNL     1      -0.745 -17.879  25.876  1.00  0.00     0.197 A 
ATOM      7  C   UNL     1      -2.049 -16.934  27.674  1.00  0.00     0.146 A 
ATOM      8  O   UNL     1      -0.152 -17.835  24.763  1.00  0.00    -0.289 OA
ATOM      9  C   UNL     1      -1.499 -16.789  26.372  1.00  0.00     0.107 A 
ATOM     10  C   UNL     1      -2.745 -15.879  28.275  1.00  0.00     0.094 A 
ATOM     11  C   UNL     1      -1.741 -15.574  25.662  1.00  0.00     0.134 A 
ATOM     12  C   UNL     1      -2.454 -14.545  26.287  1.00  0.00     0.093 A 
BRANCH   3  13
ATOM     13  C   UNL     1      -1.248 -20.383  28.683  1.00  0.00     0.021 A 
ATOM     14  C   UNL     1      -0.710 -21.581  28.177  1.00  0.00     0.016 A 
ATOM     15  C   UNL     1      -0.717 -22.745  28.950  1.00  0.00     0.051 A 
ATOM     16  C   UNL     1      -1.277 -22.750  30.232  1.00  0.00     0.157 A 
ATOM     17  C   UNL     1      -1.816 -20.390  29.970  1.00  0.00     0.062 A 
ATOM     18  C   UNL     1      -1.834 -21.556  30.748  1.00  0.00     0.158 A 
BRANCH  16  19
ATOM     19  O   UNL     1      -1.262 -23.948  30.948  1.00  0.00    -0.504 OA
ATOM     20  H   UNL     1      -0.632 -24.142  31.711  1.00  0.00     0.293 HD
ENDBRANCH  16  19
BRANCH  18  21
ATOM     21  O   UNL     1      -2.415 -21.485  32.016  1.00  0.00    -0.504 OA
ATOM     22  H   UNL     1      -2.186 -22.107  32.777  1.00  0.00     0.293 HD
ENDBRANCH  18  21
ENDBRANCH   3  13
BRANCH  11  23
ATOM     23  O   UNL     1      -1.324 -15.326  24.348  1.00  0.00    -0.507 OA
ATOM     24  H   UNL     1      -1.657 -14.587  23.750  1.00  0.00     0.293 HD
ENDBRANCH  11  23
ENDBRANCH   1   2
BRANCH   1  25
ATOM     25  C   UNL     1      -4.173 -13.579  29.476  1.00  0.00     0.339 C 
ATOM     26  C   UNL     1      -5.656 -14.002  29.394  1.00  0.00     0.214 C 
ATOM     27  O   UNL     1      -3.966 -12.326  30.121  1.00  0.00    -0.332 OA
ATOM     28  C   UNL     1      -6.232 -14.198  30.813  1.00  0.00     0.180 C 
ATOM     29  C   UNL     1      -4.822 -12.075  31.236  1.00  0.00     0.179 C 
ATOM     30  C   UNL     1      -5.473 -13.346  31.863  1.00  0.00     0.177 C 
BRANCH  26  31
ATOM     31  O   UNL     1      -6.390 -13.010  28.711  1.00  0.00    -0.384 OA
ATOM     32  H   UNL     1      -5.795 -12.226  28.579  1.00  0.00     0.211 HD
ENDBRANCH  26  31
BRANCH  28  33
ATOM     33  O   UNL     1      -6.165 -15.561  31.161  1.00  0.00    -0.387 OA
ATOM     34  H   UNL     1      -5.638 -16.012  30.452  1.00  0.00     0.211 HD
ENDBRANCH  28  33
BRANCH  29  35
ATOM     35  C   UNL     1      -5.805 -10.920  30.904  1.00  0.00     0.191 C 
BRANCH  35  36
ATOM     36  O   UNL     1      -5.616 -10.415  29.612  1.00  0.00    -0.394 OA
ATOM     37  H   UNL     1      -4.721 -10.728  29.319  1.00  0.00     0.210 HD
ENDBRANCH  35  36
ENDBRANCH  29  35
BRANCH  30  38
ATOM     38  O   UNL     1      -6.341 -12.993  32.912  1.00  0.00    -0.387 OA
ATOM     39  H   UNL     1      -5.792 -12.925  33.735  1.00  0.00     0.211 HD
ENDBRANCH  30  38
ENDBRANCH   1  25
TORSDOF 11
ENDMDL
MODEL 9
REMARK VINA RESULT:    -7.974      3.110     10.055
REMARK INTER + INTRA:         -12.441
REMARK INTER:                 -11.568
REMARK INTRA:                  -0.874
REMARK UNBOUND:                -0.971
REMARK SMILES O=c1cc(-c2ccc(O)c(O)c2)oc2cc(O[C@H]3O[C@@H](CO)[C@@H](O)[C@H](O)[C@H]3O)cc(O)c12
REMARK SMILES IDX 17 1 16 2 4 3 3 4 13 5 2 6 14 7 1 8 32 9 15 10 30 11 29 12
REMARK SMILES IDX 5 13 6 14 7 15 8 16 12 17 10 18 9 19 11 21 31 23 18 25 27 26
REMARK SMILES IDX 19 27 25 28 20 29 23 30 28 31 26 33 21 35 22 36 24 38
REMARK H PARENT 9 20 11 22 31 24 28 32 26 34 22 37 24 39
REMARK Flexibility Score: inf
ROOT
ATOM      1  O   UNL     1      -8.727 -15.368  30.446  1.00  0.00    -0.462 OA
ENDROOT
BRANCH   1   2
ATOM      2  C   UNL     1      -7.463 -15.013  29.964  1.00  0.00     0.130 A 
ATOM      3  C   UNL     1      -2.865 -14.019  30.731  1.00  0.00     0.138 A 
ATOM      4  C   UNL     1      -2.657 -13.646  29.396  1.00  0.00     0.100 A 
ATOM      5  O   UNL     1      -4.081 -14.394  31.114  1.00  0.00    -0.456 OA
ATOM      6  C   UNL     1      -3.703 -13.733  28.479  1.00  0.00     0.197 A 
ATOM      7  C   UNL     1      -5.117 -14.485  30.285  1.00  0.00     0.146 A 
ATOM      8  O   UNL     1      -3.478 -13.383  27.287  1.00  0.00    -0.289 OA
ATOM      9  C   UNL     1      -4.970 -14.200  28.901  1.00  0.00     0.107 A 
ATOM     10  C   UNL     1      -6.355 -14.879  30.804  1.00  0.00     0.094 A 
ATOM     11  C   UNL     1      -6.093 -14.402  28.042  1.00  0.00     0.134 A 
ATOM     12  C   UNL     1      -7.312 -14.811  28.591  1.00  0.00     0.093 A 
BRANCH   3  13
ATOM     13  C   UNL     1      -1.763 -14.011  31.729  1.00  0.00     0.021 A 
ATOM     14  C   UNL     1      -1.708 -13.054  32.761  1.00  0.00     0.016 A 
ATOM     15  C   UNL     1      -0.650 -13.056  33.673  1.00  0.00     0.051 A 
ATOM     16  C   UNL     1       0.385 -13.991  33.570  1.00  0.00     0.157 A 
ATOM     17  C   UNL     1      -0.721 -14.948  31.622  1.00  0.00     0.062 A 
ATOM     18  C   UNL     1       0.349 -14.950  32.530  1.00  0.00     0.158 A 
BRANCH  16  19
ATOM     19  O   UNL     1       1.418 -13.932  34.507  1.00  0.00    -0.504 OA
ATOM     20  H   UNL     1       2.245 -14.506  34.472  1.00  0.00     0.293 HD
ENDBRANCH  16  19
BRANCH  18  21
ATOM     21  O   UNL     1       1.347 -15.912  32.359  1.00  0.00    -0.504 OA
ATOM     22  H   UNL     1       2.304 -15.696  32.121  1.00  0.00     0.293 HD
ENDBRANCH  18  21
ENDBRANCH   3  13
BRANCH  11  23
ATOM     23  O   UNL     1      -6.069 -14.233  26.651  1.00  0.00    -0.507 OA
ATOM     24  H   UNL     1      -6.423 -14.883  25.968  1.00  0.00     0.293 HD
ENDBRANCH  11  23
ENDBRANCH   1   2
BRANCH   1  25
ATOM     25  C   UNL     1      -9.530 -16.435  29.927  1.00  0.00     0.339 C 
ATOM     26  C   UNL     1     -10.940 -15.922  29.560  1.00  0.00     0.214 C 
ATOM     27  O   UNL     1      -9.535 -17.541  30.825  1.00  0.00    -0.332 OA
ATOM     28  C   UNL     1     -11.728 -17.021  28.814  1.00  0.00     0.180 C 
ATOM     29  C   UNL     1     -10.583 -18.487  30.608  1.00  0.00     0.179 C 
ATOM     30  C   UNL     1     -11.226 -18.440  29.188  1.00  0.00     0.177 C 
BRANCH  26  31
ATOM     31  O   UNL     1     -11.625 -15.553  30.736  1.00  0.00    -0.384 OA
ATOM     32  H   UNL     1     -10.984 -15.603  31.493  1.00  0.00     0.211 HD
ENDBRANCH  26  31
BRANCH  28  33
ATOM     33  O   UNL     1     -11.611 -16.820  27.426  1.00  0.00    -0.387 OA
ATOM     34  H   UNL     1     -11.746 -17.703  26.996  1.00  0.00     0.211 HD
ENDBRANCH  28  33
BRANCH  29  35
ATOM     35  C   UNL     1     -11.585 -18.452  31.792  1.00  0.00     0.191 C 
BRANCH  35  36
ATOM     36  O   UNL     1     -12.253 -19.671  31.962  1.00  0.00    -0.394 OA
ATOM     37  H   UNL     1     -13.076 -19.615  31.410  1.00  0.00     0.210 HD
ENDBRANCH  35  36
ENDBRANCH  29  35
BRANCH  30  38
ATOM     38  O   UNL     1     -12.283 -19.362  29.091  1.00  0.00    -0.387 OA
ATOM     39  H   UNL     1     -12.097 -20.089  29.740  1.00  0.00     0.211 HD
ENDBRANCH  30  38
ENDBRANCH   1  25
TORSDOF 11
ENDMDL
