MODEL 1
REMARK VINA RESULT:    -3.420      0.000      0.000
REMARK INTER + INTRA:          -4.025
REMARK INTER:                  -4.019
REMARK INTRA:                  -0.005
REMARK UNBOUND:                -0.005
REMARK SMILES [NH3+][C@H](CO)C(=O)[O-]
REMARK SMILES IDX 3 1 2 2 1 3 5 7 6 8 7 9 4 10
REMARK H PARENT 1 4 1 5 1 6 4 11
REMARK Flexibility Score: inf
ROOT
ATOM      1  C   UNL     1     128.625 126.375 122.188  1.00  0.00     0.227 C 
ENDROOT
BRANCH   1   2
ATOM      2  C   UNL     1     128.653 126.735 123.685  1.00  0.00     0.253 C 
BRANCH   2   3
ATOM      3  N   UNL     1     128.625 128.191 123.867  1.00  0.00    -0.348 N 
ATOM      4  H   UNL     1     128.752 128.682 122.952  1.00  0.00     0.345 HD
ATOM      5  H   UNL     1     127.710 128.479 124.288  1.00  0.00     0.345 HD
ATOM      6  H   UNL     1     129.389 128.481 124.520  1.00  0.00     0.345 HD
ENDBRANCH   2   3
BRANCH   2   7
ATOM      7  C   UNL     1     127.500 126.094 124.412  1.00  0.00     0.102 C 
ATOM      8  O   UNL     1     127.539 124.875 124.726  1.00  0.00    -0.544 OA
ATOM      9  O   UNL     1     126.388 126.854 124.754  1.00  0.00    -0.544 OA
ENDBRANCH   2   7
ENDBRANCH   1   2
BRANCH   1  10
ATOM     10  O   UNL     1     129.020 127.474 121.409  1.00  0.00    -0.390 OA
ATOM     11  H   UNL     1     129.323 127.112 120.535  1.00  0.00     0.210 HD
ENDBRANCH   1  10
TORSDOF 4
ENDMDL
MODEL 2
REMARK VINA RESULT:    -2.765     13.928     14.709
REMARK INTER + INTRA:          -3.255
REMARK INTER:                  -3.031
REMARK INTRA:                  -0.224
REMARK UNBOUND:                -0.005
REMARK SMILES [NH3+][C@H](CO)C(=O)[O-]
REMARK SMILES IDX 3 1 2 2 1 3 5 7 6 8 7 9 4 10
REMARK H PARENT 1 4 1 5 1 6 4 11
REMARK Flexibility Score: inf
ROOT
ATOM      1  C   UNL     1     125.114 116.776 114.562  1.00  0.00     0.227 C 
ENDROOT
BRANCH   1   2
ATOM      2  C   UNL     1     125.839 116.037 113.422  1.00  0.00     0.253 C 
BRANCH   2   3
ATOM      3  N   UNL     1     124.895 115.675 112.359  1.00  0.00    -0.348 N 
ATOM      4  H   UNL     1     124.189 114.987 112.708  1.00  0.00     0.345 HD
ATOM      5  H   UNL     1     124.401 116.532 112.016  1.00  0.00     0.345 HD
ATOM      6  H   UNL     1     125.413 115.254 111.554  1.00  0.00     0.345 HD
ENDBRANCH   2   3
BRANCH   2   7
ATOM      7  C   UNL     1     126.958 116.877 112.865  1.00  0.00     0.102 C 
ATOM      8  O   UNL     1     127.938 117.198 113.588  1.00  0.00    -0.544 OA
ATOM      9  O   UNL     1     126.920 117.291 111.540  1.00  0.00    -0.544 OA
ENDBRANCH   2   7
ENDBRANCH   1   2
BRANCH   1  10
ATOM     10  O   UNL     1     125.970 116.954 115.660  1.00  0.00    -0.390 OA
ATOM     11  H   UNL     1     126.423 116.085 115.816  1.00  0.00     0.210 HD
ENDBRANCH   1  10
TORSDOF 4
ENDMDL
MODEL 3
REMARK VINA RESULT:    -2.755     20.230     20.598
REMARK INTER + INTRA:          -3.244
REMARK INTER:                  -3.009
REMARK INTRA:                  -0.235
REMARK UNBOUND:                -0.005
REMARK SMILES [NH3+][C@H](CO)C(=O)[O-]
REMARK SMILES IDX 3 1 2 2 1 3 5 7 6 8 7 9 4 10
REMARK H PARENT 1 4 1 5 1 6 4 11
REMARK Flexibility Score: inf
ROOT
ATOM      1  C   UNL     1     114.447 116.991 114.503  1.00  0.00     0.227 C 
ENDROOT
BRANCH   1   2
ATOM      2  C   UNL     1     113.520 116.643 113.323  1.00  0.00     0.253 C 
BRANCH   2   3
ATOM      3  N   UNL     1     113.651 117.639 112.253  1.00  0.00    -0.348 N 
ATOM      4  H   UNL     1     112.709 117.949 111.918  1.00  0.00     0.345 HD
ATOM      5  H   UNL     1     114.182 118.470 112.605  1.00  0.00     0.345 HD
ATOM      6  H   UNL     1     114.181 117.229 111.451  1.00  0.00     0.345 HD
ENDBRANCH   2   3
BRANCH   2   7
ATOM      7  C   UNL     1     113.820 115.265 112.794  1.00  0.00     0.102 C 
ATOM      8  O   UNL     1     114.457 115.117 111.717  1.00  0.00    -0.544 OA
ATOM      9  O   UNL     1     113.405 114.145 113.504  1.00  0.00    -0.544 OA
ENDBRANCH   2   7
ENDBRANCH   1   2
BRANCH   1  10
ATOM     10  O   UNL     1     114.270 116.080 115.556  1.00  0.00    -0.390 OA
ATOM     11  H   UNL     1     114.929 116.321 116.258  1.00  0.00     0.210 HD
ENDBRANCH   1  10
TORSDOF 4
ENDMDL
MODEL 4
REMARK VINA RESULT:    -2.742     13.138     13.820
REMARK INTER + INTRA:          -3.229
REMARK INTER:                  -3.003
REMARK INTRA:                  -0.226
REMARK UNBOUND:                -0.005
REMARK SMILES [NH3+][C@H](CO)C(=O)[O-]
REMARK SMILES IDX 3 1 2 2 1 3 5 7 6 8 7 9 4 10
REMARK H PARENT 1 4 1 5 1 6 4 11
REMARK Flexibility Score: inf
ROOT
ATOM      1  C   UNL     1     119.766 125.781 114.335  1.00  0.00     0.227 C 
ENDROOT
BRANCH   1   2
ATOM      2  C   UNL     1     120.066 126.834 113.253  1.00  0.00     0.253 C 
BRANCH   2   3
ATOM      3  N   UNL     1     120.840 126.242 112.156  1.00  0.00    -0.348 N 
ATOM      4  H   UNL     1     120.208 125.781 111.462  1.00  0.00     0.345 HD
ATOM      5  H   UNL     1     121.398 126.984 111.674  1.00  0.00     0.345 HD
ATOM      6  H   UNL     1     121.506 125.530 112.537  1.00  0.00     0.345 HD
ENDBRANCH   2   3
BRANCH   2   7
ATOM      7  C   UNL     1     118.792 127.440 112.727  1.00  0.00     0.102 C 
ATOM      8  O   UNL     1     117.973 127.990 113.510  1.00  0.00    -0.544 OA
ATOM      9  O   UNL     1     118.519 127.405 111.365  1.00  0.00    -0.544 OA
ENDBRANCH   2   7
ENDBRANCH   1   2
BRANCH   1  10
ATOM     10  O   UNL     1     119.334 126.397 115.520  1.00  0.00    -0.390 OA
ATOM     11  H   UNL     1     118.345 126.319 115.540  1.00  0.00     0.210 HD
ENDBRANCH   1  10
TORSDOF 4
ENDMDL
MODEL 5
REMARK VINA RESULT:    -2.679     20.096     20.361
REMARK INTER + INTRA:          -3.154
REMARK INTER:                  -2.761
REMARK INTRA:                  -0.394
REMARK UNBOUND:                -0.005
REMARK SMILES [NH3+][C@H](CO)C(=O)[O-]
REMARK SMILES IDX 3 1 2 2 1 3 5 7 6 8 7 9 4 10
REMARK H PARENT 1 4 1 5 1 6 4 11
REMARK Flexibility Score: inf
ROOT
ATOM      1  C   UNL     1     113.616 114.745 113.484  1.00  0.00     0.227 C 
ENDROOT
BRANCH   1   2
ATOM      2  C   UNL     1     113.627 116.180 114.042  1.00  0.00     0.253 C 
BRANCH   2   3
ATOM      3  N   UNL     1     114.416 116.247 115.277  1.00  0.00    -0.348 N 
ATOM      4  H   UNL     1     113.800 116.437 116.101  1.00  0.00     0.345 HD
ATOM      5  H   UNL     1     114.922 115.343 115.426  1.00  0.00     0.345 HD
ATOM      6  H   UNL     1     115.129 117.009 115.201  1.00  0.00     0.345 HD
ENDBRANCH   2   3
BRANCH   2   7
ATOM      7  C   UNL     1     114.168 117.147 113.022  1.00  0.00     0.102 C 
ATOM      8  O   UNL     1     115.402 117.391 112.962  1.00  0.00    -0.544 OA
ATOM      9  O   UNL     1     113.303 117.767 112.128  1.00  0.00    -0.544 OA
ENDBRANCH   2   7
ENDBRANCH   1   2
BRANCH   1  10
ATOM     10  O   UNL     1     113.977 114.738 112.128  1.00  0.00    -0.390 OA
ATOM     11  H   UNL     1     113.719 115.622 111.757  1.00  0.00     0.210 HD
ENDBRANCH   1  10
TORSDOF 4
ENDMDL
MODEL 6
REMARK VINA RESULT:    -2.660     14.185     14.665
REMARK INTER + INTRA:          -3.132
REMARK INTER:                  -2.737
REMARK INTRA:                  -0.395
REMARK UNBOUND:                -0.005
REMARK SMILES [NH3+][C@H](CO)C(=O)[O-]
REMARK SMILES IDX 3 1 2 2 1 3 5 7 6 8 7 9 4 10
REMARK H PARENT 1 4 1 5 1 6 4 11
REMARK Flexibility Score: inf
ROOT
ATOM      1  C   UNL     1     127.356 117.013 113.479  1.00  0.00     0.227 C 
ENDROOT
BRANCH   1   2
ATOM      2  C   UNL     1     126.104 116.324 114.052  1.00  0.00     0.253 C 
BRANCH   2   3
ATOM      3  N   UNL     1     125.671 116.984 115.289  1.00  0.00    -0.348 N 
ATOM      4  H   UNL     1     125.346 116.281 115.991  1.00  0.00     0.345 HD
ATOM      5  H   UNL     1     126.464 117.535 115.694  1.00  0.00     0.345 HD
ATOM      6  H   UNL     1     124.888 117.646 115.081  1.00  0.00     0.345 HD
ENDBRANCH   2   3
BRANCH   2   7
ATOM      7  C   UNL     1     124.986 116.318 113.042  1.00  0.00     0.102 C 
ATOM      8  O   UNL     1     124.161 117.268 112.996  1.00  0.00    -0.544 OA
ATOM      9  O   UNL     1     124.869 115.265 112.144  1.00  0.00    -0.544 OA
ENDBRANCH   2   7
ENDBRANCH   1   2
BRANCH   1  10
ATOM     10  O   UNL     1     127.148 117.385 112.142  1.00  0.00    -0.390 OA
ATOM     11  H   UNL     1     126.615 116.661 111.722  1.00  0.00     0.210 HD
ENDBRANCH   1  10
TORSDOF 4
ENDMDL
MODEL 7
REMARK VINA RESULT:    -2.642     12.890     13.543
REMARK INTER + INTRA:          -3.110
REMARK INTER:                  -2.770
REMARK INTRA:                  -0.340
REMARK UNBOUND:                -0.005
REMARK SMILES [NH3+][C@H](CO)C(=O)[O-]
REMARK SMILES IDX 3 1 2 2 1 3 5 7 6 8 7 9 4 10
REMARK H PARENT 1 4 1 5 1 6 4 11
REMARK Flexibility Score: inf
ROOT
ATOM      1  C   UNL     1     120.549 125.587 113.444  1.00  0.00     0.227 C 
ENDROOT
BRANCH   1   2
ATOM      2  C   UNL     1     119.175 126.015 113.992  1.00  0.00     0.253 C 
BRANCH   2   3
ATOM      3  N   UNL     1     119.271 126.354 115.416  1.00  0.00    -0.348 N 
ATOM      4  H   UNL     1     118.471 125.943 115.950  1.00  0.00     0.345 HD
ATOM      5  H   UNL     1     120.170 125.989 115.809  1.00  0.00     0.345 HD
ATOM      6  H   UNL     1     119.262 127.393 115.535  1.00  0.00     0.345 HD
ENDBRANCH   2   3
BRANCH   2   7
ATOM      7  C   UNL     1     118.627 127.181 113.212  1.00  0.00     0.102 C 
ATOM      8  O   UNL     1     118.559 128.325 113.735  1.00  0.00    -0.544 OA
ATOM      9  O   UNL     1     118.204 127.001 111.901  1.00  0.00    -0.544 OA
ENDBRANCH   2   7
ENDBRANCH   1   2
BRANCH   1  10
ATOM     10  O   UNL     1     121.024 126.524 112.512  1.00  0.00    -0.390 OA
ATOM     11  H   UNL     1     120.275 127.148 112.325  1.00  0.00     0.210 HD
ENDBRANCH   1  10
TORSDOF 4
ENDMDL
MODEL 8
REMARK VINA RESULT:    -2.634     12.999     13.595
REMARK INTER + INTRA:          -3.101
REMARK INTER:                  -2.712
REMARK INTRA:                  -0.389
REMARK UNBOUND:                -0.005
REMARK SMILES [NH3+][C@H](CO)C(=O)[O-]
REMARK SMILES IDX 3 1 2 2 1 3 5 7 6 8 7 9 4 10
REMARK H PARENT 1 4 1 5 1 6 4 11
REMARK Flexibility Score: inf
ROOT
ATOM      1  C   UNL     1     118.372 127.769 113.486  1.00  0.00     0.227 C 
ENDROOT
BRANCH   1   2
ATOM      2  C   UNL     1     119.592 127.035 114.073  1.00  0.00     0.253 C 
BRANCH   2   3
ATOM      3  N   UNL     1     119.227 126.337 115.311  1.00  0.00    -0.348 N 
ATOM      4  H   UNL     1     119.485 125.324 115.256  1.00  0.00     0.345 HD
ATOM      5  H   UNL     1     119.721 126.774 116.124  1.00  0.00     0.345 HD
ATOM      6  H   UNL     1     118.197 126.419 115.473  1.00  0.00     0.345 HD
ENDBRANCH   2   3
BRANCH   2   7
ATOM      7  C   UNL     1     120.165 126.065 113.074  1.00  0.00     0.102 C 
ATOM      8  O   UNL     1     121.127 126.402 112.334  1.00  0.00    -0.544 OA
ATOM      9  O   UNL     1     119.641 124.782 112.974  1.00  0.00    -0.544 OA
ENDBRANCH   2   7
ENDBRANCH   1   2
BRANCH   1  10
ATOM     10  O   UNL     1     118.167 127.397 112.148  1.00  0.00    -0.390 OA
ATOM     11  H   UNL     1     117.817 126.469 112.158  1.00  0.00     0.210 HD
ENDBRANCH   1  10
TORSDOF 4
ENDMDL
MODEL 9
REMARK VINA RESULT:    -2.581     13.926     14.635
REMARK INTER + INTRA:          -3.039
REMARK INTER:                  -2.822
REMARK INTRA:                  -0.217
REMARK UNBOUND:                -0.005
REMARK SMILES [NH3+][C@H](CO)C(=O)[O-]
REMARK SMILES IDX 3 1 2 2 1 3 5 7 6 8 7 9 4 10
REMARK H PARENT 1 4 1 5 1 6 4 11
REMARK Flexibility Score: inf
ROOT
ATOM      1  C   UNL     1     124.671 115.951 113.425  1.00  0.00     0.227 C 
ENDROOT
BRANCH   1   2
ATOM      2  C   UNL     1     125.594 117.081 113.918  1.00  0.00     0.253 C 
BRANCH   2   3
ATOM      3  N   UNL     1     125.807 116.979 115.367  1.00  0.00    -0.348 N 
ATOM      4  H   UNL     1     126.710 116.494 115.576  1.00  0.00     0.345 HD
ATOM      5  H   UNL     1     125.822 117.935 115.792  1.00  0.00     0.345 HD
ATOM      6  H   UNL     1     125.022 116.441 115.802  1.00  0.00     0.345 HD
ENDBRANCH   2   3
BRANCH   2   7
ATOM      7  C   UNL     1     126.913 117.051 113.192  1.00  0.00     0.102 C 
ATOM      8  O   UNL     1     127.960 116.675 113.782  1.00  0.00    -0.544 OA
ATOM      9  O   UNL     1     126.977 117.427 111.856  1.00  0.00    -0.544 OA
ENDBRANCH   2   7
ENDBRANCH   1   2
BRANCH   1  10
ATOM     10  O   UNL     1     124.930 115.654 112.078  1.00  0.00    -0.390 OA
ATOM     11  H   UNL     1     125.251 114.715 112.047  1.00  0.00     0.210 HD
ENDBRANCH   1  10
TORSDOF 4
ENDMDL
