MODEL 1
REMARK VINA RESULT:    -2.544      0.000      0.000
REMARK INTER + INTRA:          -2.544
REMARK INTER:                  -2.544
REMARK INTRA:                   0.000
REMARK UNBOUND:                 0.000
REMARK SMILES CC(=O)[O-]
REMARK SMILES IDX 1 1 2 2 3 3 4 4
REMARK H PARENT
REMARK Flexibility Score: inf
ROOT
ATOM      1  C   UNL     1      -8.565  37.165   5.805  1.00  0.00     0.063 C 
ATOM      2  C   UNL     1      -8.851  38.596   6.113  1.00  0.00     0.038 C 
ATOM      3  O   UNL     1      -7.985  39.303   6.692  1.00  0.00    -0.550 OA
ATOM      4  O   UNL     1     -10.051  39.167   5.713  1.00  0.00    -0.550 OA
ENDROOT
TORSDOF 0
ENDMDL
MODEL 2
REMARK VINA RESULT:    -2.513      0.121      1.622
REMARK INTER + INTRA:          -2.513
REMARK INTER:                  -2.513
REMARK INTRA:                   0.000
REMARK UNBOUND:                 0.000
REMARK SMILES CC(=O)[O-]
REMARK SMILES IDX 1 1 2 2 3 3 4 4
REMARK H PARENT
REMARK Flexibility Score: inf
ROOT
ATOM      1  C   UNL     1      -8.586  37.076   5.767  1.00  0.00     0.063 C 
ATOM      2  C   UNL     1      -8.884  38.512   6.031  1.00  0.00     0.038 C 
ATOM      3  O   UNL     1     -10.004  38.994   5.718  1.00  0.00    -0.550 OA
ATOM      4  O   UNL     1      -7.946  39.311   6.672  1.00  0.00    -0.550 OA
ENDROOT
TORSDOF 0
ENDMDL
MODEL 3
REMARK VINA RESULT:    -2.501      1.380      1.762
REMARK INTER + INTRA:          -2.501
REMARK INTER:                  -2.501
REMARK INTRA:                   0.000
REMARK UNBOUND:                 0.000
REMARK SMILES CC(=O)[O-]
REMARK SMILES IDX 1 1 2 2 3 3 4 4
REMARK H PARENT
REMARK Flexibility Score: inf
ROOT
ATOM      1  C   UNL     1     -10.101  38.890   5.839  1.00  0.00     0.063 C 
ATOM      2  C   UNL     1      -8.681  38.556   6.148  1.00  0.00     0.038 C 
ATOM      3  O   UNL     1      -7.935  39.409   6.696  1.00  0.00    -0.550 OA
ATOM      4  O   UNL     1      -8.193  37.283   5.883  1.00  0.00    -0.550 OA
ENDROOT
TORSDOF 0
ENDMDL
MODEL 4
REMARK VINA RESULT:    -2.455      1.344      1.920
REMARK INTER + INTRA:          -2.455
REMARK INTER:                  -2.455
REMARK INTRA:                   0.000
REMARK UNBOUND:                 0.000
REMARK SMILES CC(=O)[O-]
REMARK SMILES IDX 1 1 2 2 3 3 4 4
REMARK H PARENT
REMARK Flexibility Score: inf
ROOT
ATOM      1  C   UNL     1     -10.095  38.611   5.747  1.00  0.00     0.063 C 
ATOM      2  C   UNL     1      -8.668  38.393   6.119  1.00  0.00     0.038 C 
ATOM      3  O   UNL     1      -8.107  37.297   5.859  1.00  0.00    -0.550 OA
ATOM      4  O   UNL     1      -7.938  39.419   6.705  1.00  0.00    -0.550 OA
ENDROOT
TORSDOF 0
ENDMDL
MODEL 5
REMARK VINA RESULT:    -2.372      1.813      2.127
REMARK INTER + INTRA:          -2.372
REMARK INTER:                  -2.372
REMARK INTRA:                   0.000
REMARK UNBOUND:                 0.000
REMARK SMILES CC(=O)[O-]
REMARK SMILES IDX 1 1 2 2 3 3 4 4
REMARK H PARENT
REMARK Flexibility Score: inf
ROOT
ATOM      1  C   UNL     1      -8.621  38.878   6.489  1.00  0.00     0.063 C 
ATOM      2  C   UNL     1      -9.838  38.418   5.761  1.00  0.00     0.038 C 
ATOM      3  O   UNL     1     -10.749  39.237   5.472  1.00  0.00    -0.550 OA
ATOM      4  O   UNL     1      -9.946  37.096   5.350  1.00  0.00    -0.550 OA
ENDROOT
TORSDOF 0
ENDMDL
MODEL 6
REMARK VINA RESULT:    -2.257     11.410     11.939
REMARK INTER + INTRA:          -2.257
REMARK INTER:                  -2.257
REMARK INTRA:                   0.000
REMARK UNBOUND:                 0.000
REMARK SMILES CC(=O)[O-]
REMARK SMILES IDX 1 1 2 2 3 3 4 4
REMARK H PARENT
REMARK Flexibility Score: inf
ROOT
ATOM      1  C   UNL     1      -2.273  27.631   8.883  1.00  0.00     0.063 C 
ATOM      2  C   UNL     1      -2.975  28.455   7.858  1.00  0.00     0.038 C 
ATOM      3  O   UNL     1      -2.945  29.712   7.928  1.00  0.00    -0.550 OA
ATOM      4  O   UNL     1      -3.617  27.840   6.791  1.00  0.00    -0.550 OA
ENDROOT
TORSDOF 0
ENDMDL
MODEL 7
REMARK VINA RESULT:    -2.255     11.767     12.114
REMARK INTER + INTRA:          -2.255
REMARK INTER:                  -2.255
REMARK INTRA:                   0.000
REMARK UNBOUND:                 0.000
REMARK SMILES CC(=O)[O-]
REMARK SMILES IDX 1 1 2 2 3 3 4 4
REMARK H PARENT
REMARK Flexibility Score: inf
ROOT
ATOM      1  C   UNL     1      -0.711  43.787  -1.331  1.00  0.00     0.063 C 
ATOM      2  C   UNL     1      -0.180  42.418  -1.073  1.00  0.00     0.038 C 
ATOM      3  O   UNL     1      -0.633  41.733  -0.119  1.00  0.00    -0.550 OA
ATOM      4  O   UNL     1       0.778  41.872  -1.917  1.00  0.00    -0.550 OA
ENDROOT
TORSDOF 0
ENDMDL
MODEL 8
REMARK VINA RESULT:    -2.245     11.862     12.117
REMARK INTER + INTRA:          -2.245
REMARK INTER:                  -2.245
REMARK INTRA:                   0.000
REMARK UNBOUND:                 0.000
REMARK SMILES CC(=O)[O-]
REMARK SMILES IDX 1 1 2 2 3 3 4 4
REMARK H PARENT
REMARK Flexibility Score: inf
ROOT
ATOM      1  C   UNL     1      -0.764  41.980  -0.025  1.00  0.00     0.063 C 
ATOM      2  C   UNL     1      -0.139  42.549  -1.253  1.00  0.00     0.038 C 
ATOM      3  O   UNL     1       0.698  41.874  -1.907  1.00  0.00    -0.550 OA
ATOM      4  O   UNL     1      -0.520  43.804  -1.711  1.00  0.00    -0.550 OA
ENDROOT
TORSDOF 0
ENDMDL
MODEL 9
REMARK VINA RESULT:    -2.124     14.059     14.476
REMARK INTER + INTRA:          -2.124
REMARK INTER:                  -2.124
REMARK INTRA:                   0.000
REMARK UNBOUND:                 0.000
REMARK SMILES CC(=O)[O-]
REMARK SMILES IDX 1 1 2 2 3 3 4 4
REMARK H PARENT
REMARK Flexibility Score: inf
ROOT
ATOM      1  C   UNL     1       0.762  29.085   1.221  1.00  0.00     0.063 C 
ATOM      2  C   UNL     1       1.579  30.206   0.674  1.00  0.00     0.038 C 
ATOM      3  O   UNL     1       1.960  30.184  -0.526  1.00  0.00    -0.550 OA
ATOM      4  O   UNL     1       1.875  31.304   1.471  1.00  0.00    -0.550 OA
ENDROOT
TORSDOF 0
ENDMDL
