MODEL 1
REMARK VINA RESULT:    -7.691      0.000      0.000
REMARK INTER + INTRA:         -12.988
REMARK INTER:                 -10.614
REMARK INTRA:                  -2.374
REMARK UNBOUND:                -2.374
REMARK SMILES CC[C@H](CC[C@@H](C)[C@@H]1CC[C@@H]2[C@@H]3CC=C4C[C@H](O)CC[C@]4(C)[C@H]3CC[C@@]21C)C(C)C
REMARK SMILES IDX 5 1 4 2 3 3 2 4 1 5 28 6 29 7 30 8 6 9 7 10 8 11 9 12 26 13
REMARK SMILES IDX 10 14 11 15 25 16 27 17 12 18 24 19 23 20 13 21 21 22 14 23
REMARK SMILES IDX 15 24 20 25 22 26 16 27 19 28 17 29 18 30
REMARK H PARENT 18 31
REMARK Flexibility Score: inf
ROOT
ATOM      1  C   UNL     1       5.460  -1.446 -23.245  1.00  0.00     0.004 C 
ENDROOT
BRANCH   1   2
ATOM      2  C   UNL     1       5.036  -2.411 -24.369  1.00  0.00     0.004 C 
BRANCH   2   3
ATOM      3  C   UNL     1       3.911  -1.848 -25.282  1.00  0.00    -0.009 C 
BRANCH   3   4
ATOM      4  C   UNL     1       4.280  -1.807 -26.793  1.00  0.00     0.000 C 
ATOM      5  C   UNL     1       3.482  -0.815 -27.637  1.00  0.00     0.004 C 
ENDBRANCH   3   4
BRANCH   3   6
ATOM      6  C   UNL     1       2.514  -2.519 -25.030  1.00  0.00    -0.014 C 
ATOM      7  C   UNL     1       2.518  -3.612 -23.943  1.00  0.00     0.007 C 
ATOM      8  C   UNL     1       1.448  -1.466 -24.684  1.00  0.00     0.007 C 
ENDBRANCH   3   6
ENDBRANCH   2   3
ENDBRANCH   1   2
BRANCH   1   9
ATOM      9  C   UNL     1       4.451  -0.273 -23.075  1.00  0.00    -0.011 C 
ATOM     10  C   UNL     1       3.693  -0.397 -21.744  1.00  0.00     0.008 C 
BRANCH   9  11
ATOM     11  C   UNL     1       5.004   1.180 -23.304  1.00  0.00    -0.002 C 
ATOM     12  C   UNL     1       4.678   2.149 -22.151  1.00  0.00     0.005 C 
ATOM     13  C   UNL     1       4.735   1.967 -24.633  1.00  0.00    -0.026 C 
ATOM     14  C   UNL     1       4.519   3.534 -22.769  1.00  0.00     0.005 C 
ATOM     15  C   UNL     1       5.047   3.423 -24.205  1.00  0.00    -0.001 C 
ATOM     16  C   UNL     1       3.259   1.854 -25.105  1.00  0.00     0.007 C 
ATOM     17  C   UNL     1       5.706   1.527 -25.761  1.00  0.00     0.012 C 
ATOM     18  C   UNL     1       4.553   4.530 -25.194  1.00  0.00     0.000 C 
ATOM     19  C   UNL     1       2.887   2.888 -26.168  1.00  0.00     0.005 C 
ATOM     20  C   UNL     1       3.088   4.333 -25.653  1.00  0.00     0.003 C 
ATOM     21  C   UNL     1       4.741   5.932 -24.589  1.00  0.00     0.031 C 
ATOM     22  C   UNL     1       2.641   5.435 -26.698  1.00  0.00    -0.008 C 
ATOM     23  C   UNL     1       4.166   7.020 -25.446  1.00  0.00    -0.027 C 
ATOM     24  C   UNL     1       3.116   6.834 -26.271  1.00  0.00    -0.065 C 
ATOM     25  C   UNL     1       1.080   5.442 -26.780  1.00  0.00     0.014 C 
ATOM     26  C   UNL     1       3.225   5.145 -28.109  1.00  0.00     0.016 C 
ATOM     27  C   UNL     1       2.509   8.051 -26.946  1.00  0.00     0.063 C 
ATOM     28  C   UNL     1       0.502   6.647 -27.539  1.00  0.00     0.033 C 
ATOM     29  C   UNL     1       0.977   7.975 -26.939  1.00  0.00     0.118 C 
BRANCH  29  30
ATOM     30  O   UNL     1       0.490   8.106 -25.627  1.00  0.00    -0.393 OA
ATOM     31  H   UNL     1      -0.498   8.174 -25.689  1.00  0.00     0.210 HD
ENDBRANCH  29  30
ENDBRANCH   9  11
ENDBRANCH   1   9
TORSDOF 7
ENDMDL
MODEL 2
REMARK VINA RESULT:    -7.385      1.011      1.688
REMARK INTER + INTRA:         -12.566
REMARK INTER:                 -11.329
REMARK INTRA:                  -1.237
REMARK UNBOUND:                -2.374
REMARK SMILES CC[C@H](CC[C@@H](C)[C@@H]1CC[C@@H]2[C@@H]3CC=C4C[C@H](O)CC[C@]4(C)[C@H]3CC[C@@]21C)C(C)C
REMARK SMILES IDX 5 1 4 2 3 3 2 4 1 5 28 6 29 7 30 8 6 9 7 10 8 11 9 12 26 13
REMARK SMILES IDX 10 14 11 15 25 16 27 17 12 18 24 19 23 20 13 21 21 22 14 23
REMARK SMILES IDX 15 24 20 25 22 26 16 27 19 28 17 29 18 30
REMARK H PARENT 18 31
REMARK Flexibility Score: inf
ROOT
ATOM      1  C   UNL     1       3.217  -0.633 -22.324  1.00  0.00     0.004 C 
ENDROOT
BRANCH   1   2
ATOM      2  C   UNL     1       2.703  -2.086 -22.274  1.00  0.00     0.004 C 
BRANCH   2   3
ATOM      3  C   UNL     1       1.396  -2.313 -23.084  1.00  0.00    -0.009 C 
BRANCH   3   4
ATOM      4  C   UNL     1       1.126  -1.232 -24.171  1.00  0.00     0.000 C 
ATOM      5  C   UNL     1       1.473  -1.640 -25.602  1.00  0.00     0.004 C 
ENDBRANCH   3   4
BRANCH   3   6
ATOM      6  C   UNL     1       1.264  -3.771 -23.651  1.00  0.00    -0.014 C 
ATOM      7  C   UNL     1       2.327  -4.757 -23.128  1.00  0.00     0.007 C 
ATOM      8  C   UNL     1      -0.136  -4.346 -23.381  1.00  0.00     0.007 C 
ENDBRANCH   3   6
ENDBRANCH   2   3
ENDBRANCH   1   2
BRANCH   1   9
ATOM      9  C   UNL     1       4.677  -0.552 -22.858  1.00  0.00    -0.011 C 
ATOM     10  C   UNL     1       4.892  -1.554 -24.004  1.00  0.00     0.008 C 
BRANCH   9  11
ATOM     11  C   UNL     1       5.226   0.877 -23.215  1.00  0.00    -0.002 C 
ATOM     12  C   UNL     1       5.060   1.899 -22.073  1.00  0.00     0.005 C 
ATOM     13  C   UNL     1       4.813   1.616 -24.534  1.00  0.00    -0.026 C 
ATOM     14  C   UNL     1       4.854   3.261 -22.727  1.00  0.00     0.005 C 
ATOM     15  C   UNL     1       5.202   3.080 -24.210  1.00  0.00    -0.001 C 
ATOM     16  C   UNL     1       3.289   1.518 -24.820  1.00  0.00     0.007 C 
ATOM     17  C   UNL     1       5.632   1.107 -25.750  1.00  0.00     0.012 C 
ATOM     18  C   UNL     1       4.613   4.157 -25.178  1.00  0.00     0.000 C 
ATOM     19  C   UNL     1       2.810   2.518 -25.874  1.00  0.00     0.005 C 
ATOM     20  C   UNL     1       3.100   3.977 -25.449  1.00  0.00     0.003 C 
ATOM     21  C   UNL     1       4.899   5.577 -24.662  1.00  0.00     0.031 C 
ATOM     22  C   UNL     1       2.551   5.047 -26.480  1.00  0.00    -0.008 C 
ATOM     23  C   UNL     1       4.246   6.643 -25.489  1.00  0.00    -0.027 C 
ATOM     24  C   UNL     1       3.100   6.450 -26.173  1.00  0.00    -0.065 C 
ATOM     25  C   UNL     1       0.992   5.087 -26.374  1.00  0.00     0.014 C 
ATOM     26  C   UNL     1       2.954   4.686 -27.937  1.00  0.00     0.016 C 
ATOM     27  C   UNL     1       2.439   7.652 -26.822  1.00  0.00     0.063 C 
ATOM     28  C   UNL     1       0.348   6.274 -27.110  1.00  0.00     0.033 C 
ATOM     29  C   UNL     1       0.918   7.614 -26.628  1.00  0.00     0.118 C 
BRANCH  29  30
ATOM     30  O   UNL     1       0.596   7.809 -25.274  1.00  0.00    -0.393 OA
ATOM     31  H   UNL     1       0.908   8.718 -25.029  1.00  0.00     0.210 HD
ENDBRANCH  29  30
ENDBRANCH   9  11
ENDBRANCH   1   9
TORSDOF 7
ENDMDL
MODEL 3
REMARK VINA RESULT:    -7.307      0.573      1.553
REMARK INTER + INTRA:         -12.457
REMARK INTER:                 -10.893
REMARK INTRA:                  -1.564
REMARK UNBOUND:                -2.374
REMARK SMILES CC[C@H](CC[C@@H](C)[C@@H]1CC[C@@H]2[C@@H]3CC=C4C[C@H](O)CC[C@]4(C)[C@H]3CC[C@@]21C)C(C)C
REMARK SMILES IDX 5 1 4 2 3 3 2 4 1 5 28 6 29 7 30 8 6 9 7 10 8 11 9 12 26 13
REMARK SMILES IDX 10 14 11 15 25 16 27 17 12 18 24 19 23 20 13 21 21 22 14 23
REMARK SMILES IDX 15 24 20 25 22 26 16 27 19 28 17 29 18 30
REMARK H PARENT 18 31
REMARK Flexibility Score: inf
ROOT
ATOM      1  C   UNL     1       5.142  -1.439 -23.339  1.00  0.00     0.004 C 
ENDROOT
BRANCH   1   2
ATOM      2  C   UNL     1       4.383  -2.772 -23.492  1.00  0.00     0.004 C 
BRANCH   2   3
ATOM      3  C   UNL     1       3.444  -2.816 -24.729  1.00  0.00    -0.009 C 
BRANCH   3   4
ATOM      4  C   UNL     1       1.933  -2.932 -24.377  1.00  0.00     0.000 C 
ATOM      5  C   UNL     1       1.624  -3.458 -22.976  1.00  0.00     0.004 C 
ENDBRANCH   3   4
BRANCH   3   6
ATOM      6  C   UNL     1       3.728  -1.669 -25.763  1.00  0.00    -0.014 C 
ATOM      7  C   UNL     1       4.930  -1.929 -26.691  1.00  0.00     0.007 C 
ATOM      8  C   UNL     1       2.483  -1.372 -26.617  1.00  0.00     0.007 C 
ENDBRANCH   3   6
ENDBRANCH   2   3
ENDBRANCH   1   2
BRANCH   1   9
ATOM      9  C   UNL     1       4.175  -0.245 -23.086  1.00  0.00    -0.011 C 
ATOM     10  C   UNL     1       3.441  -0.415 -21.747  1.00  0.00     0.008 C 
BRANCH   9  11
ATOM     11  C   UNL     1       4.770   1.200 -23.253  1.00  0.00    -0.002 C 
ATOM     12  C   UNL     1       4.377   2.159 -22.114  1.00  0.00     0.005 C 
ATOM     13  C   UNL     1       4.614   2.009 -24.587  1.00  0.00    -0.026 C 
ATOM     14  C   UNL     1       4.289   3.555 -22.722  1.00  0.00     0.005 C 
ATOM     15  C   UNL     1       4.920   3.453 -24.116  1.00  0.00    -0.001 C 
ATOM     16  C   UNL     1       3.176   1.929 -25.169  1.00  0.00     0.007 C 
ATOM     17  C   UNL     1       5.659   1.565 -25.646  1.00  0.00     0.012 C 
ATOM     18  C   UNL     1       4.521   4.581 -25.123  1.00  0.00     0.000 C 
ATOM     19  C   UNL     1       2.903   2.985 -26.241  1.00  0.00     0.005 C 
ATOM     20  C   UNL     1       3.091   4.419 -25.692  1.00  0.00     0.003 C 
ATOM     21  C   UNL     1       4.688   5.972 -24.486  1.00  0.00     0.031 C 
ATOM     22  C   UNL     1       2.743   5.543 -26.752  1.00  0.00    -0.008 C 
ATOM     23  C   UNL     1       4.198   7.081 -25.367  1.00  0.00    -0.027 C 
ATOM     24  C   UNL     1       3.209   6.926 -26.270  1.00  0.00    -0.065 C 
ATOM     25  C   UNL     1       1.192   5.580 -26.949  1.00  0.00     0.014 C 
ATOM     26  C   UNL     1       3.424   5.260 -28.120  1.00  0.00     0.016 C 
ATOM     27  C   UNL     1       2.676   8.163 -26.971  1.00  0.00     0.063 C 
ATOM     28  C   UNL     1       0.694   6.805 -27.732  1.00  0.00     0.033 C 
ATOM     29  C   UNL     1       1.147   8.116 -27.079  1.00  0.00     0.118 C 
BRANCH  29  30
ATOM     30  O   UNL     1       0.566   8.239 -25.805  1.00  0.00    -0.393 OA
ATOM     31  H   UNL     1      -0.363   7.897 -25.875  1.00  0.00     0.210 HD
ENDBRANCH  29  30
ENDBRANCH   9  11
ENDBRANCH   1   9
TORSDOF 7
ENDMDL
MODEL 4
REMARK VINA RESULT:    -6.751      2.755      7.982
REMARK INTER + INTRA:         -11.691
REMARK INTER:                 -10.680
REMARK INTRA:                  -1.011
REMARK UNBOUND:                -2.374
REMARK SMILES CC[C@H](CC[C@@H](C)[C@@H]1CC[C@@H]2[C@@H]3CC=C4C[C@H](O)CC[C@]4(C)[C@H]3CC[C@@]21C)C(C)C
REMARK SMILES IDX 5 1 4 2 3 3 2 4 1 5 28 6 29 7 30 8 6 9 7 10 8 11 9 12 26 13
REMARK SMILES IDX 10 14 11 15 25 16 27 17 12 18 24 19 23 20 13 21 21 22 14 23
REMARK SMILES IDX 15 24 20 25 22 26 16 27 19 28 17 29 18 30
REMARK H PARENT 18 31
REMARK Flexibility Score: inf
ROOT
ATOM      1  C   UNL     1       2.898   5.338 -24.919  1.00  0.00     0.004 C 
ENDROOT
BRANCH   1   2
ATOM      2  C   UNL     1       3.726   6.479 -24.294  1.00  0.00     0.004 C 
BRANCH   2   3
ATOM      3  C   UNL     1       4.103   6.232 -22.807  1.00  0.00    -0.009 C 
BRANCH   3   4
ATOM      4  C   UNL     1       3.349   5.041 -22.148  1.00  0.00     0.000 C 
ATOM      5  C   UNL     1       4.233   4.020 -21.433  1.00  0.00     0.004 C 
ENDBRANCH   3   4
BRANCH   3   6
ATOM      6  C   UNL     1       5.653   6.161 -22.565  1.00  0.00    -0.014 C 
ATOM      7  C   UNL     1       6.405   5.212 -23.518  1.00  0.00     0.007 C 
ATOM      8  C   UNL     1       6.290   7.559 -22.636  1.00  0.00     0.007 C 
ENDBRANCH   3   6
ENDBRANCH   2   3
ENDBRANCH   1   2
BRANCH   1   9
ATOM      9  C   UNL     1       3.303   5.071 -26.398  1.00  0.00    -0.011 C 
ATOM     10  C   UNL     1       4.659   5.720 -26.716  1.00  0.00     0.008 C 
BRANCH   9  11
ATOM     11  C   UNL     1       3.231   3.582 -26.898  1.00  0.00    -0.002 C 
ATOM     12  C   UNL     1       1.803   3.121 -27.247  1.00  0.00     0.005 C 
ATOM     13  C   UNL     1       3.892   2.408 -26.095  1.00  0.00    -0.026 C 
ATOM     14  C   UNL     1       1.730   1.631 -26.932  1.00  0.00     0.005 C 
ATOM     15  C   UNL     1       3.176   1.174 -26.698  1.00  0.00    -0.001 C 
ATOM     16  C   UNL     1       3.612   2.497 -24.570  1.00  0.00     0.007 C 
ATOM     17  C   UNL     1       5.417   2.322 -26.369  1.00  0.00     0.012 C 
ATOM     18  C   UNL     1       3.342  -0.154 -25.889  1.00  0.00     0.000 C 
ATOM     19  C   UNL     1       3.922   1.197 -23.826  1.00  0.00     0.005 C 
ATOM     20  C   UNL     1       3.086   0.015 -24.372  1.00  0.00     0.003 C 
ATOM     21  C   UNL     1       2.444  -1.264 -26.462  1.00  0.00     0.031 C 
ATOM     22  C   UNL     1       3.322  -1.334 -23.577  1.00  0.00    -0.008 C 
ATOM     23  C   UNL     1       2.472  -2.520 -25.645  1.00  0.00    -0.027 C 
ATOM     24  C   UNL     1       2.704  -2.532 -24.317  1.00  0.00    -0.065 C 
ATOM     25  C   UNL     1       2.645  -1.211 -22.174  1.00  0.00     0.014 C 
ATOM     26  C   UNL     1       4.838  -1.622 -23.388  1.00  0.00     0.016 C 
ATOM     27  C   UNL     1       2.526  -3.841 -23.568  1.00  0.00     0.063 C 
ATOM     28  C   UNL     1       2.552  -2.542 -21.409  1.00  0.00     0.033 C 
ATOM     29  C   UNL     1       1.820  -3.613 -22.225  1.00  0.00     0.118 C 
BRANCH  29  30
ATOM     30  O   UNL     1       0.487  -3.222 -22.437  1.00  0.00    -0.393 OA
ATOM     31  H   UNL     1       0.398  -3.003 -23.401  1.00  0.00     0.210 HD
ENDBRANCH  29  30
ENDBRANCH   9  11
ENDBRANCH   1   9
TORSDOF 7
ENDMDL
MODEL 5
REMARK VINA RESULT:    -6.739      2.607      7.392
REMARK INTER + INTRA:         -11.674
REMARK INTER:                  -9.800
REMARK INTRA:                  -1.873
REMARK UNBOUND:                -2.374
REMARK SMILES CC[C@H](CC[C@@H](C)[C@@H]1CC[C@@H]2[C@@H]3CC=C4C[C@H](O)CC[C@]4(C)[C@H]3CC[C@@]21C)C(C)C
REMARK SMILES IDX 5 1 4 2 3 3 2 4 1 5 28 6 29 7 30 8 6 9 7 10 8 11 9 12 26 13
REMARK SMILES IDX 10 14 11 15 25 16 27 17 12 18 24 19 23 20 13 21 21 22 14 23
REMARK SMILES IDX 15 24 20 25 22 26 16 27 19 28 17 29 18 30
REMARK H PARENT 18 31
REMARK Flexibility Score: inf
ROOT
ATOM      1  C   UNL     1       3.881   7.266 -24.590  1.00  0.00     0.004 C 
ENDROOT
BRANCH   1   2
ATOM      2  C   UNL     1       3.970   7.433 -26.119  1.00  0.00     0.004 C 
BRANCH   2   3
ATOM      3  C   UNL     1       2.785   6.784 -26.887  1.00  0.00    -0.009 C 
BRANCH   3   4
ATOM      4  C   UNL     1       3.217   5.752 -27.969  1.00  0.00     0.000 C 
ATOM      5  C   UNL     1       4.724   5.539 -28.108  1.00  0.00     0.004 C 
ENDBRANCH   3   4
BRANCH   3   6
ATOM      6  C   UNL     1       1.668   6.219 -25.940  1.00  0.00    -0.014 C 
ATOM      7  C   UNL     1       0.435   7.132 -25.791  1.00  0.00     0.007 C 
ATOM      8  C   UNL     1       1.212   4.822 -26.392  1.00  0.00     0.007 C 
ENDBRANCH   3   6
ENDBRANCH   2   3
ENDBRANCH   1   2
BRANCH   1   9
ATOM      9  C   UNL     1       5.249   6.852 -23.971  1.00  0.00    -0.011 C 
ATOM     10  C   UNL     1       5.921   8.052 -23.286  1.00  0.00     0.008 C 
BRANCH   9  11
ATOM     11  C   UNL     1       5.258   5.572 -23.058  1.00  0.00    -0.002 C 
ATOM     12  C   UNL     1       6.674   5.036 -22.769  1.00  0.00     0.005 C 
ATOM     13  C   UNL     1       4.368   4.322 -23.378  1.00  0.00    -0.026 C 
ATOM     14  C   UNL     1       6.552   3.523 -22.625  1.00  0.00     0.005 C 
ATOM     15  C   UNL     1       5.052   3.223 -22.526  1.00  0.00    -0.001 C 
ATOM     16  C   UNL     1       4.405   3.932 -24.881  1.00  0.00     0.007 C 
ATOM     17  C   UNL     1       2.906   4.529 -22.901  1.00  0.00     0.012 C 
ATOM     18  C   UNL     1       4.631   1.756 -22.867  1.00  0.00     0.000 C 
ATOM     19  C   UNL     1       3.857   2.530 -25.152  1.00  0.00     0.005 C 
ATOM     20  C   UNL     1       4.653   1.449 -24.384  1.00  0.00     0.003 C 
ATOM     21  C   UNL     1       5.500   0.742 -22.103  1.00  0.00     0.031 C 
ATOM     22  C   UNL     1       4.164  -0.025 -24.697  1.00  0.00    -0.008 C 
ATOM     23  C   UNL     1       5.221  -0.678 -22.493  1.00  0.00    -0.027 C 
ATOM     24  C   UNL     1       4.777  -1.036 -23.714  1.00  0.00    -0.065 C 
ATOM     25  C   UNL     1       4.614  -0.402 -26.146  1.00  0.00     0.014 C 
ATOM     26  C   UNL     1       2.618  -0.141 -24.597  1.00  0.00     0.016 C 
ATOM     27  C   UNL     1       4.707  -2.515 -24.049  1.00  0.00     0.063 C 
ATOM     28  C   UNL     1       4.456  -1.894 -26.478  1.00  0.00     0.033 C 
ATOM     29  C   UNL     1       5.205  -2.780 -25.475  1.00  0.00     0.118 C 
BRANCH  29  30
ATOM     30  O   UNL     1       6.586  -2.533 -25.562  1.00  0.00    -0.393 OA
ATOM     31  H   UNL     1       6.707  -1.779 -26.195  1.00  0.00     0.210 HD
ENDBRANCH  29  30
ENDBRANCH   9  11
ENDBRANCH   1   9
TORSDOF 7
ENDMDL
MODEL 6
REMARK VINA RESULT:    -6.284      2.045      3.776
REMARK INTER + INTRA:         -11.047
REMARK INTER:                  -9.322
REMARK INTRA:                  -1.725
REMARK UNBOUND:                -2.374
REMARK SMILES CC[C@H](CC[C@@H](C)[C@@H]1CC[C@@H]2[C@@H]3CC=C4C[C@H](O)CC[C@]4(C)[C@H]3CC[C@@]21C)C(C)C
REMARK SMILES IDX 5 1 4 2 3 3 2 4 1 5 28 6 29 7 30 8 6 9 7 10 8 11 9 12 26 13
REMARK SMILES IDX 10 14 11 15 25 16 27 17 12 18 24 19 23 20 13 21 21 22 14 23
REMARK SMILES IDX 15 24 20 25 22 26 16 27 19 28 17 29 18 30
REMARK H PARENT 18 31
REMARK Flexibility Score: inf
ROOT
ATOM      1  C   UNL     1       5.032  -2.163 -25.879  1.00  0.00     0.004 C 
ENDROOT
BRANCH   1   2
ATOM      2  C   UNL     1       3.993  -2.709 -24.880  1.00  0.00     0.004 C 
BRANCH   2   3
ATOM      3  C   UNL     1       4.184  -2.182 -23.430  1.00  0.00    -0.009 C 
BRANCH   3   4
ATOM      4  C   UNL     1       5.388  -1.211 -23.261  1.00  0.00     0.000 C 
ATOM      5  C   UNL     1       5.085   0.087 -22.513  1.00  0.00     0.004 C 
ENDBRANCH   3   4
BRANCH   3   6
ATOM      6  C   UNL     1       2.865  -1.609 -22.801  1.00  0.00    -0.014 C 
ATOM      7  C   UNL     1       1.714  -1.406 -23.805  1.00  0.00     0.007 C 
ATOM      8  C   UNL     1       2.375  -2.492 -21.640  1.00  0.00     0.007 C 
ENDBRANCH   3   6
ENDBRANCH   2   3
ENDBRANCH   1   2
BRANCH   1   9
ATOM      9  C   UNL     1       4.377  -1.755 -27.231  1.00  0.00    -0.011 C 
ATOM     10  C   UNL     1       2.885  -2.122 -27.246  1.00  0.00     0.008 C 
BRANCH   9  11
ATOM     11  C   UNL     1       4.627  -0.284 -27.727  1.00  0.00    -0.002 C 
ATOM     12  C   UNL     1       6.098   0.160 -27.611  1.00  0.00     0.005 C 
ATOM     13  C   UNL     1       3.759   0.918 -27.218  1.00  0.00    -0.026 C 
ATOM     14  C   UNL     1       6.085   1.660 -27.337  1.00  0.00     0.005 C 
ATOM     15  C   UNL     1       4.648   2.130 -27.596  1.00  0.00    -0.001 C 
ATOM     16  C   UNL     1       3.531   0.881 -25.682  1.00  0.00     0.007 C 
ATOM     17  C   UNL     1       2.404   1.000 -27.971  1.00  0.00     0.012 C 
ATOM     18  C   UNL     1       4.249   3.485 -26.926  1.00  0.00     0.000 C 
ATOM     19  C   UNL     1       3.016   2.206 -25.118  1.00  0.00     0.005 C 
ATOM     20  C   UNL     1       3.999   3.367 -25.403  1.00  0.00     0.003 C 
ATOM     21  C   UNL     1       5.298   4.572 -27.213  1.00  0.00     0.031 C 
ATOM     22  C   UNL     1       3.538   4.743 -24.769  1.00  0.00    -0.008 C 
ATOM     23  C   UNL     1       5.026   5.855 -26.488  1.00  0.00    -0.027 C 
ATOM     24  C   UNL     1       4.378   5.913 -25.307  1.00  0.00    -0.065 C 
ATOM     25  C   UNL     1       3.726   4.665 -23.219  1.00  0.00     0.014 C 
ATOM     26  C   UNL     1       2.047   5.041 -25.088  1.00  0.00     0.016 C 
ATOM     27  C   UNL     1       4.324   7.246 -24.582  1.00  0.00     0.063 C 
ATOM     28  C   UNL     1       3.586   6.021 -22.507  1.00  0.00     0.033 C 
ATOM     29  C   UNL     1       4.556   7.062 -23.077  1.00  0.00     0.118 C 
BRANCH  29  30
ATOM     30  O   UNL     1       5.882   6.660 -22.835  1.00  0.00    -0.393 OA
ATOM     31  H   UNL     1       6.395   7.476 -22.600  1.00  0.00     0.210 HD
ENDBRANCH  29  30
ENDBRANCH   9  11
ENDBRANCH   1   9
TORSDOF 7
ENDMDL
MODEL 7
REMARK VINA RESULT:    -6.246      2.467      7.949
REMARK INTER + INTRA:         -10.994
REMARK INTER:                  -9.831
REMARK INTRA:                  -1.163
REMARK UNBOUND:                -2.374
REMARK SMILES CC[C@H](CC[C@@H](C)[C@@H]1CC[C@@H]2[C@@H]3CC=C4C[C@H](O)CC[C@]4(C)[C@H]3CC[C@@]21C)C(C)C
REMARK SMILES IDX 5 1 4 2 3 3 2 4 1 5 28 6 29 7 30 8 6 9 7 10 8 11 9 12 26 13
REMARK SMILES IDX 10 14 11 15 25 16 27 17 12 18 24 19 23 20 13 21 21 22 14 23
REMARK SMILES IDX 15 24 20 25 22 26 16 27 19 28 17 29 18 30
REMARK H PARENT 18 31
REMARK Flexibility Score: inf
ROOT
ATOM      1  C   UNL     1       4.373   6.810 -24.476  1.00  0.00     0.004 C 
ENDROOT
BRANCH   1   2
ATOM      2  C   UNL     1       2.971   7.320 -24.865  1.00  0.00     0.004 C 
BRANCH   2   3
ATOM      3  C   UNL     1       2.837   7.688 -26.369  1.00  0.00    -0.009 C 
BRANCH   3   4
ATOM      4  C   UNL     1       4.109   7.388 -27.213  1.00  0.00     0.000 C 
ATOM      5  C   UNL     1       4.021   6.160 -28.119  1.00  0.00     0.004 C 
ENDBRANCH   3   4
BRANCH   3   6
ATOM      6  C   UNL     1       1.534   7.115 -27.033  1.00  0.00    -0.014 C 
ATOM      7  C   UNL     1       0.421   6.742 -26.035  1.00  0.00     0.007 C 
ATOM      8  C   UNL     1       0.970   8.090 -28.079  1.00  0.00     0.007 C 
ENDBRANCH   3   6
ENDBRANCH   2   3
ENDBRANCH   1   2
BRANCH   1   9
ATOM      9  C   UNL     1       4.316   5.403 -23.813  1.00  0.00    -0.011 C 
ATOM     10  C   UNL     1       3.244   5.364 -22.712  1.00  0.00     0.008 C 
BRANCH   9  11
ATOM     11  C   UNL     1       4.215   4.166 -24.778  1.00  0.00    -0.002 C 
ATOM     12  C   UNL     1       2.844   4.040 -25.471  1.00  0.00     0.005 C 
ATOM     13  C   UNL     1       4.611   2.722 -24.314  1.00  0.00    -0.026 C 
ATOM     14  C   UNL     1       2.589   2.551 -25.676  1.00  0.00     0.005 C 
ATOM     15  C   UNL     1       3.920   1.846 -25.389  1.00  0.00    -0.001 C 
ATOM     16  C   UNL     1       4.057   2.375 -22.905  1.00  0.00     0.007 C 
ATOM     17  C   UNL     1       6.148   2.510 -24.366  1.00  0.00     0.012 C 
ATOM     18  C   UNL     1       3.818   0.324 -25.045  1.00  0.00     0.000 C 
ATOM     19  C   UNL     1       4.110   0.879 -22.590  1.00  0.00     0.005 C 
ATOM     20  C   UNL     1       3.296   0.052 -23.614  1.00  0.00     0.003 C 
ATOM     21  C   UNL     1       2.955  -0.418 -26.079  1.00  0.00     0.031 C 
ATOM     22  C   UNL     1       3.263  -1.496 -23.279  1.00  0.00    -0.008 C 
ATOM     23  C   UNL     1       2.722  -1.856 -25.724  1.00  0.00    -0.027 C 
ATOM     24  C   UNL     1       2.697  -2.308 -24.454  1.00  0.00    -0.065 C 
ATOM     25  C   UNL     1       2.346  -1.717 -22.032  1.00  0.00     0.014 C 
ATOM     26  C   UNL     1       4.686  -2.037 -22.967  1.00  0.00     0.016 C 
ATOM     27  C   UNL     1       2.271  -3.746 -24.212  1.00  0.00     0.063 C 
ATOM     28  C   UNL     1       1.998  -3.191 -21.769  1.00  0.00     0.033 C 
ATOM     29  C   UNL     1       1.346  -3.846 -22.992  1.00  0.00     0.118 C 
BRANCH  29  30
ATOM     30  O   UNL     1       0.114  -3.225 -23.264  1.00  0.00    -0.393 OA
ATOM     31  H   UNL     1      -0.497  -3.929 -23.603  1.00  0.00     0.210 HD
ENDBRANCH  29  30
ENDBRANCH   9  11
ENDBRANCH   1   9
TORSDOF 7
ENDMDL
MODEL 8
REMARK VINA RESULT:    -6.143      2.362      7.586
REMARK INTER + INTRA:         -10.851
REMARK INTER:                  -9.458
REMARK INTRA:                  -1.393
REMARK UNBOUND:                -2.374
REMARK SMILES CC[C@H](CC[C@@H](C)[C@@H]1CC[C@@H]2[C@@H]3CC=C4C[C@H](O)CC[C@]4(C)[C@H]3CC[C@@]21C)C(C)C
REMARK SMILES IDX 5 1 4 2 3 3 2 4 1 5 28 6 29 7 30 8 6 9 7 10 8 11 9 12 26 13
REMARK SMILES IDX 10 14 11 15 25 16 27 17 12 18 24 19 23 20 13 21 21 22 14 23
REMARK SMILES IDX 15 24 20 25 22 26 16 27 19 28 17 29 18 30
REMARK H PARENT 18 31
REMARK Flexibility Score: inf
ROOT
ATOM      1  C   UNL     1       2.787   6.446 -24.352  1.00  0.00     0.004 C 
ENDROOT
BRANCH   1   2
ATOM      2  C   UNL     1       2.218   7.628 -25.162  1.00  0.00     0.004 C 
BRANCH   2   3
ATOM      3  C   UNL     1       1.287   7.194 -26.328  1.00  0.00    -0.009 C 
BRANCH   3   4
ATOM      4  C   UNL     1       1.893   7.421 -27.743  1.00  0.00     0.000 C 
ATOM      5  C   UNL     1       3.308   7.997 -27.766  1.00  0.00     0.004 C 
ENDBRANCH   3   4
BRANCH   3   6
ATOM      6  C   UNL     1       0.711   5.744 -26.154  1.00  0.00    -0.014 C 
ATOM      7  C   UNL     1      -0.699   5.687 -25.534  1.00  0.00     0.007 C 
ATOM      8  C   UNL     1       0.707   4.984 -27.492  1.00  0.00     0.007 C 
ENDBRANCH   3   6
ENDBRANCH   2   3
ENDBRANCH   1   2
BRANCH   1   9
ATOM      9  C   UNL     1       4.330   6.319 -24.517  1.00  0.00    -0.011 C 
ATOM     10  C   UNL     1       5.043   6.589 -23.183  1.00  0.00     0.008 C 
BRANCH   9  11
ATOM     11  C   UNL     1       4.866   5.019 -25.220  1.00  0.00    -0.002 C 
ATOM     12  C   UNL     1       4.060   4.623 -26.472  1.00  0.00     0.005 C 
ATOM     13  C   UNL     1       5.125   3.695 -24.421  1.00  0.00    -0.026 C 
ATOM     14  C   UNL     1       4.106   3.101 -26.563  1.00  0.00     0.005 C 
ATOM     15  C   UNL     1       5.174   2.646 -25.560  1.00  0.00    -0.001 C 
ATOM     16  C   UNL     1       3.972   3.359 -23.435  1.00  0.00     0.007 C 
ATOM     17  C   UNL     1       6.487   3.736 -23.679  1.00  0.00     0.012 C 
ATOM     18  C   UNL     1       5.076   1.155 -25.099  1.00  0.00     0.000 C 
ATOM     19  C   UNL     1       4.018   1.918 -22.926  1.00  0.00     0.005 C 
ATOM     20  C   UNL     1       3.932   0.900 -24.088  1.00  0.00     0.003 C 
ATOM     21  C   UNL     1       4.943   0.212 -26.306  1.00  0.00     0.031 C 
ATOM     22  C   UNL     1       3.900  -0.605 -23.596  1.00  0.00    -0.008 C 
ATOM     23  C   UNL     1       4.718  -1.216 -25.912  1.00  0.00    -0.027 C 
ATOM     24  C   UNL     1       4.101  -1.579 -24.769  1.00  0.00    -0.065 C 
ATOM     25  C   UNL     1       2.507  -0.888 -22.946  1.00  0.00     0.014 C 
ATOM     26  C   UNL     1       5.016  -0.883 -22.551  1.00  0.00     0.016 C 
ATOM     27  C   UNL     1       3.767  -3.046 -24.567  1.00  0.00     0.063 C 
ATOM     28  C   UNL     1       2.234  -2.378 -22.682  1.00  0.00     0.033 C 
ATOM     29  C   UNL     1       2.368  -3.213 -23.961  1.00  0.00     0.118 C 
BRANCH  29  30
ATOM     30  O   UNL     1       1.387  -2.824 -24.889  1.00  0.00    -0.393 OA
ATOM     31  H   UNL     1       0.712  -3.550 -24.919  1.00  0.00     0.210 HD
ENDBRANCH  29  30
ENDBRANCH   9  11
ENDBRANCH   1   9
TORSDOF 7
ENDMDL
MODEL 9
REMARK VINA RESULT:    -6.133      2.469      8.103
REMARK INTER + INTRA:         -10.837
REMARK INTER:                 -10.129
REMARK INTRA:                  -0.709
REMARK UNBOUND:                -2.374
REMARK SMILES CC[C@H](CC[C@@H](C)[C@@H]1CC[C@@H]2[C@@H]3CC=C4C[C@H](O)CC[C@]4(C)[C@H]3CC[C@@]21C)C(C)C
REMARK SMILES IDX 5 1 4 2 3 3 2 4 1 5 28 6 29 7 30 8 6 9 7 10 8 11 9 12 26 13
REMARK SMILES IDX 10 14 11 15 25 16 27 17 12 18 24 19 23 20 13 21 21 22 14 23
REMARK SMILES IDX 15 24 20 25 22 26 16 27 19 28 17 29 18 30
REMARK H PARENT 18 31
REMARK Flexibility Score: inf
ROOT
ATOM      1  C   UNL     1       3.250   5.885 -24.089  1.00  0.00     0.004 C 
ENDROOT
BRANCH   1   2
ATOM      2  C   UNL     1       2.723   7.162 -24.773  1.00  0.00     0.004 C 
BRANCH   2   3
ATOM      3  C   UNL     1       1.919   6.885 -26.074  1.00  0.00    -0.009 C 
BRANCH   3   4
ATOM      4  C   UNL     1       0.379   7.048 -25.917  1.00  0.00     0.000 C 
ATOM      5  C   UNL     1      -0.422   5.747 -25.932  1.00  0.00     0.004 C 
ENDBRANCH   3   4
BRANCH   3   6
ATOM      6  C   UNL     1       2.474   7.661 -27.321  1.00  0.00    -0.014 C 
ATOM      7  C   UNL     1       1.538   8.761 -27.858  1.00  0.00     0.007 C 
ATOM      8  C   UNL     1       3.855   8.271 -27.025  1.00  0.00     0.007 C 
ENDBRANCH   3   6
ENDBRANCH   2   3
ENDBRANCH   1   2
BRANCH   1   9
ATOM      9  C   UNL     1       4.462   5.276 -24.853  1.00  0.00    -0.011 C 
ATOM     10  C   UNL     1       5.685   5.160 -23.929  1.00  0.00     0.008 C 
BRANCH   9  11
ATOM     11  C   UNL     1       4.204   3.950 -25.657  1.00  0.00    -0.002 C 
ATOM     12  C   UNL     1       2.759   3.822 -26.178  1.00  0.00     0.005 C 
ATOM     13  C   UNL     1       4.594   2.545 -25.080  1.00  0.00    -0.026 C 
ATOM     14  C   UNL     1       2.424   2.334 -26.187  1.00  0.00     0.005 C 
ATOM     15  C   UNL     1       3.751   1.596 -25.969  1.00  0.00    -0.001 C 
ATOM     16  C   UNL     1       4.190   2.379 -23.589  1.00  0.00     0.007 C 
ATOM     17  C   UNL     1       6.105   2.250 -25.275  1.00  0.00     0.012 C 
ATOM     18  C   UNL     1       3.629   0.127 -25.448  1.00  0.00     0.000 C 
ATOM     19  C   UNL     1       4.220   0.925 -23.117  1.00  0.00     0.005 C 
ATOM     20  C   UNL     1       3.263   0.036 -23.947  1.00  0.00     0.003 C 
ATOM     21  C   UNL     1       2.625  -0.676 -26.293  1.00  0.00     0.031 C 
ATOM     22  C   UNL     1       3.208  -1.463 -23.440  1.00  0.00    -0.008 C 
ATOM     23  C   UNL     1       2.379  -2.054 -25.756  1.00  0.00    -0.027 C 
ATOM     24  C   UNL     1       2.481  -2.366 -24.449  1.00  0.00    -0.065 C 
ATOM     25  C   UNL     1       2.431  -1.502 -22.084  1.00  0.00     0.014 C 
ATOM     26  C   UNL     1       4.636  -2.040 -23.226  1.00  0.00     0.016 C 
ATOM     27  C   UNL     1       2.029  -3.746 -24.003  1.00  0.00     0.063 C 
ATOM     28  C   UNL     1       2.058  -2.920 -21.621  1.00  0.00     0.033 C 
ATOM     29  C   UNL     1       1.246  -3.667 -22.686  1.00  0.00     0.118 C 
BRANCH  29  30
ATOM     30  O   UNL     1       0.017  -3.017 -22.889  1.00  0.00    -0.393 OA
ATOM     31  H   UNL     1      -0.493  -3.558 -23.547  1.00  0.00     0.210 HD
ENDBRANCH  29  30
ENDBRANCH   9  11
ENDBRANCH   1   9
TORSDOF 7
ENDMDL
