MODEL 1
REMARK VINA RESULT:    11.627      0.000      0.000
REMARK INTER + INTRA:          13.771
REMARK INTER:                  14.686
REMARK INTRA:                  -0.915
REMARK UNBOUND:                -0.915
REMARK SMILES CC(C)[C@@H](C)C=C[C@@H](C)[C@@H]1CC[C@@H]2C3=CC=C4C[C@H](O)CC[C@]4(C)[C@H]3CC[C@@]21C
REMARK SMILES IDX 8 1 9 2 7 3 6 4 4 5 5 6 2 7 1 8 3 9 10 10 11 11 28 12 12 13
REMARK SMILES IDX 13 14 27 15 29 16 14 17 26 18 25 19 15 20 23 21 16 22 17 23
REMARK SMILES IDX 22 24 24 25 18 26 21 27 19 28 20 29
REMARK H PARENT 20 30
REMARK Flexibility Score: inf
ROOT
ATOM      1  C   UNL     1      12.640  17.636  24.075  1.00  0.00     0.012 C 
ATOM      2  C   UNL     1      11.124  17.589  23.806  1.00  0.00     0.012 C 
ENDROOT
BRANCH   1   3
ATOM      3  C   UNL     1      13.366  18.062  22.815  1.00  0.00    -0.028 C 
ATOM      4  C   UNL     1      14.617  17.661  22.531  1.00  0.00    -0.028 C 
BRANCH   4   5
ATOM      5  C   UNL     1      15.330  18.122  21.276  1.00  0.00     0.011 C 
ATOM      6  C   UNL     1      14.528  17.715  20.027  1.00  0.00     0.012 C 
BRANCH   5   7
ATOM      7  C   UNL     1      16.806  17.616  21.255  1.00  0.00    -0.011 C 
ATOM      8  C   UNL     1      17.544  17.952  22.560  1.00  0.00     0.008 C 
ATOM      9  C   UNL     1      17.612  18.124  20.046  1.00  0.00     0.008 C 
ENDBRANCH   5   7
ENDBRANCH   4   5
ENDBRANCH   1   3
BRANCH   1  10
ATOM     10  C   UNL     1      13.281  16.336  24.687  1.00  0.00     0.002 C 
ATOM     11  C   UNL     1      12.334  15.160  24.986  1.00  0.00     0.005 C 
ATOM     12  C   UNL     1      14.116  16.514  25.985  1.00  0.00    -0.023 C 
ATOM     13  C   UNL     1      13.044  14.296  26.035  1.00  0.00     0.009 C 
ATOM     14  C   UNL     1      14.331  15.043  26.412  1.00  0.00     0.021 C 
ATOM     15  C   UNL     1      13.337  17.320  27.078  1.00  0.00     0.008 C 
ATOM     16  C   UNL     1      15.474  17.196  25.687  1.00  0.00     0.012 C 
ATOM     17  C   UNL     1      14.722  14.929  27.875  1.00  0.00    -0.063 C 
ATOM     18  C   UNL     1      13.882  17.131  28.507  1.00  0.00     0.009 C 
ATOM     19  C   UNL     1      13.856  15.633  28.897  1.00  0.00     0.025 C 
ATOM     20  C   UNL     1      15.985  14.600  28.180  1.00  0.00    -0.000 C 
ATOM     21  C   UNL     1      14.241  15.287  30.397  1.00  0.00    -0.005 C 
ATOM     22  C   UNL     1      16.515  14.727  29.540  1.00  0.00    -0.000 C 
ATOM     23  C   UNL     1      15.739  15.065  30.579  1.00  0.00    -0.061 C 
ATOM     24  C   UNL     1      13.560  13.944  30.804  1.00  0.00     0.014 C 
ATOM     25  C   UNL     1      13.741  16.413  31.345  1.00  0.00     0.017 C 
ATOM     26  C   UNL     1      16.210  14.681  31.961  1.00  0.00     0.063 C 
ATOM     27  C   UNL     1      14.004  13.414  32.191  1.00  0.00     0.033 C 
ATOM     28  C   UNL     1      15.541  13.352  32.358  1.00  0.00     0.118 C 
BRANCH  28  29
ATOM     29  O   UNL     1      16.069  12.313  31.573  1.00  0.00    -0.393 OA
ATOM     30  H   UNL     1      15.335  11.659  31.432  1.00  0.00     0.210 HD
ENDBRANCH  28  29
ENDBRANCH   1  10
TORSDOF 5
ENDMDL
MODEL 2
REMARK VINA RESULT:    12.139      1.403      2.013
REMARK INTER + INTRA:          14.418
REMARK INTER:                  15.171
REMARK INTRA:                  -0.753
REMARK UNBOUND:                -0.915
REMARK SMILES CC(C)[C@@H](C)C=C[C@@H](C)[C@@H]1CC[C@@H]2C3=CC=C4C[C@H](O)CC[C@]4(C)[C@H]3CC[C@@]21C
REMARK SMILES IDX 8 1 9 2 7 3 6 4 4 5 5 6 2 7 1 8 3 9 10 10 11 11 28 12 12 13
REMARK SMILES IDX 13 14 27 15 29 16 14 17 26 18 25 19 15 20 23 21 16 22 17 23
REMARK SMILES IDX 22 24 24 25 18 26 21 27 19 28 20 29
REMARK H PARENT 20 30
REMARK Flexibility Score: inf
ROOT
ATOM      1  C   UNL     1      11.675  17.387  25.307  1.00  0.00     0.012 C 
ATOM      2  C   UNL     1      10.309  16.687  25.439  1.00  0.00     0.012 C 
ENDROOT
BRANCH   1   3
ATOM      3  C   UNL     1      11.770  18.064  23.955  1.00  0.00    -0.028 C 
ATOM      4  C   UNL     1      12.182  17.418  22.850  1.00  0.00    -0.028 C 
BRANCH   4   5
ATOM      5  C   UNL     1      12.293  18.125  21.514  1.00  0.00     0.011 C 
ATOM      6  C   UNL     1      11.297  17.521  20.508  1.00  0.00     0.012 C 
BRANCH   5   7
ATOM      7  C   UNL     1      13.767  18.123  21.003  1.00  0.00    -0.011 C 
ATOM      8  C   UNL     1      14.004  17.034  19.947  1.00  0.00     0.008 C 
ATOM      9  C   UNL     1      14.807  18.001  22.131  1.00  0.00     0.008 C 
ENDBRANCH   5   7
ENDBRANCH   4   5
ENDBRANCH   1   3
BRANCH   1  10
ATOM     10  C   UNL     1      12.944  16.499  25.587  1.00  0.00     0.002 C 
ATOM     11  C   UNL     1      12.837  14.999  25.263  1.00  0.00     0.005 C 
ATOM     12  C   UNL     1      13.531  16.556  27.024  1.00  0.00    -0.023 C 
ATOM     13  C   UNL     1      13.915  14.303  26.102  1.00  0.00     0.009 C 
ATOM     14  C   UNL     1      14.547  15.390  26.984  1.00  0.00     0.021 C 
ATOM     15  C   UNL     1      12.433  16.320  28.116  1.00  0.00     0.008 C 
ATOM     16  C   UNL     1      14.257  17.899  27.281  1.00  0.00     0.012 C 
ATOM     17  C   UNL     1      14.936  14.927  28.376  1.00  0.00    -0.063 C 
ATOM     18  C   UNL     1      12.991  15.895  29.488  1.00  0.00     0.009 C 
ATOM     19  C   UNL     1      13.825  14.597  29.350  1.00  0.00     0.025 C 
ATOM     20  C   UNL     1      16.161  15.220  28.834  1.00  0.00    -0.000 C 
ATOM     21  C   UNL     1      14.340  13.942  30.700  1.00  0.00    -0.005 C 
ATOM     22  C   UNL     1      16.526  15.052  30.242  1.00  0.00    -0.000 C 
ATOM     23  C   UNL     1      15.698  14.487  31.131  1.00  0.00    -0.061 C 
ATOM     24  C   UNL     1      14.548  12.413  30.480  1.00  0.00     0.014 C 
ATOM     25  C   UNL     1      13.290  14.152  31.825  1.00  0.00     0.017 C 
ATOM     26  C   UNL     1      16.307  13.895  32.380  1.00  0.00     0.063 C 
ATOM     27  C   UNL     1      15.217  11.694  31.679  1.00  0.00     0.033 C 
ATOM     28  C   UNL     1      16.516  12.386  32.159  1.00  0.00     0.118 C 
BRANCH  28  29
ATOM     29  O   UNL     1      17.540  12.192  31.217  1.00  0.00    -0.393 OA
ATOM     30  H   UNL     1      18.338  12.677  31.556  1.00  0.00     0.210 HD
ENDBRANCH  28  29
ENDBRANCH   1  10
TORSDOF 5
ENDMDL
