MODEL 1
REMARK VINA RESULT:    -4.114      0.000      0.000
REMARK INTER + INTRA:          -6.213
REMARK INTER:                  -5.798
REMARK INTRA:                  -0.415
REMARK UNBOUND:                -0.415
REMARK SMILES C=CCCCCCCC(=O)[O-]
REMARK SMILES IDX 6 1 7 2 8 3 9 4 10 5 11 6 5 7 4 8 3 9 2 10 1 11
REMARK H PARENT
REMARK Flexibility Score: inf
ROOT
ATOM      1  C   UNL     1     -20.519  -0.278   6.862  1.00  0.00     0.000 C 
ENDROOT
BRANCH   1   2
ATOM      2  C   UNL     1     -19.911   0.877   7.678  1.00  0.00     0.006 C 
BRANCH   2   3
ATOM      3  C   UNL     1     -20.761   2.152   7.597  1.00  0.00     0.053 C 
BRANCH   3   4
ATOM      4  C   UNL     1     -21.423   2.460   8.905  1.00  0.00     0.041 C 
ATOM      5  O   UNL     1     -21.984   3.573   9.085  1.00  0.00    -0.550 OA
ATOM      6  O   UNL     1     -21.450   1.505   9.913  1.00  0.00    -0.550 OA
ENDBRANCH   3   4
ENDBRANCH   2   3
ENDBRANCH   1   2
BRANCH   1   7
ATOM      7  C   UNL     1     -20.270  -1.650   7.507  1.00  0.00     0.000 C 
BRANCH   7   8
ATOM      8  C   UNL     1     -20.133  -1.568   9.037  1.00  0.00     0.004 C 
BRANCH   8   9
ATOM      9  C   UNL     1     -19.495  -2.833   9.628  1.00  0.00     0.027 C 
BRANCH   9  10
ATOM     10  C   UNL     1     -19.223  -3.862   8.563  1.00  0.00    -0.035 C 
ATOM     11  C   UNL     1     -19.374  -5.170   8.791  1.00  0.00     0.004 C 
ENDBRANCH   9  10
ENDBRANCH   8   9
ENDBRANCH   7   8
ENDBRANCH   1   7
TORSDOF 7
ENDMDL
MODEL 2
REMARK VINA RESULT:    -4.067      2.656      4.997
REMARK INTER + INTRA:          -6.147
REMARK INTER:                  -5.768
REMARK INTRA:                  -0.379
REMARK UNBOUND:                -0.415
REMARK SMILES C=CCCCCCCC(=O)[O-]
REMARK SMILES IDX 6 1 7 2 8 3 9 4 10 5 11 6 5 7 4 8 3 9 2 10 1 11
REMARK H PARENT
REMARK Flexibility Score: inf
ROOT
ATOM      1  C   UNL     1     -20.360   0.108   6.780  1.00  0.00     0.000 C 
ENDROOT
BRANCH   1   2
ATOM      2  C   UNL     1     -20.365  -1.259   7.487  1.00  0.00     0.006 C 
BRANCH   2   3
ATOM      3  C   UNL     1     -20.342  -1.120   9.015  1.00  0.00     0.053 C 
BRANCH   3   4
ATOM      4  C   UNL     1     -19.579  -2.236   9.662  1.00  0.00     0.041 C 
ATOM      5  O   UNL     1     -19.250  -2.160  10.875  1.00  0.00    -0.550 OA
ATOM      6  O   UNL     1     -19.261  -3.374   8.933  1.00  0.00    -0.550 OA
ENDBRANCH   3   4
ENDBRANCH   2   3
ENDBRANCH   1   2
BRANCH   1   7
ATOM      7  C   UNL     1     -20.009   1.262   7.732  1.00  0.00     0.000 C 
BRANCH   7   8
ATOM      8  C   UNL     1     -21.077   2.369   7.740  1.00  0.00     0.004 C 
BRANCH   8   9
ATOM      9  C   UNL     1     -21.435   2.815   9.164  1.00  0.00     0.027 C 
BRANCH   9  10
ATOM     10  C   UNL     1     -21.783   1.641  10.039  1.00  0.00    -0.035 C 
ATOM     11  C   UNL     1     -21.406   1.579  11.320  1.00  0.00     0.004 C 
ENDBRANCH   9  10
ENDBRANCH   8   9
ENDBRANCH   7   8
ENDBRANCH   1   7
TORSDOF 7
ENDMDL
MODEL 3
REMARK VINA RESULT:    -4.021      2.532      5.948
REMARK INTER + INTRA:          -6.082
REMARK INTER:                  -5.755
REMARK INTRA:                  -0.326
REMARK UNBOUND:                -0.415
REMARK SMILES C=CCCCCCCC(=O)[O-]
REMARK SMILES IDX 6 1 7 2 8 3 9 4 10 5 11 6 5 7 4 8 3 9 2 10 1 11
REMARK H PARENT
REMARK Flexibility Score: inf
ROOT
ATOM      1  C   UNL     1     -20.318   0.536   7.125  1.00  0.00     0.000 C 
ENDROOT
BRANCH   1   2
ATOM      2  C   UNL     1     -20.600  -0.600   8.124  1.00  0.00     0.006 C 
BRANCH   2   3
ATOM      3  C   UNL     1     -19.961  -1.926   7.689  1.00  0.00     0.053 C 
BRANCH   3   4
ATOM      4  C   UNL     1     -19.548  -2.755   8.866  1.00  0.00     0.041 C 
ATOM      5  O   UNL     1     -19.163  -3.943   8.701  1.00  0.00    -0.550 OA
ATOM      6  O   UNL     1     -19.557  -2.205  10.141  1.00  0.00    -0.550 OA
ENDBRANCH   3   4
ENDBRANCH   2   3
ENDBRANCH   1   2
BRANCH   1   7
ATOM      7  C   UNL     1     -20.739   1.912   7.663  1.00  0.00     0.000 C 
BRANCH   7   8
ATOM      8  C   UNL     1     -21.130   1.871   9.150  1.00  0.00     0.004 C 
BRANCH   8   9
ATOM      9  C   UNL     1     -22.105   2.996   9.522  1.00  0.00     0.027 C 
BRANCH   9  10
ATOM     10  C   UNL     1     -21.905   4.209   8.652  1.00  0.00    -0.035 C 
ATOM     11  C   UNL     1     -21.575   5.398   9.164  1.00  0.00     0.004 C 
ENDBRANCH   9  10
ENDBRANCH   8   9
ENDBRANCH   7   8
ENDBRANCH   1   7
TORSDOF 7
ENDMDL
MODEL 4
REMARK VINA RESULT:    -3.831      1.100      1.790
REMARK INTER + INTRA:          -5.814
REMARK INTER:                  -5.539
REMARK INTRA:                  -0.275
REMARK UNBOUND:                -0.415
REMARK SMILES C=CCCCCCCC(=O)[O-]
REMARK SMILES IDX 6 1 7 2 8 3 9 4 10 5 11 6 5 7 4 8 3 9 2 10 1 11
REMARK H PARENT
REMARK Flexibility Score: inf
ROOT
ATOM      1  C   UNL     1     -20.049   0.046   6.877  1.00  0.00     0.000 C 
ENDROOT
BRANCH   1   2
ATOM      2  C   UNL     1     -20.455   1.366   7.557  1.00  0.00     0.006 C 
BRANCH   2   3
ATOM      3  C   UNL     1     -20.702   1.189   9.061  1.00  0.00     0.053 C 
BRANCH   3   4
ATOM      4  C   UNL     1     -21.716   2.166   9.575  1.00  0.00     0.041 C 
ATOM      5  O   UNL     1     -21.840   3.296   9.033  1.00  0.00    -0.550 OA
ATOM      6  O   UNL     1     -22.547   1.815  10.631  1.00  0.00    -0.550 OA
ENDBRANCH   3   4
ENDBRANCH   2   3
ENDBRANCH   1   2
BRANCH   1   7
ATOM      7  C   UNL     1     -20.686  -1.181   7.547  1.00  0.00     0.000 C 
BRANCH   7   8
ATOM      8  C   UNL     1     -19.690  -2.340   7.727  1.00  0.00     0.004 C 
BRANCH   8   9
ATOM      9  C   UNL     1     -19.634  -2.832   9.179  1.00  0.00     0.027 C 
BRANCH   9  10
ATOM     10  C   UNL     1     -19.993  -1.736  10.147  1.00  0.00    -0.035 C 
ATOM     11  C   UNL     1     -20.017  -1.941  11.468  1.00  0.00     0.004 C 
ENDBRANCH   9  10
ENDBRANCH   8   9
ENDBRANCH   7   8
ENDBRANCH   1   7
TORSDOF 7
ENDMDL
MODEL 5
REMARK VINA RESULT:    -3.591      2.983      4.908
REMARK INTER + INTRA:          -5.477
REMARK INTER:                  -5.199
REMARK INTRA:                  -0.277
REMARK UNBOUND:                -0.415
REMARK SMILES C=CCCCCCCC(=O)[O-]
REMARK SMILES IDX 6 1 7 2 8 3 9 4 10 5 11 6 5 7 4 8 3 9 2 10 1 11
REMARK H PARENT
REMARK Flexibility Score: inf
ROOT
ATOM      1  C   UNL     1     -19.388  -2.134  10.877  1.00  0.00     0.000 C 
ENDROOT
BRANCH   1   2
ATOM      2  C   UNL     1     -20.357  -1.191  11.612  1.00  0.00     0.006 C 
BRANCH   2   3
ATOM      3  C   UNL     1     -20.662  -1.670  13.037  1.00  0.00     0.053 C 
BRANCH   3   4
ATOM      4  C   UNL     1     -21.167  -0.556  13.901  1.00  0.00     0.041 C 
ATOM      5  O   UNL     1     -21.084   0.639  13.509  1.00  0.00    -0.550 OA
ATOM      6  O   UNL     1     -21.761  -0.838  15.124  1.00  0.00    -0.550 OA
ENDBRANCH   3   4
ENDBRANCH   2   3
ENDBRANCH   1   2
BRANCH   1   7
ATOM      7  C   UNL     1     -19.733  -2.290   9.389  1.00  0.00     0.000 C 
BRANCH   7   8
ATOM      8  C   UNL     1     -20.397  -1.034   8.800  1.00  0.00     0.004 C 
BRANCH   8   9
ATOM      9  C   UNL     1     -20.334  -1.012   7.267  1.00  0.00     0.027 C 
BRANCH   9  10
ATOM     10  C   UNL     1     -20.555   0.375   6.725  1.00  0.00    -0.035 C 
ATOM     11  C   UNL     1     -20.374   1.464   7.479  1.00  0.00     0.004 C 
ENDBRANCH   9  10
ENDBRANCH   8   9
ENDBRANCH   7   8
ENDBRANCH   1   7
TORSDOF 7
ENDMDL
MODEL 6
REMARK VINA RESULT:    -3.510      3.251      4.931
REMARK INTER + INTRA:          -5.362
REMARK INTER:                  -5.096
REMARK INTRA:                  -0.266
REMARK UNBOUND:                -0.415
REMARK SMILES C=CCCCCCCC(=O)[O-]
REMARK SMILES IDX 6 1 7 2 8 3 9 4 10 5 11 6 5 7 4 8 3 9 2 10 1 11
REMARK H PARENT
REMARK Flexibility Score: inf
ROOT
ATOM      1  C   UNL     1     -21.503   2.131  11.061  1.00  0.00     0.000 C 
ENDROOT
BRANCH   1   2
ATOM      2  C   UNL     1     -21.294   0.735  11.675  1.00  0.00     0.006 C 
BRANCH   2   3
ATOM      3  C   UNL     1     -21.182   0.787  13.205  1.00  0.00     0.053 C 
BRANCH   3   4
ATOM      4  C   UNL     1     -21.138  -0.585  13.804  1.00  0.00     0.041 C 
ATOM      5  O   UNL     1     -21.545  -0.777  14.981  1.00  0.00    -0.550 OA
ATOM      6  O   UNL     1     -20.679  -1.659  13.052  1.00  0.00    -0.550 OA
ENDBRANCH   3   4
ENDBRANCH   2   3
ENDBRANCH   1   2
BRANCH   1   7
ATOM      7  C   UNL     1     -21.529   2.100   9.525  1.00  0.00     0.000 C 
BRANCH   7   8
ATOM      8  C   UNL     1     -20.759   0.902   8.944  1.00  0.00     0.004 C 
BRANCH   8   9
ATOM      9  C   UNL     1     -20.303   1.154   7.501  1.00  0.00     0.027 C 
BRANCH   9  10
ATOM     10  C   UNL     1     -20.296  -0.117   6.695  1.00  0.00    -0.035 C 
ATOM     11  C   UNL     1     -20.325  -1.321   7.275  1.00  0.00     0.004 C 
ENDBRANCH   9  10
ENDBRANCH   8   9
ENDBRANCH   7   8
ENDBRANCH   1   7
TORSDOF 7
ENDMDL
MODEL 7
REMARK VINA RESULT:    -3.364      1.666      2.866
REMARK INTER + INTRA:          -5.156
REMARK INTER:                  -4.613
REMARK INTRA:                  -0.543
REMARK UNBOUND:                -0.415
REMARK SMILES C=CCCCCCCC(=O)[O-]
REMARK SMILES IDX 6 1 7 2 8 3 9 4 10 5 11 6 5 7 4 8 3 9 2 10 1 11
REMARK H PARENT
REMARK Flexibility Score: inf
ROOT
ATOM      1  C   UNL     1     -21.105   2.243   7.969  1.00  0.00     0.000 C 
ENDROOT
BRANCH   1   2
ATOM      2  C   UNL     1     -21.537   2.622   9.397  1.00  0.00     0.006 C 
BRANCH   2   3
ATOM      3  C   UNL     1     -21.918   1.391  10.231  1.00  0.00     0.053 C 
BRANCH   3   4
ATOM      4  C   UNL     1     -21.279   1.419  11.585  1.00  0.00     0.041 C 
ATOM      5  O   UNL     1     -20.788   2.490  12.033  1.00  0.00    -0.550 OA
ATOM      6  O   UNL     1     -21.255   0.272  12.368  1.00  0.00    -0.550 OA
ENDBRANCH   3   4
ENDBRANCH   2   3
ENDBRANCH   1   2
BRANCH   1   7
ATOM      7  C   UNL     1     -20.087   1.093   7.947  1.00  0.00     0.000 C 
BRANCH   7   8
ATOM      8  C   UNL     1     -20.456  -0.003   6.932  1.00  0.00     0.004 C 
BRANCH   8   9
ATOM      9  C   UNL     1     -20.348  -1.410   7.537  1.00  0.00     0.027 C 
BRANCH   9  10
ATOM     10  C   UNL     1     -20.117  -1.354   9.024  1.00  0.00    -0.035 C 
ATOM     11  C   UNL     1     -19.611  -2.391   9.698  1.00  0.00     0.004 C 
ENDBRANCH   9  10
ENDBRANCH   8   9
ENDBRANCH   7   8
ENDBRANCH   1   7
TORSDOF 7
ENDMDL
MODEL 8
REMARK VINA RESULT:    -3.311      2.518      5.074
REMARK INTER + INTRA:          -5.082
REMARK INTER:                  -4.798
REMARK INTRA:                  -0.284
REMARK UNBOUND:                -0.415
REMARK SMILES C=CCCCCCCC(=O)[O-]
REMARK SMILES IDX 6 1 7 2 8 3 9 4 10 5 11 6 5 7 4 8 3 9 2 10 1 11
REMARK H PARENT
REMARK Flexibility Score: inf
ROOT
ATOM      1  C   UNL     1     -19.992  -1.722   8.455  1.00  0.00     0.000 C 
ENDROOT
BRANCH   1   2
ATOM      2  C   UNL     1     -20.317  -1.137   9.841  1.00  0.00     0.006 C 
BRANCH   2   3
ATOM      3  C   UNL     1     -19.729  -1.983  10.978  1.00  0.00     0.053 C 
BRANCH   3   4
ATOM      4  C   UNL     1     -20.488  -1.798  12.256  1.00  0.00     0.041 C 
ATOM      5  O   UNL     1     -20.595  -0.654  12.770  1.00  0.00    -0.550 OA
ATOM      6  O   UNL     1     -21.106  -2.885  12.861  1.00  0.00    -0.550 OA
ENDBRANCH   3   4
ENDBRANCH   2   3
ENDBRANCH   1   2
BRANCH   1   7
ATOM      7  C   UNL     1     -20.499  -0.834   7.307  1.00  0.00     0.000 C 
BRANCH   7   8
ATOM      8  C   UNL     1     -19.758   0.512   7.228  1.00  0.00     0.004 C 
BRANCH   8   9
ATOM      9  C   UNL     1     -20.718   1.706   7.309  1.00  0.00     0.027 C 
BRANCH   9  10
ATOM     10  C   UNL     1     -21.099   2.012   8.733  1.00  0.00    -0.035 C 
ATOM     11  C   UNL     1     -21.844   3.075   9.052  1.00  0.00     0.004 C 
ENDBRANCH   9  10
ENDBRANCH   8   9
ENDBRANCH   7   8
ENDBRANCH   1   7
TORSDOF 7
ENDMDL
MODEL 9
REMARK VINA RESULT:    -3.260      1.507      2.653
REMARK INTER + INTRA:          -5.010
REMARK INTER:                  -4.695
REMARK INTRA:                  -0.315
REMARK UNBOUND:                -0.415
REMARK SMILES C=CCCCCCCC(=O)[O-]
REMARK SMILES IDX 6 1 7 2 8 3 9 4 10 5 11 6 5 7 4 8 3 9 2 10 1 11
REMARK H PARENT
REMARK Flexibility Score: inf
ROOT
ATOM      1  C   UNL     1     -19.676  -2.232  10.008  1.00  0.00     0.000 C 
ENDROOT
BRANCH   1   2
ATOM      2  C   UNL     1     -20.376  -0.868   9.877  1.00  0.00     0.006 C 
BRANCH   2   3
ATOM      3  C   UNL     1     -20.369  -0.351   8.432  1.00  0.00     0.053 C 
BRANCH   3   4
ATOM      4  C   UNL     1     -20.770   1.091   8.357  1.00  0.00     0.041 C 
ATOM      5  O   UNL     1     -20.626   1.734   7.284  1.00  0.00    -0.550 OA
ATOM      6  O   UNL     1     -21.333   1.714   9.463  1.00  0.00    -0.550 OA
ENDBRANCH   3   4
ENDBRANCH   2   3
ENDBRANCH   1   2
BRANCH   1   7
ATOM      7  C   UNL     1     -19.614  -2.992   8.674  1.00  0.00     0.000 C 
BRANCH   7   8
ATOM      8  C   UNL     1     -18.819  -4.306   8.778  1.00  0.00     0.004 C 
BRANCH   8   9
ATOM      9  C   UNL     1     -19.660  -5.523   8.369  1.00  0.00     0.027 C 
BRANCH   9  10
ATOM     10  C   UNL     1     -20.674  -5.872   9.426  1.00  0.00    -0.035 C 
ATOM     11  C   UNL     1     -21.793  -6.542   9.135  1.00  0.00     0.004 C 
ENDBRANCH   9  10
ENDBRANCH   8   9
ENDBRANCH   7   8
ENDBRANCH   1   7
TORSDOF 7
ENDMDL
