MODEL 1
REMARK VINA RESULT:    -5.990      0.000      0.000
REMARK INTER + INTRA:         -14.733
REMARK INTER:                 -12.994
REMARK INTRA:                  -1.738
REMARK UNBOUND:                -1.738
REMARK SMILES CCCCCCCCCCCCCCCCCCCCCC(=O)[O-]
REMARK SMILES IDX 12 1 11 2 10 3 9 4 8 5 7 6 6 7 5 8 4 9 3 10 2 11 1 12 13 13
REMARK SMILES IDX 14 14 15 15 16 16 17 17 18 18 19 19 20 20 21 21 22 22 23 23
REMARK SMILES IDX 24 24
REMARK H PARENT
REMARK Flexibility Score: inf
ROOT
ATOM      1  C   UNL     1      88.980 326.393 198.999  1.00  0.00     0.000 C 
ENDROOT
BRANCH   1   2
ATOM      2  C   UNL     1      89.745 326.558 200.325  1.00  0.00     0.000 C 
BRANCH   2   3
ATOM      3  C   UNL     1      88.885 326.247 201.558  1.00  0.00     0.000 C 
BRANCH   3   4
ATOM      4  C   UNL     1      89.721 326.331 202.844  1.00  0.00    -0.000 C 
BRANCH   4   5
ATOM      5  C   UNL     1      89.203 327.394 203.828  1.00  0.00    -0.000 C 
BRANCH   5   6
ATOM      6  C   UNL     1      89.415 327.066 205.320  1.00  0.00    -0.000 C 
BRANCH   6   7
ATOM      7  C   UNL     1      88.975 325.654 205.746  1.00  0.00    -0.000 C 
BRANCH   7   8
ATOM      8  C   UNL     1      87.487 325.578 206.116  1.00  0.00    -0.000 C 
BRANCH   8   9
ATOM      9  C   UNL     1      86.842 324.311 205.540  1.00  0.00    -0.000 C 
BRANCH   9  10
ATOM     10  C   UNL     1      87.751 323.663 204.485  1.00  0.00    -0.000 C 
BRANCH  10  11
ATOM     11  C   UNL     1      86.956 322.947 203.382  1.00  0.00    -0.003 C 
ATOM     12  C   UNL     1      86.215 323.917 202.462  1.00  0.00     0.004 C 
ENDBRANCH  10  11
ENDBRANCH   9  10
ENDBRANCH   8   9
ENDBRANCH   7   8
ENDBRANCH   6   7
ENDBRANCH   5   6
ENDBRANCH   4   5
ENDBRANCH   3   4
ENDBRANCH   2   3
ENDBRANCH   1   2
BRANCH   1  13
ATOM     13  C   UNL     1      89.133 325.020 198.318  1.00  0.00     0.000 C 
BRANCH  13  14
ATOM     14  C   UNL     1      88.787 325.051 196.820  1.00  0.00     0.000 C 
BRANCH  14  15
ATOM     15  C   UNL     1      88.767 326.476 196.237  1.00  0.00     0.000 C 
BRANCH  15  16
ATOM     16  C   UNL     1      88.094 326.613 194.859  1.00  0.00     0.000 C 
BRANCH  16  17
ATOM     17  C   UNL     1      86.657 326.072 194.836  1.00  0.00     0.000 C 
BRANCH  17  18
ATOM     18  C   UNL     1      86.405 325.235 193.572  1.00  0.00     0.000 C 
BRANCH  18  19
ATOM     19  C   UNL     1      87.588 324.317 193.215  1.00  0.00     0.000 C 
BRANCH  19  20
ATOM     20  C   UNL     1      88.036 324.376 191.743  1.00  0.00     0.006 C 
BRANCH  20  21
ATOM     21  C   UNL     1      87.299 323.367 190.852  1.00  0.00     0.053 C 
BRANCH  21  22
ATOM     22  C   UNL     1      88.183 322.914 189.732  1.00  0.00     0.041 C 
ATOM     23  O   UNL     1      89.436 322.990 189.844  1.00  0.00    -0.550 OA
ATOM     24  O   UNL     1      87.624 322.460 188.545  1.00  0.00    -0.550 OA
ENDBRANCH  21  22
ENDBRANCH  20  21
ENDBRANCH  19  20
ENDBRANCH  18  19
ENDBRANCH  17  18
ENDBRANCH  16  17
ENDBRANCH  15  16
ENDBRANCH  14  15
ENDBRANCH  13  14
ENDBRANCH   1  13
TORSDOF 20
ENDMDL
MODEL 2
REMARK VINA RESULT:    -5.824     18.858     20.070
REMARK INTER + INTRA:         -14.371
REMARK INTER:                 -13.238
REMARK INTRA:                  -1.133
REMARK UNBOUND:                -1.738
REMARK SMILES CCCCCCCCCCCCCCCCCCCCCC(=O)[O-]
REMARK SMILES IDX 12 1 11 2 10 3 9 4 8 5 7 6 6 7 5 8 4 9 3 10 2 11 1 12 13 13
REMARK SMILES IDX 14 14 15 15 16 16 17 17 18 18 19 19 20 20 21 21 22 22 23 23
REMARK SMILES IDX 24 24
REMARK H PARENT
REMARK Flexibility Score: inf
ROOT
ATOM      1  C   UNL     1     103.909 313.109 196.157  1.00  0.00     0.000 C 
ENDROOT
BRANCH   1   2
ATOM      2  C   UNL     1     103.516 311.630 196.321  1.00  0.00     0.000 C 
BRANCH   2   3
ATOM      3  C   UNL     1     103.825 311.078 197.720  1.00  0.00     0.000 C 
BRANCH   3   4
ATOM      4  C   UNL     1     103.434 312.091 198.807  1.00  0.00    -0.000 C 
BRANCH   4   5
ATOM      5  C   UNL     1     104.254 311.931 200.099  1.00  0.00    -0.000 C 
BRANCH   5   6
ATOM      6  C   UNL     1     103.447 312.048 201.407  1.00  0.00    -0.000 C 
BRANCH   6   7
ATOM      7  C   UNL     1     103.799 311.009 202.486  1.00  0.00    -0.000 C 
BRANCH   7   8
ATOM      8  C   UNL     1     102.587 310.587 203.330  1.00  0.00    -0.000 C 
BRANCH   8   9
ATOM      9  C   UNL     1     102.874 310.757 204.826  1.00  0.00    -0.000 C 
BRANCH   9  10
ATOM     10  C   UNL     1     104.374 310.972 205.078  1.00  0.00    -0.000 C 
BRANCH  10  11
ATOM     11  C   UNL     1     104.651 312.169 205.999  1.00  0.00    -0.003 C 
ATOM     12  C   UNL     1     103.623 312.303 207.123  1.00  0.00     0.004 C 
ENDBRANCH  10  11
ENDBRANCH   9  10
ENDBRANCH   8   9
ENDBRANCH   7   8
ENDBRANCH   6   7
ENDBRANCH   5   6
ENDBRANCH   4   5
ENDBRANCH   3   4
ENDBRANCH   2   3
ENDBRANCH   1   2
BRANCH   1  13
ATOM     13  C   UNL     1     104.634 313.455 194.843  1.00  0.00     0.000 C 
BRANCH  13  14
ATOM     14  C   UNL     1     105.289 312.233 194.179  1.00  0.00     0.000 C 
BRANCH  14  15
ATOM     15  C   UNL     1     104.585 311.808 192.877  1.00  0.00     0.000 C 
BRANCH  15  16
ATOM     16  C   UNL     1     104.248 312.956 191.907  1.00  0.00     0.000 C 
BRANCH  16  17
ATOM     17  C   UNL     1     105.495 313.609 191.292  1.00  0.00     0.000 C 
BRANCH  17  18
ATOM     18  C   UNL     1     105.103 314.640 190.223  1.00  0.00     0.000 C 
BRANCH  18  19
ATOM     19  C   UNL     1     103.585 314.713 189.985  1.00  0.00     0.000 C 
BRANCH  19  20
ATOM     20  C   UNL     1     103.161 314.823 188.509  1.00  0.00     0.006 C 
BRANCH  20  21
ATOM     21  C   UNL     1     101.779 314.213 188.236  1.00  0.00     0.053 C 
BRANCH  21  22
ATOM     22  C   UNL     1     100.795 315.283 187.882  1.00  0.00     0.041 C 
ATOM     23  O   UNL     1      99.583 315.160 188.204  1.00  0.00    -0.550 OA
ATOM     24  O   UNL     1     101.204 316.391 187.151  1.00  0.00    -0.550 OA
ENDBRANCH  21  22
ENDBRANCH  20  21
ENDBRANCH  19  20
ENDBRANCH  18  19
ENDBRANCH  17  18
ENDBRANCH  16  17
ENDBRANCH  15  16
ENDBRANCH  14  15
ENDBRANCH  13  14
ENDBRANCH   1  13
TORSDOF 20
ENDMDL
MODEL 3
REMARK VINA RESULT:    -5.820      3.859     10.448
REMARK INTER + INTRA:         -14.362
REMARK INTER:                 -13.001
REMARK INTRA:                  -1.362
REMARK UNBOUND:                -1.738
REMARK SMILES CCCCCCCCCCCCCCCCCCCCCC(=O)[O-]
REMARK SMILES IDX 12 1 11 2 10 3 9 4 8 5 7 6 6 7 5 8 4 9 3 10 2 11 1 12 13 13
REMARK SMILES IDX 14 14 15 15 16 16 17 17 18 18 19 19 20 20 21 21 22 22 23 23
REMARK SMILES IDX 24 24
REMARK H PARENT
REMARK Flexibility Score: inf
ROOT
ATOM      1  C   UNL     1      89.241 326.509 201.648  1.00  0.00     0.000 C 
ENDROOT
BRANCH   1   2
ATOM      2  C   UNL     1      88.849 325.387 200.668  1.00  0.00     0.000 C 
BRANCH   2   3
ATOM      3  C   UNL     1      89.270 325.678 199.221  1.00  0.00     0.000 C 
BRANCH   3   4
ATOM      4  C   UNL     1      89.279 324.390 198.384  1.00  0.00    -0.000 C 
BRANCH   4   5
ATOM      5  C   UNL     1      88.890 324.626 196.915  1.00  0.00    -0.000 C 
BRANCH   5   6
ATOM      6  C   UNL     1      88.405 326.052 196.585  1.00  0.00    -0.000 C 
BRANCH   6   7
ATOM      7  C   UNL     1      87.168 326.125 195.671  1.00  0.00    -0.000 C 
BRANCH   7   8
ATOM      8  C   UNL     1      87.521 326.453 194.213  1.00  0.00    -0.000 C 
BRANCH   8   9
ATOM      9  C   UNL     1      86.997 325.368 193.265  1.00  0.00    -0.000 C 
BRANCH   9  10
ATOM     10  C   UNL     1      88.081 324.941 192.264  1.00  0.00    -0.000 C 
BRANCH  10  11
ATOM     11  C   UNL     1      87.701 323.669 191.491  1.00  0.00    -0.003 C 
ATOM     12  C   UNL     1      88.541 323.470 190.229  1.00  0.00     0.004 C 
ENDBRANCH  10  11
ENDBRANCH   9  10
ENDBRANCH   8   9
ENDBRANCH   7   8
ENDBRANCH   6   7
ENDBRANCH   5   6
ENDBRANCH   4   5
ENDBRANCH   3   4
ENDBRANCH   2   3
ENDBRANCH   1   2
BRANCH   1  13
ATOM     13  C   UNL     1      90.755 326.740 201.810  1.00  0.00     0.000 C 
BRANCH  13  14
ATOM     14  C   UNL     1      91.137 327.254 203.208  1.00  0.00     0.000 C 
BRANCH  14  15
ATOM     15  C   UNL     1      89.921 327.434 204.135  1.00  0.00     0.000 C 
BRANCH  15  16
ATOM     16  C   UNL     1      90.201 327.220 205.635  1.00  0.00     0.000 C 
BRANCH  16  17
ATOM     17  C   UNL     1      89.011 326.606 206.387  1.00  0.00     0.000 C 
BRANCH  17  18
ATOM     18  C   UNL     1      88.079 325.857 205.421  1.00  0.00     0.000 C 
BRANCH  18  19
ATOM     19  C   UNL     1      87.455 324.596 206.045  1.00  0.00     0.000 C 
BRANCH  19  20
ATOM     20  C   UNL     1      86.355 323.928 205.200  1.00  0.00     0.006 C 
BRANCH  20  21
ATOM     21  C   UNL     1      86.869 322.734 204.386  1.00  0.00     0.053 C 
BRANCH  21  22
ATOM     22  C   UNL     1      86.857 323.053 202.924  1.00  0.00     0.041 C 
ATOM     23  O   UNL     1      87.617 322.431 202.134  1.00  0.00    -0.550 OA
ATOM     24  O   UNL     1      86.049 324.073 202.440  1.00  0.00    -0.550 OA
ENDBRANCH  21  22
ENDBRANCH  20  21
ENDBRANCH  19  20
ENDBRANCH  18  19
ENDBRANCH  17  18
ENDBRANCH  16  17
ENDBRANCH  15  16
ENDBRANCH  14  15
ENDBRANCH  13  14
ENDBRANCH   1  13
TORSDOF 20
ENDMDL
MODEL 4
REMARK VINA RESULT:    -5.809      1.000      1.488
REMARK INTER + INTRA:         -14.340
REMARK INTER:                 -12.879
REMARK INTRA:                  -1.460
REMARK UNBOUND:                -1.738
REMARK SMILES CCCCCCCCCCCCCCCCCCCCCC(=O)[O-]
REMARK SMILES IDX 12 1 11 2 10 3 9 4 8 5 7 6 6 7 5 8 4 9 3 10 2 11 1 12 13 13
REMARK SMILES IDX 14 14 15 15 16 16 17 17 18 18 19 19 20 20 21 21 22 22 23 23
REMARK SMILES IDX 24 24
REMARK H PARENT
REMARK Flexibility Score: inf
ROOT
ATOM      1  C   UNL     1      88.914 326.637 198.852  1.00  0.00     0.000 C 
ENDROOT
BRANCH   1   2
ATOM      2  C   UNL     1      89.216 325.288 199.530  1.00  0.00     0.000 C 
BRANCH   2   3
ATOM      3  C   UNL     1      88.994 325.314 201.048  1.00  0.00     0.000 C 
BRANCH   3   4
ATOM      4  C   UNL     1      89.735 326.497 201.690  1.00  0.00    -0.000 C 
BRANCH   4   5
ATOM      5  C   UNL     1      89.995 326.298 203.193  1.00  0.00    -0.000 C 
BRANCH   5   6
ATOM      6  C   UNL     1      89.167 327.202 204.128  1.00  0.00    -0.000 C 
BRANCH   6   7
ATOM      7  C   UNL     1      89.571 327.151 205.612  1.00  0.00    -0.000 C 
BRANCH   7   8
ATOM      8  C   UNL     1      88.486 326.534 206.506  1.00  0.00    -0.000 C 
BRANCH   8   9
ATOM      9  C   UNL     1      88.357 325.027 206.254  1.00  0.00    -0.000 C 
BRANCH   9  10
ATOM     10  C   UNL     1      86.953 324.672 205.743  1.00  0.00    -0.000 C 
BRANCH  10  11
ATOM     11  C   UNL     1      86.954 323.446 204.818  1.00  0.00    -0.003 C 
ATOM     12  C   UNL     1      86.694 323.808 203.356  1.00  0.00     0.004 C 
ENDBRANCH  10  11
ENDBRANCH   9  10
ENDBRANCH   8   9
ENDBRANCH   7   8
ENDBRANCH   6   7
ENDBRANCH   5   6
ENDBRANCH   4   5
ENDBRANCH   3   4
ENDBRANCH   2   3
ENDBRANCH   1   2
BRANCH   1  13
ATOM     13  C   UNL     1      88.607 326.562 197.345  1.00  0.00     0.000 C 
BRANCH  13  14
ATOM     14  C   UNL     1      88.859 325.167 196.749  1.00  0.00     0.000 C 
BRANCH  14  15
ATOM     15  C   UNL     1      87.743 324.713 195.791  1.00  0.00     0.000 C 
BRANCH  15  16
ATOM     16  C   UNL     1      86.664 325.770 195.490  1.00  0.00     0.000 C 
BRANCH  16  17
ATOM     17  C   UNL     1      86.569 326.125 193.999  1.00  0.00     0.000 C 
BRANCH  17  18
ATOM     18  C   UNL     1      87.737 325.509 193.213  1.00  0.00     0.000 C 
BRANCH  18  19
ATOM     19  C   UNL     1      87.275 324.537 192.113  1.00  0.00     0.000 C 
BRANCH  19  20
ATOM     20  C   UNL     1      88.407 323.774 191.400  1.00  0.00     0.006 C 
BRANCH  20  21
ATOM     21  C   UNL     1      87.950 323.103 190.099  1.00  0.00     0.053 C 
BRANCH  21  22
ATOM     22  C   UNL     1      89.048 323.128 189.083  1.00  0.00     0.041 C 
ATOM     23  O   UNL     1      89.223 322.144 188.315  1.00  0.00    -0.550 OA
ATOM     24  O   UNL     1      89.911 324.214 189.017  1.00  0.00    -0.550 OA
ENDBRANCH  21  22
ENDBRANCH  20  21
ENDBRANCH  19  20
ENDBRANCH  18  19
ENDBRANCH  17  18
ENDBRANCH  16  17
ENDBRANCH  15  16
ENDBRANCH  14  15
ENDBRANCH  13  14
ENDBRANCH   1  13
TORSDOF 20
ENDMDL
MODEL 5
REMARK VINA RESULT:    -5.804      4.338     11.056
REMARK INTER + INTRA:         -14.328
REMARK INTER:                 -12.828
REMARK INTRA:                  -1.500
REMARK UNBOUND:                -1.738
REMARK SMILES CCCCCCCCCCCCCCCCCCCCCC(=O)[O-]
REMARK SMILES IDX 12 1 11 2 10 3 9 4 8 5 7 6 6 7 5 8 4 9 3 10 2 11 1 12 13 13
REMARK SMILES IDX 14 14 15 15 16 16 17 17 18 18 19 19 20 20 21 21 22 22 23 23
REMARK SMILES IDX 24 24
REMARK H PARENT
REMARK Flexibility Score: inf
ROOT
ATOM      1  C   UNL     1      89.027 324.836 200.712  1.00  0.00     0.000 C 
ENDROOT
BRANCH   1   2
ATOM      2  C   UNL     1      89.690 326.057 200.049  1.00  0.00     0.000 C 
BRANCH   2   3
ATOM      3  C   UNL     1      88.895 326.597 198.852  1.00  0.00     0.000 C 
BRANCH   3   4
ATOM      4  C   UNL     1      88.889 325.584 197.697  1.00  0.00    -0.000 C 
BRANCH   4   5
ATOM      5  C   UNL     1      88.685 326.242 196.322  1.00  0.00    -0.000 C 
BRANCH   5   6
ATOM      6  C   UNL     1      87.318 325.973 195.661  1.00  0.00    -0.000 C 
BRANCH   6   7
ATOM      7  C   UNL     1      87.177 326.491 194.219  1.00  0.00    -0.000 C 
BRANCH   7   8
ATOM      8  C   UNL     1      86.791 325.388 193.222  1.00  0.00    -0.000 C 
BRANCH   8   9
ATOM      9  C   UNL     1      88.027 324.856 192.487  1.00  0.00    -0.000 C 
BRANCH   9  10
ATOM     10  C   UNL     1      88.166 323.338 192.673  1.00  0.00    -0.000 C 
BRANCH  10  11
ATOM     11  C   UNL     1      88.676 322.633 191.407  1.00  0.00    -0.003 C 
ATOM     12  C   UNL     1      88.546 323.498 190.154  1.00  0.00     0.004 C 
ENDBRANCH  10  11
ENDBRANCH   9  10
ENDBRANCH   8   9
ENDBRANCH   7   8
ENDBRANCH   6   7
ENDBRANCH   5   6
ENDBRANCH   4   5
ENDBRANCH   3   4
ENDBRANCH   2   3
ENDBRANCH   1   2
BRANCH   1  13
ATOM     13  C   UNL     1      88.044 325.158 201.852  1.00  0.00     0.000 C 
BRANCH  13  14
ATOM     14  C   UNL     1      87.275 323.924 202.350  1.00  0.00     0.000 C 
BRANCH  14  15
ATOM     15  C   UNL     1      87.527 323.620 203.839  1.00  0.00     0.000 C 
BRANCH  15  16
ATOM     16  C   UNL     1      86.332 323.882 204.774  1.00  0.00     0.000 C 
BRANCH  16  17
ATOM     17  C   UNL     1      86.684 324.793 205.959  1.00  0.00     0.000 C 
BRANCH  17  18
ATOM     18  C   UNL     1      88.195 325.068 206.009  1.00  0.00     0.000 C 
BRANCH  18  19
ATOM     19  C   UNL     1      88.543 326.382 206.732  1.00  0.00     0.000 C 
BRANCH  19  20
ATOM     20  C   UNL     1      89.595 327.255 206.023  1.00  0.00     0.006 C 
BRANCH  20  21
ATOM     21  C   UNL     1      89.518 327.163 204.494  1.00  0.00     0.053 C 
BRANCH  21  22
ATOM     22  C   UNL     1      90.871 326.892 203.917  1.00  0.00     0.041 C 
ATOM     23  O   UNL     1      91.203 327.404 202.814  1.00  0.00    -0.550 OA
ATOM     24  O   UNL     1      91.746 326.033 204.567  1.00  0.00    -0.550 OA
ENDBRANCH  21  22
ENDBRANCH  20  21
ENDBRANCH  19  20
ENDBRANCH  18  19
ENDBRANCH  17  18
ENDBRANCH  16  17
ENDBRANCH  15  16
ENDBRANCH  14  15
ENDBRANCH  13  14
ENDBRANCH   1  13
TORSDOF 20
ENDMDL
MODEL 6
REMARK VINA RESULT:    -5.780      1.345      3.017
REMARK INTER + INTRA:         -14.275
REMARK INTER:                 -12.401
REMARK INTRA:                  -1.875
REMARK UNBOUND:                -1.738
REMARK SMILES CCCCCCCCCCCCCCCCCCCCCC(=O)[O-]
REMARK SMILES IDX 12 1 11 2 10 3 9 4 8 5 7 6 6 7 5 8 4 9 3 10 2 11 1 12 13 13
REMARK SMILES IDX 14 14 15 15 16 16 17 17 18 18 19 19 20 20 21 21 22 22 23 23
REMARK SMILES IDX 24 24
REMARK H PARENT
REMARK Flexibility Score: inf
ROOT
ATOM      1  C   UNL     1      89.344 324.909 199.823  1.00  0.00     0.000 C 
ENDROOT
BRANCH   1   2
ATOM      2  C   UNL     1      88.973 324.382 201.221  1.00  0.00     0.000 C 
BRANCH   2   3
ATOM      3  C   UNL     1      87.651 324.956 201.749  1.00  0.00     0.000 C 
BRANCH   3   4
ATOM      4  C   UNL     1      86.953 323.956 202.682  1.00  0.00    -0.000 C 
BRANCH   4   5
ATOM      5  C   UNL     1      87.737 323.699 203.981  1.00  0.00    -0.000 C 
BRANCH   5   6
ATOM      6  C   UNL     1      87.033 324.159 205.274  1.00  0.00    -0.000 C 
BRANCH   6   7
ATOM      7  C   UNL     1      87.725 325.315 206.017  1.00  0.00    -0.000 C 
BRANCH   7   8
ATOM      8  C   UNL     1      89.059 325.726 205.376  1.00  0.00    -0.000 C 
BRANCH   8   9
ATOM      9  C   UNL     1      89.005 327.175 204.877  1.00  0.00    -0.000 C 
BRANCH   9  10
ATOM     10  C   UNL     1      89.666 327.306 203.497  1.00  0.00    -0.000 C 
BRANCH  10  11
ATOM     11  C   UNL     1      91.200 327.270 203.571  1.00  0.00    -0.003 C 
ATOM     12  C   UNL     1      91.846 326.813 202.264  1.00  0.00     0.004 C 
ENDBRANCH  10  11
ENDBRANCH   9  10
ENDBRANCH   8   9
ENDBRANCH   7   8
ENDBRANCH   6   7
ENDBRANCH   5   6
ENDBRANCH   4   5
ENDBRANCH   3   4
ENDBRANCH   2   3
ENDBRANCH   1   2
BRANCH   1  13
ATOM     13  C   UNL     1      89.253 326.437 199.650  1.00  0.00     0.000 C 
BRANCH  13  14
ATOM     14  C   UNL     1      88.792 326.856 198.244  1.00  0.00     0.000 C 
BRANCH  14  15
ATOM     15  C   UNL     1      88.807 325.692 197.236  1.00  0.00     0.000 C 
BRANCH  15  16
ATOM     16  C   UNL     1      88.337 326.050 195.813  1.00  0.00     0.000 C 
BRANCH  16  17
ATOM     17  C   UNL     1      86.810 326.018 195.659  1.00  0.00     0.000 C 
BRANCH  17  18
ATOM     18  C   UNL     1      86.398 326.321 194.209  1.00  0.00     0.000 C 
BRANCH  18  19
ATOM     19  C   UNL     1      86.602 325.124 193.264  1.00  0.00     0.000 C 
BRANCH  19  20
ATOM     20  C   UNL     1      87.956 325.094 192.532  1.00  0.00     0.006 C 
BRANCH  20  21
ATOM     21  C   UNL     1      87.986 324.095 191.368  1.00  0.00     0.053 C 
BRANCH  21  22
ATOM     22  C   UNL     1      88.410 322.743 191.850  1.00  0.00     0.041 C 
ATOM     23  O   UNL     1      88.357 321.750 191.075  1.00  0.00    -0.550 OA
ATOM     24  O   UNL     1      88.813 322.568 193.167  1.00  0.00    -0.550 OA
ENDBRANCH  21  22
ENDBRANCH  20  21
ENDBRANCH  19  20
ENDBRANCH  18  19
ENDBRANCH  17  18
ENDBRANCH  16  17
ENDBRANCH  15  16
ENDBRANCH  14  15
ENDBRANCH  13  14
ENDBRANCH   1  13
TORSDOF 20
ENDMDL
MODEL 7
REMARK VINA RESULT:    -5.761      1.013      2.371
REMARK INTER + INTRA:         -14.236
REMARK INTER:                 -12.406
REMARK INTRA:                  -1.829
REMARK UNBOUND:                -1.738
REMARK SMILES CCCCCCCCCCCCCCCCCCCCCC(=O)[O-]
REMARK SMILES IDX 12 1 11 2 10 3 9 4 8 5 7 6 6 7 5 8 4 9 3 10 2 11 1 12 13 13
REMARK SMILES IDX 14 14 15 15 16 16 17 17 18 18 19 19 20 20 21 21 22 22 23 23
REMARK SMILES IDX 24 24
REMARK H PARENT
REMARK Flexibility Score: inf
ROOT
ATOM      1  C   UNL     1      88.891 326.050 198.816  1.00  0.00     0.000 C 
ENDROOT
BRANCH   1   2
ATOM      2  C   UNL     1      89.625 326.272 200.150  1.00  0.00     0.000 C 
BRANCH   2   3
ATOM      3  C   UNL     1      88.706 326.140 201.372  1.00  0.00     0.000 C 
BRANCH   3   4
ATOM      4  C   UNL     1      88.798 324.731 201.977  1.00  0.00    -0.000 C 
BRANCH   4   5
ATOM      5  C   UNL     1      87.465 324.244 202.571  1.00  0.00    -0.000 C 
BRANCH   5   6
ATOM      6  C   UNL     1      87.529 322.890 203.305  1.00  0.00    -0.000 C 
BRANCH   6   7
ATOM      7  C   UNL     1      87.264 322.956 204.819  1.00  0.00    -0.000 C 
BRANCH   7   8
ATOM      8  C   UNL     1      86.193 323.990 205.195  1.00  0.00    -0.000 C 
BRANCH   8   9
ATOM      9  C   UNL     1      86.761 325.046 206.151  1.00  0.00    -0.000 C 
BRANCH   9  10
ATOM     10  C   UNL     1      88.297 325.030 206.139  1.00  0.00    -0.000 C 
BRANCH  10  11
ATOM     11  C   UNL     1      88.902 326.439 206.220  1.00  0.00    -0.003 C 
ATOM     12  C   UNL     1      89.053 327.098 204.849  1.00  0.00     0.004 C 
ENDBRANCH  10  11
ENDBRANCH   9  10
ENDBRANCH   8   9
ENDBRANCH   7   8
ENDBRANCH   6   7
ENDBRANCH   5   6
ENDBRANCH   4   5
ENDBRANCH   3   4
ENDBRANCH   2   3
ENDBRANCH   1   2
BRANCH   1  13
ATOM     13  C   UNL     1      89.262 324.756 198.067  1.00  0.00     0.000 C 
BRANCH  13  14
ATOM     14  C   UNL     1      88.515 324.598 196.733  1.00  0.00     0.000 C 
BRANCH  14  15
ATOM     15  C   UNL     1      87.841 325.901 196.264  1.00  0.00     0.000 C 
BRANCH  15  16
ATOM     16  C   UNL     1      88.483 326.566 195.033  1.00  0.00     0.000 C 
BRANCH  16  17
ATOM     17  C   UNL     1      87.474 326.856 193.912  1.00  0.00     0.000 C 
BRANCH  17  18
ATOM     18  C   UNL     1      86.311 325.852 193.947  1.00  0.00     0.000 C 
BRANCH  18  19
ATOM     19  C   UNL     1      86.408 324.781 192.845  1.00  0.00     0.000 C 
BRANCH  19  20
ATOM     20  C   UNL     1      87.787 324.665 192.170  1.00  0.00     0.006 C 
BRANCH  20  21
ATOM     21  C   UNL     1      88.455 323.304 192.405  1.00  0.00     0.053 C 
BRANCH  21  22
ATOM     22  C   UNL     1      88.714 322.616 191.101  1.00  0.00     0.041 C 
ATOM     23  O   UNL     1      88.937 321.375 191.074  1.00  0.00    -0.550 OA
ATOM     24  O   UNL     1      88.764 323.350 189.924  1.00  0.00    -0.550 OA
ENDBRANCH  21  22
ENDBRANCH  20  21
ENDBRANCH  19  20
ENDBRANCH  18  19
ENDBRANCH  17  18
ENDBRANCH  16  17
ENDBRANCH  15  16
ENDBRANCH  14  15
ENDBRANCH  13  14
ENDBRANCH   1  13
TORSDOF 20
ENDMDL
MODEL 8
REMARK VINA RESULT:    -5.741      2.069      3.308
REMARK INTER + INTRA:         -14.191
REMARK INTER:                 -12.312
REMARK INTRA:                  -1.879
REMARK UNBOUND:                -1.738
REMARK SMILES CCCCCCCCCCCCCCCCCCCCCC(=O)[O-]
REMARK SMILES IDX 12 1 11 2 10 3 9 4 8 5 7 6 6 7 5 8 4 9 3 10 2 11 1 12 13 13
REMARK SMILES IDX 14 14 15 15 16 16 17 17 18 18 19 19 20 20 21 21 22 22 23 23
REMARK SMILES IDX 24 24
REMARK H PARENT
REMARK Flexibility Score: inf
ROOT
ATOM      1  C   UNL     1      89.218 325.659 199.125  1.00  0.00     0.000 C 
ENDROOT
BRANCH   1   2
ATOM      2  C   UNL     1      89.368 326.441 200.443  1.00  0.00     0.000 C 
BRANCH   2   3
ATOM      3  C   UNL     1      88.348 326.021 201.510  1.00  0.00     0.000 C 
BRANCH   3   4
ATOM      4  C   UNL     1      88.584 324.569 201.953  1.00  0.00    -0.000 C 
BRANCH   4   5
ATOM      5  C   UNL     1      87.276 323.796 202.194  1.00  0.00    -0.000 C 
BRANCH   5   6
ATOM      6  C   UNL     1      86.666 323.961 203.600  1.00  0.00    -0.000 C 
BRANCH   6   7
ATOM      7  C   UNL     1      87.234 323.016 204.674  1.00  0.00    -0.000 C 
BRANCH   7   8
ATOM      8  C   UNL     1      87.801 323.763 205.890  1.00  0.00    -0.000 C 
BRANCH   8   9
ATOM      9  C   UNL     1      87.588 325.275 205.753  1.00  0.00    -0.000 C 
BRANCH   9  10
ATOM     10  C   UNL     1      88.420 326.044 206.790  1.00  0.00    -0.000 C 
BRANCH  10  11
ATOM     11  C   UNL     1      89.408 327.026 206.143  1.00  0.00    -0.003 C 
ATOM     12  C   UNL     1      89.201 327.168 204.636  1.00  0.00     0.004 C 
ENDBRANCH  10  11
ENDBRANCH   9  10
ENDBRANCH   8   9
ENDBRANCH   7   8
ENDBRANCH   6   7
ENDBRANCH   5   6
ENDBRANCH   4   5
ENDBRANCH   3   4
ENDBRANCH   2   3
ENDBRANCH   1   2
BRANCH   1  13
ATOM     13  C   UNL     1      88.803 326.502 197.904  1.00  0.00     0.000 C 
BRANCH  13  14
ATOM     14  C   UNL     1      88.486 325.649 196.665  1.00  0.00     0.000 C 
BRANCH  14  15
ATOM     15  C   UNL     1      87.870 326.467 195.515  1.00  0.00     0.000 C 
BRANCH  15  16
ATOM     16  C   UNL     1      86.465 326.019 195.069  1.00  0.00     0.000 C 
BRANCH  16  17
ATOM     17  C   UNL     1      86.400 325.632 193.585  1.00  0.00     0.000 C 
BRANCH  17  18
ATOM     18  C   UNL     1      87.809 325.547 192.977  1.00  0.00     0.000 C 
BRANCH  18  19
ATOM     19  C   UNL     1      87.949 324.418 191.941  1.00  0.00     0.000 C 
BRANCH  19  20
ATOM     20  C   UNL     1      87.926 322.993 192.523  1.00  0.00     0.006 C 
BRANCH  20  21
ATOM     21  C   UNL     1      88.645 322.886 193.874  1.00  0.00     0.053 C 
BRANCH  21  22
ATOM     22  C   UNL     1      87.696 322.433 194.938  1.00  0.00     0.041 C 
ATOM     23  O   UNL     1      88.116 322.199 196.103  1.00  0.00    -0.550 OA
ATOM     24  O   UNL     1      86.359 322.215 194.632  1.00  0.00    -0.550 OA
ENDBRANCH  21  22
ENDBRANCH  20  21
ENDBRANCH  19  20
ENDBRANCH  18  19
ENDBRANCH  17  18
ENDBRANCH  16  17
ENDBRANCH  15  16
ENDBRANCH  14  15
ENDBRANCH  13  14
ENDBRANCH   1  13
TORSDOF 20
ENDMDL
MODEL 9
REMARK VINA RESULT:    -5.731     19.999     22.950
REMARK INTER + INTRA:         -14.170
REMARK INTER:                 -11.870
REMARK INTRA:                  -2.300
REMARK UNBOUND:                -1.738
REMARK SMILES CCCCCCCCCCCCCCCCCCCCCC(=O)[O-]
REMARK SMILES IDX 12 1 11 2 10 3 9 4 8 5 7 6 6 7 5 8 4 9 3 10 2 11 1 12 13 13
REMARK SMILES IDX 14 14 15 15 16 16 17 17 18 18 19 19 20 20 21 21 22 22 23 23
REMARK SMILES IDX 24 24
REMARK H PARENT
REMARK Flexibility Score: inf
ROOT
ATOM      1  C   UNL     1     104.040 311.953 195.286  1.00  0.00     0.000 C 
ENDROOT
BRANCH   1   2
ATOM      2  C   UNL     1     105.487 312.013 194.766  1.00  0.00     0.000 C 
BRANCH   2   3
ATOM      3  C   UNL     1     105.594 311.773 193.254  1.00  0.00     0.000 C 
BRANCH   3   4
ATOM      4  C   UNL     1     104.223 311.927 192.577  1.00  0.00    -0.000 C 
BRANCH   4   5
ATOM      5  C   UNL     1     104.172 313.102 191.586  1.00  0.00    -0.000 C 
BRANCH   5   6
ATOM      6  C   UNL     1     105.520 313.807 191.333  1.00  0.00    -0.000 C 
BRANCH   6   7
ATOM      7  C   UNL     1     105.567 315.290 191.744  1.00  0.00    -0.000 C 
BRANCH   7   8
ATOM      8  C   UNL     1     105.720 315.487 193.259  1.00  0.00    -0.000 C 
BRANCH   8   9
ATOM      9  C   UNL     1     104.522 316.250 193.837  1.00  0.00    -0.000 C 
BRANCH   9  10
ATOM     10  C   UNL     1     103.492 315.283 194.440  1.00  0.00    -0.000 C 
BRANCH  10  11
ATOM     11  C   UNL     1     103.203 315.577 195.920  1.00  0.00    -0.003 C 
ATOM     12  C   UNL     1     104.462 315.551 196.786  1.00  0.00     0.004 C 
ENDBRANCH  10  11
ENDBRANCH   9  10
ENDBRANCH   8   9
ENDBRANCH   7   8
ENDBRANCH   6   7
ENDBRANCH   5   6
ENDBRANCH   4   5
ENDBRANCH   3   4
ENDBRANCH   2   3
ENDBRANCH   1   2
BRANCH   1  13
ATOM     13  C   UNL     1     103.852 311.221 196.628  1.00  0.00     0.000 C 
BRANCH  13  14
ATOM     14  C   UNL     1     103.750 312.179 197.826  1.00  0.00     0.000 C 
BRANCH  14  15
ATOM     15  C   UNL     1     103.402 311.459 199.142  1.00  0.00     0.000 C 
BRANCH  15  16
ATOM     16  C   UNL     1     103.652 312.276 200.423  1.00  0.00     0.000 C 
BRANCH  16  17
ATOM     17  C   UNL     1     103.909 311.397 201.656  1.00  0.00     0.000 C 
BRANCH  17  18
ATOM     18  C   UNL     1     102.613 311.176 202.452  1.00  0.00     0.000 C 
BRANCH  18  19
ATOM     19  C   UNL     1     102.863 310.645 203.874  1.00  0.00     0.000 C 
BRANCH  19  20
ATOM     20  C   UNL     1     104.341 310.613 204.306  1.00  0.00     0.006 C 
BRANCH  20  21
ATOM     21  C   UNL     1     104.598 311.365 205.618  1.00  0.00     0.053 C 
BRANCH  21  22
ATOM     22  C   UNL     1     104.887 312.808 205.347  1.00  0.00     0.041 C 
ATOM     23  O   UNL     1     104.398 313.702 206.088  1.00  0.00    -0.550 OA
ATOM     24  O   UNL     1     105.652 313.170 204.246  1.00  0.00    -0.550 OA
ENDBRANCH  21  22
ENDBRANCH  20  21
ENDBRANCH  19  20
ENDBRANCH  18  19
ENDBRANCH  17  18
ENDBRANCH  16  17
ENDBRANCH  15  16
ENDBRANCH  14  15
ENDBRANCH  13  14
ENDBRANCH   1  13
TORSDOF 20
ENDMDL
