MODEL 1
REMARK VINA RESULT:    -3.730      0.000      0.000
REMARK INTER + INTRA:          -7.250
REMARK INTER:                  -5.911
REMARK INTRA:                  -1.339
REMARK UNBOUND:                -1.339
REMARK SMILES CCCCCCCCCCCC(=O)[O-]
REMARK SMILES IDX 7 1 8 2 9 3 10 4 11 5 12 6 13 7 14 8 6 9 5 10 4 11 3 12 2 13
REMARK SMILES IDX 1 14
REMARK H PARENT
REMARK Flexibility Score: inf
ROOT
ATOM      1  C   UNL     1      49.917  -7.662 -54.048  1.00  0.00     0.000 C 
ENDROOT
BRANCH   1   2
ATOM      2  C   UNL     1      48.460  -7.173 -54.087  1.00  0.00     0.000 C 
BRANCH   2   3
ATOM      3  C   UNL     1      47.610  -7.932 -55.121  1.00  0.00     0.000 C 
BRANCH   3   4
ATOM      4  C   UNL     1      48.319  -9.186 -55.659  1.00  0.00     0.006 C 
BRANCH   4   5
ATOM      5  C   UNL     1      47.532  -9.877 -56.780  1.00  0.00     0.053 C 
BRANCH   5   6
ATOM      6  C   UNL     1      47.792 -11.350 -56.770  1.00  0.00     0.041 C 
ATOM      7  O   UNL     1      47.149 -12.113 -57.538  1.00  0.00    -0.550 OA
ATOM      8  O   UNL     1      48.710 -11.887 -55.877  1.00  0.00    -0.550 OA
ENDBRANCH   5   6
ENDBRANCH   4   5
ENDBRANCH   3   4
ENDBRANCH   2   3
ENDBRANCH   1   2
BRANCH   1   9
ATOM      9  C   UNL     1      50.894  -6.656 -54.680  1.00  0.00     0.000 C 
BRANCH   9  10
ATOM     10  C   UNL     1      50.352  -5.215 -54.674  1.00  0.00    -0.000 C 
BRANCH  10  11
ATOM     11  C   UNL     1      50.281  -4.537 -56.058  1.00  0.00    -0.000 C 
BRANCH  11  12
ATOM     12  C   UNL     1      50.492  -5.478 -57.261  1.00  0.00    -0.000 C 
BRANCH  12  13
ATOM     13  C   UNL     1      49.198  -6.005 -57.905  1.00  0.00    -0.003 C 
ATOM     14  C   UNL     1      49.406  -7.307 -58.678  1.00  0.00     0.004 C 
ENDBRANCH  12  13
ENDBRANCH  11  12
ENDBRANCH  10  11
ENDBRANCH   9  10
ENDBRANCH   1   9
TORSDOF 10
ENDMDL
MODEL 2
REMARK VINA RESULT:    -3.678      1.017      1.903
REMARK INTER + INTRA:          -7.167
REMARK INTER:                  -6.151
REMARK INTRA:                  -1.016
REMARK UNBOUND:                -1.339
REMARK SMILES CCCCCCCCCCCC(=O)[O-]
REMARK SMILES IDX 7 1 8 2 9 3 10 4 11 5 12 6 13 7 14 8 6 9 5 10 4 11 3 12 2 13
REMARK SMILES IDX 1 14
REMARK H PARENT
REMARK Flexibility Score: inf
ROOT
ATOM      1  C   UNL     1      47.984  -7.614 -54.737  1.00  0.00     0.000 C 
ENDROOT
BRANCH   1   2
ATOM      2  C   UNL     1      48.503  -8.858 -55.476  1.00  0.00     0.000 C 
BRANCH   2   3
ATOM      3  C   UNL     1      47.845  -9.043 -56.855  1.00  0.00     0.000 C 
BRANCH   3   4
ATOM      4  C   UNL     1      46.955 -10.295 -56.920  1.00  0.00     0.006 C 
BRANCH   4   5
ATOM      5  C   UNL     1      47.654 -11.484 -57.593  1.00  0.00     0.053 C 
BRANCH   5   6
ATOM      6  C   UNL     1      47.959 -12.548 -56.586  1.00  0.00     0.041 C 
ATOM      7  O   UNL     1      48.968 -12.442 -55.839  1.00  0.00    -0.550 OA
ATOM      8  O   UNL     1      47.158 -13.679 -56.504  1.00  0.00    -0.550 OA
ENDBRANCH   5   6
ENDBRANCH   4   5
ENDBRANCH   3   4
ENDBRANCH   2   3
ENDBRANCH   1   2
BRANCH   1   9
ATOM      9  C   UNL     1      49.049  -6.983 -53.823  1.00  0.00     0.000 C 
BRANCH   9  10
ATOM     10  C   UNL     1      49.838  -5.857 -54.517  1.00  0.00    -0.000 C 
BRANCH  10  11
ATOM     11  C   UNL     1      51.290  -6.212 -54.894  1.00  0.00    -0.000 C 
BRANCH  11  12
ATOM     12  C   UNL     1      51.629  -6.081 -56.393  1.00  0.00    -0.000 C 
BRANCH  12  13
ATOM     13  C   UNL     1      50.440  -5.706 -57.294  1.00  0.00    -0.003 C 
ATOM     14  C   UNL     1      50.241  -6.683 -58.453  1.00  0.00     0.004 C 
ENDBRANCH  12  13
ENDBRANCH  11  12
ENDBRANCH  10  11
ENDBRANCH   9  10
ENDBRANCH   1   9
TORSDOF 10
ENDMDL
MODEL 3
REMARK VINA RESULT:    -3.671      3.063      6.018
REMARK INTER + INTRA:          -7.156
REMARK INTER:                  -6.548
REMARK INTRA:                  -0.608
REMARK UNBOUND:                -1.339
REMARK SMILES CCCCCCCCCCCC(=O)[O-]
REMARK SMILES IDX 7 1 8 2 9 3 10 4 11 5 12 6 13 7 14 8 6 9 5 10 4 11 3 12 2 13
REMARK SMILES IDX 1 14
REMARK H PARENT
REMARK Flexibility Score: inf
ROOT
ATOM      1  C   UNL     1      47.781  -7.784 -55.826  1.00  0.00     0.000 C 
ENDROOT
BRANCH   1   2
ATOM      2  C   UNL     1      48.944  -8.333 -54.983  1.00  0.00     0.000 C 
BRANCH   2   3
ATOM      3  C   UNL     1      49.431  -7.328 -53.924  1.00  0.00     0.000 C 
BRANCH   3   4
ATOM      4  C   UNL     1      50.032  -6.059 -54.548  1.00  0.00     0.006 C 
BRANCH   4   5
ATOM      5  C   UNL     1      51.429  -6.292 -55.137  1.00  0.00     0.053 C 
BRANCH   5   6
ATOM      6  C   UNL     1      51.464  -5.881 -56.576  1.00  0.00     0.041 C 
ATOM      7  O   UNL     1      52.531  -5.982 -57.237  1.00  0.00    -0.550 OA
ATOM      8  O   UNL     1      50.333  -5.342 -57.172  1.00  0.00    -0.550 OA
ENDBRANCH   5   6
ENDBRANCH   4   5
ENDBRANCH   3   4
ENDBRANCH   2   3
ENDBRANCH   1   2
BRANCH   1   9
ATOM      9  C   UNL     1      46.954  -8.900 -56.487  1.00  0.00     0.000 C 
BRANCH   9  10
ATOM     10  C   UNL     1      47.821  -9.894 -57.281  1.00  0.00    -0.000 C 
BRANCH  10  11
ATOM     11  C   UNL     1      47.500 -11.383 -57.036  1.00  0.00    -0.000 C 
BRANCH  11  12
ATOM     12  C   UNL     1      48.432 -12.099 -56.038  1.00  0.00    -0.000 C 
BRANCH  12  13
ATOM     13  C   UNL     1      48.557 -13.619 -56.246  1.00  0.00    -0.003 C 
ATOM     14  C   UNL     1      47.577 -14.419 -55.390  1.00  0.00     0.004 C 
ENDBRANCH  12  13
ENDBRANCH  11  12
ENDBRANCH  10  11
ENDBRANCH   9  10
ENDBRANCH   1   9
TORSDOF 10
ENDMDL
MODEL 4
REMARK VINA RESULT:    -3.655      3.064      5.185
REMARK INTER + INTRA:          -7.131
REMARK INTER:                  -6.242
REMARK INTRA:                  -0.890
REMARK UNBOUND:                -1.339
REMARK SMILES CCCCCCCCCCCC(=O)[O-]
REMARK SMILES IDX 7 1 8 2 9 3 10 4 11 5 12 6 13 7 14 8 6 9 5 10 4 11 3 12 2 13
REMARK SMILES IDX 1 14
REMARK H PARENT
REMARK Flexibility Score: inf
ROOT
ATOM      1  C   UNL     1      49.929  -7.711 -54.186  1.00  0.00     0.000 C 
ENDROOT
BRANCH   1   2
ATOM      2  C   UNL     1      50.936  -6.636 -54.627  1.00  0.00     0.000 C 
BRANCH   2   3
ATOM      3  C   UNL     1      50.252  -5.322 -55.044  1.00  0.00     0.000 C 
BRANCH   3   4
ATOM      4  C   UNL     1      50.504  -4.968 -56.518  1.00  0.00     0.006 C 
BRANCH   4   5
ATOM      5  C   UNL     1      50.898  -6.188 -57.362  1.00  0.00     0.053 C 
BRANCH   5   6
ATOM      6  C   UNL     1      52.171  -5.922 -58.101  1.00  0.00     0.041 C 
ATOM      7  O   UNL     1      52.476  -6.616 -59.107  1.00  0.00    -0.550 OA
ATOM      8  O   UNL     1      53.044  -4.941 -57.651  1.00  0.00    -0.550 OA
ENDBRANCH   5   6
ENDBRANCH   4   5
ENDBRANCH   3   4
ENDBRANCH   2   3
ENDBRANCH   1   2
BRANCH   1   9
ATOM      9  C   UNL     1      48.510  -7.146 -53.994  1.00  0.00     0.000 C 
BRANCH   9  10
ATOM     10  C   UNL     1      47.488  -7.762 -54.966  1.00  0.00    -0.000 C 
BRANCH  10  11
ATOM     11  C   UNL     1      48.096  -8.471 -56.193  1.00  0.00    -0.000 C 
BRANCH  11  12
ATOM     12  C   UNL     1      48.016 -10.011 -56.168  1.00  0.00    -0.000 C 
BRANCH  12  13
ATOM     13  C   UNL     1      47.091 -10.628 -57.231  1.00  0.00    -0.003 C 
ATOM     14  C   UNL     1      47.228 -12.147 -57.330  1.00  0.00     0.004 C 
ENDBRANCH  12  13
ENDBRANCH  11  12
ENDBRANCH  10  11
ENDBRANCH   9  10
ENDBRANCH   1   9
TORSDOF 10
ENDMDL
MODEL 5
REMARK VINA RESULT:    -3.655      1.169      1.871
REMARK INTER + INTRA:          -7.131
REMARK INTER:                  -5.886
REMARK INTRA:                  -1.246
REMARK UNBOUND:                -1.339
REMARK SMILES CCCCCCCCCCCC(=O)[O-]
REMARK SMILES IDX 7 1 8 2 9 3 10 4 11 5 12 6 13 7 14 8 6 9 5 10 4 11 3 12 2 13
REMARK SMILES IDX 1 14
REMARK H PARENT
REMARK Flexibility Score: inf
ROOT
ATOM      1  C   UNL     1      50.870  -6.590 -54.683  1.00  0.00     0.000 C 
ENDROOT
BRANCH   1   2
ATOM      2  C   UNL     1      49.921  -7.738 -54.300  1.00  0.00     0.000 C 
BRANCH   2   3
ATOM      3  C   UNL     1      48.480  -7.256 -54.057  1.00  0.00     0.000 C 
BRANCH   3   4
ATOM      4  C   UNL     1      47.541  -7.593 -55.226  1.00  0.00     0.006 C 
BRANCH   4   5
ATOM      5  C   UNL     1      48.221  -8.446 -56.305  1.00  0.00     0.053 C 
BRANCH   5   6
ATOM      6  C   UNL     1      47.458  -9.714 -56.525  1.00  0.00     0.041 C 
ATOM      7  O   UNL     1      48.024 -10.829 -56.373  1.00  0.00    -0.550 OA
ATOM      8  O   UNL     1      46.135  -9.666 -56.946  1.00  0.00    -0.550 OA
ENDBRANCH   5   6
ENDBRANCH   4   5
ENDBRANCH   3   4
ENDBRANCH   2   3
ENDBRANCH   1   2
BRANCH   1   9
ATOM      9  C   UNL     1      50.271  -5.205 -54.382  1.00  0.00     0.000 C 
BRANCH   9  10
ATOM     10  C   UNL     1      49.948  -4.405 -55.657  1.00  0.00    -0.000 C 
BRANCH  10  11
ATOM     11  C   UNL     1      50.676  -4.883 -56.931  1.00  0.00    -0.000 C 
BRANCH  11  12
ATOM     12  C   UNL     1      49.773  -5.540 -57.995  1.00  0.00    -0.000 C 
BRANCH  12  13
ATOM     13  C   UNL     1      50.437  -6.676 -58.793  1.00  0.00    -0.003 C 
ATOM     14  C   UNL     1      51.963  -6.599 -58.780  1.00  0.00     0.004 C 
ENDBRANCH  12  13
ENDBRANCH  11  12
ENDBRANCH  10  11
ENDBRANCH   9  10
ENDBRANCH   1   9
TORSDOF 10
ENDMDL
MODEL 6
REMARK VINA RESULT:    -3.644      2.036      3.665
REMARK INTER + INTRA:          -7.113
REMARK INTER:                  -6.528
REMARK INTRA:                  -0.585
REMARK UNBOUND:                -1.339
REMARK SMILES CCCCCCCCCCCC(=O)[O-]
REMARK SMILES IDX 7 1 8 2 9 3 10 4 11 5 12 6 13 7 14 8 6 9 5 10 4 11 3 12 2 13
REMARK SMILES IDX 1 14
REMARK H PARENT
REMARK Flexibility Score: inf
ROOT
ATOM      1  C   UNL     1      47.942  -8.697 -57.291  1.00  0.00     0.000 C 
ENDROOT
BRANCH   1   2
ATOM      2  C   UNL     1      47.189  -9.983 -56.908  1.00  0.00     0.000 C 
BRANCH   2   3
ATOM      3  C   UNL     1      47.982 -11.255 -57.255  1.00  0.00     0.000 C 
BRANCH   3   4
ATOM      4  C   UNL     1      47.338 -12.526 -56.677  1.00  0.00     0.006 C 
BRANCH   4   5
ATOM      5  C   UNL     1      48.370 -13.500 -56.094  1.00  0.00     0.053 C 
BRANCH   5   6
ATOM      6  C   UNL     1      47.725 -14.811 -55.771  1.00  0.00     0.041 C 
ATOM      7  O   UNL     1      46.542 -14.846 -55.341  1.00  0.00    -0.550 OA
ATOM      8  O   UNL     1      48.446 -15.991 -55.899  1.00  0.00    -0.550 OA
ENDBRANCH   5   6
ENDBRANCH   4   5
ENDBRANCH   3   4
ENDBRANCH   2   3
ENDBRANCH   1   2
BRANCH   1   9
ATOM      9  C   UNL     1      48.138  -7.750 -56.094  1.00  0.00     0.000 C 
BRANCH   9  10
ATOM     10  C   UNL     1      48.703  -8.467 -54.854  1.00  0.00    -0.000 C 
BRANCH  10  11
ATOM     11  C   UNL     1      49.837  -7.717 -54.125  1.00  0.00    -0.000 C 
BRANCH  11  12
ATOM     12  C   UNL     1      50.192  -6.336 -54.711  1.00  0.00    -0.000 C 
BRANCH  12  13
ATOM     13  C   UNL     1      51.632  -6.208 -55.239  1.00  0.00    -0.003 C 
ATOM     14  C   UNL     1      51.694  -5.979 -56.749  1.00  0.00     0.004 C 
ENDBRANCH  12  13
ENDBRANCH  11  12
ENDBRANCH  10  11
ENDBRANCH   9  10
ENDBRANCH   1   9
TORSDOF 10
ENDMDL
MODEL 7
REMARK VINA RESULT:    -3.605      1.270      2.166
REMARK INTER + INTRA:          -7.051
REMARK INTER:                  -5.769
REMARK INTRA:                  -1.282
REMARK UNBOUND:                -1.339
REMARK SMILES CCCCCCCCCCCC(=O)[O-]
REMARK SMILES IDX 7 1 8 2 9 3 10 4 11 5 12 6 13 7 14 8 6 9 5 10 4 11 3 12 2 13
REMARK SMILES IDX 1 14
REMARK H PARENT
REMARK Flexibility Score: inf
ROOT
ATOM      1  C   UNL     1      50.285  -7.536 -54.206  1.00  0.00     0.000 C 
ENDROOT
BRANCH   1   2
ATOM      2  C   UNL     1      48.868  -7.119 -53.778  1.00  0.00     0.000 C 
BRANCH   2   3
ATOM      3  C   UNL     1      47.775  -7.770 -54.645  1.00  0.00     0.000 C 
BRANCH   3   4
ATOM      4  C   UNL     1      48.323  -8.893 -55.539  1.00  0.00     0.006 C 
BRANCH   4   5
ATOM      5  C   UNL     1      47.448  -9.150 -56.772  1.00  0.00     0.053 C 
BRANCH   5   6
ATOM      6  C   UNL     1      47.248 -10.619 -56.973  1.00  0.00     0.041 C 
ATOM      7  O   UNL     1      48.116 -11.438 -56.570  1.00  0.00    -0.550 OA
ATOM      8  O   UNL     1      46.126 -11.082 -57.648  1.00  0.00    -0.550 OA
ENDBRANCH   5   6
ENDBRANCH   4   5
ENDBRANCH   3   4
ENDBRANCH   2   3
ENDBRANCH   1   2
BRANCH   1   9
ATOM      9  C   UNL     1      51.138  -6.340 -54.664  1.00  0.00     0.000 C 
BRANCH   9  10
ATOM     10  C   UNL     1      50.964  -6.022 -56.160  1.00  0.00    -0.000 C 
BRANCH  10  11
ATOM     11  C   UNL     1      50.250  -4.690 -56.467  1.00  0.00    -0.000 C 
BRANCH  11  12
ATOM     12  C   UNL     1      48.726  -4.796 -56.677  1.00  0.00    -0.000 C 
BRANCH  12  13
ATOM     13  C   UNL     1      47.886  -3.832 -55.820  1.00  0.00    -0.003 C 
ATOM     14  C   UNL     1      48.401  -3.710 -54.386  1.00  0.00     0.004 C 
ENDBRANCH  12  13
ENDBRANCH  11  12
ENDBRANCH  10  11
ENDBRANCH   9  10
ENDBRANCH   1   9
TORSDOF 10
ENDMDL
MODEL 8
REMARK VINA RESULT:    -3.545      1.233      3.162
REMARK INTER + INTRA:          -6.956
REMARK INTER:                  -5.828
REMARK INTRA:                  -1.128
REMARK UNBOUND:                -1.339
REMARK SMILES CCCCCCCCCCCC(=O)[O-]
REMARK SMILES IDX 7 1 8 2 9 3 10 4 11 5 12 6 13 7 14 8 6 9 5 10 4 11 3 12 2 13
REMARK SMILES IDX 1 14
REMARK H PARENT
REMARK Flexibility Score: inf
ROOT
ATOM      1  C   UNL     1      50.285  -6.955 -58.901  1.00  0.00     0.000 C 
ENDROOT
BRANCH   1   2
ATOM      2  C   UNL     1      49.010  -7.816 -58.874  1.00  0.00     0.000 C 
BRANCH   2   3
ATOM      3  C   UNL     1      48.230  -7.675 -57.555  1.00  0.00     0.000 C 
BRANCH   3   4
ATOM      4  C   UNL     1      47.155  -8.761 -57.387  1.00  0.00     0.006 C 
BRANCH   4   5
ATOM      5  C   UNL     1      47.725 -10.081 -56.852  1.00  0.00     0.053 C 
BRANCH   5   6
ATOM      6  C   UNL     1      47.433 -11.199 -57.803  1.00  0.00     0.041 C 
ATOM      7  O   UNL     1      46.599 -12.091 -57.493  1.00  0.00    -0.550 OA
ATOM      8  O   UNL     1      48.115 -11.282 -59.009  1.00  0.00    -0.550 OA
ENDBRANCH   5   6
ENDBRANCH   4   5
ENDBRANCH   3   4
ENDBRANCH   2   3
ENDBRANCH   1   2
BRANCH   1   9
ATOM      9  C   UNL     1      50.334  -5.940 -57.745  1.00  0.00     0.000 C 
BRANCH   9  10
ATOM     10  C   UNL     1      51.728  -5.840 -57.100  1.00  0.00    -0.000 C 
BRANCH  10  11
ATOM     11  C   UNL     1      51.778  -6.178 -55.595  1.00  0.00    -0.000 C 
BRANCH  11  12
ATOM     12  C   UNL     1      50.443  -6.014 -54.842  1.00  0.00    -0.000 C 
BRANCH  12  13
ATOM     13  C   UNL     1      49.891  -7.307 -54.215  1.00  0.00    -0.003 C 
ATOM     14  C   UNL     1      48.394  -7.233 -53.921  1.00  0.00     0.004 C 
ENDBRANCH  12  13
ENDBRANCH  11  12
ENDBRANCH  10  11
ENDBRANCH   9  10
ENDBRANCH   1   9
TORSDOF 10
ENDMDL
