MODEL 1
REMARK VINA RESULT:    -3.452      0.000      0.000
REMARK INTER + INTRA:          -4.659
REMARK INTER:                  -4.460
REMARK INTRA:                  -0.198
REMARK UNBOUND:                -0.198
REMARK SMILES CCCCCCC(=O)[O-]
REMARK SMILES IDX 5 1 6 2 7 3 8 4 9 5 4 6 3 7 2 8 1 9
REMARK H PARENT
REMARK Flexibility Score: inf
ROOT
ATOM      1  C   UNL     1       0.657  18.676  29.831  1.00  0.00     0.006 C 
ENDROOT
BRANCH   1   2
ATOM      2  C   UNL     1       0.394  17.223  29.413  1.00  0.00     0.053 C 
BRANCH   2   3
ATOM      3  C   UNL     1       1.063  16.890  28.114  1.00  0.00     0.041 C 
ATOM      4  O   UNL     1       2.188  16.325  28.106  1.00  0.00    -0.550 OA
ATOM      5  O   UNL     1       0.456  17.234  26.913  1.00  0.00    -0.550 OA
ENDBRANCH   2   3
ENDBRANCH   1   2
BRANCH   1   6
ATOM      6  C   UNL     1      -0.632  19.510  29.879  1.00  0.00     0.000 C 
BRANCH   6   7
ATOM      7  C   UNL     1      -1.780  18.789  29.165  1.00  0.00    -0.000 C 
BRANCH   7   8
ATOM      8  C   UNL     1      -3.125  19.458  29.471  1.00  0.00    -0.003 C 
ATOM      9  C   UNL     1      -2.929  20.888  29.968  1.00  0.00     0.004 C 
ENDBRANCH   7   8
ENDBRANCH   6   7
ENDBRANCH   1   6
TORSDOF 5
ENDMDL
MODEL 2
REMARK VINA RESULT:    -3.326      0.989      1.565
REMARK INTER + INTRA:          -4.497
REMARK INTER:                  -4.361
REMARK INTRA:                  -0.135
REMARK UNBOUND:                -0.198
REMARK SMILES CCCCCCC(=O)[O-]
REMARK SMILES IDX 5 1 6 2 7 3 8 4 9 5 4 6 3 7 2 8 1 9
REMARK H PARENT
REMARK Flexibility Score: inf
ROOT
ATOM      1  C   UNL     1      -0.651  18.335  29.072  1.00  0.00     0.006 C 
ENDROOT
BRANCH   1   2
ATOM      2  C   UNL     1       0.860  18.137  29.245  1.00  0.00     0.053 C 
BRANCH   2   3
ATOM      3  C   UNL     1       1.491  17.571  28.009  1.00  0.00     0.041 C 
ATOM      4  O   UNL     1       0.794  16.935  27.175  1.00  0.00    -0.550 OA
ATOM      5  O   UNL     1       2.855  17.718  27.795  1.00  0.00    -0.550 OA
ENDBRANCH   2   3
ENDBRANCH   1   2
BRANCH   1   6
ATOM      6  C   UNL     1      -1.161  19.587  29.801  1.00  0.00     0.000 C 
BRANCH   6   7
ATOM      7  C   UNL     1      -2.671  19.759  29.607  1.00  0.00    -0.000 C 
BRANCH   7   8
ATOM      8  C   UNL     1      -3.124  21.162  30.027  1.00  0.00    -0.003 C 
ATOM      9  C   UNL     1      -1.931  22.036  30.406  1.00  0.00     0.004 C 
ENDBRANCH   7   8
ENDBRANCH   6   7
ENDBRANCH   1   6
TORSDOF 5
ENDMDL
MODEL 3
REMARK VINA RESULT:    -3.316      9.063     10.774
REMARK INTER + INTRA:          -4.483
REMARK INTER:                  -4.235
REMARK INTRA:                  -0.248
REMARK UNBOUND:                -0.198
REMARK SMILES CCCCCCC(=O)[O-]
REMARK SMILES IDX 5 1 6 2 7 3 8 4 9 5 4 6 3 7 2 8 1 9
REMARK H PARENT
REMARK Flexibility Score: inf
ROOT
ATOM      1  C   UNL     1       9.300  22.159  28.503  1.00  0.00     0.006 C 
ENDROOT
BRANCH   1   2
ATOM      2  C   UNL     1       8.194  23.215  28.380  1.00  0.00     0.053 C 
BRANCH   2   3
ATOM      3  C   UNL     1       6.832  22.613  28.548  1.00  0.00     0.041 C 
ATOM      4  O   UNL     1       6.411  21.754  27.728  1.00  0.00    -0.550 OA
ATOM      5  O   UNL     1       6.013  23.026  29.591  1.00  0.00    -0.550 OA
ENDBRANCH   2   3
ENDBRANCH   1   2
BRANCH   1   6
ATOM      6  C   UNL     1      10.025  21.918  27.171  1.00  0.00     0.000 C 
BRANCH   6   7
ATOM      7  C   UNL     1       9.693  20.533  26.607  1.00  0.00    -0.000 C 
BRANCH   7   8
ATOM      8  C   UNL     1      10.216  19.424  27.527  1.00  0.00    -0.003 C 
ATOM      9  C   UNL     1      11.743  19.402  27.552  1.00  0.00     0.004 C 
ENDBRANCH   7   8
ENDBRANCH   6   7
ENDBRANCH   1   6
TORSDOF 5
ENDMDL
MODEL 4
REMARK VINA RESULT:    -3.292      3.918      4.881
REMARK INTER + INTRA:          -4.452
REMARK INTER:                  -4.241
REMARK INTRA:                  -0.211
REMARK UNBOUND:                -0.198
REMARK SMILES CCCCCCC(=O)[O-]
REMARK SMILES IDX 5 1 6 2 7 3 8 4 9 5 4 6 3 7 2 8 1 9
REMARK H PARENT
REMARK Flexibility Score: inf
ROOT
ATOM      1  C   UNL     1       0.225  14.311  29.902  1.00  0.00     0.006 C 
ENDROOT
BRANCH   1   2
ATOM      2  C   UNL     1      -1.235  13.870  29.741  1.00  0.00     0.053 C 
BRANCH   2   3
ATOM      3  C   UNL     1      -1.521  12.612  30.504  1.00  0.00     0.041 C 
ATOM      4  O   UNL     1      -1.380  11.489  29.951  1.00  0.00    -0.550 OA
ATOM      5  O   UNL     1      -1.976  12.682  31.814  1.00  0.00    -0.550 OA
ENDBRANCH   2   3
ENDBRANCH   1   2
BRANCH   1   6
ATOM      6  C   UNL     1       0.378  15.840  29.869  1.00  0.00     0.000 C 
BRANCH   6   7
ATOM      7  C   UNL     1       1.013  16.300  28.552  1.00  0.00    -0.000 C 
BRANCH   7   8
ATOM      8  C   UNL     1       0.170  17.395  27.889  1.00  0.00    -0.003 C 
ATOM      9  C   UNL     1      -0.740  18.082  28.904  1.00  0.00     0.004 C 
ENDBRANCH   7   8
ENDBRANCH   6   7
ENDBRANCH   1   6
TORSDOF 5
ENDMDL
MODEL 5
REMARK VINA RESULT:    -3.248      3.695      4.580
REMARK INTER + INTRA:          -4.395
REMARK INTER:                  -4.199
REMARK INTRA:                  -0.196
REMARK UNBOUND:                -0.198
REMARK SMILES CCCCCCC(=O)[O-]
REMARK SMILES IDX 5 1 6 2 7 3 8 4 9 5 4 6 3 7 2 8 1 9
REMARK H PARENT
REMARK Flexibility Score: inf
ROOT
ATOM      1  C   UNL     1       0.220  14.454  30.317  1.00  0.00     0.006 C 
ENDROOT
BRANCH   1   2
ATOM      2  C   UNL     1      -1.062  13.767  29.831  1.00  0.00     0.053 C 
BRANCH   2   3
ATOM      3  C   UNL     1      -0.882  12.285  29.700  1.00  0.00     0.041 C 
ATOM      4  O   UNL     1      -1.606  11.496  30.363  1.00  0.00    -0.550 OA
ATOM      5  O   UNL     1       0.109  11.776  28.871  1.00  0.00    -0.550 OA
ENDBRANCH   2   3
ENDBRANCH   1   2
BRANCH   1   6
ATOM      6  C   UNL     1       0.843  15.353  29.239  1.00  0.00     0.000 C 
BRANCH   6   7
ATOM      7  C   UNL     1       0.619  16.835  29.562  1.00  0.00    -0.000 C 
BRANCH   7   8
ATOM      8  C   UNL     1      -0.221  17.514  28.475  1.00  0.00    -0.003 C 
ATOM      9  C   UNL     1      -1.236  18.477  29.083  1.00  0.00     0.004 C 
ENDBRANCH   7   8
ENDBRANCH   6   7
ENDBRANCH   1   6
TORSDOF 5
ENDMDL
MODEL 6
REMARK VINA RESULT:    -3.241     14.920     16.152
REMARK INTER + INTRA:          -4.387
REMARK INTER:                  -4.051
REMARK INTRA:                  -0.335
REMARK UNBOUND:                -0.198
REMARK SMILES CCCCCCC(=O)[O-]
REMARK SMILES IDX 5 1 6 2 7 3 8 4 9 5 4 6 3 7 2 8 1 9
REMARK H PARENT
REMARK Flexibility Score: inf
ROOT
ATOM      1  C   UNL     1       8.574  15.821  17.453  1.00  0.00     0.006 C 
ENDROOT
BRANCH   1   2
ATOM      2  C   UNL     1       9.497  14.645  17.107  1.00  0.00     0.053 C 
BRANCH   2   3
ATOM      3  C   UNL     1       8.924  13.338  17.562  1.00  0.00     0.041 C 
ATOM      4  O   UNL     1       9.540  12.262  17.337  1.00  0.00    -0.550 OA
ATOM      5  O   UNL     1       7.694  13.305  18.206  1.00  0.00    -0.550 OA
ENDBRANCH   2   3
ENDBRANCH   1   2
BRANCH   1   6
ATOM      6  C   UNL     1       8.220  16.665  16.219  1.00  0.00     0.000 C 
BRANCH   6   7
ATOM      7  C   UNL     1       8.755  16.017  14.938  1.00  0.00    -0.000 C 
BRANCH   7   8
ATOM      8  C   UNL     1       7.608  15.630  13.997  1.00  0.00    -0.003 C 
ATOM      9  C   UNL     1       7.320  14.132  14.064  1.00  0.00     0.004 C 
ENDBRANCH   7   8
ENDBRANCH   6   7
ENDBRANCH   1   6
TORSDOF 5
ENDMDL
MODEL 7
REMARK VINA RESULT:    -3.220     15.565     16.997
REMARK INTER + INTRA:          -4.359
REMARK INTER:                  -4.173
REMARK INTRA:                  -0.186
REMARK UNBOUND:                -0.198
REMARK SMILES CCCCCCC(=O)[O-]
REMARK SMILES IDX 5 1 6 2 7 3 8 4 9 5 4 6 3 7 2 8 1 9
REMARK H PARENT
REMARK Flexibility Score: inf
ROOT
ATOM      1  C   UNL     1       8.333  15.604  15.119  1.00  0.00     0.006 C 
ENDROOT
BRANCH   1   2
ATOM      2  C   UNL     1       7.457  15.673  13.862  1.00  0.00     0.053 C 
BRANCH   2   3
ATOM      3  C   UNL     1       8.216  15.273  12.634  1.00  0.00     0.041 C 
ATOM      4  O   UNL     1       8.114  14.105  12.176  1.00  0.00    -0.550 OA
ATOM      5  O   UNL     1       9.064  16.183  12.014  1.00  0.00    -0.550 OA
ENDBRANCH   2   3
ENDBRANCH   1   2
BRANCH   1   6
ATOM      6  C   UNL     1       8.137  16.823  16.033  1.00  0.00     0.000 C 
BRANCH   6   7
ATOM      7  C   UNL     1       8.522  16.494  17.479  1.00  0.00    -0.000 C 
BRANCH   7   8
ATOM      8  C   UNL     1       9.138  15.093  17.578  1.00  0.00    -0.003 C 
ATOM      9  C   UNL     1       8.375  14.224  18.575  1.00  0.00     0.004 C 
ENDBRANCH   7   8
ENDBRANCH   6   7
ENDBRANCH   1   6
TORSDOF 5
ENDMDL
MODEL 8
REMARK VINA RESULT:    -3.149      1.511      2.128
REMARK INTER + INTRA:          -4.268
REMARK INTER:                  -4.159
REMARK INTRA:                  -0.109
REMARK UNBOUND:                -0.198
REMARK SMILES CCCCCCC(=O)[O-]
REMARK SMILES IDX 5 1 6 2 7 3 8 4 9 5 4 6 3 7 2 8 1 9
REMARK H PARENT
REMARK Flexibility Score: inf
ROOT
ATOM      1  C   UNL     1      -0.387  17.222  28.746  1.00  0.00     0.006 C 
ENDROOT
BRANCH   1   2
ATOM      2  C   UNL     1       0.503  17.368  27.505  1.00  0.00     0.053 C 
BRANCH   2   3
ATOM      3  C   UNL     1       1.798  16.631  27.661  1.00  0.00     0.041 C 
ATOM      4  O   UNL     1       2.888  17.197  27.385  1.00  0.00    -0.550 OA
ATOM      5  O   UNL     1       1.797  15.307  28.080  1.00  0.00    -0.550 OA
ENDBRANCH   2   3
ENDBRANCH   1   2
BRANCH   1   6
ATOM      6  C   UNL     1      -1.110  18.530  29.101  1.00  0.00     0.000 C 
BRANCH   6   7
ATOM      7  C   UNL     1      -0.225  19.428  29.973  1.00  0.00    -0.000 C 
BRANCH   7   8
ATOM      8  C   UNL     1      -0.886  20.791  30.207  1.00  0.00    -0.003 C 
ATOM      9  C   UNL     1       0.155  21.905  30.280  1.00  0.00     0.004 C 
ENDBRANCH   7   8
ENDBRANCH   6   7
ENDBRANCH   1   6
TORSDOF 5
ENDMDL
MODEL 9
REMARK VINA RESULT:    -3.054      5.553      6.910
REMARK INTER + INTRA:          -4.145
REMARK INTER:                  -3.875
REMARK INTRA:                  -0.270
REMARK UNBOUND:                -0.198
REMARK SMILES CCCCCCC(=O)[O-]
REMARK SMILES IDX 5 1 6 2 7 3 8 4 9 5 4 6 3 7 2 8 1 9
REMARK H PARENT
REMARK Flexibility Score: inf
ROOT
ATOM      1  C   UNL     1      -1.311  13.323  29.967  1.00  0.00     0.006 C 
ENDROOT
BRANCH   1   2
ATOM      2  C   UNL     1      -1.219  11.792  29.988  1.00  0.00     0.053 C 
BRANCH   2   3
ATOM      3  C   UNL     1      -1.607  11.231  31.322  1.00  0.00     0.041 C 
ATOM      4  O   UNL     1      -0.835  10.442  31.928  1.00  0.00    -0.550 OA
ATOM      5  O   UNL     1      -2.837  11.555  31.881  1.00  0.00    -0.550 OA
ENDBRANCH   2   3
ENDBRANCH   1   2
BRANCH   1   6
ATOM      6  C   UNL     1      -0.057  13.990  30.550  1.00  0.00     0.000 C 
BRANCH   6   7
ATOM      7  C   UNL     1       0.595  14.926  29.526  1.00  0.00    -0.000 C 
BRANCH   7   8
ATOM      8  C   UNL     1       2.030  14.486  29.213  1.00  0.00    -0.003 C 
ATOM      9  C   UNL     1       2.045  13.244  28.327  1.00  0.00     0.004 C 
ENDBRANCH   7   8
ENDBRANCH   6   7
ENDBRANCH   1   6
TORSDOF 5
ENDMDL
