MODEL 1
REMARK VINA RESULT:    -5.605      0.000      0.000
REMARK INTER + INTRA:          -7.089
REMARK INTER:                  -6.424
REMARK INTRA:                  -0.664
REMARK UNBOUND:                -0.664
REMARK SMILES C=C(C)[C@@H]1CC[C@@]2(C(=O)[O-])CC[C@@]3(C)[C@H](CC[C@H]4[C@]5(C)CC[C@H](O)C(C)(C)[C@@H]5CC[C@]43C)[C@@H]12
REMARK SMILES IDX 7 1 6 2 33 3 11 4 5 5 15 6 4 7 12 8 16 9 13 10 17 11 31 12
REMARK SMILES IDX 14 13 18 14 30 15 32 16 19 17 29 18 21 19 20 20 28 21 22 22
REMARK SMILES IDX 25 23 23 24 26 25 27 26 8 27 9 28 10 29 2 30 3 31 1 32 24 33
REMARK H PARENT 24 34
REMARK Flexibility Score: inf
ROOT
ATOM      1  C   UNL     1      17.126  -6.008  30.719  1.00  0.00     0.014 C 
ATOM      2  C   UNL     1      17.753  -4.762  31.393  1.00  0.00     0.014 C 
ATOM      3  C   UNL     1      17.049  -5.688  29.181  1.00  0.00     0.012 C 
ATOM      4  C   UNL     1      15.707  -6.242  31.296  1.00  0.00     0.014 C 
ATOM      5  C   UNL     1      17.615  -3.605  30.422  1.00  0.00     0.009 C 
ATOM      6  C   UNL     1      15.614  -5.874  28.563  1.00  0.00     0.000 C 
ATOM      7  C   UNL     1      17.537  -4.214  29.022  1.00  0.00     0.018 C 
ATOM      8  C   UNL     1      14.993  -7.390  30.568  1.00  0.00     0.008 C 
ATOM      9  C   UNL     1      15.573  -5.682  27.042  1.00  0.00     0.005 C 
ATOM     10  C   UNL     1      14.803  -7.157  29.010  1.00  0.00    -0.024 C 
ATOM     11  C   UNL     1      16.019  -6.914  26.291  1.00  0.00     0.005 C 
ATOM     12  C   UNL     1      15.135  -8.499  28.127  1.00  0.00    -0.024 C 
ATOM     13  C   UNL     1      13.287  -6.779  28.830  1.00  0.00     0.012 C 
ATOM     14  C   UNL     1      15.126  -8.179  26.559  1.00  0.00     0.002 C 
ATOM     15  C   UNL     1      16.535  -9.114  28.433  1.00  0.00     0.008 C 
ATOM     16  C   UNL     1      14.056  -9.565  28.522  1.00  0.00     0.012 C 
ATOM     17  C   UNL     1      15.545  -9.373  25.552  1.00  0.00    -0.026 C 
ATOM     18  C   UNL     1      16.948 -10.292  27.533  1.00  0.00     0.005 C 
ATOM     19  C   UNL     1      14.447 -10.479  25.445  1.00  0.00     0.010 C 
ATOM     20  C   UNL     1      15.645  -8.748  24.115  1.00  0.00     0.012 C 
ATOM     21  C   UNL     1      16.921 -10.019  26.000  1.00  0.00     0.003 C 
ATOM     22  C   UNL     1      14.847 -11.700  24.591  1.00  0.00     0.033 C 
ATOM     23  C   UNL     1      17.359 -11.318  25.171  1.00  0.00    -0.006 C 
ATOM     24  C   UNL     1      16.182 -12.346  25.042  1.00  0.00     0.120 C 
ATOM     25  C   UNL     1      18.578 -12.029  25.836  1.00  0.00     0.014 C 
ATOM     26  C   UNL     1      17.871 -10.929  23.751  1.00  0.00     0.014 C 
ENDROOT
BRANCH   1  27
ATOM     27  C   UNL     1      18.018  -7.205  31.054  1.00  0.00     0.048 C 
ATOM     28  O   UNL     1      18.675  -7.768  30.133  1.00  0.00    -0.550 OA
ATOM     29  O   UNL     1      17.994  -7.798  32.312  1.00  0.00    -0.550 OA
ENDBRANCH   1  27
BRANCH   7  30
ATOM     30  C   UNL     1      18.855  -4.113  28.249  1.00  0.00    -0.077 C 
ATOM     31  C   UNL     1      19.611  -5.367  27.879  1.00  0.00     0.039 C 
ATOM     32  C   UNL     1      19.359  -2.916  27.880  1.00  0.00     0.008 C 
ENDBRANCH   7  30
BRANCH  24  33
ATOM     33  O   UNL     1      16.034 -13.125  26.214  1.00  0.00    -0.393 OA
ATOM     34  H   UNL     1      15.080 -13.321  26.383  1.00  0.00     0.210 HD
ENDBRANCH  24  33
TORSDOF 3
ENDMDL
MODEL 2
REMARK VINA RESULT:    -5.118      2.173      7.048
REMARK INTER + INTRA:          -6.530
REMARK INTER:                  -5.781
REMARK INTRA:                  -0.749
REMARK UNBOUND:                -0.664
REMARK SMILES C=C(C)[C@@H]1CC[C@@]2(C(=O)[O-])CC[C@@]3(C)[C@H](CC[C@H]4[C@]5(C)CC[C@H](O)C(C)(C)[C@@H]5CC[C@]43C)[C@@H]12
REMARK SMILES IDX 7 1 6 2 33 3 11 4 5 5 15 6 4 7 12 8 16 9 13 10 17 11 31 12
REMARK SMILES IDX 14 13 18 14 30 15 32 16 19 17 29 18 21 19 20 20 28 21 22 22
REMARK SMILES IDX 25 23 23 24 26 25 27 26 8 27 9 28 10 29 2 30 3 31 1 32 24 33
REMARK H PARENT 24 34
REMARK Flexibility Score: inf
ROOT
ATOM      1  C   UNL     1      14.416 -10.210  27.374  1.00  0.00     0.014 C 
ATOM      2  C   UNL     1      14.111 -11.255  26.271  1.00  0.00     0.014 C 
ATOM      3  C   UNL     1      15.871  -9.682  27.092  1.00  0.00     0.012 C 
ATOM      4  C   UNL     1      14.347 -10.896  28.761  1.00  0.00     0.014 C 
ATOM      5  C   UNL     1      15.437 -11.679  25.670  1.00  0.00     0.009 C 
ATOM      6  C   UNL     1      16.838  -9.788  28.329  1.00  0.00     0.000 C 
ATOM      7  C   UNL     1      16.410 -10.520  25.891  1.00  0.00     0.018 C 
ATOM      8  C   UNL     1      14.769  -9.931  29.879  1.00  0.00     0.008 C 
ATOM      9  C   UNL     1      18.215  -9.159  28.086  1.00  0.00     0.005 C 
ATOM     10  C   UNL     1      16.247  -9.372  29.737  1.00  0.00    -0.024 C 
ATOM     11  C   UNL     1      18.205  -7.658  28.266  1.00  0.00     0.005 C 
ATOM     12  C   UNL     1      16.347  -7.765  30.055  1.00  0.00    -0.024 C 
ATOM     13  C   UNL     1      17.094 -10.165  30.799  1.00  0.00     0.012 C 
ATOM     14  C   UNL     1      17.802  -7.196  29.712  1.00  0.00     0.002 C 
ATOM     15  C   UNL     1      15.342  -6.905  29.230  1.00  0.00     0.008 C 
ATOM     16  C   UNL     1      15.982  -7.593  31.569  1.00  0.00     0.012 C 
ATOM     17  C   UNL     1      18.034  -5.602  29.865  1.00  0.00    -0.026 C 
ATOM     18  C   UNL     1      15.491  -5.382  29.392  1.00  0.00     0.005 C 
ATOM     19  C   UNL     1      18.085  -5.145  31.359  1.00  0.00     0.010 C 
ATOM     20  C   UNL     1      19.459  -5.287  29.287  1.00  0.00     0.012 C 
ATOM     21  C   UNL     1      16.905  -4.801  29.093  1.00  0.00     0.003 C 
ATOM     22  C   UNL     1      18.183  -3.618  31.559  1.00  0.00     0.033 C 
ATOM     23  C   UNL     1      16.937  -3.214  29.305  1.00  0.00    -0.006 C 
ATOM     24  C   UNL     1      17.066  -2.836  30.822  1.00  0.00     0.120 C 
ATOM     25  C   UNL     1      15.656  -2.540  28.725  1.00  0.00     0.014 C 
ATOM     26  C   UNL     1      18.107  -2.566  28.504  1.00  0.00     0.014 C 
ENDROOT
BRANCH   1  27
ATOM     27  C   UNL     1      13.341  -9.125  27.285  1.00  0.00     0.048 C 
ATOM     28  O   UNL     1      13.632  -8.000  26.790  1.00  0.00    -0.550 OA
ATOM     29  O   UNL     1      12.099  -9.284  27.891  1.00  0.00    -0.550 OA
ENDBRANCH   1  27
BRANCH   7  30
ATOM     30  C   UNL     1      16.628  -9.673  24.635  1.00  0.00    -0.077 C 
ATOM     31  C   UNL     1      16.325  -8.193  24.661  1.00  0.00     0.039 C 
ATOM     32  C   UNL     1      17.100 -10.221  23.494  1.00  0.00     0.008 C 
ENDBRANCH   7  30
BRANCH  24  33
ATOM     33  O   UNL     1      15.822  -2.915  31.490  1.00  0.00    -0.393 OA
ATOM     34  H   UNL     1      15.698  -2.136  32.087  1.00  0.00     0.210 HD
ENDBRANCH  24  33
TORSDOF 3
ENDMDL
MODEL 3
REMARK VINA RESULT:    -4.913      2.277      4.218
REMARK INTER + INTRA:          -6.296
REMARK INTER:                  -5.439
REMARK INTRA:                  -0.857
REMARK UNBOUND:                -0.664
REMARK SMILES C=C(C)[C@@H]1CC[C@@]2(C(=O)[O-])CC[C@@]3(C)[C@H](CC[C@H]4[C@]5(C)CC[C@H](O)C(C)(C)[C@@H]5CC[C@]43C)[C@@H]12
REMARK SMILES IDX 7 1 6 2 33 3 11 4 5 5 15 6 4 7 12 8 16 9 13 10 17 11 31 12
REMARK SMILES IDX 14 13 18 14 30 15 32 16 19 17 29 18 21 19 20 20 28 21 22 22
REMARK SMILES IDX 25 23 23 24 26 25 27 26 8 27 9 28 10 29 2 30 3 31 1 32 24 33
REMARK H PARENT 24 34
REMARK Flexibility Score: inf
ROOT
ATOM      1  C   UNL     1      15.774  -7.737  31.064  1.00  0.00     0.014 C 
ATOM      2  C   UNL     1      16.194  -7.809  32.554  1.00  0.00     0.014 C 
ATOM      3  C   UNL     1      16.769  -8.668  30.278  1.00  0.00     0.012 C 
ATOM      4  C   UNL     1      15.895  -6.274  30.570  1.00  0.00     0.014 C 
ATOM      5  C   UNL     1      17.612  -8.345  32.599  1.00  0.00     0.009 C 
ATOM      6  C   UNL     1      17.487  -7.958  29.071  1.00  0.00     0.000 C 
ATOM      7  C   UNL     1      17.810  -9.171  31.327  1.00  0.00     0.018 C 
ATOM      8  C   UNL     1      15.614  -6.171  29.063  1.00  0.00     0.008 C 
ATOM      9  C   UNL     1      18.359  -8.903  28.236  1.00  0.00     0.005 C 
ATOM     10  C   UNL     1      16.594  -7.026  28.156  1.00  0.00    -0.024 C 
ATOM     11  C   UNL     1      17.553  -9.705  27.241  1.00  0.00     0.005 C 
ATOM     12  C   UNL     1      15.809  -7.823  26.955  1.00  0.00    -0.024 C 
ATOM     13  C   UNL     1      17.588  -5.983  27.524  1.00  0.00     0.012 C 
ATOM     14  C   UNL     1      16.791  -8.825  26.186  1.00  0.00     0.002 C 
ATOM     15  C   UNL     1      14.617  -8.692  27.462  1.00  0.00     0.008 C 
ATOM     16  C   UNL     1      15.220  -6.723  26.008  1.00  0.00     0.012 C 
ATOM     17  C   UNL     1      16.144  -9.771  25.043  1.00  0.00    -0.026 C 
ATOM     18  C   UNL     1      13.937  -9.564  26.392  1.00  0.00     0.005 C 
ATOM     19  C   UNL     1      15.764  -8.976  23.753  1.00  0.00     0.010 C 
ATOM     20  C   UNL     1      17.261 -10.778  24.595  1.00  0.00     0.012 C 
ATOM     21  C   UNL     1      14.872 -10.529  25.606  1.00  0.00     0.003 C 
ATOM     22  C   UNL     1      15.032  -9.809  22.679  1.00  0.00     0.033 C 
ATOM     23  C   UNL     1      14.053 -11.374  24.519  1.00  0.00    -0.006 C 
ATOM     24  C   UNL     1      13.776 -10.533  23.224  1.00  0.00     0.120 C 
ATOM     25  C   UNL     1      12.692 -11.871  25.097  1.00  0.00     0.014 C 
ATOM     26  C   UNL     1      14.810 -12.683  24.141  1.00  0.00     0.014 C 
ENDROOT
BRANCH   1  27
ATOM     27  C   UNL     1      14.314  -8.187  30.979  1.00  0.00     0.048 C 
ATOM     28  O   UNL     1      13.395  -7.378  31.289  1.00  0.00    -0.550 OA
ATOM     29  O   UNL     1      13.979  -9.515  30.734  1.00  0.00    -0.550 OA
ENDBRANCH   1  27
BRANCH   7  30
ATOM     30  C   UNL     1      17.715 -10.679  31.571  1.00  0.00    -0.077 C 
ATOM     31  C   UNL     1      16.929 -11.549  30.619  1.00  0.00     0.039 C 
ATOM     32  C   UNL     1      18.333 -11.258  32.623  1.00  0.00     0.008 C 
ENDBRANCH   7  30
BRANCH  24  33
ATOM     33  O   UNL     1      12.678  -9.657  23.392  1.00  0.00    -0.393 OA
ATOM     34  H   UNL     1      12.129  -9.626  22.570  1.00  0.00     0.210 HD
ENDBRANCH  24  33
TORSDOF 3
ENDMDL
MODEL 4
REMARK VINA RESULT:    -4.753      9.530     14.234
REMARK INTER + INTRA:          -6.113
REMARK INTER:                  -5.480
REMARK INTRA:                  -0.633
REMARK UNBOUND:                -0.664
REMARK SMILES C=C(C)[C@@H]1CC[C@@]2(C(=O)[O-])CC[C@@]3(C)[C@H](CC[C@H]4[C@]5(C)CC[C@H](O)C(C)(C)[C@@H]5CC[C@]43C)[C@@H]12
REMARK SMILES IDX 7 1 6 2 33 3 11 4 5 5 15 6 4 7 12 8 16 9 13 10 17 11 31 12
REMARK SMILES IDX 14 13 18 14 30 15 32 16 19 17 29 18 21 19 20 20 28 21 22 22
REMARK SMILES IDX 25 23 23 24 26 25 27 26 8 27 9 28 10 29 2 30 3 31 1 32 24 33
REMARK H PARENT 24 34
REMARK Flexibility Score: inf
ROOT
ATOM      1  C   UNL     1      24.077   5.236  25.282  1.00  0.00     0.014 C 
ATOM      2  C   UNL     1      23.792   6.095  24.025  1.00  0.00     0.014 C 
ATOM      3  C   UNL     1      22.830   5.405  26.226  1.00  0.00     0.012 C 
ATOM      4  C   UNL     1      25.359   5.757  25.978  1.00  0.00     0.014 C 
ATOM      5  C   UNL     1      22.698   7.081  24.389  1.00  0.00     0.009 C 
ATOM      6  C   UNL     1      23.195   5.863  27.687  1.00  0.00     0.000 C 
ATOM      7  C   UNL     1      21.902   6.450  25.532  1.00  0.00     0.018 C 
ATOM      8  C   UNL     1      25.613   5.020  27.301  1.00  0.00     0.008 C 
ATOM      9  C   UNL     1      21.990   5.906  28.635  1.00  0.00     0.005 C 
ATOM     10  C   UNL     1      24.444   5.165  28.364  1.00  0.00    -0.024 C 
ATOM     11  C   UNL     1      21.638   4.543  29.185  1.00  0.00     0.005 C 
ATOM     12  C   UNL     1      24.094   3.748  29.114  1.00  0.00    -0.024 C 
ATOM     13  C   UNL     1      24.976   6.197  29.426  1.00  0.00     0.012 C 
ATOM     14  C   UNL     1      22.788   3.884  30.029  1.00  0.00     0.002 C 
ATOM     15  C   UNL     1      23.807   2.576  28.125  1.00  0.00     0.008 C 
ATOM     16  C   UNL     1      25.365   3.364  29.944  1.00  0.00     0.012 C 
ATOM     17  C   UNL     1      22.242   2.543  30.751  1.00  0.00    -0.026 C 
ATOM     18  C   UNL     1      23.340   1.264  28.778  1.00  0.00     0.005 C 
ATOM     19  C   UNL     1      23.158   2.085  31.931  1.00  0.00     0.010 C 
ATOM     20  C   UNL     1      20.866   2.906  31.412  1.00  0.00     0.012 C 
ATOM     21  C   UNL     1      22.088   1.369  29.698  1.00  0.00     0.003 C 
ATOM     22  C   UNL     1      22.748   0.744  32.576  1.00  0.00     0.033 C 
ATOM     23  C   UNL     1      21.706  -0.054  30.325  1.00  0.00    -0.006 C 
ATOM     24  C   UNL     1      22.619  -0.410  31.550  1.00  0.00     0.120 C 
ATOM     25  C   UNL     1      21.826  -1.190  29.262  1.00  0.00     0.014 C 
ATOM     26  C   UNL     1      20.210  -0.092  30.759  1.00  0.00     0.014 C 
ENDROOT
BRANCH   1  27
ATOM     27  C   UNL     1      24.299   3.797  24.811  1.00  0.00     0.048 C 
ATOM     28  O   UNL     1      25.280   3.533  24.060  1.00  0.00    -0.550 OA
ATOM     29  O   UNL     1      23.354   2.803  25.047  1.00  0.00    -0.550 OA
ENDBRANCH   1  27
BRANCH   7  30
ATOM     30  C   UNL     1      20.574   5.842  25.073  1.00  0.00    -0.077 C 
ATOM     31  C   UNL     1      19.370   6.730  24.864  1.00  0.00     0.039 C 
ATOM     32  C   UNL     1      20.454   4.517  24.842  1.00  0.00     0.008 C 
ENDBRANCH   7  30
BRANCH  24  33
ATOM     33  O   UNL     1      23.877  -0.911  31.140  1.00  0.00    -0.393 OA
ATOM     34  H   UNL     1      24.540  -0.180  31.085  1.00  0.00     0.210 HD
ENDBRANCH  24  33
TORSDOF 3
ENDMDL
MODEL 5
REMARK VINA RESULT:    -4.752      5.931     11.586
REMARK INTER + INTRA:          -6.111
REMARK INTER:                  -5.420
REMARK INTRA:                  -0.691
REMARK UNBOUND:                -0.664
REMARK SMILES C=C(C)[C@@H]1CC[C@@]2(C(=O)[O-])CC[C@@]3(C)[C@H](CC[C@H]4[C@]5(C)CC[C@H](O)C(C)(C)[C@@H]5CC[C@]43C)[C@@H]12
REMARK SMILES IDX 7 1 6 2 33 3 11 4 5 5 15 6 4 7 12 8 16 9 13 10 17 11 31 12
REMARK SMILES IDX 14 13 18 14 30 15 32 16 19 17 29 18 21 19 20 20 28 21 22 22
REMARK SMILES IDX 25 23 23 24 26 25 27 26 8 27 9 28 10 29 2 30 3 31 1 32 24 33
REMARK H PARENT 24 34
REMARK Flexibility Score: inf
ROOT
ATOM      1  C   UNL     1      19.572  -2.347  31.848  1.00  0.00     0.014 C 
ATOM      2  C   UNL     1      18.804  -3.692  31.863  1.00  0.00     0.014 C 
ATOM      3  C   UNL     1      20.374  -2.309  30.496  1.00  0.00     0.012 C 
ATOM      4  C   UNL     1      20.542  -2.298  33.056  1.00  0.00     0.014 C 
ATOM      5  C   UNL     1      19.464  -4.600  30.843  1.00  0.00     0.009 C 
ATOM      6  C   UNL     1      21.913  -2.035  30.675  1.00  0.00     0.000 C 
ATOM      7  C   UNL     1      20.131  -3.690  29.811  1.00  0.00     0.018 C 
ATOM      8  C   UNL     1      21.420  -1.039  33.013  1.00  0.00     0.008 C 
ATOM      9  C   UNL     1      22.666  -1.876  29.348  1.00  0.00     0.005 C 
ATOM     10  C   UNL     1      22.324  -0.915  31.716  1.00  0.00    -0.024 C 
ATOM     11  C   UNL     1      22.521  -0.490  28.764  1.00  0.00     0.005 C 
ATOM     12  C   UNL     1      22.333   0.603  31.095  1.00  0.00    -0.024 C 
ATOM     13  C   UNL     1      23.777  -1.293  32.186  1.00  0.00     0.012 C 
ATOM     14  C   UNL     1      23.088   0.649  29.685  1.00  0.00     0.002 C 
ATOM     15  C   UNL     1      20.906   1.178  30.838  1.00  0.00     0.008 C 
ATOM     16  C   UNL     1      23.021   1.514  32.168  1.00  0.00     0.012 C 
ATOM     17  C   UNL     1      23.089   2.055  28.885  1.00  0.00    -0.026 C 
ATOM     18  C   UNL     1      20.864   2.544  30.130  1.00  0.00     0.005 C 
ATOM     19  C   UNL     1      24.023   3.119  29.546  1.00  0.00     0.010 C 
ATOM     20  C   UNL     1      23.712   1.779  27.471  1.00  0.00     0.012 C 
ATOM     21  C   UNL     1      21.616   2.628  28.768  1.00  0.00     0.003 C 
ATOM     22  C   UNL     1      23.967   4.516  28.892  1.00  0.00     0.033 C 
ATOM     23  C   UNL     1      21.509   4.095  28.135  1.00  0.00    -0.006 C 
ATOM     24  C   UNL     1      22.529   5.085  28.798  1.00  0.00     0.120 C 
ATOM     25  C   UNL     1      20.070   4.675  28.293  1.00  0.00     0.014 C 
ATOM     26  C   UNL     1      21.741   4.058  26.595  1.00  0.00     0.014 C 
ENDROOT
BRANCH   1  27
ATOM     27  C   UNL     1      18.536  -1.228  31.979  1.00  0.00     0.048 C 
ATOM     28  O   UNL     1      18.114  -0.902  33.125  1.00  0.00    -0.550 OA
ATOM     29  O   UNL     1      17.919  -0.678  30.861  1.00  0.00    -0.550 OA
ENDBRANCH   1  27
BRANCH   7  30
ATOM     30  C   UNL     1      19.330  -3.569  28.512  1.00  0.00    -0.077 C 
ATOM     31  C   UNL     1      19.310  -4.714  27.528  1.00  0.00     0.039 C 
ATOM     32  C   UNL     1      18.626  -2.452  28.226  1.00  0.00     0.008 C 
ENDBRANCH   7  30
BRANCH  24  33
ATOM     33  O   UNL     1      22.059   5.571  30.040  1.00  0.00    -0.393 OA
ATOM     34  H   UNL     1      21.879   4.822  30.660  1.00  0.00     0.210 HD
ENDBRANCH  24  33
TORSDOF 3
ENDMDL
MODEL 6
REMARK VINA RESULT:    -4.740      2.714      7.397
REMARK INTER + INTRA:          -6.097
REMARK INTER:                  -5.262
REMARK INTRA:                  -0.836
REMARK UNBOUND:                -0.664
REMARK SMILES C=C(C)[C@@H]1CC[C@@]2(C(=O)[O-])CC[C@@]3(C)[C@H](CC[C@H]4[C@]5(C)CC[C@H](O)C(C)(C)[C@@H]5CC[C@]43C)[C@@H]12
REMARK SMILES IDX 7 1 6 2 33 3 11 4 5 5 15 6 4 7 12 8 16 9 13 10 17 11 31 12
REMARK SMILES IDX 14 13 18 14 30 15 32 16 19 17 29 18 21 19 20 20 28 21 22 22
REMARK SMILES IDX 25 23 23 24 26 25 27 26 8 27 9 28 10 29 2 30 3 31 1 32 24 33
REMARK H PARENT 24 34
REMARK Flexibility Score: inf
ROOT
ATOM      1  C   UNL     1      15.517  -9.074  28.755  1.00  0.00     0.014 C 
ATOM      2  C   UNL     1      15.430 -10.333  27.856  1.00  0.00     0.014 C 
ATOM      3  C   UNL     1      16.409  -8.036  27.979  1.00  0.00     0.012 C 
ATOM      4  C   UNL     1      16.178  -9.455  30.104  1.00  0.00     0.014 C 
ATOM      5  C   UNL     1      16.565 -10.251  26.852  1.00  0.00     0.009 C 
ATOM      6  C   UNL     1      17.624  -7.488  28.816  1.00  0.00     0.000 C 
ATOM      7  C   UNL     1      16.904  -8.769  26.693  1.00  0.00     0.018 C 
ATOM      8  C   UNL     1      16.404  -8.214  30.981  1.00  0.00     0.008 C 
ATOM      9  C   UNL     1      18.414  -6.386  28.099  1.00  0.00     0.005 C 
ATOM     10  C   UNL     1      17.340  -7.113  30.327  1.00  0.00    -0.024 C 
ATOM     11  C   UNL     1      17.759  -5.030  28.225  1.00  0.00     0.005 C 
ATOM     12  C   UNL     1      16.768  -5.590  30.542  1.00  0.00    -0.024 C 
ATOM     13  C   UNL     1      18.724  -7.257  31.061  1.00  0.00     0.012 C 
ATOM     14  C   UNL     1      17.623  -4.526  29.706  1.00  0.00     0.002 C 
ATOM     15  C   UNL     1      15.288  -5.412  30.081  1.00  0.00     0.008 C 
ATOM     16  C   UNL     1      16.818  -5.315  32.083  1.00  0.00     0.012 C 
ATOM     17  C   UNL     1      17.119  -2.989  29.722  1.00  0.00    -0.026 C 
ATOM     18  C   UNL     1      14.752  -3.970  30.135  1.00  0.00     0.005 C 
ATOM     19  C   UNL     1      17.379  -2.288  31.094  1.00  0.00     0.010 C 
ATOM     20  C   UNL     1      17.999  -2.207  28.684  1.00  0.00     0.012 C 
ATOM     21  C   UNL     1      15.580  -2.906  29.355  1.00  0.00     0.003 C 
ATOM     22  C   UNL     1      16.808  -0.858  31.201  1.00  0.00     0.033 C 
ATOM     23  C   UNL     1      14.929  -1.449  29.494  1.00  0.00    -0.006 C 
ATOM     24  C   UNL     1      15.298  -0.780  30.864  1.00  0.00     0.120 C 
ATOM     25  C   UNL     1      13.376  -1.508  29.364  1.00  0.00     0.014 C 
ATOM     26  C   UNL     1      15.376  -0.523  28.323  1.00  0.00     0.014 C 
ENDROOT
BRANCH   1  27
ATOM     27  C   UNL     1      14.087  -8.591  29.004  1.00  0.00     0.048 C 
ATOM     28  O   UNL     1      13.372  -9.180  29.863  1.00  0.00    -0.550 OA
ATOM     29  O   UNL     1      13.495  -7.631  28.189  1.00  0.00    -0.550 OA
ENDBRANCH   1  27
BRANCH   7  30
ATOM     30  C   UNL     1      16.331  -8.157  25.412  1.00  0.00    -0.077 C 
ATOM     31  C   UNL     1      16.352  -8.946  24.124  1.00  0.00     0.039 C 
ATOM     32  C   UNL     1      15.795  -6.918  25.407  1.00  0.00     0.008 C 
ENDBRANCH   7  30
BRANCH  24  33
ATOM     33  O   UNL     1      14.485  -1.259  31.918  1.00  0.00    -0.393 OA
ATOM     34  H   UNL     1      13.939  -0.527  32.296  1.00  0.00     0.210 HD
ENDBRANCH  24  33
TORSDOF 3
ENDMDL
MODEL 7
REMARK VINA RESULT:    -4.715      1.719      2.344
REMARK INTER + INTRA:          -6.069
REMARK INTER:                  -5.280
REMARK INTRA:                  -0.789
REMARK UNBOUND:                -0.664
REMARK SMILES C=C(C)[C@@H]1CC[C@@]2(C(=O)[O-])CC[C@@]3(C)[C@H](CC[C@H]4[C@]5(C)CC[C@H](O)C(C)(C)[C@@H]5CC[C@]43C)[C@@H]12
REMARK SMILES IDX 7 1 6 2 33 3 11 4 5 5 15 6 4 7 12 8 16 9 13 10 17 11 31 12
REMARK SMILES IDX 14 13 18 14 30 15 32 16 19 17 29 18 21 19 20 20 28 21 22 22
REMARK SMILES IDX 25 23 23 24 26 25 27 26 8 27 9 28 10 29 2 30 3 31 1 32 24 33
REMARK H PARENT 24 34
REMARK Flexibility Score: inf
ROOT
ATOM      1  C   UNL     1      16.612  -4.666  30.807  1.00  0.00     0.014 C 
ATOM      2  C   UNL     1      17.009  -3.174  30.941  1.00  0.00     0.014 C 
ATOM      3  C   UNL     1      16.978  -5.091  29.337  1.00  0.00     0.012 C 
ATOM      4  C   UNL     1      15.089  -4.814  31.051  1.00  0.00     0.014 C 
ATOM      5  C   UNL     1      17.147  -2.615  29.538  1.00  0.00     0.009 C 
ATOM      6  C   UNL     1      15.783  -5.740  28.545  1.00  0.00     0.000 C 
ATOM      7  C   UNL     1      17.480  -3.796  28.625  1.00  0.00     0.018 C 
ATOM      8  C   UNL     1      14.624  -6.256  30.802  1.00  0.00     0.008 C 
ATOM      9  C   UNL     1      16.179  -6.264  27.160  1.00  0.00     0.005 C 
ATOM     10  C   UNL     1      14.888  -6.783  29.329  1.00  0.00    -0.024 C 
ATOM     11  C   UNL     1      16.833  -7.625  27.221  1.00  0.00     0.005 C 
ATOM     12  C   UNL     1      15.471  -8.317  29.303  1.00  0.00    -0.024 C 
ATOM     13  C   UNL     1      13.485  -6.748  28.620  1.00  0.00     0.012 C 
ATOM     14  C   UNL     1      15.911  -8.745  27.825  1.00  0.00     0.002 C 
ATOM     15  C   UNL     1      16.729  -8.519  30.202  1.00  0.00     0.008 C 
ATOM     16  C   UNL     1      14.332  -9.230  29.872  1.00  0.00     0.012 C 
ATOM     17  C   UNL     1      16.611 -10.192  27.645  1.00  0.00    -0.026 C 
ATOM     18  C   UNL     1      17.392  -9.904  30.104  1.00  0.00     0.005 C 
ATOM     19  C   UNL     1      15.598 -11.371  27.806  1.00  0.00     0.010 C 
ATOM     20  C   UNL     1      17.115 -10.277  26.161  1.00  0.00     0.012 C 
ATOM     21  C   UNL     1      17.805 -10.361  28.673  1.00  0.00     0.003 C 
ATOM     22  C   UNL     1      16.237 -12.775  27.764  1.00  0.00     0.033 C 
ATOM     23  C   UNL     1      18.474 -11.816  28.699  1.00  0.00    -0.006 C 
ATOM     24  C   UNL     1      17.391 -12.948  28.784  1.00  0.00     0.120 C 
ATOM     25  C   UNL     1      19.455 -11.966  29.902  1.00  0.00     0.014 C 
ATOM     26  C   UNL     1      19.369 -12.043  27.444  1.00  0.00     0.014 C 
ENDROOT
BRANCH   1  27
ATOM     27  C   UNL     1      17.380  -5.441  31.879  1.00  0.00     0.048 C 
ATOM     28  O   UNL     1      16.976  -5.413  33.076  1.00  0.00    -0.550 OA
ATOM     29  O   UNL     1      18.607  -6.036  31.605  1.00  0.00    -0.550 OA
ENDBRANCH   1  27
BRANCH   7  30
ATOM     30  C   UNL     1      18.963  -3.867  28.254  1.00  0.00    -0.077 C 
ATOM     31  C   UNL     1      19.583  -5.191  27.875  1.00  0.00     0.039 C 
ATOM     32  C   UNL     1      19.737  -2.761  28.248  1.00  0.00     0.008 C 
ENDBRANCH   7  30
BRANCH  24  33
ATOM     33  O   UNL     1      16.919 -13.125  30.106  1.00  0.00    -0.393 OA
ATOM     34  H   UNL     1      16.879 -12.258  30.579  1.00  0.00     0.210 HD
ENDBRANCH  24  33
TORSDOF 3
ENDMDL
MODEL 8
REMARK VINA RESULT:    -4.560      2.617      7.287
REMARK INTER + INTRA:          -5.890
REMARK INTER:                  -5.035
REMARK INTRA:                  -0.856
REMARK UNBOUND:                -0.664
REMARK SMILES C=C(C)[C@@H]1CC[C@@]2(C(=O)[O-])CC[C@@]3(C)[C@H](CC[C@H]4[C@]5(C)CC[C@H](O)C(C)(C)[C@@H]5CC[C@]43C)[C@@H]12
REMARK SMILES IDX 7 1 6 2 33 3 11 4 5 5 15 6 4 7 12 8 16 9 13 10 17 11 31 12
REMARK SMILES IDX 14 13 18 14 30 15 32 16 19 17 29 18 21 19 20 20 28 21 22 22
REMARK SMILES IDX 25 23 23 24 26 25 27 26 8 27 9 28 10 29 2 30 3 31 1 32 24 33
REMARK H PARENT 24 34
REMARK Flexibility Score: inf
ROOT
ATOM      1  C   UNL     1      16.154  -9.323  29.952  1.00  0.00     0.014 C 
ATOM      2  C   UNL     1      15.045 -10.365  30.245  1.00  0.00     0.014 C 
ATOM      3  C   UNL     1      15.441  -7.922  29.895  1.00  0.00     0.012 C 
ATOM      4  C   UNL     1      16.817  -9.651  28.591  1.00  0.00     0.014 C 
ATOM      5  C   UNL     1      13.716  -9.717  29.908  1.00  0.00     0.009 C 
ATOM      6  C   UNL     1      15.730  -7.114  28.576  1.00  0.00     0.000 C 
ATOM      7  C   UNL     1      13.915  -8.208  30.050  1.00  0.00     0.018 C 
ATOM      8  C   UNL     1      17.835  -8.572  28.195  1.00  0.00     0.008 C 
ATOM      9  C   UNL     1      15.135  -5.701  28.581  1.00  0.00     0.005 C 
ATOM     10  C   UNL     1      17.222  -7.116  28.048  1.00  0.00    -0.024 C 
ATOM     11  C   UNL     1      15.995  -4.713  29.335  1.00  0.00     0.005 C 
ATOM     12  C   UNL     1      18.171  -5.960  28.722  1.00  0.00    -0.024 C 
ATOM     13  C   UNL     1      17.118  -6.865  26.499  1.00  0.00     0.012 C 
ATOM     14  C   UNL     1      17.436  -4.539  28.733  1.00  0.00     0.002 C 
ATOM     15  C   UNL     1      18.555  -6.258  30.205  1.00  0.00     0.008 C 
ATOM     16  C   UNL     1      19.497  -5.937  27.888  1.00  0.00     0.012 C 
ATOM     17  C   UNL     1      18.195  -3.313  29.466  1.00  0.00    -0.026 C 
ATOM     18  C   UNL     1      19.329  -5.138  30.921  1.00  0.00     0.005 C 
ATOM     19  C   UNL     1      19.423  -2.796  28.650  1.00  0.00     0.010 C 
ATOM     20  C   UNL     1      17.188  -2.109  29.507  1.00  0.00     0.012 C 
ATOM     21  C   UNL     1      18.652  -3.735  30.923  1.00  0.00     0.003 C 
ATOM     22  C   UNL     1      20.253  -1.708  29.363  1.00  0.00     0.033 C 
ATOM     23  C   UNL     1      19.554  -2.656  31.688  1.00  0.00    -0.006 C 
ATOM     24  C   UNL     1      20.719  -2.129  30.779  1.00  0.00     0.120 C 
ATOM     25  C   UNL     1      20.165  -3.252  32.994  1.00  0.00     0.014 C 
ATOM     26  C   UNL     1      18.693  -1.455  32.181  1.00  0.00     0.014 C 
ENDROOT
BRANCH   1  27
ATOM     27  C   UNL     1      17.194  -9.438  31.069  1.00  0.00     0.048 C 
ATOM     28  O   UNL     1      18.044 -10.372  31.033  1.00  0.00    -0.550 OA
ATOM     29  O   UNL     1      17.123  -8.646  32.210  1.00  0.00    -0.550 OA
ENDBRANCH   1  27
BRANCH   7  30
ATOM     30  C   UNL     1      13.342  -7.647  31.354  1.00  0.00    -0.077 C 
ATOM     31  C   UNL     1      14.141  -6.653  32.163  1.00  0.00     0.039 C 
ATOM     32  C   UNL     1      12.122  -8.018  31.799  1.00  0.00     0.008 C 
ENDBRANCH   7  30
BRANCH  24  33
ATOM     33  O   UNL     1      21.807  -3.033  30.742  1.00  0.00    -0.393 OA
ATOM     34  H   UNL     1      22.444  -2.840  31.473  1.00  0.00     0.210 HD
ENDBRANCH  24  33
TORSDOF 3
ENDMDL
