MODEL 1
REMARK VINA RESULT:    -4.302      0.000      0.000
REMARK INTER + INTRA:          -5.087
REMARK INTER:                  -5.056
REMARK INTRA:                  -0.031
REMARK UNBOUND:                -0.031
REMARK SMILES CCCCC(=O)[O-]
REMARK SMILES IDX 4 1 5 2 6 3 7 4 3 5 2 6 1 7
REMARK H PARENT
REMARK Flexibility Score: inf
ROOT
ATOM      1  C   UNL     1      93.628 121.199 118.721  1.00  0.00     0.053 C 
ENDROOT
BRANCH   1   2
ATOM      2  C   UNL     1      93.971 121.320 120.171  1.00  0.00     0.041 C 
ATOM      3  O   UNL     1      95.169 121.231 120.549  1.00  0.00    -0.550 OA
ATOM      4  O   UNL     1      92.973 121.581 121.102  1.00  0.00    -0.550 OA
ENDBRANCH   1   2
BRANCH   1   5
ATOM      5  C   UNL     1      92.402 122.059 118.387  1.00  0.00     0.006 C 
BRANCH   5   6
ATOM      6  C   UNL     1      92.059 122.040 116.888  1.00  0.00    -0.003 C 
ATOM      7  C   UNL     1      92.740 120.894 116.140  1.00  0.00     0.004 C 
ENDBRANCH   5   6
ENDBRANCH   1   5
TORSDOF 3
ENDMDL
MODEL 2
REMARK VINA RESULT:    -4.161      2.157      4.093
REMARK INTER + INTRA:          -4.922
REMARK INTER:                  -4.883
REMARK INTRA:                  -0.039
REMARK UNBOUND:                -0.031
REMARK SMILES CCCCC(=O)[O-]
REMARK SMILES IDX 4 1 5 2 6 3 7 4 3 5 2 6 1 7
REMARK H PARENT
REMARK Flexibility Score: inf
ROOT
ATOM      1  C   UNL     1      94.603 121.148 119.969  1.00  0.00     0.053 C 
ENDROOT
BRANCH   1   2
ATOM      2  C   UNL     1      93.688 121.343 118.803  1.00  0.00     0.041 C 
ATOM      3  O   UNL     1      93.993 120.875 117.673  1.00  0.00    -0.550 OA
ATOM      4  O   UNL     1      92.474 121.998 118.972  1.00  0.00    -0.550 OA
ENDBRANCH   1   2
BRANCH   1   5
ATOM      5  C   UNL     1      93.844 121.360 121.286  1.00  0.00     0.006 C 
BRANCH   5   6
ATOM      6  C   UNL     1      94.784 121.608 122.476  1.00  0.00    -0.003 C 
ATOM      7  C   UNL     1      96.103 122.260 122.061  1.00  0.00     0.004 C 
ENDBRANCH   5   6
ENDBRANCH   1   5
TORSDOF 3
ENDMDL
MODEL 3
REMARK VINA RESULT:    -4.153      3.078      5.237
REMARK INTER + INTRA:          -4.913
REMARK INTER:                  -4.856
REMARK INTRA:                  -0.057
REMARK UNBOUND:                -0.031
REMARK SMILES CCCCC(=O)[O-]
REMARK SMILES IDX 4 1 5 2 6 3 7 4 3 5 2 6 1 7
REMARK H PARENT
REMARK Flexibility Score: inf
ROOT
ATOM      1  C   UNL     1      94.619 121.461 122.472  1.00  0.00     0.053 C 
ENDROOT
BRANCH   1   2
ATOM      2  C   UNL     1      94.035 121.367 121.099  1.00  0.00     0.041 C 
ATOM      3  O   UNL     1      92.832 121.684 120.899  1.00  0.00    -0.550 OA
ATOM      4  O   UNL     1      94.831 120.977 120.029  1.00  0.00    -0.550 OA
ENDBRANCH   1   2
BRANCH   1   5
ATOM      5  C   UNL     1      95.921 122.274 122.445  1.00  0.00     0.006 C 
BRANCH   5   6
ATOM      6  C   UNL     1      95.941 123.392 123.500  1.00  0.00    -0.003 C 
ATOM      7  C   UNL     1      94.601 123.550 124.218  1.00  0.00     0.004 C 
ENDBRANCH   5   6
ENDBRANCH   1   5
TORSDOF 3
ENDMDL
MODEL 4
REMARK VINA RESULT:    -4.149      1.461      2.409
REMARK INTER + INTRA:          -4.908
REMARK INTER:                  -4.870
REMARK INTRA:                  -0.038
REMARK UNBOUND:                -0.031
REMARK SMILES CCCCC(=O)[O-]
REMARK SMILES IDX 4 1 5 2 6 3 7 4 3 5 2 6 1 7
REMARK H PARENT
REMARK Flexibility Score: inf
ROOT
ATOM      1  C   UNL     1      93.889 121.236 120.545  1.00  0.00     0.053 C 
ENDROOT
BRANCH   1   2
ATOM      2  C   UNL     1      94.761 121.654 121.685  1.00  0.00     0.041 C 
ATOM      3  O   UNL     1      94.329 121.598 122.867  1.00  0.00    -0.550 OA
ATOM      4  O   UNL     1      96.069 122.061 121.449  1.00  0.00    -0.550 OA
ENDBRANCH   1   2
BRANCH   1   5
ATOM      5  C   UNL     1      94.737 120.965 119.294  1.00  0.00     0.006 C 
BRANCH   5   6
ATOM      6  C   UNL     1      93.901 120.960 118.004  1.00  0.00    -0.003 C 
ATOM      7  C   UNL     1      92.810 122.031 118.003  1.00  0.00     0.004 C 
ENDBRANCH   5   6
ENDBRANCH   1   5
TORSDOF 3
ENDMDL
MODEL 5
REMARK VINA RESULT:    -4.146      3.041      5.017
REMARK INTER + INTRA:          -4.904
REMARK INTER:                  -4.832
REMARK INTRA:                  -0.072
REMARK UNBOUND:                -0.031
REMARK SMILES CCCCC(=O)[O-]
REMARK SMILES IDX 4 1 5 2 6 3 7 4 3 5 2 6 1 7
REMARK H PARENT
REMARK Flexibility Score: inf
ROOT
ATOM      1  C   UNL     1      94.411 121.394 122.493  1.00  0.00     0.053 C 
ENDROOT
BRANCH   1   2
ATOM      2  C   UNL     1      94.046 121.403 121.043  1.00  0.00     0.041 C 
ATOM      3  O   UNL     1      94.891 121.055 120.175  1.00  0.00    -0.550 OA
ATOM      4  O   UNL     1      92.759 121.748 120.651  1.00  0.00    -0.550 OA
ENDBRANCH   1   2
BRANCH   1   5
ATOM      5  C   UNL     1      95.297 122.601 122.829  1.00  0.00     0.006 C 
BRANCH   5   6
ATOM      6  C   UNL     1      94.740 123.436 123.994  1.00  0.00    -0.003 C 
ATOM      7  C   UNL     1      93.281 123.109 124.310  1.00  0.00     0.004 C 
ENDBRANCH   5   6
ENDBRANCH   1   5
TORSDOF 3
ENDMDL
MODEL 6
REMARK VINA RESULT:    -4.051      2.617      3.972
REMARK INTER + INTRA:          -4.793
REMARK INTER:                  -4.758
REMARK INTRA:                  -0.035
REMARK UNBOUND:                -0.031
REMARK SMILES CCCCC(=O)[O-]
REMARK SMILES IDX 4 1 5 2 6 3 7 4 3 5 2 6 1 7
REMARK H PARENT
REMARK Flexibility Score: inf
ROOT
ATOM      1  C   UNL     1      92.801 121.653 118.631  1.00  0.00     0.053 C 
ENDROOT
BRANCH   1   2
ATOM      2  C   UNL     1      92.591 122.248 117.275  1.00  0.00     0.041 C 
ATOM      3  O   UNL     1      92.644 123.497 117.117  1.00  0.00    -0.550 OA
ATOM      4  O   UNL     1      92.385 121.423 116.177  1.00  0.00    -0.550 OA
ENDBRANCH   1   2
BRANCH   1   5
ATOM      5  C   UNL     1      94.246 121.160 118.781  1.00  0.00     0.006 C 
BRANCH   5   6
ATOM      6  C   UNL     1      94.738 121.206 120.237  1.00  0.00    -0.003 C 
ATOM      7  C   UNL     1      93.613 121.498 121.230  1.00  0.00     0.004 C 
ENDBRANCH   5   6
ENDBRANCH   1   5
TORSDOF 3
ENDMDL
MODEL 7
REMARK VINA RESULT:    -4.050      1.526      2.243
REMARK INTER + INTRA:          -4.791
REMARK INTER:                  -4.748
REMARK INTRA:                  -0.043
REMARK UNBOUND:                -0.031
REMARK SMILES CCCCC(=O)[O-]
REMARK SMILES IDX 4 1 5 2 6 3 7 4 3 5 2 6 1 7
REMARK H PARENT
REMARK Flexibility Score: inf
ROOT
ATOM      1  C   UNL     1      93.278 121.609 120.811  1.00  0.00     0.053 C 
ENDROOT
BRANCH   1   2
ATOM      2  C   UNL     1      93.945 121.841 122.129  1.00  0.00     0.041 C 
ATOM      3  O   UNL     1      95.182 121.642 122.256  1.00  0.00    -0.550 OA
ATOM      4  O   UNL     1      93.211 122.324 123.205  1.00  0.00    -0.550 OA
ENDBRANCH   1   2
BRANCH   1   5
ATOM      5  C   UNL     1      94.262 120.980 119.816  1.00  0.00     0.006 C 
BRANCH   5   6
ATOM      6  C   UNL     1      93.878 121.253 118.353  1.00  0.00    -0.003 C 
ATOM      7  C   UNL     1      92.552 122.003 118.220  1.00  0.00     0.004 C 
ENDBRANCH   5   6
ENDBRANCH   1   5
TORSDOF 3
ENDMDL
MODEL 8
REMARK VINA RESULT:    -3.984      3.889      5.588
REMARK INTER + INTRA:          -4.714
REMARK INTER:                  -4.623
REMARK INTRA:                  -0.092
REMARK UNBOUND:                -0.031
REMARK SMILES CCCCC(=O)[O-]
REMARK SMILES IDX 4 1 5 2 6 3 7 4 3 5 2 6 1 7
REMARK H PARENT
REMARK Flexibility Score: inf
ROOT
ATOM      1  C   UNL     1      94.822 121.450 122.473  1.00  0.00     0.053 C 
ENDROOT
BRANCH   1   2
ATOM      2  C   UNL     1      93.525 122.109 122.128  1.00  0.00     0.041 C 
ATOM      3  O   UNL     1      93.083 123.049 122.839  1.00  0.00    -0.550 OA
ATOM      4  O   UNL     1      92.828 121.718 120.991  1.00  0.00    -0.550 OA
ENDBRANCH   1   2
BRANCH   1   5
ATOM      5  C   UNL     1      95.967 122.471 122.440  1.00  0.00     0.006 C 
BRANCH   5   6
ATOM      6  C   UNL     1      96.441 122.872 123.847  1.00  0.00    -0.003 C 
ATOM      7  C   UNL     1      96.031 124.295 124.225  1.00  0.00     0.004 C 
ENDBRANCH   5   6
ENDBRANCH   1   5
TORSDOF 3
ENDMDL
MODEL 9
REMARK VINA RESULT:    -3.379      2.709      3.523
REMARK INTER + INTRA:          -4.003
REMARK INTER:                  -3.970
REMARK INTRA:                  -0.033
REMARK UNBOUND:                -0.031
REMARK SMILES CCCCC(=O)[O-]
REMARK SMILES IDX 4 1 5 2 6 3 7 4 3 5 2 6 1 7
REMARK H PARENT
REMARK Flexibility Score: inf
ROOT
ATOM      1  C   UNL     1      93.522 122.149 122.315  1.00  0.00     0.053 C 
ENDROOT
BRANCH   1   2
ATOM      2  C   UNL     1      94.466 122.841 123.245  1.00  0.00     0.041 C 
ATOM      3  O   UNL     1      95.700 122.867 122.993  1.00  0.00    -0.550 OA
ATOM      4  O   UNL     1      93.979 123.500 124.367  1.00  0.00    -0.550 OA
ENDBRANCH   1   2
BRANCH   1   5
ATOM      5  C   UNL     1      94.294 121.249 121.341  1.00  0.00     0.006 C 
BRANCH   5   6
ATOM      6  C   UNL     1      93.710 121.278 119.920  1.00  0.00    -0.003 C 
ATOM      7  C   UNL     1      94.728 120.875 118.854  1.00  0.00     0.004 C 
ENDBRANCH   5   6
ENDBRANCH   1   5
TORSDOF 3
ENDMDL
