MODEL 1
REMARK VINA RESULT:    -3.026      0.000      0.000
REMARK INTER + INTRA:          -3.717
REMARK INTER:                  -3.557
REMARK INTRA:                  -0.160
REMARK UNBOUND:                -0.160
REMARK SMILES O=C([O-])CCC(=O)[O-]
REMARK SMILES IDX 4 1 2 2 1 3 3 4 5 5 6 6 7 7 8 8
REMARK H PARENT
REMARK Flexibility Score: inf
ROOT
ATOM      1  C   UNL     1      37.973  22.670  29.384  1.00  0.00     0.059 C 
ENDROOT
BRANCH   1   2
ATOM      2  C   UNL     1      38.836  22.437  28.184  1.00  0.00     0.042 C 
ATOM      3  O   UNL     1      38.674  23.127  27.143  1.00  0.00    -0.550 OA
ATOM      4  O   UNL     1      39.853  21.491  28.232  1.00  0.00    -0.550 OA
ENDBRANCH   1   2
BRANCH   1   5
ATOM      5  C   UNL     1      38.074  24.126  29.841  1.00  0.00     0.059 C 
BRANCH   5   6
ATOM      6  C   UNL     1      39.488  24.468  30.190  1.00  0.00     0.042 C 
ATOM      7  O   UNL     1      40.037  23.946  31.196  1.00  0.00    -0.550 OA
ATOM      8  O   UNL     1      40.185  25.401  29.432  1.00  0.00    -0.550 OA
ENDBRANCH   5   6
ENDBRANCH   1   5
TORSDOF 3
ENDMDL
MODEL 2
REMARK VINA RESULT:    -3.017      0.123      3.417
REMARK INTER + INTRA:          -3.707
REMARK INTER:                  -3.544
REMARK INTRA:                  -0.163
REMARK UNBOUND:                -0.160
REMARK SMILES O=C([O-])CCC(=O)[O-]
REMARK SMILES IDX 4 1 2 2 1 3 3 4 5 5 6 6 7 7 8 8
REMARK H PARENT
REMARK Flexibility Score: inf
ROOT
ATOM      1  C   UNL     1      38.076  24.115  29.914  1.00  0.00     0.059 C 
ENDROOT
BRANCH   1   2
ATOM      2  C   UNL     1      39.491  24.487  30.225  1.00  0.00     0.042 C 
ATOM      3  O   UNL     1      40.085  23.960  31.203  1.00  0.00    -0.550 OA
ATOM      4  O   UNL     1      40.171  25.380  29.407  1.00  0.00    -0.550 OA
ENDBRANCH   1   2
BRANCH   1   5
ATOM      5  C   UNL     1      37.985  22.640  29.520  1.00  0.00     0.059 C 
BRANCH   5   6
ATOM      6  C   UNL     1      38.837  22.366  28.320  1.00  0.00     0.042 C 
ATOM      7  O   UNL     1      38.620  22.971  27.237  1.00  0.00    -0.550 OA
ATOM      8  O   UNL     1      39.840  21.407  28.384  1.00  0.00    -0.550 OA
ENDBRANCH   5   6
ENDBRANCH   1   5
TORSDOF 3
ENDMDL
MODEL 3
REMARK VINA RESULT:    -2.976      1.078      2.986
REMARK INTER + INTRA:          -3.658
REMARK INTER:                  -3.486
REMARK INTRA:                  -0.172
REMARK UNBOUND:                -0.160
REMARK SMILES O=C([O-])CCC(=O)[O-]
REMARK SMILES IDX 4 1 2 2 1 3 3 4 5 5 6 6 7 7 8 8
REMARK H PARENT
REMARK Flexibility Score: inf
ROOT
ATOM      1  C   UNL     1      39.103  23.981  30.636  1.00  0.00     0.059 C 
ENDROOT
BRANCH   1   2
ATOM      2  C   UNL     1      40.326  24.455  29.917  1.00  0.00     0.042 C 
ATOM      3  O   UNL     1      40.334  25.582  29.354  1.00  0.00    -0.550 OA
ATOM      4  O   UNL     1      41.475  23.674  29.910  1.00  0.00    -0.550 OA
ENDBRANCH   1   2
BRANCH   1   5
ATOM      5  C   UNL     1      37.944  23.797  29.655  1.00  0.00     0.059 C 
BRANCH   5   6
ATOM      6  C   UNL     1      38.236  22.681  28.703  1.00  0.00     0.042 C 
ATOM      7  O   UNL     1      38.270  21.491  29.113  1.00  0.00    -0.550 OA
ATOM      8  O   UNL     1      38.519  22.959  27.371  1.00  0.00    -0.550 OA
ENDBRANCH   5   6
ENDBRANCH   1   5
TORSDOF 3
ENDMDL
MODEL 4
REMARK VINA RESULT:    -2.960      1.091      1.846
REMARK INTER + INTRA:          -3.639
REMARK INTER:                  -3.468
REMARK INTRA:                  -0.171
REMARK UNBOUND:                -0.160
REMARK SMILES O=C([O-])CCC(=O)[O-]
REMARK SMILES IDX 4 1 2 2 1 3 3 4 5 5 6 6 7 7 8 8
REMARK H PARENT
REMARK Flexibility Score: inf
ROOT
ATOM      1  C   UNL     1      37.910  23.782  29.743  1.00  0.00     0.059 C 
ENDROOT
BRANCH   1   2
ATOM      2  C   UNL     1      38.209  22.672  28.785  1.00  0.00     0.042 C 
ATOM      3  O   UNL     1      38.172  21.474  29.172  1.00  0.00    -0.550 OA
ATOM      4  O   UNL     1      38.480  22.957  27.453  1.00  0.00    -0.550 OA
ENDBRANCH   1   2
BRANCH   1   5
ATOM      5  C   UNL     1      39.073  23.976  30.717  1.00  0.00     0.059 C 
BRANCH   5   6
ATOM      6  C   UNL     1      40.293  24.444  29.988  1.00  0.00     0.042 C 
ATOM      7  O   UNL     1      40.274  25.531  29.352  1.00  0.00    -0.550 OA
ATOM      8  O   UNL     1      41.437  23.655  29.970  1.00  0.00    -0.550 OA
ENDBRANCH   5   6
ENDBRANCH   1   5
TORSDOF 3
ENDMDL
MODEL 5
REMARK VINA RESULT:    -2.908     14.981     16.009
REMARK INTER + INTRA:          -3.577
REMARK INTER:                  -3.456
REMARK INTRA:                  -0.122
REMARK UNBOUND:                -0.160
REMARK SMILES O=C([O-])CCC(=O)[O-]
REMARK SMILES IDX 4 1 2 2 1 3 3 4 5 5 6 6 7 7 8 8
REMARK H PARENT
REMARK Flexibility Score: inf
ROOT
ATOM      1  C   UNL     1      28.379  33.208  23.219  1.00  0.00     0.059 C 
ENDROOT
BRANCH   1   2
ATOM      2  C   UNL     1      29.658  32.433  23.200  1.00  0.00     0.042 C 
ATOM      3  O   UNL     1      30.758  33.028  23.044  1.00  0.00    -0.550 OA
ATOM      4  O   UNL     1      29.642  31.059  23.404  1.00  0.00    -0.550 OA
ENDBRANCH   1   2
BRANCH   1   5
ATOM      5  C   UNL     1      28.334  34.194  22.050  1.00  0.00     0.059 C 
BRANCH   5   6
ATOM      6  C   UNL     1      28.049  33.474  20.770  1.00  0.00     0.042 C 
ATOM      7  O   UNL     1      26.869  33.146  20.475  1.00  0.00    -0.550 OA
ATOM      8  O   UNL     1      29.093  33.122  19.924  1.00  0.00    -0.550 OA
ENDBRANCH   5   6
ENDBRANCH   1   5
TORSDOF 3
ENDMDL
MODEL 6
REMARK VINA RESULT:    -2.852      1.564      3.333
REMARK INTER + INTRA:          -3.512
REMARK INTER:                  -3.434
REMARK INTRA:                  -0.079
REMARK UNBOUND:                -0.160
REMARK SMILES O=C([O-])CCC(=O)[O-]
REMARK SMILES IDX 4 1 2 2 1 3 3 4 5 5 6 6 7 7 8 8
REMARK H PARENT
REMARK Flexibility Score: inf
ROOT
ATOM      1  C   UNL     1      37.593  23.371  29.994  1.00  0.00     0.059 C 
ENDROOT
BRANCH   1   2
ATOM      2  C   UNL     1      38.223  22.998  31.298  1.00  0.00     0.042 C 
ATOM      3  O   UNL     1      39.433  23.269  31.518  1.00  0.00    -0.550 OA
ATOM      4  O   UNL     1      37.461  22.394  32.291  1.00  0.00    -0.550 OA
ENDBRANCH   1   2
BRANCH   1   5
ATOM      5  C   UNL     1      38.022  22.399  28.894  1.00  0.00     0.059 C 
BRANCH   5   6
ATOM      6  C   UNL     1      38.897  23.090  27.897  1.00  0.00     0.042 C 
ATOM      7  O   UNL     1      39.942  22.529  27.474  1.00  0.00    -0.550 OA
ATOM      8  O   UNL     1      38.585  24.375  27.471  1.00  0.00    -0.550 OA
ENDBRANCH   5   6
ENDBRANCH   1   5
TORSDOF 3
ENDMDL
MODEL 7
REMARK VINA RESULT:    -2.842      1.840      2.694
REMARK INTER + INTRA:          -3.500
REMARK INTER:                  -3.382
REMARK INTRA:                  -0.118
REMARK UNBOUND:                -0.160
REMARK SMILES O=C([O-])CCC(=O)[O-]
REMARK SMILES IDX 4 1 2 2 1 3 3 4 5 5 6 6 7 7 8 8
REMARK H PARENT
REMARK Flexibility Score: inf
ROOT
ATOM      1  C   UNL     1      38.764  24.211  29.558  1.00  0.00     0.059 C 
ENDROOT
BRANCH   1   2
ATOM      2  C   UNL     1      38.662  23.812  28.120  1.00  0.00     0.042 C 
ATOM      3  O   UNL     1      38.538  22.599  27.806  1.00  0.00    -0.550 OA
ATOM      4  O   UNL     1      38.655  24.784  27.128  1.00  0.00    -0.550 OA
ENDBRANCH   1   2
BRANCH   1   5
ATOM      5  C   UNL     1      37.564  23.683  30.346  1.00  0.00     0.059 C 
BRANCH   5   6
ATOM      6  C   UNL     1      38.004  22.663  31.348  1.00  0.00     0.042 C 
ATOM      7  O   UNL     1      38.858  21.792  31.033  1.00  0.00    -0.550 OA
ATOM      8  O   UNL     1      37.435  22.643  32.615  1.00  0.00    -0.550 OA
ENDBRANCH   5   6
ENDBRANCH   1   5
TORSDOF 3
ENDMDL
MODEL 8
REMARK VINA RESULT:    -2.834     14.927     15.971
REMARK INTER + INTRA:          -3.491
REMARK INTER:                  -3.413
REMARK INTRA:                  -0.078
REMARK UNBOUND:                -0.160
REMARK SMILES O=C([O-])CCC(=O)[O-]
REMARK SMILES IDX 4 1 2 2 1 3 3 4 5 5 6 6 7 7 8 8
REMARK H PARENT
REMARK Flexibility Score: inf
ROOT
ATOM      1  C   UNL     1      29.404  32.523  22.836  1.00  0.00     0.059 C 
ENDROOT
BRANCH   1   2
ATOM      2  C   UNL     1      30.622  33.338  23.137  1.00  0.00     0.042 C 
ATOM      3  O   UNL     1      30.506  34.513  23.576  1.00  0.00    -0.550 OA
ATOM      4  O   UNL     1      31.886  32.784  22.980  1.00  0.00    -0.550 OA
ENDBRANCH   1   2
BRANCH   1   5
ATOM      5  C   UNL     1      28.257  33.425  22.381  1.00  0.00     0.059 C 
BRANCH   5   6
ATOM      6  C   UNL     1      27.960  33.202  20.931  1.00  0.00     0.042 C 
ATOM      7  O   UNL     1      28.901  33.102  20.100  1.00  0.00    -0.550 OA
ATOM      8  O   UNL     1      26.644  33.154  20.490  1.00  0.00    -0.550 OA
ENDBRANCH   5   6
ENDBRANCH   1   5
TORSDOF 3
ENDMDL
MODEL 9
REMARK VINA RESULT:    -2.796     14.717     15.550
REMARK INTER + INTRA:          -3.446
REMARK INTER:                  -3.295
REMARK INTRA:                  -0.152
REMARK UNBOUND:                -0.160
REMARK SMILES O=C([O-])CCC(=O)[O-]
REMARK SMILES IDX 4 1 2 2 1 3 3 4 5 5 6 6 7 7 8 8
REMARK H PARENT
REMARK Flexibility Score: inf
ROOT
ATOM      1  C   UNL     1      28.493  33.150  23.034  1.00  0.00     0.059 C 
ENDROOT
BRANCH   1   2
ATOM      2  C   UNL     1      28.272  33.665  21.647  1.00  0.00     0.042 C 
ATOM      3  O   UNL     1      27.856  34.840  21.466  1.00  0.00    -0.550 OA
ATOM      4  O   UNL     1      28.571  32.864  20.552  1.00  0.00    -0.550 OA
ENDBRANCH   1   2
BRANCH   1   5
ATOM      5  C   UNL     1      29.829  32.412  23.124  1.00  0.00     0.059 C 
BRANCH   5   6
ATOM      6  C   UNL     1      30.967  33.382  23.076  1.00  0.00     0.042 C 
ATOM      7  O   UNL     1      32.012  33.102  22.432  1.00  0.00    -0.550 OA
ATOM      8  O   UNL     1      30.893  34.575  23.785  1.00  0.00    -0.550 OA
ENDBRANCH   5   6
ENDBRANCH   1   5
TORSDOF 3
ENDMDL
