MODEL 1
REMARK VINA RESULT:    -2.791      0.000      0.000
REMARK INTER + INTRA:          -6.990
REMARK INTER:                  -5.566
REMARK INTRA:                  -1.425
REMARK UNBOUND:                -1.425
REMARK SMILES CCCCCCCCCCCCCCCCCC(=O)OC
REMARK SMILES IDX 10 1 9 2 8 3 7 4 6 5 5 6 4 7 3 8 2 9 1 10 11 11 12 12 13 13
REMARK SMILES IDX 14 14 15 15 16 16 17 17 18 18 19 19 20 20 21 21
REMARK H PARENT
REMARK Flexibility Score: inf
ROOT
ATOM      1  C   UNL     1      37.939  65.568  98.227  1.00  0.00     0.000 C 
ENDROOT
BRANCH   1   2
ATOM      2  C   UNL     1      38.807  65.806  99.476  1.00  0.00     0.000 C 
BRANCH   2   3
ATOM      3  C   UNL     1      39.686  64.611  99.900  1.00  0.00    -0.000 C 
BRANCH   3   4
ATOM      4  C   UNL     1      38.932  63.448 100.569  1.00  0.00    -0.000 C 
BRANCH   4   5
ATOM      5  C   UNL     1      37.626  63.894 101.245  1.00  0.00    -0.000 C 
BRANCH   5   6
ATOM      6  C   UNL     1      37.252  62.946 102.392  1.00  0.00    -0.000 C 
BRANCH   6   7
ATOM      7  C   UNL     1      37.893  63.398 103.711  1.00  0.00    -0.000 C 
BRANCH   7   8
ATOM      8  C   UNL     1      36.947  63.241 104.912  1.00  0.00    -0.000 C 
BRANCH   8   9
ATOM      9  C   UNL     1      35.941  64.394 105.027  1.00  0.00    -0.003 C 
ATOM     10  C   UNL     1      34.506  63.887 104.913  1.00  0.00     0.004 C 
ENDBRANCH   8   9
ENDBRANCH   7   8
ENDBRANCH   6   7
ENDBRANCH   5   6
ENDBRANCH   4   5
ENDBRANCH   3   4
ENDBRANCH   2   3
ENDBRANCH   1   2
BRANCH   1  11
ATOM     11  C   UNL     1      38.269  64.284  97.443  1.00  0.00     0.000 C 
BRANCH  11  12
ATOM     12  C   UNL     1      37.249  63.145  97.657  1.00  0.00     0.000 C 
BRANCH  12  13
ATOM     13  C   UNL     1      35.863  63.667  98.066  1.00  0.00     0.000 C 
BRANCH  13  14
ATOM     14  C   UNL     1      34.764  63.281  97.062  1.00  0.00     0.000 C 
BRANCH  14  15
ATOM     15  C   UNL     1      35.328  62.875  95.692  1.00  0.00     0.001 C 
BRANCH  15  16
ATOM     16  C   UNL     1      34.958  63.906  94.618  1.00  0.00     0.012 C 
BRANCH  16  17
ATOM     17  C   UNL     1      36.201  64.638  94.108  1.00  0.00     0.123 C 
BRANCH  17  18
ATOM     18  C   UNL     1      36.741  63.970  92.883  1.00  0.00     0.305 C 
ATOM     19  O   UNL     1      36.336  64.325  91.743  1.00  0.00    -0.252 OA
BRANCH  18  20
ATOM     20  O   UNL     1      37.677  62.939  93.019  1.00  0.00    -0.469 OA
ATOM     21  C   UNL     1      38.838  63.064  93.830  1.00  0.00     0.282 C 
ENDBRANCH  18  20
ENDBRANCH  17  18
ENDBRANCH  16  17
ENDBRANCH  15  16
ENDBRANCH  14  15
ENDBRANCH  13  14
ENDBRANCH  12  13
ENDBRANCH  11  12
ENDBRANCH   1  11
TORSDOF 17
ENDMDL
MODEL 2
REMARK VINA RESULT:    -2.559      1.625      2.926
REMARK INTER + INTRA:          -6.528
REMARK INTER:                  -5.462
REMARK INTRA:                  -1.065
REMARK UNBOUND:                -1.425
REMARK SMILES CCCCCCCCCCCCCCCCCC(=O)OC
REMARK SMILES IDX 10 1 9 2 8 3 7 4 6 5 5 6 4 7 3 8 2 9 1 10 11 11 12 12 13 13
REMARK SMILES IDX 14 14 15 15 16 16 17 17 18 18 19 19 20 20 21 21
REMARK H PARENT
REMARK Flexibility Score: inf
ROOT
ATOM      1  C   UNL     1      38.103  65.048  98.838  1.00  0.00     0.000 C 
ENDROOT
BRANCH   1   2
ATOM      2  C   UNL     1      38.926  65.057 100.140  1.00  0.00     0.000 C 
BRANCH   2   3
ATOM      3  C   UNL     1      39.549  63.700 100.530  1.00  0.00    -0.000 C 
BRANCH   3   4
ATOM      4  C   UNL     1      38.741  62.879 101.551  1.00  0.00    -0.000 C 
BRANCH   4   5
ATOM      5  C   UNL     1      38.999  63.313 103.003  1.00  0.00    -0.000 C 
BRANCH   5   6
ATOM      6  C   UNL     1      37.830  62.907 103.910  1.00  0.00    -0.000 C 
BRANCH   6   7
ATOM      7  C   UNL     1      36.499  63.444 103.368  1.00  0.00    -0.000 C 
BRANCH   7   8
ATOM      8  C   UNL     1      35.364  63.365 104.401  1.00  0.00    -0.000 C 
BRANCH   8   9
ATOM      9  C   UNL     1      35.289  64.611 105.294  1.00  0.00    -0.003 C 
ATOM     10  C   UNL     1      35.849  64.326 106.685  1.00  0.00     0.004 C 
ENDBRANCH   8   9
ENDBRANCH   7   8
ENDBRANCH   6   7
ENDBRANCH   5   6
ENDBRANCH   4   5
ENDBRANCH   3   4
ENDBRANCH   2   3
ENDBRANCH   1   2
BRANCH   1  11
ATOM     11  C   UNL     1      38.512  63.969  97.819  1.00  0.00     0.000 C 
BRANCH  11  12
ATOM     12  C   UNL     1      39.824  64.289  97.069  1.00  0.00     0.000 C 
BRANCH  12  13
ATOM     13  C   UNL     1      40.034  63.386  95.843  1.00  0.00     0.000 C 
BRANCH  13  14
ATOM     14  C   UNL     1      40.125  64.182  94.530  1.00  0.00     0.000 C 
BRANCH  14  15
ATOM     15  C   UNL     1      38.916  63.948  93.611  1.00  0.00     0.001 C 
BRANCH  15  16
ATOM     16  C   UNL     1      37.860  63.076  94.303  1.00  0.00     0.012 C 
BRANCH  16  17
ATOM     17  C   UNL     1      36.449  63.461  93.853  1.00  0.00     0.123 C 
BRANCH  17  18
ATOM     18  C   UNL     1      35.448  63.127  94.914  1.00  0.00     0.305 C 
ATOM     19  O   UNL     1      34.220  63.086  94.629  1.00  0.00    -0.252 OA
BRANCH  18  20
ATOM     20  O   UNL     1      35.886  62.885  96.219  1.00  0.00    -0.469 OA
ATOM     21  C   UNL     1      35.047  63.066  97.353  1.00  0.00     0.282 C 
ENDBRANCH  18  20
ENDBRANCH  17  18
ENDBRANCH  16  17
ENDBRANCH  15  16
ENDBRANCH  14  15
ENDBRANCH  13  14
ENDBRANCH  12  13
ENDBRANCH  11  12
ENDBRANCH   1  11
TORSDOF 17
ENDMDL
MODEL 3
REMARK VINA RESULT:    -2.336      4.247      9.338
REMARK INTER + INTRA:          -6.083
REMARK INTER:                  -4.934
REMARK INTRA:                  -1.148
REMARK UNBOUND:                -1.425
REMARK SMILES CCCCCCCCCCCCCCCCCC(=O)OC
REMARK SMILES IDX 10 1 9 2 8 3 7 4 6 5 5 6 4 7 3 8 2 9 1 10 11 11 12 12 13 13
REMARK SMILES IDX 14 14 15 15 16 16 17 17 18 18 19 19 20 20 21 21
REMARK H PARENT
REMARK Flexibility Score: inf
ROOT
ATOM      1  C   UNL     1      37.999  64.432  97.134  1.00  0.00     0.000 C 
ENDROOT
BRANCH   1   2
ATOM      2  C   UNL     1      39.238  63.750  96.525  1.00  0.00     0.000 C 
BRANCH   2   3
ATOM      3  C   UNL     1      39.385  63.902  94.997  1.00  0.00    -0.000 C 
BRANCH   3   4
ATOM      4  C   UNL     1      38.586  62.887  94.159  1.00  0.00    -0.000 C 
BRANCH   4   5
ATOM      5  C   UNL     1      38.583  63.224  92.660  1.00  0.00    -0.000 C 
BRANCH   5   6
ATOM      6  C   UNL     1      37.150  63.419  92.146  1.00  0.00    -0.000 C 
BRANCH   6   7
ATOM      7  C   UNL     1      36.212  63.852  93.281  1.00  0.00    -0.000 C 
BRANCH   7   8
ATOM      8  C   UNL     1      35.621  65.254  93.057  1.00  0.00    -0.000 C 
BRANCH   8   9
ATOM      9  C   UNL     1      35.740  65.719  91.599  1.00  0.00    -0.003 C 
ATOM     10  C   UNL     1      34.544  66.578  91.198  1.00  0.00     0.004 C 
ENDBRANCH   8   9
ENDBRANCH   7   8
ENDBRANCH   6   7
ENDBRANCH   5   6
ENDBRANCH   4   5
ENDBRANCH   3   4
ENDBRANCH   2   3
ENDBRANCH   1   2
BRANCH   1  11
ATOM     11  C   UNL     1      36.734  63.556  97.179  1.00  0.00     0.000 C 
BRANCH  11  12
ATOM     12  C   UNL     1      36.353  63.088  98.601  1.00  0.00     0.000 C 
BRANCH  12  13
ATOM     13  C   UNL     1      36.594  64.173  99.661  1.00  0.00     0.000 C 
BRANCH  13  14
ATOM     14  C   UNL     1      37.539  63.708 100.782  1.00  0.00     0.000 C 
BRANCH  14  15
ATOM     15  C   UNL     1      36.785  63.255 102.043  1.00  0.00     0.001 C 
BRANCH  15  16
ATOM     16  C   UNL     1      37.570  63.615 103.311  1.00  0.00     0.012 C 
BRANCH  16  17
ATOM     17  C   UNL     1      36.904  63.024 104.555  1.00  0.00     0.123 C 
BRANCH  17  18
ATOM     18  C   UNL     1      36.216  64.094 105.343  1.00  0.00     0.305 C 
ATOM     19  O   UNL     1      36.882  64.826 106.124  1.00  0.00    -0.252 OA
BRANCH  18  20
ATOM     20  O   UNL     1      34.833  64.256 105.220  1.00  0.00    -0.469 OA
ATOM     21  C   UNL     1      33.969  63.191 104.844  1.00  0.00     0.282 C 
ENDBRANCH  18  20
ENDBRANCH  17  18
ENDBRANCH  16  17
ENDBRANCH  15  16
ENDBRANCH  14  15
ENDBRANCH  13  14
ENDBRANCH  12  13
ENDBRANCH  11  12
ENDBRANCH   1  11
TORSDOF 17
ENDMDL
MODEL 4
REMARK VINA RESULT:    -2.236      4.381      9.055
REMARK INTER + INTRA:          -5.883
REMARK INTER:                  -4.885
REMARK INTRA:                  -0.998
REMARK UNBOUND:                -1.425
REMARK SMILES CCCCCCCCCCCCCCCCCC(=O)OC
REMARK SMILES IDX 10 1 9 2 8 3 7 4 6 5 5 6 4 7 3 8 2 9 1 10 11 11 12 12 13 13
REMARK SMILES IDX 14 14 15 15 16 16 17 17 18 18 19 19 20 20 21 21
REMARK H PARENT
REMARK Flexibility Score: inf
ROOT
ATOM      1  C   UNL     1      38.000  64.469  96.670  1.00  0.00     0.000 C 
ENDROOT
BRANCH   1   2
ATOM      2  C   UNL     1      39.513  64.449  96.379  1.00  0.00     0.000 C 
BRANCH   2   3
ATOM      3  C   UNL     1      39.892  64.341  94.888  1.00  0.00    -0.000 C 
BRANCH   3   4
ATOM      4  C   UNL     1      39.235  63.175  94.128  1.00  0.00    -0.000 C 
BRANCH   4   5
ATOM      5  C   UNL     1      39.006  63.485  92.641  1.00  0.00    -0.000 C 
BRANCH   5   6
ATOM      6  C   UNL     1      37.538  63.260  92.254  1.00  0.00    -0.000 C 
BRANCH   6   7
ATOM      7  C   UNL     1      36.694  62.900  93.484  1.00  0.00    -0.000 C 
BRANCH   7   8
ATOM      8  C   UNL     1      35.692  64.004  93.857  1.00  0.00    -0.000 C 
BRANCH   8   9
ATOM      9  C   UNL     1      34.449  63.457  94.572  1.00  0.00    -0.003 C 
ATOM     10  C   UNL     1      34.435  63.869  96.042  1.00  0.00     0.004 C 
ENDBRANCH   8   9
ENDBRANCH   7   8
ENDBRANCH   6   7
ENDBRANCH   5   6
ENDBRANCH   4   5
ENDBRANCH   3   4
ENDBRANCH   2   3
ENDBRANCH   1   2
BRANCH   1  11
ATOM     11  C   UNL     1      37.415  63.130  97.154  1.00  0.00     0.000 C 
BRANCH  11  12
ATOM     12  C   UNL     1      36.613  63.242  98.469  1.00  0.00     0.000 C 
BRANCH  12  13
ATOM     13  C   UNL     1      37.482  63.700  99.650  1.00  0.00     0.000 C 
BRANCH  13  14
ATOM     14  C   UNL     1      36.858  63.357 101.013  1.00  0.00     0.000 C 
BRANCH  14  15
ATOM     15  C   UNL     1      37.833  63.570 102.182  1.00  0.00     0.001 C 
BRANCH  15  16
ATOM     16  C   UNL     1      37.177  63.200 103.519  1.00  0.00     0.012 C 
BRANCH  16  17
ATOM     17  C   UNL     1      38.155  63.389 104.681  1.00  0.00     0.123 C 
BRANCH  17  18
ATOM     18  C   UNL     1      37.468  64.022 105.850  1.00  0.00     0.305 C 
ATOM     19  O   UNL     1      36.692  64.999 105.668  1.00  0.00    -0.252 OA
BRANCH  18  20
ATOM     20  O   UNL     1      37.712  63.534 107.137  1.00  0.00    -0.469 OA
ATOM     21  C   UNL     1      38.924  63.792 107.834  1.00  0.00     0.282 C 
ENDBRANCH  18  20
ENDBRANCH  17  18
ENDBRANCH  16  17
ENDBRANCH  15  16
ENDBRANCH  14  15
ENDBRANCH  13  14
ENDBRANCH  12  13
ENDBRANCH  11  12
ENDBRANCH   1  11
TORSDOF 17
ENDMDL
MODEL 5
REMARK VINA RESULT:    -2.108      4.318      9.460
REMARK INTER + INTRA:          -5.627
REMARK INTER:                  -4.528
REMARK INTRA:                  -1.099
REMARK UNBOUND:                -1.425
REMARK SMILES CCCCCCCCCCCCCCCCCC(=O)OC
REMARK SMILES IDX 10 1 9 2 8 3 7 4 6 5 5 6 4 7 3 8 2 9 1 10 11 11 12 12 13 13
REMARK SMILES IDX 14 14 15 15 16 16 17 17 18 18 19 19 20 20 21 21
REMARK H PARENT
REMARK Flexibility Score: inf
ROOT
ATOM      1  C   UNL     1      38.892  64.030  97.491  1.00  0.00     0.000 C 
ENDROOT
BRANCH   1   2
ATOM      2  C   UNL     1      37.413  63.848  97.882  1.00  0.00     0.000 C 
BRANCH   2   3
ATOM      3  C   UNL     1      36.393  64.334  96.831  1.00  0.00    -0.000 C 
BRANCH   3   4
ATOM      4  C   UNL     1      35.494  63.236  96.235  1.00  0.00    -0.000 C 
BRANCH   4   5
ATOM      5  C   UNL     1      35.863  62.883  94.786  1.00  0.00    -0.000 C 
BRANCH   5   6
ATOM      6  C   UNL     1      36.354  64.124  94.029  1.00  0.00    -0.000 C 
BRANCH   6   7
ATOM      7  C   UNL     1      35.784  64.162  92.604  1.00  0.00    -0.000 C 
BRANCH   7   8
ATOM      8  C   UNL     1      35.764  65.580  92.013  1.00  0.00    -0.000 C 
BRANCH   8   9
ATOM      9  C   UNL     1      34.438  65.909  91.312  1.00  0.00    -0.003 C 
ATOM     10  C   UNL     1      34.426  67.349  90.806  1.00  0.00     0.004 C 
ENDBRANCH   8   9
ENDBRANCH   7   8
ENDBRANCH   6   7
ENDBRANCH   5   6
ENDBRANCH   4   5
ENDBRANCH   3   4
ENDBRANCH   2   3
ENDBRANCH   1   2
BRANCH   1  11
ATOM     11  C   UNL     1      39.791  64.599  98.604  1.00  0.00     0.000 C 
BRANCH  11  12
ATOM     12  C   UNL     1      39.104  64.663  99.986  1.00  0.00     0.000 C 
BRANCH  12  13
ATOM     13  C   UNL     1      39.761  63.727 101.013  1.00  0.00     0.000 C 
BRANCH  13  14
ATOM     14  C   UNL     1      38.736  63.048 101.937  1.00  0.00     0.000 C 
BRANCH  14  15
ATOM     15  C   UNL     1      37.284  63.361 101.544  1.00  0.00     0.001 C 
BRANCH  15  16
ATOM     16  C   UNL     1      36.352  63.261 102.758  1.00  0.00     0.012 C 
BRANCH  16  17
ATOM     17  C   UNL     1      37.093  63.615 104.050  1.00  0.00     0.123 C 
BRANCH  17  18
ATOM     18  C   UNL     1      36.124  63.860 105.163  1.00  0.00     0.305 C 
ATOM     19  O   UNL     1      35.156  64.650 104.990  1.00  0.00    -0.252 OA
BRANCH  18  20
ATOM     20  O   UNL     1      36.316  63.225 106.393  1.00  0.00    -0.469 OA
ATOM     21  C   UNL     1      35.378  63.322 107.457  1.00  0.00     0.282 C 
ENDBRANCH  18  20
ENDBRANCH  17  18
ENDBRANCH  16  17
ENDBRANCH  15  16
ENDBRANCH  14  15
ENDBRANCH  13  14
ENDBRANCH  12  13
ENDBRANCH  11  12
ENDBRANCH   1  11
TORSDOF 17
ENDMDL
MODEL 6
REMARK VINA RESULT:    -2.009      1.767      3.817
REMARK INTER + INTRA:          -5.429
REMARK INTER:                  -4.807
REMARK INTRA:                  -0.623
REMARK UNBOUND:                -1.425
REMARK SMILES CCCCCCCCCCCCCCCCCC(=O)OC
REMARK SMILES IDX 10 1 9 2 8 3 7 4 6 5 5 6 4 7 3 8 2 9 1 10 11 11 12 12 13 13
REMARK SMILES IDX 14 14 15 15 16 16 17 17 18 18 19 19 20 20 21 21
REMARK H PARENT
REMARK Flexibility Score: inf
ROOT
ATOM      1  C   UNL     1      39.966  62.876 103.082  1.00  0.00     0.000 C 
ENDROOT
BRANCH   1   2
ATOM      2  C   UNL     1      38.714  63.298 103.874  1.00  0.00     0.000 C 
BRANCH   2   3
ATOM      3  C   UNL     1      38.996  63.978 105.230  1.00  0.00    -0.000 C 
BRANCH   3   4
ATOM      4  C   UNL     1      39.289  63.017 106.396  1.00  0.00    -0.000 C 
BRANCH   4   5
ATOM      5  C   UNL     1      38.739  63.523 107.739  1.00  0.00    -0.000 C 
BRANCH   5   6
ATOM      6  C   UNL     1      37.364  62.909 108.033  1.00  0.00    -0.000 C 
BRANCH   6   7
ATOM      7  C   UNL     1      36.490  62.884 106.772  1.00  0.00    -0.000 C 
BRANCH   7   8
ATOM      8  C   UNL     1      35.273  63.816 106.878  1.00  0.00    -0.000 C 
BRANCH   8   9
ATOM      9  C   UNL     1      34.669  64.159 105.508  1.00  0.00    -0.003 C 
ATOM     10  C   UNL     1      34.293  62.894 104.741  1.00  0.00     0.004 C 
ENDBRANCH   8   9
ENDBRANCH   7   8
ENDBRANCH   6   7
ENDBRANCH   5   6
ENDBRANCH   4   5
ENDBRANCH   3   4
ENDBRANCH   2   3
ENDBRANCH   1   2
BRANCH   1  11
ATOM     11  C   UNL     1      39.842  63.013 101.553  1.00  0.00     0.000 C 
BRANCH  11  12
ATOM     12  C   UNL     1      38.520  63.664 101.093  1.00  0.00     0.000 C 
BRANCH  12  13
ATOM     13  C   UNL     1      38.072  63.170  99.709  1.00  0.00     0.000 C 
BRANCH  13  14
ATOM     14  C   UNL     1      37.982  64.305  98.675  1.00  0.00     0.000 C 
BRANCH  14  15
ATOM     15  C   UNL     1      37.003  63.991  97.533  1.00  0.00     0.001 C 
BRANCH  15  16
ATOM     16  C   UNL     1      37.755  63.600  96.255  1.00  0.00     0.012 C 
BRANCH  16  17
ATOM     17  C   UNL     1      36.827  63.635  95.039  1.00  0.00     0.123 C 
BRANCH  17  18
ATOM     18  C   UNL     1      37.590  63.339  93.786  1.00  0.00     0.305 C 
ATOM     19  O   UNL     1      37.032  63.479  92.663  1.00  0.00    -0.252 OA
BRANCH  18  20
ATOM     20  O   UNL     1      38.910  62.887  93.876  1.00  0.00    -0.469 OA
ATOM     21  C   UNL     1      39.990  63.553  93.233  1.00  0.00     0.282 C 
ENDBRANCH  18  20
ENDBRANCH  17  18
ENDBRANCH  16  17
ENDBRANCH  15  16
ENDBRANCH  14  15
ENDBRANCH  13  14
ENDBRANCH  12  13
ENDBRANCH  11  12
ENDBRANCH   1  11
TORSDOF 17
ENDMDL
