MODEL 1
REMARK VINA RESULT:    30.625      0.000      0.000
REMARK INTER + INTRA:          33.311
REMARK INTER:                  33.311
REMARK INTRA:                   0.000
REMARK UNBOUND:                 0.000
REMARK SMILES Cc1cc(O)c2c(c1)C(=O)c1cc(O)cc(O)c1C2=O
REMARK SMILES IDX 1 1 2 2 8 3 7 4 6 5 4 6 3 7 19 8 20 9 18 10 11 11 9 12 10 13
REMARK SMILES IDX 12 14 13 15 15 16 16 17 5 18 17 20 14 22
REMARK H PARENT 5 19 17 21 14 23
REMARK Flexibility Score: inf
ROOT
ATOM      1  C   UNL     1      -2.715   4.927  -3.475  1.00  0.00     0.044 C 
ATOM      2  C   UNL     1      -2.222   3.846  -4.390  1.00  0.00    -0.047 A 
ATOM      3  C   UNL     1      -0.918   3.355  -4.262  1.00  0.00     0.016 A 
ATOM      4  C   UNL     1      -0.437   2.362  -5.132  1.00  0.00     0.038 A 
ATOM      5  C   UNL     1      -1.275   1.853  -6.150  1.00  0.00     0.076 A 
ATOM      6  C   UNL     1      -2.566   2.415  -6.327  1.00  0.00     0.127 A 
ATOM      7  C   UNL     1      -3.030   3.387  -5.436  1.00  0.00     0.050 A 
ATOM      8  C   UNL     1      -0.785   0.704  -6.954  1.00  0.00     0.201 C 
ATOM      9  O   UNL     1      -1.607  -0.126  -7.426  1.00  0.00    -0.288 OA
ATOM     10  C   UNL     1       0.673   0.432  -7.039  1.00  0.00     0.076 A 
ATOM     11  C   UNL     1       1.508   0.946  -6.021  1.00  0.00     0.041 A 
ATOM     12  C   UNL     1       0.948   1.854  -4.994  1.00  0.00     0.194 C 
ATOM     13  O   UNL     1       1.658   2.214  -4.014  1.00  0.00    -0.289 OA
ATOM     14  C   UNL     1       2.869   0.595  -5.992  1.00  0.00     0.059 A 
ATOM     15  C   UNL     1       3.407  -0.243  -6.967  1.00  0.00     0.120 A 
ATOM     16  C   UNL     1       2.594  -0.721  -7.999  1.00  0.00     0.093 A 
ATOM     17  C   UNL     1       1.241  -0.371  -8.062  1.00  0.00     0.131 A 
ENDROOT
BRANCH   6  18
ATOM     18  O   UNL     1      -3.400   2.065  -7.392  1.00  0.00    -0.507 OA
ATOM     19  H   UNL     1      -3.059   1.793  -8.303  1.00  0.00     0.293 HD
ENDBRANCH   6  18
BRANCH  17  20
ATOM     20  O   UNL     1       0.514  -0.810  -9.170  1.00  0.00    -0.507 OA
ATOM     21  H   UNL     1       0.397  -1.785  -9.411  1.00  0.00     0.293 HD
ENDBRANCH  17  20
BRANCH  15  22
ATOM     22  O   UNL     1       4.756  -0.586  -6.910  1.00  0.00    -0.508 OA
ATOM     23  H   UNL     1       5.055  -1.550  -6.814  1.00  0.00     0.293 HD
ENDBRANCH  15  22
TORSDOF 3
ENDMDL
MODEL 2
REMARK VINA RESULT:    30.993      3.624      6.110
REMARK INTER + INTRA:          33.711
REMARK INTER:                  33.711
REMARK INTRA:                   0.000
REMARK UNBOUND:                 0.000
REMARK SMILES Cc1cc(O)c2c(c1)C(=O)c1cc(O)cc(O)c1C2=O
REMARK SMILES IDX 1 1 2 2 8 3 7 4 6 5 4 6 3 7 19 8 20 9 18 10 11 11 9 12 10 13
REMARK SMILES IDX 12 14 13 15 15 16 16 17 5 18 17 20 14 22
REMARK H PARENT 5 19 17 21 14 23
REMARK Flexibility Score: inf
ROOT
ATOM      1  C   UNL     1       0.339   1.580  -5.571  1.00  0.00     0.044 C 
ATOM      2  C   UNL     1       0.490   0.801  -6.844  1.00  0.00    -0.047 A 
ATOM      3  C   UNL     1      -0.569   0.022  -7.323  1.00  0.00     0.016 A 
ATOM      4  C   UNL     1      -0.429  -0.732  -8.500  1.00  0.00     0.038 A 
ATOM      5  C   UNL     1       0.793  -0.708  -9.209  1.00  0.00     0.076 A 
ATOM      6  C   UNL     1       1.889   0.016  -8.673  1.00  0.00     0.127 A 
ATOM      7  C   UNL     1       1.719   0.776  -7.511  1.00  0.00     0.050 A 
ATOM      8  C   UNL     1       0.856  -1.399 -10.523  1.00  0.00     0.201 C 
ATOM      9  O   UNL     1       1.630  -0.969 -11.420  1.00  0.00    -0.288 OA
ATOM     10  C   UNL     1      -0.123  -2.470 -10.841  1.00  0.00     0.076 A 
ATOM     11  C   UNL     1      -1.343  -2.492 -10.128  1.00  0.00     0.041 A 
ATOM     12  C   UNL     1      -1.553  -1.561  -8.995  1.00  0.00     0.194 C 
ATOM     13  O   UNL     1      -2.684  -1.490  -8.437  1.00  0.00    -0.289 OA
ATOM     14  C   UNL     1      -2.349  -3.403 -10.494  1.00  0.00     0.059 A 
ATOM     15  C   UNL     1      -2.149  -4.295 -11.546  1.00  0.00     0.120 A 
ATOM     16  C   UNL     1      -0.930  -4.304 -12.228  1.00  0.00     0.093 A 
ATOM     17  C   UNL     1       0.095  -3.422 -11.871  1.00  0.00     0.131 A 
ENDROOT
BRANCH   6  18
ATOM     18  O   UNL     1       3.166  -0.022  -9.238  1.00  0.00    -0.507 OA
ATOM     19  H   UNL     1       4.017  -0.044  -8.695  1.00  0.00     0.293 HD
ENDBRANCH   6  18
BRANCH  17  20
ATOM     20  O   UNL     1       1.316  -3.551 -12.536  1.00  0.00    -0.507 OA
ATOM     21  H   UNL     1       1.979  -4.290 -12.349  1.00  0.00     0.293 HD
ENDBRANCH  17  20
BRANCH  15  22
ATOM     22  O   UNL     1      -3.166  -5.180 -11.898  1.00  0.00    -0.508 OA
ATOM     23  H   UNL     1      -3.090  -5.778 -12.713  1.00  0.00     0.293 HD
ENDBRANCH  15  22
TORSDOF 3
ENDMDL
MODEL 3
REMARK VINA RESULT:    32.643      3.915      6.826
REMARK INTER + INTRA:          35.505
REMARK INTER:                  35.505
REMARK INTRA:                   0.000
REMARK UNBOUND:                 0.000
REMARK SMILES Cc1cc(O)c2c(c1)C(=O)c1cc(O)cc(O)c1C2=O
REMARK SMILES IDX 1 1 2 2 8 3 7 4 6 5 4 6 3 7 19 8 20 9 18 10 11 11 9 12 10 13
REMARK SMILES IDX 12 14 13 15 15 16 16 17 5 18 17 20 14 22
REMARK H PARENT 5 19 17 21 14 23
REMARK Flexibility Score: inf
ROOT
ATOM      1  C   UNL     1      -1.592  -5.690 -13.165  1.00  0.00     0.044 C 
ATOM      2  C   UNL     1      -1.502  -4.617 -12.120  1.00  0.00    -0.047 A 
ATOM      3  C   UNL     1      -0.364  -3.807 -12.038  1.00  0.00     0.016 A 
ATOM      4  C   UNL     1      -0.258  -2.818 -11.046  1.00  0.00     0.038 A 
ATOM      5  C   UNL     1      -1.308  -2.638 -10.118  1.00  0.00     0.076 A 
ATOM      6  C   UNL     1      -2.421  -3.518 -10.153  1.00  0.00     0.127 A 
ATOM      7  C   UNL     1      -2.513  -4.481 -11.163  1.00  0.00     0.050 A 
ATOM      8  C   UNL     1      -1.226  -1.489  -9.179  1.00  0.00     0.201 C 
ATOM      9  O   UNL     1      -2.283  -0.942  -8.765  1.00  0.00    -0.288 OA
ATOM     10  C   UNL     1       0.093  -0.873  -8.880  1.00  0.00     0.076 A 
ATOM     11  C   UNL     1       1.141  -1.058  -9.809  1.00  0.00     0.041 A 
ATOM     12  C   UNL     1       0.954  -1.970 -10.962  1.00  0.00     0.194 C 
ATOM     13  O   UNL     1       1.839  -2.042 -11.860  1.00  0.00    -0.289 OA
ATOM     14  C   UNL     1       2.359  -0.379  -9.632  1.00  0.00     0.059 A 
ATOM     15  C   UNL     1       2.547   0.465  -8.539  1.00  0.00     0.120 A 
ATOM     16  C   UNL     1       1.528   0.619  -7.595  1.00  0.00     0.093 A 
ATOM     17  C   UNL     1       0.314  -0.061  -7.738  1.00  0.00     0.131 A 
ENDROOT
BRANCH   6  18
ATOM     18  O   UNL     1      -3.431  -3.495  -9.189  1.00  0.00    -0.507 OA
ATOM     19  H   UNL     1      -3.404  -2.911  -8.366  1.00  0.00     0.293 HD
ENDBRANCH   6  18
BRANCH  17  20
ATOM     20  O   UNL     1      -0.622   0.071  -6.710  1.00  0.00    -0.507 OA
ATOM     21  H   UNL     1      -1.610  -0.106  -6.828  1.00  0.00     0.293 HD
ENDBRANCH  17  20
BRANCH  15  22
ATOM     22  O   UNL     1       3.759   1.137  -8.390  1.00  0.00    -0.508 OA
ATOM     23  H   UNL     1       4.528   0.992  -9.034  1.00  0.00     0.293 HD
ENDBRANCH  15  22
TORSDOF 3
ENDMDL
MODEL 4
REMARK VINA RESULT:    33.121      1.537      6.105
REMARK INTER + INTRA:          36.025
REMARK INTER:                  36.025
REMARK INTRA:                   0.000
REMARK UNBOUND:                 0.000
REMARK SMILES Cc1cc(O)c2c(c1)C(=O)c1cc(O)cc(O)c1C2=O
REMARK SMILES IDX 1 1 2 2 8 3 7 4 6 5 4 6 3 7 19 8 20 9 18 10 11 11 9 12 10 13
REMARK SMILES IDX 12 14 13 15 15 16 16 17 5 18 17 20 14 22
REMARK H PARENT 5 19 17 21 14 23
REMARK Flexibility Score: inf
ROOT
ATOM      1  C   UNL     1       0.606  -1.749 -10.670  1.00  0.00     0.044 C 
ATOM      2  C   UNL     1       0.757  -0.964  -9.401  1.00  0.00    -0.047 A 
ATOM      3  C   UNL     1      -0.360  -0.373  -8.802  1.00  0.00     0.016 A 
ATOM      4  C   UNL     1      -0.226   0.388  -7.627  1.00  0.00     0.038 A 
ATOM      5  C   UNL     1       1.050   0.560  -7.044  1.00  0.00     0.076 A 
ATOM      6  C   UNL     1       2.189   0.029  -7.703  1.00  0.00     0.127 A 
ATOM      7  C   UNL     1       2.027  -0.741  -8.858  1.00  0.00     0.050 A 
ATOM      8  C   UNL     1       1.133   1.244  -5.727  1.00  0.00     0.201 C 
ATOM      9  O   UNL     1       2.054   0.942  -4.922  1.00  0.00    -0.288 OA
ATOM     10  C   UNL     1       0.030   2.137  -5.289  1.00  0.00     0.076 A 
ATOM     11  C   UNL     1      -1.243   1.964  -5.877  1.00  0.00     0.041 A 
ATOM     12  C   UNL     1      -1.413   1.017  -7.004  1.00  0.00     0.194 C 
ATOM     13  O   UNL     1      -2.568   0.765  -7.448  1.00  0.00    -0.289 OA
ATOM     14  C   UNL     1      -2.342   2.694  -5.392  1.00  0.00     0.059 A 
ATOM     15  C   UNL     1      -2.184   3.601  -4.345  1.00  0.00     0.120 A 
ATOM     16  C   UNL     1      -0.919   3.806  -3.787  1.00  0.00     0.093 A 
ATOM     17  C   UNL     1       0.194   3.107  -4.265  1.00  0.00     0.131 A 
ENDROOT
BRANCH   6  18
ATOM     18  O   UNL     1       3.494   0.273  -7.266  1.00  0.00    -0.507 OA
ATOM     19  H   UNL     1       3.781   1.129  -6.816  1.00  0.00     0.293 HD
ENDBRANCH   6  18
BRANCH  17  20
ATOM     20  O   UNL     1       1.439   3.430  -3.722  1.00  0.00    -0.507 OA
ATOM     21  H   UNL     1       2.317   3.232  -4.181  1.00  0.00     0.293 HD
ENDBRANCH  17  20
BRANCH  15  22
ATOM     22  O   UNL     1      -3.290   4.305  -3.873  1.00  0.00    -0.508 OA
ATOM     23  H   UNL     1      -4.231   4.077  -4.173  1.00  0.00     0.293 HD
ENDBRANCH  15  22
TORSDOF 3
ENDMDL
