MODEL 1
REMARK VINA RESULT:    -4.794      0.000      0.000
REMARK INTER + INTRA:          -7.569
REMARK INTER:                  -6.476
REMARK INTRA:                  -1.093
REMARK UNBOUND:                -1.093
REMARK SMILES O=c1c(-c2ccc(O)cc2)coc2c([C@H]3O[C@@H](CO)[C@H](O)[C@@H](O)[C@@H]3O)c(O)ccc12
REMARK SMILES IDX 3 1 11 2 12 3 13 4 30 5 2 6 1 7 29 8 28 9 26 10 14 11 4 12
REMARK SMILES IDX 5 13 6 14 7 15 10 16 9 17 8 18 15 20 24 21 16 22 22 23 17 24
REMARK SMILES IDX 20 25 25 26 23 28 18 30 19 31 21 33 27 35
REMARK H PARENT 8 19 25 27 23 29 19 32 21 34 27 36
REMARK Flexibility Score: inf
ROOT
ATOM      1  C   UNL     1     -25.956  52.162  43.141  1.00  0.00     0.065 A 
ATOM      2  C   UNL     1     -26.062  52.124  41.744  1.00  0.00     0.208 A 
ATOM      3  O   UNL     1     -26.161  50.969  41.098  1.00  0.00    -0.463 OA
ATOM      4  C   UNL     1     -26.167  49.789  41.714  1.00  0.00     0.147 A 
ATOM      5  C   UNL     1     -26.065  49.734  43.124  1.00  0.00     0.066 A 
ATOM      6  C   UNL     1     -25.949  50.940  43.838  1.00  0.00     0.200 A 
ATOM      7  O   UNL     1     -25.822  50.926  45.094  1.00  0.00    -0.288 OA
ATOM      8  C   UNL     1     -26.083  48.489  43.772  1.00  0.00     0.020 A 
ATOM      9  C   UNL     1     -26.221  47.316  43.035  1.00  0.00     0.047 A 
ATOM     10  C   UNL     1     -26.330  47.358  41.640  1.00  0.00     0.125 A 
ATOM     11  C   UNL     1     -26.277  48.596  40.960  1.00  0.00     0.069 A 
ENDROOT
BRANCH   1  12
ATOM     12  C   UNL     1     -25.852  53.466  43.841  1.00  0.00    -0.011 A 
ATOM     13  C   UNL     1     -26.763  53.799  44.860  1.00  0.00     0.013 A 
ATOM     14  C   UNL     1     -26.665  55.025  45.524  1.00  0.00     0.047 A 
ATOM     15  C   UNL     1     -25.655  55.930  45.187  1.00  0.00     0.115 A 
ATOM     16  C   UNL     1     -24.834  54.379  43.511  1.00  0.00     0.013 A 
ATOM     17  C   UNL     1     -24.738  55.604  44.180  1.00  0.00     0.047 A 
BRANCH  15  18
ATOM     18  O   UNL     1     -25.572  57.148  45.856  1.00  0.00    -0.508 OA
ATOM     19  H   UNL     1     -25.577  58.029  45.355  1.00  0.00     0.293 HD
ENDBRANCH  15  18
ENDBRANCH   1  12
BRANCH  11  20
ATOM     20  C   UNL     1     -26.414  48.652  39.445  1.00  0.00     0.188 C 
ATOM     21  C   UNL     1     -27.872  48.326  39.020  1.00  0.00     0.179 C 
ATOM     22  O   UNL     1     -25.502  47.744  38.851  1.00  0.00    -0.362 OA
ATOM     23  C   UNL     1     -27.913  47.522  37.698  1.00  0.00     0.177 C 
ATOM     24  C   UNL     1     -25.388  47.990  37.457  1.00  0.00     0.176 C 
ATOM     25  C   UNL     1     -26.777  47.941  36.735  1.00  0.00     0.177 C 
BRANCH  21  26
ATOM     26  O   UNL     1     -28.590  49.527  38.883  1.00  0.00    -0.387 OA
ATOM     27  H   UNL     1     -29.511  49.285  38.604  1.00  0.00     0.211 HD
ENDBRANCH  21  26
BRANCH  23  28
ATOM     28  O   UNL     1     -27.790  46.154  37.998  1.00  0.00    -0.387 OA
ATOM     29  H   UNL     1     -28.677  45.740  37.831  1.00  0.00     0.211 HD
ENDBRANCH  23  28
BRANCH  24  30
ATOM     30  C   UNL     1     -24.419  46.954  36.873  1.00  0.00     0.191 C 
BRANCH  30  31
ATOM     31  O   UNL     1     -24.958  45.666  36.998  1.00  0.00    -0.394 OA
ATOM     32  H   UNL     1     -24.190  45.041  36.942  1.00  0.00     0.210 HD
ENDBRANCH  30  31
ENDBRANCH  24  30
BRANCH  25  33
ATOM     33  O   UNL     1     -27.073  49.172  36.121  1.00  0.00    -0.388 OA
ATOM     34  H   UNL     1     -27.228  49.005  35.155  1.00  0.00     0.211 HD
ENDBRANCH  25  33
ENDBRANCH  11  20
BRANCH  10  35
ATOM     35  O   UNL     1     -26.498  46.169  40.929  1.00  0.00    -0.507 OA
ATOM     36  H   UNL     1     -25.726  45.723  40.447  1.00  0.00     0.293 HD
ENDBRANCH  10  35
TORSDOF 9
ENDMDL
MODEL 2
REMARK VINA RESULT:    -4.621      3.707      7.632
REMARK INTER + INTRA:          -7.335
REMARK INTER:                  -6.056
REMARK INTRA:                  -1.279
REMARK UNBOUND:                -1.093
REMARK SMILES O=c1c(-c2ccc(O)cc2)coc2c([C@H]3O[C@@H](CO)[C@H](O)[C@@H](O)[C@@H]3O)c(O)ccc12
REMARK SMILES IDX 3 1 11 2 12 3 13 4 30 5 2 6 1 7 29 8 28 9 26 10 14 11 4 12
REMARK SMILES IDX 5 13 6 14 7 15 10 16 9 17 8 18 15 20 24 21 16 22 22 23 17 24
REMARK SMILES IDX 20 25 25 26 23 28 18 30 19 31 21 33 27 35
REMARK H PARENT 8 19 25 27 23 29 19 32 21 34 27 36
REMARK Flexibility Score: inf
ROOT
ATOM      1  C   UNL     1     -28.426  45.557  44.161  1.00  0.00     0.065 A 
ATOM      2  C   UNL     1     -27.329  46.405  44.370  1.00  0.00     0.208 A 
ATOM      3  O   UNL     1     -26.960  47.283  43.446  1.00  0.00    -0.463 OA
ATOM      4  C   UNL     1     -27.590  47.423  42.281  1.00  0.00     0.147 A 
ATOM      5  C   UNL     1     -28.709  46.608  41.988  1.00  0.00     0.066 A 
ATOM      6  C   UNL     1     -29.120  45.660  42.942  1.00  0.00     0.200 A 
ATOM      7  O   UNL     1     -30.094  44.894  42.699  1.00  0.00    -0.288 OA
ATOM      8  C   UNL     1     -29.379  46.764  40.764  1.00  0.00     0.020 A 
ATOM      9  C   UNL     1     -28.957  47.728  39.851  1.00  0.00     0.047 A 
ATOM     10  C   UNL     1     -27.855  48.544  40.133  1.00  0.00     0.125 A 
ATOM     11  C   UNL     1     -27.142  48.382  41.343  1.00  0.00     0.069 A 
ENDROOT
BRANCH   1  12
ATOM     12  C   UNL     1     -28.822  44.588  45.212  1.00  0.00    -0.011 A 
ATOM     13  C   UNL     1     -28.247  43.304  45.246  1.00  0.00     0.013 A 
ATOM     14  C   UNL     1     -28.614  42.390  46.237  1.00  0.00     0.047 A 
ATOM     15  C   UNL     1     -29.553  42.745  47.210  1.00  0.00     0.115 A 
ATOM     16  C   UNL     1     -29.761  44.940  46.197  1.00  0.00     0.013 A 
ATOM     17  C   UNL     1     -30.125  44.024  47.189  1.00  0.00     0.047 A 
BRANCH  15  18
ATOM     18  O   UNL     1     -29.911  41.823  48.190  1.00  0.00    -0.508 OA
ATOM     19  H   UNL     1     -29.347  41.685  49.020  1.00  0.00     0.293 HD
ENDBRANCH  15  18
ENDBRANCH   1  12
BRANCH  11  20
ATOM     20  C   UNL     1     -25.954  49.279  41.665  1.00  0.00     0.188 C 
ATOM     21  C   UNL     1     -26.420  50.532  42.454  1.00  0.00     0.179 C 
ATOM     22  O   UNL     1     -25.302  49.654  40.463  1.00  0.00    -0.362 OA
ATOM     23  C   UNL     1     -25.608  51.788  42.058  1.00  0.00     0.177 C 
ATOM     24  C   UNL     1     -24.033  50.227  40.741  1.00  0.00     0.176 C 
ATOM     25  C   UNL     1     -24.138  51.442  41.726  1.00  0.00     0.177 C 
BRANCH  21  26
ATOM     26  O   UNL     1     -26.290  50.282  43.831  1.00  0.00    -0.387 OA
ATOM     27  H   UNL     1     -25.785  49.433  43.927  1.00  0.00     0.211 HD
ENDBRANCH  21  26
BRANCH  23  28
ATOM     28  O   UNL     1     -26.212  52.382  40.936  1.00  0.00    -0.387 OA
ATOM     29  H   UNL     1     -26.366  51.659  40.273  1.00  0.00     0.211 HD
ENDBRANCH  23  28
BRANCH  24  30
ATOM     30  C   UNL     1     -23.401  50.643  39.408  1.00  0.00     0.191 C 
BRANCH  30  31
ATOM     31  O   UNL     1     -24.279  51.471  38.696  1.00  0.00    -0.394 OA
ATOM     32  H   UNL     1     -24.886  50.865  38.198  1.00  0.00     0.210 HD
ENDBRANCH  30  31
ENDBRANCH  24  30
BRANCH  25  33
ATOM     33  O   UNL     1     -23.403  51.205  42.902  1.00  0.00    -0.388 OA
ATOM     34  H   UNL     1     -23.080  50.267  42.881  1.00  0.00     0.211 HD
ENDBRANCH  25  33
ENDBRANCH  11  20
BRANCH  10  35
ATOM     35  O   UNL     1     -27.474  49.522  39.214  1.00  0.00    -0.507 OA
ATOM     36  H   UNL     1     -26.525  49.876  39.175  1.00  0.00     0.293 HD
ENDBRANCH  10  35
TORSDOF 9
ENDMDL
MODEL 3
REMARK VINA RESULT:    -4.479      3.374      7.644
REMARK INTER + INTRA:          -7.143
REMARK INTER:                  -5.764
REMARK INTRA:                  -1.379
REMARK UNBOUND:                -1.093
REMARK SMILES O=c1c(-c2ccc(O)cc2)coc2c([C@H]3O[C@@H](CO)[C@H](O)[C@@H](O)[C@@H]3O)c(O)ccc12
REMARK SMILES IDX 3 1 11 2 12 3 13 4 30 5 2 6 1 7 29 8 28 9 26 10 14 11 4 12
REMARK SMILES IDX 5 13 6 14 7 15 10 16 9 17 8 18 15 20 24 21 16 22 22 23 17 24
REMARK SMILES IDX 20 25 25 26 23 28 18 30 19 31 21 33 27 35
REMARK H PARENT 8 19 25 27 23 29 19 32 21 34 27 36
REMARK Flexibility Score: inf
ROOT
ATOM      1  C   UNL     1     -27.048  46.088  44.785  1.00  0.00     0.065 A 
ATOM      2  C   UNL     1     -26.256  47.205  45.079  1.00  0.00     0.208 A 
ATOM      3  O   UNL     1     -26.114  48.192  44.203  1.00  0.00    -0.463 OA
ATOM      4  C   UNL     1     -26.701  48.193  43.007  1.00  0.00     0.147 A 
ATOM      5  C   UNL     1     -27.520  47.104  42.628  1.00  0.00     0.066 A 
ATOM      6  C   UNL     1     -27.683  46.038  43.531  1.00  0.00     0.200 A 
ATOM      7  O   UNL     1     -28.380  45.034  43.211  1.00  0.00    -0.288 OA
ATOM      8  C   UNL     1     -28.147  47.112  41.372  1.00  0.00     0.020 A 
ATOM      9  C   UNL     1     -27.980  48.195  40.512  1.00  0.00     0.047 A 
ATOM     10  C   UNL     1     -27.177  49.282  40.879  1.00  0.00     0.125 A 
ATOM     11  C   UNL     1     -26.506  49.280  42.123  1.00  0.00     0.069 A 
ENDROOT
BRANCH   1  12
ATOM     12  C   UNL     1     -27.195  45.000  45.784  1.00  0.00    -0.011 A 
ATOM     13  C   UNL     1     -26.281  43.932  45.809  1.00  0.00     0.013 A 
ATOM     14  C   UNL     1     -26.414  42.908  46.752  1.00  0.00     0.047 A 
ATOM     15  C   UNL     1     -27.454  42.942  47.685  1.00  0.00     0.115 A 
ATOM     16  C   UNL     1     -28.235  45.031  46.730  1.00  0.00     0.013 A 
ATOM     17  C   UNL     1     -28.364  44.007  47.674  1.00  0.00     0.047 A 
BRANCH  15  18
ATOM     18  O   UNL     1     -27.576  41.914  48.617  1.00  0.00    -0.508 OA
ATOM     19  H   UNL     1     -28.482  41.592  48.935  1.00  0.00     0.293 HD
ENDBRANCH  15  18
ENDBRANCH   1  12
BRANCH  11  20
ATOM     20  C   UNL     1     -25.647  50.468  42.538  1.00  0.00     0.188 C 
ATOM     21  C   UNL     1     -26.542  51.646  43.008  1.00  0.00     0.179 C 
ATOM     22  O   UNL     1     -24.824  50.861  41.453  1.00  0.00    -0.362 OA
ATOM     23  C   UNL     1     -25.944  53.013  42.597  1.00  0.00     0.177 C 
ATOM     24  C   UNL     1     -23.808  51.751  41.893  1.00  0.00     0.176 C 
ATOM     25  C   UNL     1     -24.398  53.000  42.632  1.00  0.00     0.177 C 
BRANCH  21  26
ATOM     26  O   UNL     1     -26.691  51.580  44.405  1.00  0.00    -0.387 OA
ATOM     27  H   UNL     1     -27.597  51.218  44.585  1.00  0.00     0.211 HD
ENDBRANCH  21  26
BRANCH  23  28
ATOM     28  O   UNL     1     -26.378  53.322  41.295  1.00  0.00    -0.387 OA
ATOM     29  H   UNL     1     -25.589  53.666  40.800  1.00  0.00     0.211 HD
ENDBRANCH  23  28
BRANCH  24  30
ATOM     30  C   UNL     1     -22.982  52.165  40.669  1.00  0.00     0.191 C 
BRANCH  30  31
ATOM     31  O   UNL     1     -23.815  52.735  39.696  1.00  0.00    -0.394 OA
ATOM     32  H   UNL     1     -23.232  52.934  38.919  1.00  0.00     0.210 HD
ENDBRANCH  30  31
ENDBRANCH  24  30
BRANCH  25  33
ATOM     33  O   UNL     1     -23.929  53.073  43.956  1.00  0.00    -0.388 OA
ATOM     34  H   UNL     1     -24.622  53.525  44.504  1.00  0.00     0.211 HD
ENDBRANCH  25  33
ENDBRANCH  11  20
BRANCH  10  35
ATOM     35  O   UNL     1     -27.053  50.367  40.011  1.00  0.00    -0.507 OA
ATOM     36  H   UNL     1     -26.151  50.772  39.790  1.00  0.00     0.293 HD
ENDBRANCH  10  35
TORSDOF 9
ENDMDL
MODEL 4
REMARK VINA RESULT:    -4.446      2.154      8.282
REMARK INTER + INTRA:          -7.098
REMARK INTER:                  -5.980
REMARK INTRA:                  -1.118
REMARK UNBOUND:                -1.093
REMARK SMILES O=c1c(-c2ccc(O)cc2)coc2c([C@H]3O[C@@H](CO)[C@H](O)[C@@H](O)[C@@H]3O)c(O)ccc12
REMARK SMILES IDX 3 1 11 2 12 3 13 4 30 5 2 6 1 7 29 8 28 9 26 10 14 11 4 12
REMARK SMILES IDX 5 13 6 14 7 15 10 16 9 17 8 18 15 20 24 21 16 22 22 23 17 24
REMARK SMILES IDX 20 25 25 26 23 28 18 30 19 31 21 33 27 35
REMARK H PARENT 8 19 25 27 23 29 19 32 21 34 27 36
REMARK Flexibility Score: inf
ROOT
ATOM      1  C   UNL     1     -27.197  48.471  41.015  1.00  0.00     0.065 A 
ATOM      2  C   UNL     1     -26.962  49.828  40.752  1.00  0.00     0.208 A 
ATOM      3  O   UNL     1     -26.415  50.616  41.668  1.00  0.00    -0.463 OA
ATOM      4  C   UNL     1     -26.056  50.188  42.877  1.00  0.00     0.147 A 
ATOM      5  C   UNL     1     -26.256  48.832  43.227  1.00  0.00     0.066 A 
ATOM      6  C   UNL     1     -26.843  47.972  42.281  1.00  0.00     0.200 A 
ATOM      7  O   UNL     1     -27.067  46.764  42.573  1.00  0.00    -0.288 OA
ATOM      8  C   UNL     1     -25.867  48.379  44.498  1.00  0.00     0.020 A 
ATOM      9  C   UNL     1     -25.269  49.255  45.401  1.00  0.00     0.047 A 
ATOM     10  C   UNL     1     -25.060  50.597  45.063  1.00  0.00     0.125 A 
ATOM     11  C   UNL     1     -25.476  51.086  43.804  1.00  0.00     0.069 A 
ENDROOT
BRANCH   1  12
ATOM     12  C   UNL     1     -27.805  47.609  39.972  1.00  0.00    -0.011 A 
ATOM     13  C   UNL     1     -29.191  47.371  39.967  1.00  0.00     0.013 A 
ATOM     14  C   UNL     1     -29.767  46.563  38.983  1.00  0.00     0.047 A 
ATOM     15  C   UNL     1     -28.971  45.988  37.989  1.00  0.00     0.115 A 
ATOM     16  C   UNL     1     -27.010  47.033  38.964  1.00  0.00     0.013 A 
ATOM     17  C   UNL     1     -27.590  46.227  37.980  1.00  0.00     0.047 A 
BRANCH  15  18
ATOM     18  O   UNL     1     -29.558  45.183  37.016  1.00  0.00    -0.508 OA
ATOM     19  H   UNL     1     -29.700  45.514  36.069  1.00  0.00     0.293 HD
ENDBRANCH  15  18
ENDBRANCH   1  12
BRANCH  11  20
ATOM     20  C   UNL     1     -25.234  52.540  43.422  1.00  0.00     0.188 C 
ATOM     21  C   UNL     1     -23.747  52.758  43.034  1.00  0.00     0.179 C 
ATOM     22  O   UNL     1     -25.603  53.383  44.500  1.00  0.00    -0.362 OA
ATOM     23  C   UNL     1     -23.237  54.145  43.494  1.00  0.00     0.177 C 
ATOM     24  C   UNL     1     -25.680  54.735  44.074  1.00  0.00     0.176 C 
ATOM     25  C   UNL     1     -24.345  55.221  43.413  1.00  0.00     0.177 C 
BRANCH  21  26
ATOM     26  O   UNL     1     -23.611  52.626  41.641  1.00  0.00    -0.387 OA
ATOM     27  H   UNL     1     -24.520  52.699  41.251  1.00  0.00     0.211 HD
ENDBRANCH  21  26
BRANCH  23  28
ATOM     28  O   UNL     1     -22.782  54.042  44.821  1.00  0.00    -0.387 OA
ATOM     29  H   UNL     1     -22.521  53.095  44.965  1.00  0.00     0.211 HD
ENDBRANCH  23  28
BRANCH  24  30
ATOM     30  C   UNL     1     -26.044  55.593  45.292  1.00  0.00     0.191 C 
BRANCH  30  31
ATOM     31  O   UNL     1     -27.310  55.234  45.773  1.00  0.00    -0.394 OA
ATOM     32  H   UNL     1     -27.801  54.854  44.999  1.00  0.00     0.210 HD
ENDBRANCH  30  31
ENDBRANCH  24  30
BRANCH  25  33
ATOM     33  O   UNL     1     -24.556  55.621  42.080  1.00  0.00    -0.388 OA
ATOM     34  H   UNL     1     -24.548  54.808  41.510  1.00  0.00     0.211 HD
ENDBRANCH  25  33
ENDBRANCH  11  20
BRANCH  10  35
ATOM     35  O   UNL     1     -24.431  51.444  45.976  1.00  0.00    -0.507 OA
ATOM     36  H   UNL     1     -23.962  52.293  45.681  1.00  0.00     0.293 HD
ENDBRANCH  10  35
TORSDOF 9
ENDMDL
MODEL 5
REMARK VINA RESULT:    -4.240      2.102      8.796
REMARK INTER + INTRA:          -6.821
REMARK INTER:                  -5.717
REMARK INTRA:                  -1.104
REMARK UNBOUND:                -1.093
REMARK SMILES O=c1c(-c2ccc(O)cc2)coc2c([C@H]3O[C@@H](CO)[C@H](O)[C@@H](O)[C@@H]3O)c(O)ccc12
REMARK SMILES IDX 3 1 11 2 12 3 13 4 30 5 2 6 1 7 29 8 28 9 26 10 14 11 4 12
REMARK SMILES IDX 5 13 6 14 7 15 10 16 9 17 8 18 15 20 24 21 16 22 22 23 17 24
REMARK SMILES IDX 20 25 25 26 23 28 18 30 19 31 21 33 27 35
REMARK H PARENT 8 19 25 27 23 29 19 32 21 34 27 36
REMARK Flexibility Score: inf
ROOT
ATOM      1  C   UNL     1     -26.235  49.822  41.788  1.00  0.00     0.065 A 
ATOM      2  C   UNL     1     -26.166  51.215  41.927  1.00  0.00     0.208 A 
ATOM      3  O   UNL     1     -25.879  51.771  43.098  1.00  0.00    -0.463 OA
ATOM      4  C   UNL     1     -25.640  51.063  44.200  1.00  0.00     0.147 A 
ATOM      5  C   UNL     1     -25.688  49.650  44.149  1.00  0.00     0.066 A 
ATOM      6  C   UNL     1     -25.998  49.030  42.925  1.00  0.00     0.200 A 
ATOM      7  O   UNL     1     -26.082  47.772  42.852  1.00  0.00    -0.288 OA
ATOM      8  C   UNL     1     -25.424  48.904  45.309  1.00  0.00     0.020 A 
ATOM      9  C   UNL     1     -25.098  49.551  46.500  1.00  0.00     0.047 A 
ATOM     10  C   UNL     1     -25.042  50.948  46.560  1.00  0.00     0.125 A 
ATOM     11  C   UNL     1     -25.338  51.722  45.415  1.00  0.00     0.069 A 
ENDROOT
BRANCH   1  12
ATOM     12  C   UNL     1     -26.552  49.226  40.467  1.00  0.00    -0.011 A 
ATOM     13  C   UNL     1     -27.889  49.006  40.090  1.00  0.00     0.013 A 
ATOM     14  C   UNL     1     -28.192  48.448  38.845  1.00  0.00     0.047 A 
ATOM     15  C   UNL     1     -27.167  48.111  37.957  1.00  0.00     0.115 A 
ATOM     16  C   UNL     1     -25.526  48.890  39.565  1.00  0.00     0.013 A 
ATOM     17  C   UNL     1     -25.832  48.335  38.319  1.00  0.00     0.047 A 
BRANCH  15  18
ATOM     18  O   UNL     1     -27.483  47.554  36.720  1.00  0.00    -0.508 OA
ATOM     19  H   UNL     1     -27.173  46.625  36.463  1.00  0.00     0.293 HD
ENDBRANCH  15  18
ENDBRANCH   1  12
BRANCH  11  20
ATOM     20  C   UNL     1     -25.260  53.242  45.469  1.00  0.00     0.188 C 
ATOM     21  C   UNL     1     -23.784  53.712  45.358  1.00  0.00     0.179 C 
ATOM     22  O   UNL     1     -25.848  53.706  46.672  1.00  0.00    -0.362 OA
ATOM     23  C   UNL     1     -23.518  54.960  46.234  1.00  0.00     0.177 C 
ATOM     24  C   UNL     1     -26.065  55.109  46.614  1.00  0.00     0.176 C 
ATOM     25  C   UNL     1     -24.749  55.895  46.292  1.00  0.00     0.177 C 
BRANCH  21  26
ATOM     26  O   UNL     1     -23.490  53.990  44.012  1.00  0.00    -0.387 OA
ATOM     27  H   UNL     1     -22.680  53.468  43.776  1.00  0.00     0.211 HD
ENDBRANCH  21  26
BRANCH  23  28
ATOM     28  O   UNL     1     -23.191  54.538  47.535  1.00  0.00    -0.387 OA
ATOM     29  H   UNL     1     -22.711  53.673  47.447  1.00  0.00     0.211 HD
ENDBRANCH  23  28
BRANCH  24  30
ATOM     30  C   UNL     1     -26.665  55.549  47.954  1.00  0.00     0.191 C 
BRANCH  30  31
ATOM     31  O   UNL     1     -27.948  56.077  47.758  1.00  0.00    -0.394 OA
ATOM     32  H   UNL     1     -28.354  56.155  48.660  1.00  0.00     0.210 HD
ENDBRANCH  30  31
ENDBRANCH  24  30
BRANCH  25  33
ATOM     33  O   UNL     1     -24.875  56.628  45.097  1.00  0.00    -0.388 OA
ATOM     34  H   UNL     1     -25.479  56.126  44.491  1.00  0.00     0.211 HD
ENDBRANCH  25  33
ENDBRANCH  11  20
BRANCH  10  35
ATOM     35  O   UNL     1     -24.683  51.568  47.758  1.00  0.00    -0.507 OA
ATOM     36  H   UNL     1     -25.266  52.277  48.187  1.00  0.00     0.293 HD
ENDBRANCH  10  35
TORSDOF 9
ENDMDL
MODEL 6
REMARK VINA RESULT:    -4.160      2.332      7.584
REMARK INTER + INTRA:          -6.713
REMARK INTER:                  -5.777
REMARK INTRA:                  -0.935
REMARK UNBOUND:                -1.093
REMARK SMILES O=c1c(-c2ccc(O)cc2)coc2c([C@H]3O[C@@H](CO)[C@H](O)[C@@H](O)[C@@H]3O)c(O)ccc12
REMARK SMILES IDX 3 1 11 2 12 3 13 4 30 5 2 6 1 7 29 8 28 9 26 10 14 11 4 12
REMARK SMILES IDX 5 13 6 14 7 15 10 16 9 17 8 18 15 20 24 21 16 22 22 23 17 24
REMARK SMILES IDX 20 25 25 26 23 28 18 30 19 31 21 33 27 35
REMARK H PARENT 8 19 25 27 23 29 19 32 21 34 27 36
REMARK Flexibility Score: inf
ROOT
ATOM      1  C   UNL     1     -27.250  48.180  41.128  1.00  0.00     0.065 A 
ATOM      2  C   UNL     1     -26.925  49.534  40.971  1.00  0.00     0.208 A 
ATOM      3  O   UNL     1     -26.389  50.228  41.968  1.00  0.00    -0.463 OA
ATOM      4  C   UNL     1     -26.126  49.701  43.162  1.00  0.00     0.147 A 
ATOM      5  C   UNL     1     -26.422  48.339  43.407  1.00  0.00     0.066 A 
ATOM      6  C   UNL     1     -26.999  47.579  42.374  1.00  0.00     0.200 A 
ATOM      7  O   UNL     1     -27.307  46.370  42.569  1.00  0.00    -0.288 OA
ATOM      8  C   UNL     1     -26.133  47.782  44.662  1.00  0.00     0.020 A 
ATOM      9  C   UNL     1     -25.541  48.559  45.655  1.00  0.00     0.047 A 
ATOM     10  C   UNL     1     -25.238  49.906  45.422  1.00  0.00     0.125 A 
ATOM     11  C   UNL     1     -25.552  50.500  44.179  1.00  0.00     0.069 A 
ENDROOT
BRANCH   1  12
ATOM     12  C   UNL     1     -27.843  47.425  39.996  1.00  0.00    -0.011 A 
ATOM     13  C   UNL     1     -29.239  47.288  39.889  1.00  0.00     0.013 A 
ATOM     14  C   UNL     1     -29.802  46.581  38.822  1.00  0.00     0.047 A 
ATOM     15  C   UNL     1     -28.981  46.011  37.846  1.00  0.00     0.115 A 
ATOM     16  C   UNL     1     -27.024  46.854  39.006  1.00  0.00     0.013 A 
ATOM     17  C   UNL     1     -27.590  46.150  37.938  1.00  0.00     0.047 A 
BRANCH  15  18
ATOM     18  O   UNL     1     -29.555  45.308  36.789  1.00  0.00    -0.508 OA
ATOM     19  H   UNL     1     -30.074  45.780  36.059  1.00  0.00     0.293 HD
ENDBRANCH  15  18
ENDBRANCH   1  12
BRANCH  11  20
ATOM     20  C   UNL     1     -25.208  51.959  43.911  1.00  0.00     0.188 C 
ATOM     21  C   UNL     1     -26.477  52.746  43.486  1.00  0.00     0.179 C 
ATOM     22  O   UNL     1     -24.208  52.035  42.909  1.00  0.00    -0.362 OA
ATOM     23  C   UNL     1     -26.150  53.820  42.421  1.00  0.00     0.177 C 
ATOM     24  C   UNL     1     -23.653  53.341  42.856  1.00  0.00     0.176 C 
ATOM     25  C   UNL     1     -24.749  54.439  42.640  1.00  0.00     0.177 C 
BRANCH  21  26
ATOM     26  O   UNL     1     -27.048  53.345  44.623  1.00  0.00    -0.387 OA
ATOM     27  H   UNL     1     -26.614  52.937  45.417  1.00  0.00     0.211 HD
ENDBRANCH  21  26
BRANCH  23  28
ATOM     28  O   UNL     1     -26.203  53.225  41.148  1.00  0.00    -0.387 OA
ATOM     29  H   UNL     1     -25.294  52.877  40.953  1.00  0.00     0.211 HD
ENDBRANCH  23  28
BRANCH  24  30
ATOM     30  C   UNL     1     -22.611  53.365  41.731  1.00  0.00     0.191 C 
BRANCH  30  31
ATOM     31  O   UNL     1     -23.245  53.270  40.484  1.00  0.00    -0.394 OA
ATOM     32  H   UNL     1     -23.382  54.203  40.175  1.00  0.00     0.210 HD
ENDBRANCH  30  31
ENDBRANCH  24  30
BRANCH  25  33
ATOM     33  O   UNL     1     -24.770  55.353  43.710  1.00  0.00    -0.388 OA
ATOM     34  H   UNL     1     -25.714  55.602  43.884  1.00  0.00     0.211 HD
ENDBRANCH  25  33
ENDBRANCH  11  20
BRANCH  10  35
ATOM     35  O   UNL     1     -24.617  50.652  46.424  1.00  0.00    -0.507 OA
ATOM     36  H   UNL     1     -25.143  51.267  47.034  1.00  0.00     0.293 HD
ENDBRANCH  10  35
TORSDOF 9
ENDMDL
MODEL 7
REMARK VINA RESULT:    -4.155      2.043      4.099
REMARK INTER + INTRA:          -6.705
REMARK INTER:                  -5.440
REMARK INTRA:                  -1.265
REMARK UNBOUND:                -1.093
REMARK SMILES O=c1c(-c2ccc(O)cc2)coc2c([C@H]3O[C@@H](CO)[C@H](O)[C@@H](O)[C@@H]3O)c(O)ccc12
REMARK SMILES IDX 3 1 11 2 12 3 13 4 30 5 2 6 1 7 29 8 28 9 26 10 14 11 4 12
REMARK SMILES IDX 5 13 6 14 7 15 10 16 9 17 8 18 15 20 24 21 16 22 22 23 17 24
REMARK SMILES IDX 20 25 25 26 23 28 18 30 19 31 21 33 27 35
REMARK H PARENT 8 19 25 27 23 29 19 32 21 34 27 36
REMARK Flexibility Score: inf
ROOT
ATOM      1  C   UNL     1     -25.693  53.551  45.188  1.00  0.00     0.065 A 
ATOM      2  C   UNL     1     -26.423  52.364  45.035  1.00  0.00     0.208 A 
ATOM      3  O   UNL     1     -26.391  51.685  43.895  1.00  0.00    -0.463 OA
ATOM      4  C   UNL     1     -25.680  52.072  42.837  1.00  0.00     0.147 A 
ATOM      5  C   UNL     1     -24.913  53.258  42.905  1.00  0.00     0.066 A 
ATOM      6  C   UNL     1     -24.932  54.006  44.096  1.00  0.00     0.200 A 
ATOM      7  O   UNL     1     -24.286  55.087  44.180  1.00  0.00    -0.288 OA
ATOM      8  C   UNL     1     -24.154  53.658  41.794  1.00  0.00     0.020 A 
ATOM      9  C   UNL     1     -24.141  52.882  40.637  1.00  0.00     0.047 A 
ATOM     10  C   UNL     1     -24.891  51.703  40.561  1.00  0.00     0.125 A 
ATOM     11  C   UNL     1     -25.692  51.298  41.653  1.00  0.00     0.069 A 
ENDROOT
BRANCH   1  12
ATOM     12  C   UNL     1     -25.741  54.288  46.475  1.00  0.00    -0.011 A 
ATOM     13  C   UNL     1     -24.776  54.044  47.468  1.00  0.00     0.013 A 
ATOM     14  C   UNL     1     -24.815  54.741  48.680  1.00  0.00     0.047 A 
ATOM     15  C   UNL     1     -25.812  55.692  48.912  1.00  0.00     0.115 A 
ATOM     16  C   UNL     1     -26.737  55.252  46.713  1.00  0.00     0.013 A 
ATOM     17  C   UNL     1     -26.772  55.949  47.926  1.00  0.00     0.047 A 
BRANCH  15  18
ATOM     18  O   UNL     1     -25.840  56.377  50.125  1.00  0.00    -0.508 OA
ATOM     19  H   UNL     1     -26.554  57.066  50.328  1.00  0.00     0.293 HD
ENDBRANCH  15  18
ENDBRANCH   1  12
BRANCH  11  20
ATOM     20  C   UNL     1     -26.495  50.005  41.585  1.00  0.00     0.188 C 
ATOM     21  C   UNL     1     -25.650  48.814  42.109  1.00  0.00     0.179 C 
ATOM     22  O   UNL     1     -26.915  49.777  40.250  1.00  0.00    -0.362 OA
ATOM     23  C   UNL     1     -25.943  47.517  41.317  1.00  0.00     0.177 C 
ATOM     24  C   UNL     1     -27.908  48.763  40.206  1.00  0.00     0.176 C 
ATOM     25  C   UNL     1     -27.423  47.433  40.877  1.00  0.00     0.177 C 
BRANCH  21  26
ATOM     26  O   UNL     1     -25.923  48.622  43.475  1.00  0.00    -0.387 OA
ATOM     27  H   UNL     1     -26.659  47.959  43.535  1.00  0.00     0.211 HD
ENDBRANCH  21  26
BRANCH  23  28
ATOM     28  O   UNL     1     -25.116  47.486  40.179  1.00  0.00    -0.387 OA
ATOM     29  H   UNL     1     -25.635  47.883  39.432  1.00  0.00     0.211 HD
ENDBRANCH  23  28
BRANCH  24  30
ATOM     30  C   UNL     1     -28.289  48.540  38.737  1.00  0.00     0.191 C 
BRANCH  30  31
ATOM     31  O   UNL     1     -27.137  48.513  37.939  1.00  0.00    -0.394 OA
ATOM     32  H   UNL     1     -27.275  47.782  37.283  1.00  0.00     0.210 HD
ENDBRANCH  30  31
ENDBRANCH  24  30
BRANCH  25  33
ATOM     33  O   UNL     1     -28.247  47.083  41.963  1.00  0.00    -0.388 OA
ATOM     34  H   UNL     1     -27.665  46.911  42.747  1.00  0.00     0.211 HD
ENDBRANCH  25  33
ENDBRANCH  11  20
BRANCH  10  35
ATOM     35  O   UNL     1     -24.835  50.928  39.401  1.00  0.00    -0.507 OA
ATOM     36  H   UNL     1     -25.210  49.987  39.370  1.00  0.00     0.293 HD
ENDBRANCH  10  35
TORSDOF 9
ENDMDL
MODEL 8
REMARK VINA RESULT:    -4.077      1.569      2.416
REMARK INTER + INTRA:          -6.601
REMARK INTER:                  -5.729
REMARK INTRA:                  -0.872
REMARK UNBOUND:                -1.093
REMARK SMILES O=c1c(-c2ccc(O)cc2)coc2c([C@H]3O[C@@H](CO)[C@H](O)[C@@H](O)[C@@H]3O)c(O)ccc12
REMARK SMILES IDX 3 1 11 2 12 3 13 4 30 5 2 6 1 7 29 8 28 9 26 10 14 11 4 12
REMARK SMILES IDX 5 13 6 14 7 15 10 16 9 17 8 18 15 20 24 21 16 22 22 23 17 24
REMARK SMILES IDX 20 25 25 26 23 28 18 30 19 31 21 33 27 35
REMARK H PARENT 8 19 25 27 23 29 19 32 21 34 27 36
REMARK Flexibility Score: inf
ROOT
ATOM      1  C   UNL     1     -25.573  52.225  43.495  1.00  0.00     0.065 A 
ATOM      2  C   UNL     1     -26.690  51.806  42.760  1.00  0.00     0.208 A 
ATOM      3  O   UNL     1     -26.701  50.631  42.144  1.00  0.00    -0.463 OA
ATOM      4  C   UNL     1     -25.676  49.782  42.179  1.00  0.00     0.147 A 
ATOM      5  C   UNL     1     -24.508  50.123  42.899  1.00  0.00     0.066 A 
ATOM      6  C   UNL     1     -24.460  51.366  43.555  1.00  0.00     0.200 A 
ATOM      7  O   UNL     1     -23.420  51.718  44.179  1.00  0.00    -0.288 OA
ATOM      8  C   UNL     1     -23.432  49.222  42.944  1.00  0.00     0.020 A 
ATOM      9  C   UNL     1     -23.522  47.990  42.300  1.00  0.00     0.047 A 
ATOM     10  C   UNL     1     -24.676  47.639  41.590  1.00  0.00     0.125 A 
ATOM     11  C   UNL     1     -25.757  48.543  41.499  1.00  0.00     0.069 A 
ENDROOT
BRANCH   1  12
ATOM     12  C   UNL     1     -25.588  53.541  44.180  1.00  0.00    -0.011 A 
ATOM     13  C   UNL     1     -24.849  54.620  43.659  1.00  0.00     0.013 A 
ATOM     14  C   UNL     1     -24.865  55.863  44.299  1.00  0.00     0.047 A 
ATOM     15  C   UNL     1     -25.621  56.048  45.459  1.00  0.00     0.115 A 
ATOM     16  C   UNL     1     -26.352  53.737  45.344  1.00  0.00     0.013 A 
ATOM     17  C   UNL     1     -26.367  54.982  45.980  1.00  0.00     0.047 A 
BRANCH  15  18
ATOM     18  O   UNL     1     -25.625  57.291  46.087  1.00  0.00    -0.508 OA
ATOM     19  H   UNL     1     -25.464  58.146  45.569  1.00  0.00     0.293 HD
ENDBRANCH  15  18
ENDBRANCH   1  12
BRANCH  11  20
ATOM     20  C   UNL     1     -27.024  48.160  40.745  1.00  0.00     0.188 C 
ATOM     21  C   UNL     1     -27.653  46.880  41.358  1.00  0.00     0.179 C 
ATOM     22  O   UNL     1     -26.720  47.964  39.374  1.00  0.00    -0.362 OA
ATOM     23  C   UNL     1     -28.283  45.979  40.270  1.00  0.00     0.177 C 
ATOM     24  C   UNL     1     -27.910  47.909  38.601  1.00  0.00     0.176 C 
ATOM     25  C   UNL     1     -28.898  46.809  39.119  1.00  0.00     0.177 C 
BRANCH  21  26
ATOM     26  O   UNL     1     -28.625  47.254  42.303  1.00  0.00    -0.387 OA
ATOM     27  H   UNL     1     -28.547  48.236  42.429  1.00  0.00     0.211 HD
ENDBRANCH  21  26
BRANCH  23  28
ATOM     28  O   UNL     1     -27.287  45.131  39.753  1.00  0.00    -0.387 OA
ATOM     29  H   UNL     1     -26.971  45.539  38.904  1.00  0.00     0.211 HD
ENDBRANCH  23  28
BRANCH  24  30
ATOM     30  C   UNL     1     -27.512  47.659  37.141  1.00  0.00     0.191 C 
BRANCH  30  31
ATOM     31  O   UNL     1     -27.423  48.875  36.451  1.00  0.00    -0.394 OA
ATOM     32  H   UNL     1     -26.594  49.314  36.773  1.00  0.00     0.210 HD
ENDBRANCH  30  31
ENDBRANCH  24  30
BRANCH  25  33
ATOM     33  O   UNL     1     -30.125  47.375  39.512  1.00  0.00    -0.388 OA
ATOM     34  H   UNL     1     -29.979  48.342  39.678  1.00  0.00     0.211 HD
ENDBRANCH  25  33
ENDBRANCH  11  20
BRANCH  10  35
ATOM     35  O   UNL     1     -24.750  46.386  40.980  1.00  0.00    -0.507 OA
ATOM     36  H   UNL     1     -25.051  45.562  41.489  1.00  0.00     0.293 HD
ENDBRANCH  10  35
TORSDOF 9
ENDMDL
MODEL 9
REMARK VINA RESULT:    -4.076      2.138      3.942
REMARK INTER + INTRA:          -6.600
REMARK INTER:                  -5.509
REMARK INTRA:                  -1.090
REMARK UNBOUND:                -1.093
REMARK SMILES O=c1c(-c2ccc(O)cc2)coc2c([C@H]3O[C@@H](CO)[C@H](O)[C@@H](O)[C@@H]3O)c(O)ccc12
REMARK SMILES IDX 3 1 11 2 12 3 13 4 30 5 2 6 1 7 29 8 28 9 26 10 14 11 4 12
REMARK SMILES IDX 5 13 6 14 7 15 10 16 9 17 8 18 15 20 24 21 16 22 22 23 17 24
REMARK SMILES IDX 20 25 25 26 23 28 18 30 19 31 21 33 27 35
REMARK H PARENT 8 19 25 27 23 29 19 32 21 34 27 36
REMARK Flexibility Score: inf
ROOT
ATOM      1  C   UNL     1     -25.326  52.704  43.774  1.00  0.00     0.065 A 
ATOM      2  C   UNL     1     -26.126  51.652  44.241  1.00  0.00     0.208 A 
ATOM      3  O   UNL     1     -26.387  50.601  43.475  1.00  0.00    -0.463 OA
ATOM      4  C   UNL     1     -25.920  50.469  42.235  1.00  0.00     0.147 A 
ATOM      5  C   UNL     1     -25.103  51.484  41.684  1.00  0.00     0.066 A 
ATOM      6  C   UNL     1     -24.814  52.616  42.467  1.00  0.00     0.200 A 
ATOM      7  O   UNL     1     -24.116  53.556  41.994  1.00  0.00    -0.288 OA
ATOM      8  C   UNL     1     -24.601  51.338  40.381  1.00  0.00     0.020 A 
ATOM      9  C   UNL     1     -24.889  50.193  39.642  1.00  0.00     0.047 A 
ATOM     10  C   UNL     1     -25.691  49.180  40.179  1.00  0.00     0.125 A 
ATOM     11  C   UNL     1     -26.238  49.319  41.475  1.00  0.00     0.069 A 
ENDROOT
BRANCH   1  12
ATOM     12  C   UNL     1     -25.043  53.866  44.652  1.00  0.00    -0.011 A 
ATOM     13  C   UNL     1     -25.895  54.986  44.643  1.00  0.00     0.013 A 
ATOM     14  C   UNL     1     -25.634  56.080  45.472  1.00  0.00     0.047 A 
ATOM     15  C   UNL     1     -24.527  56.069  46.326  1.00  0.00     0.115 A 
ATOM     16  C   UNL     1     -23.935  53.859  45.518  1.00  0.00     0.013 A 
ATOM     17  C   UNL     1     -23.679  54.954  46.349  1.00  0.00     0.047 A 
BRANCH  15  18
ATOM     18  O   UNL     1     -24.279  57.167  47.145  1.00  0.00    -0.508 OA
ATOM     19  H   UNL     1     -23.978  58.056  46.763  1.00  0.00     0.293 HD
ENDBRANCH  15  18
ENDBRANCH   1  12
BRANCH  11  20
ATOM     20  C   UNL     1     -27.096  48.212  42.074  1.00  0.00     0.188 C 
ATOM     21  C   UNL     1     -26.198  47.105  42.690  1.00  0.00     0.179 C 
ATOM     22  O   UNL     1     -27.945  47.675  41.075  1.00  0.00    -0.362 OA
ATOM     23  C   UNL     1     -26.813  45.699  42.491  1.00  0.00     0.177 C 
ATOM     24  C   UNL     1     -28.957  46.868  41.660  1.00  0.00     0.176 C 
ATOM     25  C   UNL     1     -28.358  45.732  42.557  1.00  0.00     0.177 C 
BRANCH  21  26
ATOM     26  O   UNL     1     -26.017  47.368  44.059  1.00  0.00    -0.387 OA
ATOM     27  H   UNL     1     -25.465  48.190  44.127  1.00  0.00     0.211 HD
ENDBRANCH  21  26
BRANCH  23  28
ATOM     28  O   UNL     1     -26.411  45.202  41.238  1.00  0.00    -0.387 OA
ATOM     29  H   UNL     1     -25.424  45.302  41.190  1.00  0.00     0.211 HD
ENDBRANCH  23  28
BRANCH  24  30
ATOM     30  C   UNL     1     -29.813  46.290  40.526  1.00  0.00     0.191 C 
BRANCH  30  31
ATOM     31  O   UNL     1     -30.124  47.293  39.598  1.00  0.00    -0.394 OA
ATOM     32  H   UNL     1     -30.832  47.846  40.019  1.00  0.00     0.210 HD
ENDBRANCH  30  31
ENDBRANCH  24  30
BRANCH  25  33
ATOM     33  O   UNL     1     -28.797  45.853  43.889  1.00  0.00    -0.388 OA
ATOM     34  H   UNL     1     -29.480  46.572  43.923  1.00  0.00     0.211 HD
ENDBRANCH  25  33
ENDBRANCH  11  20
BRANCH  10  35
ATOM     35  O   UNL     1     -25.938  48.030  39.429  1.00  0.00    -0.507 OA
ATOM     36  H   UNL     1     -26.258  48.079  38.468  1.00  0.00     0.293 HD
ENDBRANCH  10  35
TORSDOF 9
ENDMDL
