MODEL 1
REMARK VINA RESULT:    -5.069      0.000      0.000
REMARK INTER + INTRA:          -8.407
REMARK INTER:                  -8.032
REMARK INTRA:                  -0.375
REMARK UNBOUND:                -0.375
REMARK SMILES CCCCCCCCCCCC(=O)[O-]
REMARK SMILES IDX 7 1 8 2 9 3 10 4 11 5 12 6 13 7 14 8 6 9 5 10 4 11 3 12 2 13
REMARK SMILES IDX 1 14
REMARK H PARENT
REMARK Flexibility Score: inf
ROOT
ATOM      1  C   UNL     1      21.218 -12.686  21.247  1.00  0.00     0.000 C 
ENDROOT
BRANCH   1   2
ATOM      2  C   UNL     1      20.541 -11.887  22.375  1.00  0.00     0.000 C 
BRANCH   2   3
ATOM      3  C   UNL     1      21.487 -10.997  23.208  1.00  0.00     0.000 C 
BRANCH   3   4
ATOM      4  C   UNL     1      20.796 -10.127  24.276  1.00  0.00     0.006 C 
BRANCH   4   5
ATOM      5  C   UNL     1      21.118  -8.627  24.178  1.00  0.00     0.053 C 
BRANCH   5   6
ATOM      6  C   UNL     1      20.707  -7.885  25.413  1.00  0.00     0.041 C 
ATOM      7  O   UNL     1      21.528  -7.715  26.353  1.00  0.00    -0.550 OA
ATOM      8  O   UNL     1      19.428  -7.350  25.511  1.00  0.00    -0.550 OA
ENDBRANCH   5   6
ENDBRANCH   4   5
ENDBRANCH   3   4
ENDBRANCH   2   3
ENDBRANCH   1   2
BRANCH   1   9
ATOM      9  C   UNL     1      22.735 -12.838  21.453  1.00  0.00     0.000 C 
BRANCH   9  10
ATOM     10  C   UNL     1      23.214 -14.278  21.212  1.00  0.00    -0.000 C 
BRANCH  10  11
ATOM     11  C   UNL     1      22.669 -14.870  19.900  1.00  0.00    -0.000 C 
BRANCH  11  12
ATOM     12  C   UNL     1      23.080 -16.346  19.714  1.00  0.00    -0.000 C 
BRANCH  12  13
ATOM     13  C   UNL     1      23.026 -16.819  18.251  1.00  0.00    -0.003 C 
ATOM     14  C   UNL     1      22.815 -15.678  17.259  1.00  0.00     0.004 C 
ENDBRANCH  12  13
ENDBRANCH  11  12
ENDBRANCH  10  11
ENDBRANCH   9  10
ENDBRANCH   1   9
TORSDOF 10
ENDMDL
MODEL 2
REMARK VINA RESULT:    -5.030      1.205      1.791
REMARK INTER + INTRA:          -8.345
REMARK INTER:                  -7.925
REMARK INTRA:                  -0.419
REMARK UNBOUND:                -0.375
REMARK SMILES CCCCCCCCCCCC(=O)[O-]
REMARK SMILES IDX 7 1 8 2 9 3 10 4 11 5 12 6 13 7 14 8 6 9 5 10 4 11 3 12 2 13
REMARK SMILES IDX 1 14
REMARK H PARENT
REMARK Flexibility Score: inf
ROOT
ATOM      1  C   UNL     1      21.164 -12.616  21.320  1.00  0.00     0.000 C 
ENDROOT
BRANCH   1   2
ATOM      2  C   UNL     1      22.416 -11.838  21.760  1.00  0.00     0.000 C 
BRANCH   2   3
ATOM      3  C   UNL     1      22.141 -10.580  22.610  1.00  0.00     0.000 C 
BRANCH   3   4
ATOM      4  C   UNL     1      20.878 -10.648  23.491  1.00  0.00     0.006 C 
BRANCH   4   5
ATOM      5  C   UNL     1      20.829  -9.598  24.613  1.00  0.00     0.053 C 
BRANCH   5   6
ATOM      6  C   UNL     1      21.370  -8.275  24.165  1.00  0.00     0.041 C 
ATOM      7  O   UNL     1      20.662  -7.505  23.464  1.00  0.00    -0.550 OA
ATOM      8  O   UNL     1      22.644  -7.877  24.551  1.00  0.00    -0.550 OA
ENDBRANCH   5   6
ENDBRANCH   4   5
ENDBRANCH   3   4
ENDBRANCH   2   3
ENDBRANCH   1   2
BRANCH   1   9
ATOM      9  C   UNL     1      21.475 -13.708  20.281  1.00  0.00     0.000 C 
BRANCH   9  10
ATOM     10  C   UNL     1      22.782 -14.455  20.595  1.00  0.00    -0.000 C 
BRANCH  10  11
ATOM     11  C   UNL     1      22.972 -15.706  19.719  1.00  0.00    -0.000 C 
BRANCH  11  12
ATOM     12  C   UNL     1      22.687 -15.422  18.230  1.00  0.00    -0.000 C 
BRANCH  12  13
ATOM     13  C   UNL     1      23.002 -16.611  17.306  1.00  0.00    -0.003 C 
ATOM     14  C   UNL     1      22.939 -17.959  18.022  1.00  0.00     0.004 C 
ENDBRANCH  12  13
ENDBRANCH  11  12
ENDBRANCH  10  11
ENDBRANCH   9  10
ENDBRANCH   1   9
TORSDOF 10
ENDMDL
MODEL 3
REMARK VINA RESULT:    -5.027      5.707      9.133
REMARK INTER + INTRA:          -8.341
REMARK INTER:                  -7.968
REMARK INTRA:                  -0.373
REMARK UNBOUND:                -0.375
REMARK SMILES CCCCCCCCCCCC(=O)[O-]
REMARK SMILES IDX 7 1 8 2 9 3 10 4 11 5 12 6 13 7 14 8 6 9 5 10 4 11 3 12 2 13
REMARK SMILES IDX 1 14
REMARK H PARENT
REMARK Flexibility Score: inf
ROOT
ATOM      1  C   UNL     1      22.214 -14.178  20.355  1.00  0.00     0.000 C 
ENDROOT
BRANCH   1   2
ATOM      2  C   UNL     1      22.646 -15.248  19.337  1.00  0.00     0.000 C 
BRANCH   2   3
ATOM      3  C   UNL     1      23.029 -16.614  19.945  1.00  0.00     0.000 C 
BRANCH   3   4
ATOM      4  C   UNL     1      23.685 -17.606  18.965  1.00  0.00     0.006 C 
BRANCH   4   5
ATOM      5  C   UNL     1      23.140 -17.534  17.529  1.00  0.00     0.053 C 
BRANCH   5   6
ATOM      6  C   UNL     1      22.333 -18.746  17.175  1.00  0.00     0.041 C 
ATOM      7  O   UNL     1      22.210 -19.097  15.972  1.00  0.00    -0.550 OA
ATOM      8  O   UNL     1      21.743 -19.506  18.178  1.00  0.00    -0.550 OA
ENDBRANCH   5   6
ENDBRANCH   4   5
ENDBRANCH   3   4
ENDBRANCH   2   3
ENDBRANCH   1   2
BRANCH   1   9
ATOM      9  C   UNL     1      23.360 -13.741  21.284  1.00  0.00     0.000 C 
BRANCH   9  10
ATOM     10  C   UNL     1      23.209 -12.285  21.751  1.00  0.00    -0.000 C 
BRANCH  10  11
ATOM     11  C   UNL     1      21.738 -11.881  21.957  1.00  0.00    -0.000 C 
BRANCH  11  12
ATOM     12  C   UNL     1      21.601 -10.606  22.815  1.00  0.00    -0.000 C 
BRANCH  12  13
ATOM     13  C   UNL     1      20.652 -10.772  24.015  1.00  0.00    -0.003 C 
ATOM     14  C   UNL     1      20.612  -9.545  24.922  1.00  0.00     0.004 C 
ENDBRANCH  12  13
ENDBRANCH  11  12
ENDBRANCH  10  11
ENDBRANCH   9  10
ENDBRANCH   1   9
TORSDOF 10
ENDMDL
MODEL 4
REMARK VINA RESULT:    -4.973      4.744      8.575
REMARK INTER + INTRA:          -8.255
REMARK INTER:                  -7.846
REMARK INTRA:                  -0.410
REMARK UNBOUND:                -0.375
REMARK SMILES CCCCCCCCCCCC(=O)[O-]
REMARK SMILES IDX 7 1 8 2 9 3 10 4 11 5 12 6 13 7 14 8 6 9 5 10 4 11 3 12 2 13
REMARK SMILES IDX 1 14
REMARK H PARENT
REMARK Flexibility Score: inf
ROOT
ATOM      1  C   UNL     1      21.770 -12.066  21.661  1.00  0.00     0.000 C 
ENDROOT
BRANCH   1   2
ATOM      2  C   UNL     1      23.215 -12.593  21.693  1.00  0.00     0.000 C 
BRANCH   2   3
ATOM      3  C   UNL     1      23.363 -14.114  21.481  1.00  0.00     0.000 C 
BRANCH   3   4
ATOM      4  C   UNL     1      22.600 -14.684  20.269  1.00  0.00     0.006 C 
BRANCH   4   5
ATOM      5  C   UNL     1      22.980 -16.127  19.900  1.00  0.00     0.053 C 
BRANCH   5   6
ATOM      6  C   UNL     1      22.993 -16.341  18.417  1.00  0.00     0.041 C 
ATOM      7  O   UNL     1      22.743 -15.385  17.637  1.00  0.00    -0.550 OA
ATOM      8  O   UNL     1      23.316 -17.588  17.896  1.00  0.00    -0.550 OA
ENDBRANCH   5   6
ENDBRANCH   4   5
ENDBRANCH   3   4
ENDBRANCH   2   3
ENDBRANCH   1   2
BRANCH   1   9
ATOM      9  C   UNL     1      21.590 -10.771  22.473  1.00  0.00     0.000 C 
BRANCH   9  10
ATOM     10  C   UNL     1      20.716 -10.981  23.719  1.00  0.00    -0.000 C 
BRANCH  10  11
ATOM     11  C   UNL     1      20.710  -9.755  24.650  1.00  0.00    -0.000 C 
BRANCH  11  12
ATOM     12  C   UNL     1      21.442  -8.548  24.026  1.00  0.00    -0.000 C 
BRANCH  12  13
ATOM     13  C   UNL     1      20.794  -7.195  24.364  1.00  0.00    -0.003 C 
ATOM     14  C   UNL     1      19.714  -7.299  25.438  1.00  0.00     0.004 C 
ENDBRANCH  12  13
ENDBRANCH  11  12
ENDBRANCH  10  11
ENDBRANCH   9  10
ENDBRANCH   1   9
TORSDOF 10
ENDMDL
MODEL 5
REMARK VINA RESULT:    -4.962      0.951      1.865
REMARK INTER + INTRA:          -8.238
REMARK INTER:                  -7.865
REMARK INTRA:                  -0.373
REMARK UNBOUND:                -0.375
REMARK SMILES CCCCCCCCCCCC(=O)[O-]
REMARK SMILES IDX 7 1 8 2 9 3 10 4 11 5 12 6 13 7 14 8 6 9 5 10 4 11 3 12 2 13
REMARK SMILES IDX 1 14
REMARK H PARENT
REMARK Flexibility Score: inf
ROOT
ATOM      1  C   UNL     1      22.168 -10.886  22.335  1.00  0.00     0.000 C 
ENDROOT
BRANCH   1   2
ATOM      2  C   UNL     1      20.995 -11.025  23.322  1.00  0.00     0.000 C 
BRANCH   2   3
ATOM      3  C   UNL     1      20.844  -9.865  24.328  1.00  0.00     0.000 C 
BRANCH   3   4
ATOM      4  C   UNL     1      21.359  -8.498  23.834  1.00  0.00     0.006 C 
BRANCH   4   5
ATOM      5  C   UNL     1      21.902  -7.585  24.945  1.00  0.00     0.053 C 
BRANCH   5   6
ATOM      6  C   UNL     1      20.859  -7.275  25.974  1.00  0.00     0.041 C 
ATOM      7  O   UNL     1      19.692  -6.964  25.620  1.00  0.00    -0.550 OA
ATOM      8  O   UNL     1      21.168  -7.362  27.326  1.00  0.00    -0.550 OA
ENDBRANCH   5   6
ENDBRANCH   4   5
ENDBRANCH   3   4
ENDBRANCH   2   3
ENDBRANCH   1   2
BRANCH   1   9
ATOM      9  C   UNL     1      22.496 -12.204  21.611  1.00  0.00     0.000 C 
BRANCH   9  10
ATOM     10  C   UNL     1      21.231 -12.954  21.165  1.00  0.00    -0.000 C 
BRANCH  10  11
ATOM     11  C   UNL     1      21.498 -13.919  19.996  1.00  0.00    -0.000 C 
BRANCH  11  12
ATOM     12  C   UNL     1      22.671 -14.876  20.289  1.00  0.00    -0.000 C 
BRANCH  12  13
ATOM     13  C   UNL     1      22.919 -15.905  19.173  1.00  0.00    -0.003 C 
ATOM     14  C   UNL     1      23.300 -17.285  19.703  1.00  0.00     0.004 C 
ENDBRANCH  12  13
ENDBRANCH  11  12
ENDBRANCH  10  11
ENDBRANCH   9  10
ENDBRANCH   1   9
TORSDOF 10
ENDMDL
MODEL 6
REMARK VINA RESULT:    -4.959      4.318      8.514
REMARK INTER + INTRA:          -8.233
REMARK INTER:                  -7.786
REMARK INTRA:                  -0.447
REMARK UNBOUND:                -0.375
REMARK SMILES CCCCCCCCCCCC(=O)[O-]
REMARK SMILES IDX 7 1 8 2 9 3 10 4 11 5 12 6 13 7 14 8 6 9 5 10 4 11 3 12 2 13
REMARK SMILES IDX 1 14
REMARK H PARENT
REMARK Flexibility Score: inf
ROOT
ATOM      1  C   UNL     1      21.106 -10.717  23.664  1.00  0.00     0.000 C 
ENDROOT
BRANCH   1   2
ATOM      2  C   UNL     1      20.712 -11.717  22.563  1.00  0.00     0.000 C 
BRANCH   2   3
ATOM      3  C   UNL     1      21.832 -12.062  21.559  1.00  0.00     0.000 C 
BRANCH   3   4
ATOM      4  C   UNL     1      21.652 -13.398  20.811  1.00  0.00     0.006 C 
BRANCH   4   5
ATOM      5  C   UNL     1      22.870 -14.333  20.879  1.00  0.00     0.053 C 
BRANCH   5   6
ATOM      6  C   UNL     1      22.828 -15.385  19.812  1.00  0.00     0.041 C 
ATOM      7  O   UNL     1      23.093 -16.583  20.093  1.00  0.00    -0.550 OA
ATOM      8  O   UNL     1      22.463 -15.047  18.515  1.00  0.00    -0.550 OA
ENDBRANCH   5   6
ENDBRANCH   4   5
ENDBRANCH   3   4
ENDBRANCH   2   3
ENDBRANCH   1   2
BRANCH   1   9
ATOM      9  C   UNL     1      21.825  -9.474  23.111  1.00  0.00     0.000 C 
BRANCH   9  10
ATOM     10  C   UNL     1      21.359  -8.179  23.794  1.00  0.00    -0.000 C 
BRANCH  10  11
ATOM     11  C   UNL     1      20.541  -8.446  25.071  1.00  0.00    -0.000 C 
BRANCH  11  12
ATOM     12  C   UNL     1      19.643  -7.249  25.446  1.00  0.00    -0.000 C 
BRANCH  12  13
ATOM     13  C   UNL     1      19.976  -5.964  24.668  1.00  0.00    -0.003 C 
ATOM     14  C   UNL     1      18.744  -5.290  24.069  1.00  0.00     0.004 C 
ENDBRANCH  12  13
ENDBRANCH  11  12
ENDBRANCH  10  11
ENDBRANCH   9  10
ENDBRANCH   1   9
TORSDOF 10
ENDMDL
MODEL 7
REMARK VINA RESULT:    -4.807      6.296      9.726
REMARK INTER + INTRA:          -7.992
REMARK INTER:                  -7.598
REMARK INTRA:                  -0.394
REMARK UNBOUND:                -0.375
REMARK SMILES CCCCCCCCCCCC(=O)[O-]
REMARK SMILES IDX 7 1 8 2 9 3 10 4 11 5 12 6 13 7 14 8 6 9 5 10 4 11 3 12 2 13
REMARK SMILES IDX 1 14
REMARK H PARENT
REMARK Flexibility Score: inf
ROOT
ATOM      1  C   UNL     1      22.513 -15.151  18.459  1.00  0.00     0.000 C 
ENDROOT
BRANCH   1   2
ATOM      2  C   UNL     1      22.934 -16.102  17.325  1.00  0.00     0.000 C 
BRANCH   2   3
ATOM      3  C   UNL     1      23.211 -17.557  17.758  1.00  0.00     0.000 C 
BRANCH   3   4
ATOM      4  C   UNL     1      22.409 -18.631  16.997  1.00  0.00     0.006 C 
BRANCH   4   5
ATOM      5  C   UNL     1      21.790 -19.716  17.894  1.00  0.00     0.053 C 
BRANCH   5   6
ATOM      6  C   UNL     1      20.694 -20.461  17.196  1.00  0.00     0.041 C 
ATOM      7  O   UNL     1      20.656 -20.501  15.938  1.00  0.00    -0.550 OA
ATOM      8  O   UNL     1      19.734 -21.141  17.935  1.00  0.00    -0.550 OA
ENDBRANCH   5   6
ENDBRANCH   4   5
ENDBRANCH   3   4
ENDBRANCH   2   3
ENDBRANCH   1   2
BRANCH   1   9
ATOM      9  C   UNL     1      22.933 -15.658  19.849  1.00  0.00     0.000 C 
BRANCH   9  10
ATOM     10  C   UNL     1      22.943 -14.537  20.900  1.00  0.00    -0.000 C 
BRANCH  10  11
ATOM     11  C   UNL     1      21.758 -13.568  20.741  1.00  0.00    -0.000 C 
BRANCH  11  12
ATOM     12  C   UNL     1      21.966 -12.261  21.533  1.00  0.00    -0.000 C 
BRANCH  12  13
ATOM     13  C   UNL     1      20.748 -11.855  22.380  1.00  0.00    -0.003 C 
ATOM     14  C   UNL     1      21.069 -10.780  23.415  1.00  0.00     0.004 C 
ENDBRANCH  12  13
ENDBRANCH  11  12
ENDBRANCH  10  11
ENDBRANCH   9  10
ENDBRANCH   1   9
TORSDOF 10
ENDMDL
MODEL 8
REMARK VINA RESULT:    -4.787      2.069      3.886
REMARK INTER + INTRA:          -7.961
REMARK INTER:                  -7.501
REMARK INTRA:                  -0.460
REMARK UNBOUND:                -0.375
REMARK SMILES CCCCCCCCCCCC(=O)[O-]
REMARK SMILES IDX 7 1 8 2 9 3 10 4 11 5 12 6 13 7 14 8 6 9 5 10 4 11 3 12 2 13
REMARK SMILES IDX 1 14
REMARK H PARENT
REMARK Flexibility Score: inf
ROOT
ATOM      1  C   UNL     1      20.461 -10.282  24.739  1.00  0.00     0.000 C 
ENDROOT
BRANCH   1   2
ATOM      2  C   UNL     1      20.837  -8.812  24.484  1.00  0.00     0.000 C 
BRANCH   2   3
ATOM      3  C   UNL     1      20.418  -7.825  25.594  1.00  0.00     0.000 C 
BRANCH   3   4
ATOM      4  C   UNL     1      20.477  -6.335  25.202  1.00  0.00     0.006 C 
BRANCH   4   5
ATOM      5  C   UNL     1      20.089  -6.046  23.744  1.00  0.00     0.053 C 
BRANCH   5   6
ATOM      6  C   UNL     1      18.844  -5.218  23.650  1.00  0.00     0.041 C 
ATOM      7  O   UNL     1      18.006  -5.224  24.590  1.00  0.00    -0.550 OA
ATOM      8  O   UNL     1      18.624  -4.414  22.539  1.00  0.00    -0.550 OA
ENDBRANCH   5   6
ENDBRANCH   4   5
ENDBRANCH   3   4
ENDBRANCH   2   3
ENDBRANCH   1   2
BRANCH   1   9
ATOM      9  C   UNL     1      20.692 -11.178  23.509  1.00  0.00     0.000 C 
BRANCH   9  10
ATOM     10  C   UNL     1      21.953 -10.781  22.727  1.00  0.00    -0.000 C 
BRANCH  10  11
ATOM     11  C   UNL     1      22.405 -11.872  21.741  1.00  0.00    -0.000 C 
BRANCH  11  12
ATOM     12  C   UNL     1      21.234 -12.772  21.294  1.00  0.00    -0.000 C 
BRANCH  12  13
ATOM     13  C   UNL     1      21.611 -13.761  20.178  1.00  0.00    -0.003 C 
ATOM     14  C   UNL     1      22.807 -14.640  20.534  1.00  0.00     0.004 C 
ENDBRANCH  12  13
ENDBRANCH  11  12
ENDBRANCH  10  11
ENDBRANCH   9  10
ENDBRANCH   1   9
TORSDOF 10
ENDMDL
MODEL 9
REMARK VINA RESULT:    -4.600      2.246      3.736
REMARK INTER + INTRA:          -7.664
REMARK INTER:                  -7.374
REMARK INTRA:                  -0.290
REMARK UNBOUND:                -0.375
REMARK SMILES CCCCCCCCCCCC(=O)[O-]
REMARK SMILES IDX 7 1 8 2 9 3 10 4 11 5 12 6 13 7 14 8 6 9 5 10 4 11 3 12 2 13
REMARK SMILES IDX 1 14
REMARK H PARENT
REMARK Flexibility Score: inf
ROOT
ATOM      1  C   UNL     1      22.536 -14.812  19.424  1.00  0.00     0.000 C 
ENDROOT
BRANCH   1   2
ATOM      2  C   UNL     1      22.701 -14.302  20.866  1.00  0.00     0.000 C 
BRANCH   2   3
ATOM      3  C   UNL     1      21.946 -12.997  21.191  1.00  0.00     0.000 C 
BRANCH   3   4
ATOM      4  C   UNL     1      22.739 -11.972  22.027  1.00  0.00     0.006 C 
BRANCH   4   5
ATOM      5  C   UNL     1      22.104 -10.574  22.087  1.00  0.00     0.053 C 
BRANCH   5   6
ATOM      6  C   UNL     1      21.324 -10.367  23.349  1.00  0.00     0.041 C 
ATOM      7  O   UNL     1      21.542  -9.358  24.071  1.00  0.00    -0.550 OA
ATOM      8  O   UNL     1      20.332 -11.271  23.711  1.00  0.00    -0.550 OA
ENDBRANCH   5   6
ENDBRANCH   4   5
ENDBRANCH   3   4
ENDBRANCH   2   3
ENDBRANCH   1   2
BRANCH   1   9
ATOM      9  C   UNL     1      22.989 -16.273  19.253  1.00  0.00     0.000 C 
BRANCH   9  10
ATOM     10  C   UNL     1      22.973 -16.719  17.782  1.00  0.00    -0.000 C 
BRANCH  10  11
ATOM     11  C   UNL     1      23.285 -18.217  17.616  1.00  0.00    -0.000 C 
BRANCH  11  12
ATOM     12  C   UNL     1      22.707 -18.789  16.305  1.00  0.00    -0.000 C 
BRANCH  12  13
ATOM     13  C   UNL     1      21.697 -19.929  16.525  1.00  0.00    -0.003 C 
ATOM     14  C   UNL     1      21.169 -19.994  17.956  1.00  0.00     0.004 C 
ENDBRANCH  12  13
ENDBRANCH  11  12
ENDBRANCH  10  11
ENDBRANCH   9  10
ENDBRANCH   1   9
TORSDOF 10
ENDMDL
