MODEL 1
REMARK VINA RESULT:    -3.096      0.000      0.000
REMARK INTER + INTRA:          -4.407
REMARK INTER:                  -3.820
REMARK INTRA:                  -0.587
REMARK UNBOUND:                -0.587
REMARK SMILES CCCCC=CC(C)=O
REMARK SMILES IDX 4 1 3 2 2 3 1 4 5 5 6 6 7 7 9 8 8 9
REMARK H PARENT
REMARK Flexibility Score: inf
ROOT
ATOM      1  C   UNL     1     -13.564  30.680  19.483  1.00  0.00     0.027 C 
ENDROOT
BRANCH   1   2
ATOM      2  C   UNL     1     -13.479  29.818  18.215  1.00  0.00     0.004 C 
BRANCH   2   3
ATOM      3  C   UNL     1     -13.774  28.336  18.481  1.00  0.00    -0.003 C 
ATOM      4  C   UNL     1     -13.770  28.035  19.977  1.00  0.00     0.004 C 
ENDBRANCH   2   3
ENDBRANCH   1   2
BRANCH   1   5
ATOM      5  C   UNL     1     -14.585  31.782  19.353  1.00  0.00    -0.023 C 
ATOM      6  C   UNL     1     -15.922  31.658  19.413  1.00  0.00     0.042 C 
BRANCH   6   7
ATOM      7  C   UNL     1     -16.697  30.424  19.679  1.00  0.00     0.152 C 
ATOM      8  O   UNL     1     -16.801  29.938  20.835  1.00  0.00    -0.295 OA
ATOM      9  C   UNL     1     -17.430  29.770  18.552  1.00  0.00     0.093 C 
ENDBRANCH   6   7
ENDBRANCH   1   5
TORSDOF 4
ENDMDL
MODEL 2
REMARK VINA RESULT:    -3.094      1.379      2.069
REMARK INTER + INTRA:          -4.404
REMARK INTER:                  -3.789
REMARK INTRA:                  -0.615
REMARK UNBOUND:                -0.587
REMARK SMILES CCCCC=CC(C)=O
REMARK SMILES IDX 4 1 3 2 2 3 1 4 5 5 6 6 7 7 9 8 8 9
REMARK H PARENT
REMARK Flexibility Score: inf
ROOT
ATOM      1  C   UNL     1     -13.328  29.023  18.766  1.00  0.00     0.027 C 
ENDROOT
BRANCH   1   2
ATOM      2  C   UNL     1     -13.461  28.113  19.995  1.00  0.00     0.004 C 
BRANCH   2   3
ATOM      3  C   UNL     1     -14.581  27.075  19.850  1.00  0.00    -0.003 C 
ATOM      4  C   UNL     1     -15.251  27.177  18.483  1.00  0.00     0.004 C 
ENDBRANCH   2   3
ENDBRANCH   1   2
BRANCH   1   5
ATOM      5  C   UNL     1     -13.377  30.485  19.134  1.00  0.00    -0.023 C 
ATOM      6  C   UNL     1     -14.471  31.260  19.224  1.00  0.00     0.042 C 
BRANCH   6   7
ATOM      7  C   UNL     1     -15.881  30.846  19.042  1.00  0.00     0.152 C 
ATOM      8  O   UNL     1     -16.465  30.938  17.931  1.00  0.00    -0.295 OA
ATOM      9  C   UNL     1     -16.615  30.239  20.195  1.00  0.00     0.093 C 
ENDBRANCH   6   7
ENDBRANCH   1   5
TORSDOF 4
ENDMDL
MODEL 3
REMARK VINA RESULT:    -2.988      1.925      4.275
REMARK INTER + INTRA:          -4.274
REMARK INTER:                  -4.024
REMARK INTRA:                  -0.249
REMARK UNBOUND:                -0.587
REMARK SMILES CCCCC=CC(C)=O
REMARK SMILES IDX 4 1 3 2 2 3 1 4 5 5 6 6 7 7 9 8 8 9
REMARK H PARENT
REMARK Flexibility Score: inf
ROOT
ATOM      1  C   UNL     1     -15.731  30.879  19.547  1.00  0.00     0.027 C 
ENDROOT
BRANCH   1   2
ATOM      2  C   UNL     1     -16.670  32.042  19.194  1.00  0.00     0.004 C 
BRANCH   2   3
ATOM      3  C   UNL     1     -16.161  33.396  19.705  1.00  0.00    -0.003 C 
ATOM      4  C   UNL     1     -17.246  34.464  19.607  1.00  0.00     0.004 C 
ENDBRANCH   2   3
ENDBRANCH   1   2
BRANCH   1   5
ATOM      5  C   UNL     1     -14.282  31.232  19.321  1.00  0.00    -0.023 C 
ATOM      6  C   UNL     1     -13.270  30.379  19.085  1.00  0.00     0.042 C 
BRANCH   6   7
ATOM      7  C   UNL     1     -13.353  28.908  18.936  1.00  0.00     0.152 C 
ATOM      8  O   UNL     1     -13.233  28.130  19.918  1.00  0.00    -0.295 OA
ATOM      9  C   UNL     1     -13.652  28.330  17.590  1.00  0.00     0.093 C 
ENDBRANCH   6   7
ENDBRANCH   1   5
TORSDOF 4
ENDMDL
MODEL 4
REMARK VINA RESULT:    -2.979      1.501      3.404
REMARK INTER + INTRA:          -4.263
REMARK INTER:                  -3.706
REMARK INTRA:                  -0.558
REMARK UNBOUND:                -0.587
REMARK SMILES CCCCC=CC(C)=O
REMARK SMILES IDX 4 1 3 2 2 3 1 4 5 5 6 6 7 7 9 8 8 9
REMARK H PARENT
REMARK Flexibility Score: inf
ROOT
ATOM      1  C   UNL     1     -15.242  31.222  18.658  1.00  0.00     0.027 C 
ENDROOT
BRANCH   1   2
ATOM      2  C   UNL     1     -16.212  31.338  19.843  1.00  0.00     0.004 C 
BRANCH   2   3
ATOM      3  C   UNL     1     -16.748  29.978  20.311  1.00  0.00    -0.003 C 
ATOM      4  C   UNL     1     -17.357  29.199  19.149  1.00  0.00     0.004 C 
ENDBRANCH   2   3
ENDBRANCH   1   2
BRANCH   1   5
ATOM      5  C   UNL     1     -13.826  30.965  19.108  1.00  0.00    -0.023 C 
ATOM      6  C   UNL     1     -13.187  29.782  19.133  1.00  0.00     0.042 C 
BRANCH   6   7
ATOM      7  C   UNL     1     -13.705  28.473  18.672  1.00  0.00     0.152 C 
ATOM      8  O   UNL     1     -14.161  27.617  19.474  1.00  0.00    -0.295 OA
ATOM      9  C   UNL     1     -13.747  28.185  17.206  1.00  0.00     0.093 C 
ENDBRANCH   6   7
ENDBRANCH   1   5
TORSDOF 4
ENDMDL
MODEL 5
REMARK VINA RESULT:    -2.938      1.448      3.456
REMARK INTER + INTRA:          -4.213
REMARK INTER:                  -3.607
REMARK INTRA:                  -0.606
REMARK UNBOUND:                -0.587
REMARK SMILES CCCCC=CC(C)=O
REMARK SMILES IDX 4 1 3 2 2 3 1 4 5 5 6 6 7 7 9 8 8 9
REMARK H PARENT
REMARK Flexibility Score: inf
ROOT
ATOM      1  C   UNL     1     -15.150  30.107  17.768  1.00  0.00     0.027 C 
ENDROOT
BRANCH   1   2
ATOM      2  C   UNL     1     -15.244  31.290  18.742  1.00  0.00     0.004 C 
BRANCH   2   3
ATOM      3  C   UNL     1     -16.273  31.062  19.858  1.00  0.00    -0.003 C 
ATOM      4  C   UNL     1     -17.173  29.872  19.541  1.00  0.00     0.004 C 
ENDBRANCH   2   3
ENDBRANCH   1   2
BRANCH   1   5
ATOM      5  C   UNL     1     -13.773  29.491  17.755  1.00  0.00    -0.023 C 
ATOM      6  C   UNL     1     -13.255  28.649  18.666  1.00  0.00     0.042 C 
BRANCH   6   7
ATOM      7  C   UNL     1     -13.934  28.087  19.856  1.00  0.00     0.152 C 
ATOM      8  O   UNL     1     -13.872  28.643  20.983  1.00  0.00    -0.295 OA
ATOM      9  C   UNL     1     -14.772  26.858  19.702  1.00  0.00     0.093 C 
ENDBRANCH   6   7
ENDBRANCH   1   5
TORSDOF 4
ENDMDL
MODEL 6
REMARK VINA RESULT:    -2.899      2.061      2.967
REMARK INTER + INTRA:          -4.164
REMARK INTER:                  -3.881
REMARK INTRA:                  -0.283
REMARK UNBOUND:                -0.587
REMARK SMILES CCCCC=CC(C)=O
REMARK SMILES IDX 4 1 3 2 2 3 1 4 5 5 6 6 7 7 9 8 8 9
REMARK H PARENT
REMARK Flexibility Score: inf
ROOT
ATOM      1  C   UNL     1     -13.742  29.389  17.262  1.00  0.00     0.027 C 
ENDROOT
BRANCH   1   2
ATOM      2  C   UNL     1     -14.239  27.936  17.285  1.00  0.00     0.004 C 
BRANCH   2   3
ATOM      3  C   UNL     1     -13.776  27.128  16.066  1.00  0.00    -0.003 C 
ATOM      4  C   UNL     1     -13.778  27.987  14.805  1.00  0.00     0.004 C 
ENDBRANCH   2   3
ENDBRANCH   1   2
BRANCH   1   5
ATOM      5  C   UNL     1     -13.159  29.810  18.587  1.00  0.00    -0.023 C 
ATOM      6  C   UNL     1     -13.691  30.678  19.466  1.00  0.00     0.042 C 
BRANCH   6   7
ATOM      7  C   UNL     1     -14.995  31.373  19.363  1.00  0.00     0.152 C 
ATOM      8  O   UNL     1     -15.098  32.527  18.872  1.00  0.00    -0.295 OA
ATOM      9  C   UNL     1     -16.235  30.658  19.794  1.00  0.00     0.093 C 
ENDBRANCH   6   7
ENDBRANCH   1   5
TORSDOF 4
ENDMDL
MODEL 7
REMARK VINA RESULT:    -2.885      2.854      4.139
REMARK INTER + INTRA:          -4.147
REMARK INTER:                  -3.925
REMARK INTRA:                  -0.222
REMARK UNBOUND:                -0.587
REMARK SMILES CCCCC=CC(C)=O
REMARK SMILES IDX 4 1 3 2 2 3 1 4 5 5 6 6 7 7 9 8 8 9
REMARK H PARENT
REMARK Flexibility Score: inf
ROOT
ATOM      1  C   UNL     1     -14.566  28.962  16.348  1.00  0.00     0.027 C 
ENDROOT
BRANCH   1   2
ATOM      2  C   UNL     1     -13.843  29.302  15.037  1.00  0.00     0.004 C 
BRANCH   2   3
ATOM      3  C   UNL     1     -13.509  28.060  14.201  1.00  0.00    -0.003 C 
ATOM      4  C   UNL     1     -13.355  28.416  12.725  1.00  0.00     0.004 C 
ENDBRANCH   2   3
ENDBRANCH   1   2
BRANCH   1   5
ATOM      5  C   UNL     1     -13.660  28.265  17.332  1.00  0.00    -0.023 C 
ATOM      6  C   UNL     1     -13.523  28.540  18.641  1.00  0.00     0.042 C 
BRANCH   6   7
ATOM      7  C   UNL     1     -14.270  29.547  19.428  1.00  0.00     0.152 C 
ATOM      8  O   UNL     1     -15.224  29.228  20.185  1.00  0.00    -0.295 OA
ATOM      9  C   UNL     1     -13.839  30.978  19.374  1.00  0.00     0.093 C 
ENDBRANCH   6   7
ENDBRANCH   1   5
TORSDOF 4
ENDMDL
MODEL 8
REMARK VINA RESULT:    -2.841      2.292      3.063
REMARK INTER + INTRA:          -4.092
REMARK INTER:                  -3.858
REMARK INTRA:                  -0.234
REMARK UNBOUND:                -0.587
REMARK SMILES CCCCC=CC(C)=O
REMARK SMILES IDX 4 1 3 2 2 3 1 4 5 5 6 6 7 7 9 8 8 9
REMARK H PARENT
REMARK Flexibility Score: inf
ROOT
ATOM      1  C   UNL     1     -13.751  28.571  17.228  1.00  0.00     0.027 C 
ENDROOT
BRANCH   1   2
ATOM      2  C   UNL     1     -14.122  29.101  15.836  1.00  0.00     0.004 C 
BRANCH   2   3
ATOM      3  C   UNL     1     -13.747  28.129  14.709  1.00  0.00    -0.003 C 
ATOM      4  C   UNL     1     -13.458  26.735  15.259  1.00  0.00     0.004 C 
ENDBRANCH   2   3
ENDBRANCH   1   2
BRANCH   1   5
ATOM      5  C   UNL     1     -13.354  29.680  18.170  1.00  0.00    -0.023 C 
ATOM      6  C   UNL     1     -13.900  29.961  19.366  1.00  0.00     0.042 C 
BRANCH   6   7
ATOM      7  C   UNL     1     -14.975  29.213  20.058  1.00  0.00     0.152 C 
ATOM      8  O   UNL     1     -14.754  28.126  20.653  1.00  0.00    -0.295 OA
ATOM      9  C   UNL     1     -16.350  29.797  20.108  1.00  0.00     0.093 C 
ENDBRANCH   6   7
ENDBRANCH   1   5
TORSDOF 4
ENDMDL
MODEL 9
REMARK VINA RESULT:    -2.836      2.237      3.533
REMARK INTER + INTRA:          -4.087
REMARK INTER:                  -3.602
REMARK INTRA:                  -0.485
REMARK UNBOUND:                -0.587
REMARK SMILES CCCCC=CC(C)=O
REMARK SMILES IDX 4 1 3 2 2 3 1 4 5 5 6 6 7 7 9 8 8 9
REMARK H PARENT
REMARK Flexibility Score: inf
ROOT
ATOM      1  C   UNL     1     -15.436  28.149  17.948  1.00  0.00     0.027 C 
ENDROOT
BRANCH   1   2
ATOM      2  C   UNL     1     -14.590  27.127  17.175  1.00  0.00     0.004 C 
BRANCH   2   3
ATOM      3  C   UNL     1     -13.818  27.754  16.007  1.00  0.00    -0.003 C 
ATOM      4  C   UNL     1     -14.123  29.244  15.883  1.00  0.00     0.004 C 
ENDBRANCH   2   3
ENDBRANCH   1   2
BRANCH   1   5
ATOM      5  C   UNL     1     -15.065  28.205  19.408  1.00  0.00    -0.023 C 
ATOM      6  C   UNL     1     -14.312  29.139  20.016  1.00  0.00     0.042 C 
BRANCH   6   7
ATOM      7  C   UNL     1     -13.726  30.354  19.406  1.00  0.00     0.152 C 
ATOM      8  O   UNL     1     -12.605  30.338  18.833  1.00  0.00    -0.295 OA
ATOM      9  C   UNL     1     -14.516  31.624  19.413  1.00  0.00     0.093 C 
ENDBRANCH   6   7
ENDBRANCH   1   5
TORSDOF 4
ENDMDL
