MODEL 1
REMARK VINA RESULT:    -4.229      0.000      0.000
REMARK INTER + INTRA:          -7.772
REMARK INTER:                  -6.453
REMARK INTRA:                  -1.319
REMARK UNBOUND:                -1.319
REMARK SMILES OC[C@@H]1O[C@H](O[C@@]2(CO)O[C@H](CO)[C@H](O)[C@H]2O)[C@H](O)[C@@H](O)[C@@H]1O
REMARK SMILES IDX 6 1 5 2 3 3 22 4 4 5 20 6 18 7 2 8 1 9 23 11 21 13 19 15
REMARK SMILES IDX 7 17 16 18 10 19 14 20 11 21 8 22 9 23 17 25 15 27 12 29
REMARK SMILES IDX 13 30
REMARK H PARENT 1 10 23 12 21 14 19 16 9 24 17 26 15 28 13 31
REMARK Flexibility Score: inf
ROOT
ATOM      1  O   UNL     1      -5.126  10.006  18.515  1.00  0.00    -0.313 OA
ENDROOT
BRANCH   1   2
ATOM      2  C   UNL     1      -5.308  10.210  17.120  1.00  0.00     0.285 C 
ATOM      3  C   UNL     1      -7.685  10.371  16.720  1.00  0.00     0.178 C 
ATOM      4  C   UNL     1      -7.682  11.488  17.796  1.00  0.00     0.177 C 
ATOM      5  O   UNL     1      -6.516   9.546  16.751  1.00  0.00    -0.341 OA
ATOM      6  C   UNL     1      -6.456  12.416  17.598  1.00  0.00     0.179 C 
ATOM      7  C   UNL     1      -5.340  11.720  16.781  1.00  0.00     0.202 C 
BRANCH   3   8
ATOM      8  C   UNL     1      -8.943   9.481  16.821  1.00  0.00     0.191 C 
BRANCH   8   9
ATOM      9  O   UNL     1      -8.884   8.655  17.958  1.00  0.00    -0.394 OA
ATOM     10  H   UNL     1      -9.453   7.861  17.756  1.00  0.00     0.210 HD
ENDBRANCH   8   9
ENDBRANCH   3   8
BRANCH   4  11
ATOM     11  O   UNL     1      -7.640  10.922  19.079  1.00  0.00    -0.387 OA
ATOM     12  H   UNL     1      -7.765   9.944  18.971  1.00  0.00     0.211 HD
ENDBRANCH   4  11
BRANCH   6  13
ATOM     13  O   UNL     1      -6.840  13.589  16.936  1.00  0.00    -0.387 OA
ATOM     14  H   UNL     1      -7.400  14.105  17.580  1.00  0.00     0.211 HD
ENDBRANCH   6  13
BRANCH   7  15
ATOM     15  O   UNL     1      -4.096  12.317  17.009  1.00  0.00    -0.385 OA
ATOM     16  H   UNL     1      -4.070  13.151  16.462  1.00  0.00     0.211 HD
ENDBRANCH   7  15
ENDBRANCH   1   2
BRANCH   1  17
ATOM     17  C   UNL     1      -4.335   8.923  19.028  1.00  0.00     0.224 C 
ATOM     18  C   UNL     1      -3.129   9.196  19.944  1.00  0.00     0.208 C 
ATOM     19  O   UNL     1      -3.738   8.330  17.895  1.00  0.00    -0.337 OA
ATOM     20  C   UNL     1      -2.120   9.757  18.974  1.00  0.00     0.180 C 
ATOM     21  C   UNL     1      -2.508   9.008  17.673  1.00  0.00     0.179 C 
BRANCH  17  22
ATOM     22  C   UNL     1      -5.276   7.875  19.656  1.00  0.00     0.225 C 
BRANCH  22  23
ATOM     23  O   UNL     1      -6.601   8.343  19.627  1.00  0.00    -0.391 OA
ATOM     24  H   UNL     1      -7.110   7.715  19.054  1.00  0.00     0.210 HD
ENDBRANCH  22  23
ENDBRANCH  17  22
BRANCH  18  25
ATOM     25  O   UNL     1      -3.374  10.011  21.064  1.00  0.00    -0.385 OA
ATOM     26  H   UNL     1      -2.501  10.396  21.338  1.00  0.00     0.211 HD
ENDBRANCH  18  25
BRANCH  20  27
ATOM     27  O   UNL     1      -0.808   9.493  19.418  1.00  0.00    -0.387 OA
ATOM     28  H   UNL     1      -0.740   8.513  19.530  1.00  0.00     0.211 HD
ENDBRANCH  20  27
BRANCH  21  29
ATOM     29  C   UNL     1      -1.440   8.012  17.146  1.00  0.00     0.191 C 
BRANCH  29  30
ATOM     30  O   UNL     1      -1.279   8.108  15.751  1.00  0.00    -0.394 OA
ATOM     31  H   UNL     1      -1.777   8.921  15.462  1.00  0.00     0.210 HD
ENDBRANCH  29  30
ENDBRANCH  21  29
ENDBRANCH   1  17
TORSDOF 13
ENDMDL
MODEL 2
REMARK VINA RESULT:    -4.056      2.028      5.903
REMARK INTER + INTRA:          -7.508
REMARK INTER:                  -5.898
REMARK INTRA:                  -1.610
REMARK UNBOUND:                -1.319
REMARK SMILES OC[C@@H]1O[C@H](O[C@@]2(CO)O[C@H](CO)[C@H](O)[C@H]2O)[C@H](O)[C@@H](O)[C@@H]1O
REMARK SMILES IDX 6 1 5 2 3 3 22 4 4 5 20 6 18 7 2 8 1 9 23 11 21 13 19 15
REMARK SMILES IDX 7 17 16 18 10 19 14 20 11 21 8 22 9 23 17 25 15 27 12 29
REMARK SMILES IDX 13 30
REMARK H PARENT 1 10 23 12 21 14 19 16 9 24 17 26 15 28 13 31
REMARK Flexibility Score: inf
ROOT
ATOM      1  O   UNL     1      -2.957   9.476  19.577  1.00  0.00    -0.313 OA
ENDROOT
BRANCH   1   2
ATOM      2  C   UNL     1      -2.941   8.183  20.167  1.00  0.00     0.285 C 
ATOM      3  C   UNL     1      -1.919   8.399  22.346  1.00  0.00     0.178 C 
ATOM      4  C   UNL     1      -2.983   9.495  22.618  1.00  0.00     0.177 C 
ATOM      5  O   UNL     1      -1.755   8.095  20.957  1.00  0.00    -0.341 OA
ATOM      6  C   UNL     1      -4.364   9.043  22.078  1.00  0.00     0.179 C 
ATOM      7  C   UNL     1      -4.222   7.939  21.002  1.00  0.00     0.202 C 
BRANCH   3   8
ATOM      8  C   UNL     1      -0.549   8.768  22.955  1.00  0.00     0.191 C 
BRANCH   8   9
ATOM      9  O   UNL     1       0.154   9.650  22.113  1.00  0.00    -0.394 OA
ATOM     10  H   UNL     1      -0.240   9.540  21.203  1.00  0.00     0.210 HD
ENDBRANCH   8   9
ENDBRANCH   3   8
BRANCH   4  11
ATOM     11  O   UNL     1      -2.607  10.697  21.998  1.00  0.00    -0.387 OA
ATOM     12  H   UNL     1      -1.876  10.481  21.363  1.00  0.00     0.211 HD
ENDBRANCH   4  11
BRANCH   6  13
ATOM     13  O   UNL     1      -5.157   8.558  23.125  1.00  0.00    -0.387 OA
ATOM     14  H   UNL     1      -4.773   7.674  23.383  1.00  0.00     0.211 HD
ENDBRANCH   6  13
BRANCH   7  15
ATOM     15  O   UNL     1      -5.355   7.877  20.185  1.00  0.00    -0.385 OA
ATOM     16  H   UNL     1      -5.086   7.401  19.351  1.00  0.00     0.211 HD
ENDBRANCH   7  15
ENDBRANCH   1   2
BRANCH   1  17
ATOM     17  C   UNL     1      -3.008   9.661  18.155  1.00  0.00     0.224 C 
ATOM     18  C   UNL     1      -2.853  11.063  17.539  1.00  0.00     0.208 C 
ATOM     19  O   UNL     1      -4.320   9.300  17.779  1.00  0.00    -0.337 OA
ATOM     20  C   UNL     1      -4.174  11.705  17.885  1.00  0.00     0.180 C 
ATOM     21  C   UNL     1      -5.116  10.473  17.874  1.00  0.00     0.179 C 
BRANCH  17  22
ATOM     22  C   UNL     1      -2.044   8.660  17.488  1.00  0.00     0.225 C 
BRANCH  22  23
ATOM     23  O   UNL     1      -1.657   9.137  16.224  1.00  0.00    -0.391 OA
ATOM     24  H   UNL     1      -2.443   9.609  15.848  1.00  0.00     0.210 HD
ENDBRANCH  22  23
ENDBRANCH  17  22
BRANCH  18  25
ATOM     25  O   UNL     1      -1.726  11.798  17.947  1.00  0.00    -0.385 OA
ATOM     26  H   UNL     1      -0.948  11.183  17.903  1.00  0.00     0.211 HD
ENDBRANCH  18  25
BRANCH  20  27
ATOM     27  O   UNL     1      -4.507  12.692  16.935  1.00  0.00    -0.387 OA
ATOM     28  H   UNL     1      -3.653  13.029  16.567  1.00  0.00     0.211 HD
ENDBRANCH  20  27
BRANCH  21  29
ATOM     29  C   UNL     1      -6.189  10.480  16.750  1.00  0.00     0.191 C 
BRANCH  29  30
ATOM     30  O   UNL     1      -7.171  11.463  16.971  1.00  0.00    -0.394 OA
ATOM     31  H   UNL     1      -6.881  12.273  16.469  1.00  0.00     0.210 HD
ENDBRANCH  29  30
ENDBRANCH  21  29
ENDBRANCH   1  17
TORSDOF 13
ENDMDL
MODEL 3
REMARK VINA RESULT:    -3.542      1.405      2.490
REMARK INTER + INTRA:          -6.725
REMARK INTER:                  -5.594
REMARK INTRA:                  -1.131
REMARK UNBOUND:                -1.319
REMARK SMILES OC[C@@H]1O[C@H](O[C@@]2(CO)O[C@H](CO)[C@H](O)[C@H]2O)[C@H](O)[C@@H](O)[C@@H]1O
REMARK SMILES IDX 6 1 5 2 3 3 22 4 4 5 20 6 18 7 2 8 1 9 23 11 21 13 19 15
REMARK SMILES IDX 7 17 16 18 10 19 14 20 11 21 8 22 9 23 17 25 15 27 12 29
REMARK SMILES IDX 13 30
REMARK H PARENT 1 10 23 12 21 14 19 16 9 24 17 26 15 28 13 31
REMARK Flexibility Score: inf
ROOT
ATOM      1  O   UNL     1      -4.751  10.060  18.112  1.00  0.00    -0.313 OA
ENDROOT
BRANCH   1   2
ATOM      2  C   UNL     1      -5.207  10.233  16.777  1.00  0.00     0.285 C 
ATOM      3  C   UNL     1      -7.622  10.270  16.841  1.00  0.00     0.178 C 
ATOM      4  C   UNL     1      -7.469  11.403  17.890  1.00  0.00     0.177 C 
ATOM      5  O   UNL     1      -6.427   9.504  16.651  1.00  0.00    -0.341 OA
ATOM      6  C   UNL     1      -6.353  12.387  17.454  1.00  0.00     0.179 C 
ATOM      7  C   UNL     1      -5.381  11.734  16.442  1.00  0.00     0.202 C 
BRANCH   3   8
ATOM      8  C   UNL     1      -8.790   9.322  17.188  1.00  0.00     0.191 C 
BRANCH   8   9
ATOM      9  O   UNL     1      -8.409   8.398  18.178  1.00  0.00    -0.394 OA
ATOM     10  H   UNL     1      -7.763   7.773  17.743  1.00  0.00     0.210 HD
ENDBRANCH   8   9
ENDBRANCH   3   8
BRANCH   4  11
ATOM     11  O   UNL     1      -7.153  10.861  19.144  1.00  0.00    -0.387 OA
ATOM     12  H   UNL     1      -6.172  10.713  19.159  1.00  0.00     0.211 HD
ENDBRANCH   4  11
BRANCH   6  13
ATOM     13  O   UNL     1      -6.917  13.529  16.871  1.00  0.00    -0.387 OA
ATOM     14  H   UNL     1      -6.187  14.208  16.819  1.00  0.00     0.211 HD
ENDBRANCH   6  13
BRANCH   7  15
ATOM     15  O   UNL     1      -4.149  12.395  16.422  1.00  0.00    -0.385 OA
ATOM     16  H   UNL     1      -3.736  12.267  17.321  1.00  0.00     0.211 HD
ENDBRANCH   7  15
ENDBRANCH   1   2
BRANCH   1  17
ATOM     17  C   UNL     1      -3.395   9.695  18.411  1.00  0.00     0.224 C 
ATOM     18  C   UNL     1      -2.965   9.384  19.855  1.00  0.00     0.208 C 
ATOM     19  O   UNL     1      -2.625  10.834  18.096  1.00  0.00    -0.337 OA
ATOM     20  C   UNL     1      -2.959  10.755  20.483  1.00  0.00     0.180 C 
ATOM     21  C   UNL     1      -2.575  11.638  19.267  1.00  0.00     0.179 C 
BRANCH  17  22
ATOM     22  C   UNL     1      -2.963   8.565  17.454  1.00  0.00     0.225 C 
BRANCH  22  23
ATOM     23  O   UNL     1      -1.982   9.040  16.566  1.00  0.00    -0.391 OA
ATOM     24  H   UNL     1      -1.558   8.241  16.161  1.00  0.00     0.210 HD
ENDBRANCH  22  23
ENDBRANCH  17  22
BRANCH  18  25
ATOM     25  O   UNL     1      -3.742   8.434  20.542  1.00  0.00    -0.385 OA
ATOM     26  H   UNL     1      -3.110   7.803  20.977  1.00  0.00     0.211 HD
ENDBRANCH  18  25
BRANCH  20  27
ATOM     27  O   UNL     1      -2.035  10.808  21.546  1.00  0.00    -0.387 OA
ATOM     28  H   UNL     1      -2.351  11.517  22.159  1.00  0.00     0.211 HD
ENDBRANCH  20  27
BRANCH  21  29
ATOM     29  C   UNL     1      -1.191  12.335  19.375  1.00  0.00     0.191 C 
BRANCH  29  30
ATOM     30  O   UNL     1      -1.255  13.686  18.987  1.00  0.00    -0.394 OA
ATOM     31  H   UNL     1      -1.007  14.224  19.789  1.00  0.00     0.210 HD
ENDBRANCH  29  30
ENDBRANCH  21  29
ENDBRANCH   1  17
TORSDOF 13
ENDMDL
MODEL 4
REMARK VINA RESULT:    -3.499      4.151      7.230
REMARK INTER + INTRA:          -6.658
REMARK INTER:                  -5.053
REMARK INTRA:                  -1.605
REMARK UNBOUND:                -1.319
REMARK SMILES OC[C@@H]1O[C@H](O[C@@]2(CO)O[C@H](CO)[C@H](O)[C@H]2O)[C@H](O)[C@@H](O)[C@@H]1O
REMARK SMILES IDX 6 1 5 2 3 3 22 4 4 5 20 6 18 7 2 8 1 9 23 11 21 13 19 15
REMARK SMILES IDX 7 17 16 18 10 19 14 20 11 21 8 22 9 23 17 25 15 27 12 29
REMARK SMILES IDX 13 30
REMARK H PARENT 1 10 23 12 21 14 19 16 9 24 17 26 15 28 13 31
REMARK Flexibility Score: inf
ROOT
ATOM      1  O   UNL     1       0.677  10.528  20.527  1.00  0.00    -0.313 OA
ENDROOT
BRANCH   1   2
ATOM      2  C   UNL     1      -0.578  11.015  20.984  1.00  0.00     0.285 C 
ATOM      3  C   UNL     1      -2.222  10.451  19.307  1.00  0.00     0.178 C 
ATOM      4  C   UNL     1      -1.718   8.991  19.457  1.00  0.00     0.177 C 
ATOM      5  O   UNL     1      -1.315  11.425  19.833  1.00  0.00    -0.341 OA
ATOM      6  C   UNL     1      -1.497   8.655  20.954  1.00  0.00     0.179 C 
ATOM      7  C   UNL     1      -1.324   9.935  21.807  1.00  0.00     0.202 C 
BRANCH   3   8
ATOM      8  C   UNL     1      -2.548  10.795  17.837  1.00  0.00     0.191 C 
BRANCH   8   9
ATOM      9  O   UNL     1      -2.426   9.660  17.016  1.00  0.00    -0.394 OA
ATOM     10  H   UNL     1      -2.017   9.977  16.162  1.00  0.00     0.210 HD
ENDBRANCH   8   9
ENDBRANCH   3   8
BRANCH   4  11
ATOM     11  O   UNL     1      -0.515   8.821  18.755  1.00  0.00    -0.387 OA
ATOM     12  H   UNL     1      -0.151   7.935  19.011  1.00  0.00     0.211 HD
ENDBRANCH   4  11
BRANCH   6  13
ATOM     13  O   UNL     1      -2.582   7.922  21.450  1.00  0.00    -0.387 OA
ATOM     14  H   UNL     1      -2.220   7.335  22.170  1.00  0.00     0.211 HD
ENDBRANCH   6  13
BRANCH   7  15
ATOM     15  O   UNL     1      -0.658   9.661  23.005  1.00  0.00    -0.385 OA
ATOM     16  H   UNL     1      -1.358   9.465  23.688  1.00  0.00     0.211 HD
ENDBRANCH   7  15
ENDBRANCH   1   2
BRANCH   1  17
ATOM     17  C   UNL     1       1.918  10.985  21.086  1.00  0.00     0.224 C 
ATOM     18  C   UNL     1       3.244  10.772  20.334  1.00  0.00     0.208 C 
ATOM     19  O   UNL     1       2.101  10.223  22.259  1.00  0.00    -0.337 OA
ATOM     20  C   UNL     1       3.466   9.289  20.504  1.00  0.00     0.180 C 
ATOM     21  C   UNL     1       2.802   9.045  21.884  1.00  0.00     0.179 C 
BRANCH  17  22
ATOM     22  C   UNL     1       1.759  12.458  21.511  1.00  0.00     0.225 C 
BRANCH  22  23
ATOM     23  O   UNL     1       2.164  13.304  20.464  1.00  0.00    -0.391 OA
ATOM     24  H   UNL     1       2.781  13.971  20.863  1.00  0.00     0.210 HD
ENDBRANCH  22  23
ENDBRANCH  17  22
BRANCH  18  25
ATOM     25  O   UNL     1       3.278  11.214  19.000  1.00  0.00    -0.385 OA
ATOM     26  H   UNL     1       3.767  10.525  18.478  1.00  0.00     0.211 HD
ENDBRANCH  18  25
BRANCH  20  27
ATOM     27  O   UNL     1       4.843   8.989  20.467  1.00  0.00    -0.387 OA
ATOM     28  H   UNL     1       5.106   8.988  19.514  1.00  0.00     0.211 HD
ENDBRANCH  20  27
BRANCH  21  29
ATOM     29  C   UNL     1       3.780   8.625  23.016  1.00  0.00     0.191 C 
BRANCH  29  30
ATOM     30  O   UNL     1       4.869   9.512  23.121  1.00  0.00    -0.394 OA
ATOM     31  H   UNL     1       5.001   9.685  24.093  1.00  0.00     0.210 HD
ENDBRANCH  29  30
ENDBRANCH  21  29
ENDBRANCH   1  17
TORSDOF 13
ENDMDL
MODEL 5
REMARK VINA RESULT:    -3.491      1.525      3.115
REMARK INTER + INTRA:          -6.647
REMARK INTER:                  -6.013
REMARK INTRA:                  -0.634
REMARK UNBOUND:                -1.319
REMARK SMILES OC[C@@H]1O[C@H](O[C@@]2(CO)O[C@H](CO)[C@H](O)[C@H]2O)[C@H](O)[C@@H](O)[C@@H]1O
REMARK SMILES IDX 6 1 5 2 3 3 22 4 4 5 20 6 18 7 2 8 1 9 23 11 21 13 19 15
REMARK SMILES IDX 7 17 16 18 10 19 14 20 11 21 8 22 9 23 17 25 15 27 12 29
REMARK SMILES IDX 13 30
REMARK H PARENT 1 10 23 12 21 14 19 16 9 24 17 26 15 28 13 31
REMARK Flexibility Score: inf
ROOT
ATOM      1  O   UNL     1      -4.857  10.310  17.874  1.00  0.00    -0.313 OA
ENDROOT
BRANCH   1   2
ATOM      2  C   UNL     1      -5.556  10.907  16.790  1.00  0.00     0.285 C 
ATOM      3  C   UNL     1      -7.505   9.547  16.354  1.00  0.00     0.178 C 
ATOM      4  C   UNL     1      -7.844   9.742  17.856  1.00  0.00     0.177 C 
ATOM      5  O   UNL     1      -6.143   9.849  16.033  1.00  0.00    -0.341 OA
ATOM      6  C   UNL     1      -7.586  11.211  18.275  1.00  0.00     0.179 C 
ATOM      7  C   UNL     1      -6.611  11.919  17.302  1.00  0.00     0.202 C 
BRANCH   3   8
ATOM      8  C   UNL     1      -7.841   8.120  15.872  1.00  0.00     0.191 C 
BRANCH   8   9
ATOM      9  O   UNL     1      -7.616   7.991  14.489  1.00  0.00    -0.394 OA
ATOM     10  H   UNL     1      -7.305   7.054  14.343  1.00  0.00     0.210 HD
ENDBRANCH   8   9
ENDBRANCH   3   8
BRANCH   4  11
ATOM     11  O   UNL     1      -7.060   8.884  18.643  1.00  0.00    -0.387 OA
ATOM     12  H   UNL     1      -7.368   8.986  19.580  1.00  0.00     0.211 HD
ENDBRANCH   4  11
BRANCH   6  13
ATOM     13  O   UNL     1      -8.791  11.923  18.308  1.00  0.00    -0.387 OA
ATOM     14  H   UNL     1      -9.415  11.449  17.692  1.00  0.00     0.211 HD
ENDBRANCH   6  13
BRANCH   7  15
ATOM     15  O   UNL     1      -6.002  13.023  17.907  1.00  0.00    -0.385 OA
ATOM     16  H   UNL     1      -5.383  12.668  18.603  1.00  0.00     0.211 HD
ENDBRANCH   7  15
ENDBRANCH   1   2
BRANCH   1  17
ATOM     17  C   UNL     1      -3.480  10.612  18.149  1.00  0.00     0.224 C 
ATOM     18  C   UNL     1      -2.369   9.612  17.783  1.00  0.00     0.208 C 
ATOM     19  O   UNL     1      -3.388  10.679  19.555  1.00  0.00    -0.337 OA
ATOM     20  C   UNL     1      -2.563   8.535  18.821  1.00  0.00     0.180 C 
ATOM     21  C   UNL     1      -3.102   9.364  20.015  1.00  0.00     0.179 C 
BRANCH  17  22
ATOM     22  C   UNL     1      -3.160  12.015  17.597  1.00  0.00     0.225 C 
BRANCH  22  23
ATOM     23  O   UNL     1      -2.894  12.897  18.658  1.00  0.00    -0.391 OA
ATOM     24  H   UNL     1      -2.404  12.375  19.343  1.00  0.00     0.210 HD
ENDBRANCH  22  23
ENDBRANCH  17  22
BRANCH  18  25
ATOM     25  O   UNL     1      -2.367   9.146  16.456  1.00  0.00    -0.385 OA
ATOM     26  H   UNL     1      -3.279   9.297  16.095  1.00  0.00     0.211 HD
ENDBRANCH  18  25
BRANCH  20  27
ATOM     27  O   UNL     1      -1.344   7.876  19.082  1.00  0.00    -0.387 OA
ATOM     28  H   UNL     1      -1.567   7.071  19.611  1.00  0.00     0.211 HD
ENDBRANCH  20  27
BRANCH  21  29
ATOM     29  C   UNL     1      -2.160   9.426  21.248  1.00  0.00     0.191 C 
BRANCH  29  30
ATOM     30  O   UNL     1      -2.045  10.735  21.753  1.00  0.00    -0.394 OA
ATOM     31  H   UNL     1      -1.898  10.648  22.735  1.00  0.00     0.210 HD
ENDBRANCH  29  30
ENDBRANCH  21  29
ENDBRANCH   1  17
TORSDOF 13
ENDMDL
MODEL 6
REMARK VINA RESULT:    -3.453      3.622      6.215
REMARK INTER + INTRA:          -6.588
REMARK INTER:                  -5.529
REMARK INTRA:                  -1.059
REMARK UNBOUND:                -1.319
REMARK SMILES OC[C@@H]1O[C@H](O[C@@]2(CO)O[C@H](CO)[C@H](O)[C@H]2O)[C@H](O)[C@@H](O)[C@@H]1O
REMARK SMILES IDX 6 1 5 2 3 3 22 4 4 5 20 6 18 7 2 8 1 9 23 11 21 13 19 15
REMARK SMILES IDX 7 17 16 18 10 19 14 20 11 21 8 22 9 23 17 25 15 27 12 29
REMARK SMILES IDX 13 30
REMARK H PARENT 1 10 23 12 21 14 19 16 9 24 17 26 15 28 13 31
REMARK Flexibility Score: inf
ROOT
ATOM      1  O   UNL     1       0.002   9.778  20.228  1.00  0.00    -0.313 OA
ENDROOT
BRANCH   1   2
ATOM      2  C   UNL     1      -1.015  10.622  20.750  1.00  0.00     0.285 C 
ATOM      3  C   UNL     1      -2.635  10.969  18.992  1.00  0.00     0.178 C 
ATOM      4  C   UNL     1      -2.711   9.422  18.904  1.00  0.00     0.177 C 
ATOM      5  O   UNL     1      -1.472  11.445  19.677  1.00  0.00    -0.341 OA
ATOM      6  C   UNL     1      -2.729   8.807  20.326  1.00  0.00     0.179 C 
ATOM      7  C   UNL     1      -2.158   9.787  21.379  1.00  0.00     0.202 C 
BRANCH   3   8
ATOM      8  C   UNL     1      -2.713  11.627  17.597  1.00  0.00     0.191 C 
BRANCH   8   9
ATOM      9  O   UNL     1      -3.541  10.883  16.736  1.00  0.00    -0.394 OA
ATOM     10  H   UNL     1      -3.471  11.316  15.839  1.00  0.00     0.210 HD
ENDBRANCH   8   9
ENDBRANCH   3   8
BRANCH   4  11
ATOM     11  O   UNL     1      -1.609   8.924  18.191  1.00  0.00    -0.387 OA
ATOM     12  H   UNL     1      -1.400   8.030  18.566  1.00  0.00     0.211 HD
ENDBRANCH   4  11
BRANCH   6  13
ATOM     13  O   UNL     1      -4.039   8.465  20.688  1.00  0.00    -0.387 OA
ATOM     14  H   UNL     1      -3.971   7.959  21.545  1.00  0.00     0.211 HD
ENDBRANCH   6  13
BRANCH   7  15
ATOM     15  O   UNL     1      -1.720   9.109  22.521  1.00  0.00    -0.385 OA
ATOM     16  H   UNL     1      -1.697   8.139  22.291  1.00  0.00     0.211 HD
ENDBRANCH   7  15
ENDBRANCH   1   2
BRANCH   1  17
ATOM     17  C   UNL     1       1.146   9.395  21.007  1.00  0.00     0.224 C 
ATOM     18  C   UNL     1       1.634  10.276  22.171  1.00  0.00     0.208 C 
ATOM     19  O   UNL     1       2.235   9.431  20.111  1.00  0.00    -0.337 OA
ATOM     20  C   UNL     1       2.253  11.443  21.442  1.00  0.00     0.180 C 
ATOM     21  C   UNL     1       2.760  10.752  20.149  1.00  0.00     0.179 C 
BRANCH  17  22
ATOM     22  C   UNL     1       0.970   7.933  21.462  1.00  0.00     0.225 C 
BRANCH  22  23
ATOM     23  O   UNL     1       0.884   7.875  22.864  1.00  0.00    -0.391 OA
ATOM     24  H   UNL     1       1.673   7.360  23.174  1.00  0.00     0.210 HD
ENDBRANCH  22  23
ENDBRANCH  17  22
BRANCH  18  25
ATOM     25  O   UNL     1       0.666  10.635  23.125  1.00  0.00    -0.385 OA
ATOM     26  H   UNL     1      -0.163  10.138  22.898  1.00  0.00     0.211 HD
ENDBRANCH  18  25
BRANCH  20  27
ATOM     27  O   UNL     1       3.275  12.025  22.220  1.00  0.00    -0.387 OA
ATOM     28  H   UNL     1       2.992  12.954  22.407  1.00  0.00     0.211 HD
ENDBRANCH  20  27
BRANCH  21  29
ATOM     29  C   UNL     1       4.304  10.716  19.988  1.00  0.00     0.191 C 
BRANCH  29  30
ATOM     30  O   UNL     1       4.885   9.689  20.755  1.00  0.00    -0.394 OA
ATOM     31  H   UNL     1       5.863   9.881  20.795  1.00  0.00     0.210 HD
ENDBRANCH  29  30
ENDBRANCH  21  29
ENDBRANCH   1  17
TORSDOF 13
ENDMDL
MODEL 7
REMARK VINA RESULT:    -3.453      1.663      5.857
REMARK INTER + INTRA:          -6.588
REMARK INTER:                  -4.910
REMARK INTRA:                  -1.678
REMARK UNBOUND:                -1.319
REMARK SMILES OC[C@@H]1O[C@H](O[C@@]2(CO)O[C@H](CO)[C@H](O)[C@H]2O)[C@H](O)[C@@H](O)[C@@H]1O
REMARK SMILES IDX 6 1 5 2 3 3 22 4 4 5 20 6 18 7 2 8 1 9 23 11 21 13 19 15
REMARK SMILES IDX 7 17 16 18 10 19 14 20 11 21 8 22 9 23 17 25 15 27 12 29
REMARK SMILES IDX 13 30
REMARK H PARENT 1 10 23 12 21 14 19 16 9 24 17 26 15 28 13 31
REMARK Flexibility Score: inf
ROOT
ATOM      1  O   UNL     1      -4.556  11.242  17.816  1.00  0.00    -0.313 OA
ENDROOT
BRANCH   1   2
ATOM      2  C   UNL     1      -3.340  10.732  17.286  1.00  0.00     0.285 C 
ATOM      3  C   UNL     1      -1.561  11.433  18.763  1.00  0.00     0.178 C 
ATOM      4  C   UNL     1      -2.390  10.775  19.898  1.00  0.00     0.177 C 
ATOM      5  O   UNL     1      -2.320  11.688  17.577  1.00  0.00    -0.341 OA
ATOM      6  C   UNL     1      -2.967   9.419  19.419  1.00  0.00     0.179 C 
ATOM      7  C   UNL     1      -3.022   9.336  17.874  1.00  0.00     0.202 C 
BRANCH   3   8
ATOM      8  C   UNL     1      -0.887  12.741  19.231  1.00  0.00     0.191 C 
BRANCH   8   9
ATOM      9  O   UNL     1      -1.694  13.856  18.936  1.00  0.00    -0.394 OA
ATOM     10  H   UNL     1      -2.600  13.648  19.301  1.00  0.00     0.210 HD
ENDBRANCH   8   9
ENDBRANCH   3   8
BRANCH   4  11
ATOM     11  O   UNL     1      -3.440  11.623  20.283  1.00  0.00    -0.387 OA
ATOM     12  H   UNL     1      -3.250  11.920  21.210  1.00  0.00     0.211 HD
ENDBRANCH   4  11
BRANCH   6  13
ATOM     13  O   UNL     1      -2.185   8.363  19.903  1.00  0.00    -0.387 OA
ATOM     14  H   UNL     1      -1.419   8.267  19.272  1.00  0.00     0.211 HD
ENDBRANCH   6  13
BRANCH   7  15
ATOM     15  O   UNL     1      -3.952   8.383  17.449  1.00  0.00    -0.385 OA
ATOM     16  H   UNL     1      -3.759   8.196  16.489  1.00  0.00     0.211 HD
ENDBRANCH   7  15
ENDBRANCH   1   2
BRANCH   1  17
ATOM     17  C   UNL     1      -5.712  11.458  16.993  1.00  0.00     0.224 C 
ATOM     18  C   UNL     1      -6.954  12.172  17.554  1.00  0.00     0.208 C 
ATOM     19  O   UNL     1      -6.203  10.168  16.696  1.00  0.00    -0.337 OA
ATOM     20  C   UNL     1      -7.535  11.121  18.467  1.00  0.00     0.180 C 
ATOM     21  C   UNL     1      -7.113   9.822  17.733  1.00  0.00     0.179 C 
BRANCH  17  22
ATOM     22  C   UNL     1      -5.264  12.099  15.665  1.00  0.00     0.225 C 
BRANCH  22  23
ATOM     23  O   UNL     1      -5.109  13.486  15.831  1.00  0.00    -0.391 OA
ATOM     24  H   UNL     1      -5.225  13.892  14.934  1.00  0.00     0.210 HD
ENDBRANCH  22  23
ENDBRANCH  17  22
BRANCH  18  25
ATOM     25  O   UNL     1      -6.728  13.416  18.171  1.00  0.00    -0.385 OA
ATOM     26  H   UNL     1      -5.799  13.685  17.947  1.00  0.00     0.211 HD
ENDBRANCH  18  25
BRANCH  20  27
ATOM     27  O   UNL     1      -8.930  11.286  18.586  1.00  0.00    -0.387 OA
ATOM     28  H   UNL     1      -9.280  10.450  18.980  1.00  0.00     0.211 HD
ENDBRANCH  20  27
BRANCH  21  29
ATOM     29  C   UNL     1      -8.286   8.987  17.153  1.00  0.00     0.191 C 
BRANCH  29  30
ATOM     30  O   UNL     1      -8.946   9.665  16.110  1.00  0.00    -0.394 OA
ATOM     31  H   UNL     1      -9.134   8.986  15.404  1.00  0.00     0.210 HD
ENDBRANCH  29  30
ENDBRANCH  21  29
ENDBRANCH   1  17
TORSDOF 13
ENDMDL
MODEL 8
REMARK VINA RESULT:    -3.337      1.426      5.511
REMARK INTER + INTRA:          -6.411
REMARK INTER:                  -5.053
REMARK INTRA:                  -1.358
REMARK UNBOUND:                -1.319
REMARK SMILES OC[C@@H]1O[C@H](O[C@@]2(CO)O[C@H](CO)[C@H](O)[C@H]2O)[C@H](O)[C@@H](O)[C@@H]1O
REMARK SMILES IDX 6 1 5 2 3 3 22 4 4 5 20 6 18 7 2 8 1 9 23 11 21 13 19 15
REMARK SMILES IDX 7 17 16 18 10 19 14 20 11 21 8 22 9 23 17 25 15 27 12 29
REMARK SMILES IDX 13 30
REMARK H PARENT 1 10 23 12 21 14 19 16 9 24 17 26 15 28 13 31
REMARK Flexibility Score: inf
ROOT
ATOM      1  O   UNL     1      -5.654   9.759  18.640  1.00  0.00    -0.313 OA
ENDROOT
BRANCH   1   2
ATOM      2  C   UNL     1      -5.439   8.355  18.701  1.00  0.00     0.285 C 
ATOM      3  C   UNL     1      -3.072   7.974  18.403  1.00  0.00     0.178 C 
ATOM      4  C   UNL     1      -2.874   8.964  19.581  1.00  0.00     0.177 C 
ATOM      5  O   UNL     1      -4.371   8.052  17.805  1.00  0.00    -0.341 OA
ATOM      6  C   UNL     1      -3.914   8.681  20.696  1.00  0.00     0.179 C 
ATOM      7  C   UNL     1      -5.137   7.904  20.151  1.00  0.00     0.202 C 
BRANCH   3   8
ATOM      8  C   UNL     1      -1.994   8.159  17.313  1.00  0.00     0.191 C 
BRANCH   8   9
ATOM      9  O   UNL     1      -2.070   9.443  16.743  1.00  0.00    -0.394 OA
ATOM     10  H   UNL     1      -1.546   9.403  15.895  1.00  0.00     0.210 HD
ENDBRANCH   8   9
ENDBRANCH   3   8
BRANCH   4  11
ATOM     11  O   UNL     1      -3.016  10.285  19.131  1.00  0.00    -0.387 OA
ATOM     12  H   UNL     1      -2.149  10.741  19.287  1.00  0.00     0.211 HD
ENDBRANCH   4  11
BRANCH   6  13
ATOM     13  O   UNL     1      -3.326   7.938  21.728  1.00  0.00    -0.387 OA
ATOM     14  H   UNL     1      -3.602   8.374  22.581  1.00  0.00     0.211 HD
ENDBRANCH   6  13
BRANCH   7  15
ATOM     15  O   UNL     1      -6.253   8.070  20.977  1.00  0.00    -0.385 OA
ATOM     16  H   UNL     1      -6.911   7.366  20.720  1.00  0.00     0.211 HD
ENDBRANCH   7  15
ENDBRANCH   1   2
BRANCH   1  17
ATOM     17  C   UNL     1      -6.797  10.325  17.980  1.00  0.00     0.224 C 
ATOM     18  C   UNL     1      -6.932  10.259  16.449  1.00  0.00     0.208 C 
ATOM     19  O   UNL     1      -6.719  11.712  18.226  1.00  0.00    -0.337 OA
ATOM     20  C   UNL     1      -5.904  11.269  16.000  1.00  0.00     0.180 C 
ATOM     21  C   UNL     1      -5.942  12.276  17.178  1.00  0.00     0.179 C 
BRANCH  17  22
ATOM     22  C   UNL     1      -8.075   9.804  18.667  1.00  0.00     0.225 C 
BRANCH  22  23
ATOM     23  O   UNL     1      -8.834   9.049  17.755  1.00  0.00    -0.391 OA
ATOM     24  H   UNL     1      -9.104   9.670  17.031  1.00  0.00     0.210 HD
ENDBRANCH  22  23
ENDBRANCH  17  22
BRANCH  18  25
ATOM     25  O   UNL     1      -6.788   8.987  15.867  1.00  0.00    -0.385 OA
ATOM     26  H   UNL     1      -7.594   8.463  16.113  1.00  0.00     0.211 HD
ENDBRANCH  18  25
BRANCH  20  27
ATOM     27  O   UNL     1      -6.269  11.825  14.757  1.00  0.00    -0.387 OA
ATOM     28  H   UNL     1      -6.719  11.106  14.248  1.00  0.00     0.211 HD
ENDBRANCH  20  27
BRANCH  21  29
ATOM     29  C   UNL     1      -6.483  13.687  16.817  1.00  0.00     0.191 C 
BRANCH  29  30
ATOM     30  O   UNL     1      -5.749  14.275  15.769  1.00  0.00    -0.394 OA
ATOM     31  H   UNL     1      -4.903  14.617  16.172  1.00  0.00     0.210 HD
ENDBRANCH  29  30
ENDBRANCH  21  29
ENDBRANCH   1  17
TORSDOF 13
ENDMDL
MODEL 9
REMARK VINA RESULT:    -3.318      1.827      5.626
REMARK INTER + INTRA:          -6.383
REMARK INTER:                  -4.960
REMARK INTRA:                  -1.423
REMARK UNBOUND:                -1.319
REMARK SMILES OC[C@@H]1O[C@H](O[C@@]2(CO)O[C@H](CO)[C@H](O)[C@H]2O)[C@H](O)[C@@H](O)[C@@H]1O
REMARK SMILES IDX 6 1 5 2 3 3 22 4 4 5 20 6 18 7 2 8 1 9 23 11 21 13 19 15
REMARK SMILES IDX 7 17 16 18 10 19 14 20 11 21 8 22 9 23 17 25 15 27 12 29
REMARK SMILES IDX 13 30
REMARK H PARENT 1 10 23 12 21 14 19 16 9 24 17 26 15 28 13 31
REMARK Flexibility Score: inf
ROOT
ATOM      1  O   UNL     1      -4.307   9.621  19.577  1.00  0.00    -0.313 OA
ENDROOT
BRANCH   1   2
ATOM      2  C   UNL     1      -3.850   8.485  20.300  1.00  0.00     0.285 C 
ATOM      3  C   UNL     1      -1.437   8.482  20.185  1.00  0.00     0.178 C 
ATOM      4  C   UNL     1      -1.515   9.928  20.743  1.00  0.00     0.177 C 
ATOM      5  O   UNL     1      -2.676   8.012  19.642  1.00  0.00    -0.341 OA
ATOM      6  C   UNL     1      -2.574  10.007  21.872  1.00  0.00     0.179 C 
ATOM      7  C   UNL     1      -3.590   8.842  21.784  1.00  0.00     0.202 C 
BRANCH   3   8
ATOM      8  C   UNL     1      -0.325   8.338  19.123  1.00  0.00     0.191 C 
BRANCH   8   9
ATOM      9  O   UNL     1      -0.852   7.875  17.903  1.00  0.00    -0.394 OA
ATOM     10  H   UNL     1      -0.068   7.684  17.316  1.00  0.00     0.210 HD
ENDBRANCH   8   9
ENDBRANCH   3   8
BRANCH   4  11
ATOM     11  O   UNL     1      -1.855  10.823  19.718  1.00  0.00    -0.387 OA
ATOM     12  H   UNL     1      -1.875  11.731  20.118  1.00  0.00     0.211 HD
ENDBRANCH   4  11
BRANCH   6  13
ATOM     13  O   UNL     1      -1.948   9.970  23.125  1.00  0.00    -0.387 OA
ATOM     14  H   UNL     1      -2.660  10.147  23.800  1.00  0.00     0.211 HD
ENDBRANCH   6  13
BRANCH   7  15
ATOM     15  O   UNL     1      -4.781   9.155  22.447  1.00  0.00    -0.385 OA
ATOM     16  H   UNL     1      -4.669  10.069  22.829  1.00  0.00     0.211 HD
ENDBRANCH   7  15
ENDBRANCH   1   2
BRANCH   1  17
ATOM     17  C   UNL     1      -4.789   9.521  18.229  1.00  0.00     0.224 C 
ATOM     18  C   UNL     1      -4.005  10.152  17.065  1.00  0.00     0.208 C 
ATOM     19  O   UNL     1      -6.003  10.241  18.213  1.00  0.00    -0.337 OA
ATOM     20  C   UNL     1      -4.264  11.623  17.275  1.00  0.00     0.180 C 
ATOM     21  C   UNL     1      -5.680  11.591  17.906  1.00  0.00     0.179 C 
BRANCH  17  22
ATOM     22  C   UNL     1      -5.123   8.046  17.930  1.00  0.00     0.225 C 
BRANCH  22  23
ATOM     23  O   UNL     1      -6.360   7.960  17.267  1.00  0.00    -0.391 OA
ATOM     24  H   UNL     1      -6.970   8.593  17.725  1.00  0.00     0.210 HD
ENDBRANCH  22  23
ENDBRANCH  17  22
BRANCH  18  25
ATOM     25  O   UNL     1      -2.645   9.808  16.976  1.00  0.00    -0.385 OA
ATOM     26  H   UNL     1      -2.155  10.632  16.717  1.00  0.00     0.211 HD
ENDBRANCH  18  25
BRANCH  20  27
ATOM     27  O   UNL     1      -4.197  12.316  16.049  1.00  0.00    -0.387 OA
ATOM     28  H   UNL     1      -4.678  13.170  16.181  1.00  0.00     0.211 HD
ENDBRANCH  20  27
BRANCH  21  29
ATOM     29  C   UNL     1      -6.800  12.219  17.033  1.00  0.00     0.191 C 
BRANCH  29  30
ATOM     30  O   UNL     1      -6.600  13.599  16.839  1.00  0.00    -0.394 OA
ATOM     31  H   UNL     1      -5.620  13.728  16.711  1.00  0.00     0.210 HD
ENDBRANCH  29  30
ENDBRANCH  21  29
ENDBRANCH   1  17
TORSDOF 13
ENDMDL
