MODEL 1
REMARK VINA RESULT:    -4.017      0.000      0.000
REMARK INTER + INTRA:          -4.268
REMARK INTER:                  -4.252
REMARK INTRA:                  -0.016
REMARK UNBOUND:                -0.016
REMARK SMILES O=C([O-])c1cccnc1
REMARK SMILES IDX 4 1 5 2 9 3 6 4 8 5 7 6 2 7 1 8 3 9
REMARK H PARENT
REMARK Flexibility Score: inf
ROOT
ATOM      1  C   UNL     1      -3.495  36.347  17.470  1.00  0.00     0.016 A 
ATOM      2  C   UNL     1      -3.312  37.202  18.570  1.00  0.00     0.013 A 
ATOM      3  C   UNL     1      -4.239  35.170  17.656  1.00  0.00     0.120 A 
ATOM      4  C   UNL     1      -3.862  36.875  19.811  1.00  0.00     0.021 A 
ATOM      5  N   UNL     1      -4.765  34.875  18.874  1.00  0.00    -0.264 NA
ATOM      6  C   UNL     1      -4.594  35.695  19.946  1.00  0.00     0.111 A 
ENDROOT
BRANCH   1   7
ATOM      7  C   UNL     1      -2.920  36.675  16.148  1.00  0.00     0.073 C 
ATOM      8  O   UNL     1      -1.848  36.136  15.763  1.00  0.00    -0.545 OA
ATOM      9  O   UNL     1      -3.556  37.585  15.310  1.00  0.00    -0.545 OA
ENDBRANCH   1   7
TORSDOF 1
ENDMDL
MODEL 2
REMARK VINA RESULT:    -3.982      0.907      1.602
REMARK INTER + INTRA:          -4.231
REMARK INTER:                  -4.214
REMARK INTRA:                  -0.016
REMARK UNBOUND:                -0.016
REMARK SMILES O=C([O-])c1cccnc1
REMARK SMILES IDX 4 1 5 2 9 3 6 4 8 5 7 6 2 7 1 8 3 9
REMARK H PARENT
REMARK Flexibility Score: inf
ROOT
ATOM      1  C   UNL     1      -3.509  36.339  17.527  1.00  0.00     0.016 A 
ATOM      2  C   UNL     1      -4.269  35.165  17.669  1.00  0.00     0.013 A 
ATOM      3  C   UNL     1      -3.334  37.162  18.652  1.00  0.00     0.120 A 
ATOM      4  C   UNL     1      -4.829  34.839  18.905  1.00  0.00     0.021 A 
ATOM      5  N   UNL     1      -3.890  36.820  19.845  1.00  0.00    -0.264 NA
ATOM      6  C   UNL     1      -4.627  35.687  19.993  1.00  0.00     0.111 A 
ENDROOT
BRANCH   1   7
ATOM      7  C   UNL     1      -2.908  36.703  16.226  1.00  0.00     0.073 C 
ATOM      8  O   UNL     1      -1.831  36.171  15.846  1.00  0.00    -0.545 OA
ATOM      9  O   UNL     1      -3.525  37.638  15.402  1.00  0.00    -0.545 OA
ENDBRANCH   1   7
TORSDOF 1
ENDMDL
MODEL 3
REMARK VINA RESULT:    -3.880      1.830      2.606
REMARK INTER + INTRA:          -4.123
REMARK INTER:                  -4.104
REMARK INTRA:                  -0.019
REMARK UNBOUND:                -0.016
REMARK SMILES O=C([O-])c1cccnc1
REMARK SMILES IDX 4 1 5 2 9 3 6 4 8 5 7 6 2 7 1 8 3 9
REMARK H PARENT
REMARK Flexibility Score: inf
ROOT
ATOM      1  C   UNL     1      -4.108  36.555  19.069  1.00  0.00     0.016 A 
ATOM      2  C   UNL     1      -4.629  35.268  18.853  1.00  0.00     0.013 A 
ATOM      3  C   UNL     1      -4.578  37.290  20.170  1.00  0.00     0.120 A 
ATOM      4  C   UNL     1      -5.591  34.746  19.720  1.00  0.00     0.021 A 
ATOM      5  N   UNL     1      -5.515  36.758  21.000  1.00  0.00    -0.264 NA
ATOM      6  C   UNL     1      -6.027  35.515  20.800  1.00  0.00     0.111 A 
ENDROOT
BRANCH   1   7
ATOM      7  C   UNL     1      -3.089  37.125  18.162  1.00  0.00     0.073 C 
ATOM      8  O   UNL     1      -3.278  37.142  16.916  1.00  0.00    -0.545 OA
ATOM      9  O   UNL     1      -1.907  37.650  18.672  1.00  0.00    -0.545 OA
ENDBRANCH   1   7
TORSDOF 1
ENDMDL
MODEL 4
REMARK VINA RESULT:    -3.808      2.946      4.028
REMARK INTER + INTRA:          -4.047
REMARK INTER:                  -4.031
REMARK INTRA:                  -0.016
REMARK UNBOUND:                -0.016
REMARK SMILES O=C([O-])c1cccnc1
REMARK SMILES IDX 4 1 5 2 9 3 6 4 8 5 7 6 2 7 1 8 3 9
REMARK H PARENT
REMARK Flexibility Score: inf
ROOT
ATOM      1  C   UNL     1      -3.720  36.554  18.580  1.00  0.00     0.016 A 
ATOM      2  C   UNL     1      -4.046  35.732  17.488  1.00  0.00     0.013 A 
ATOM      3  C   UNL     1      -2.540  37.313  18.517  1.00  0.00     0.120 A 
ATOM      4  C   UNL     1      -3.206  35.683  16.374  1.00  0.00     0.021 A 
ATOM      5  N   UNL     1      -1.739  37.247  17.420  1.00  0.00    -0.264 NA
ATOM      6  C   UNL     1      -2.044  36.455  16.358  1.00  0.00     0.111 A 
ENDROOT
BRANCH   1   7
ATOM      7  C   UNL     1      -4.597  36.620  19.769  1.00  0.00     0.073 C 
ATOM      8  O   UNL     1      -5.355  37.609  19.953  1.00  0.00    -0.545 OA
ATOM      9  O   UNL     1      -4.596  35.588  20.702  1.00  0.00    -0.545 OA
ENDBRANCH   1   7
TORSDOF 1
ENDMDL
MODEL 5
REMARK VINA RESULT:    -3.646      2.857      3.577
REMARK INTER + INTRA:          -3.876
REMARK INTER:                  -3.859
REMARK INTRA:                  -0.017
REMARK UNBOUND:                -0.016
REMARK SMILES O=C([O-])c1cccnc1
REMARK SMILES IDX 4 1 5 2 9 3 6 4 8 5 7 6 2 7 1 8 3 9
REMARK H PARENT
REMARK Flexibility Score: inf
ROOT
ATOM      1  C   UNL     1      -3.762  36.522  18.634  1.00  0.00     0.016 A 
ATOM      2  C   UNL     1      -2.609  37.322  18.582  1.00  0.00     0.013 A 
ATOM      3  C   UNL     1      -4.049  35.690  17.539  1.00  0.00     0.120 A 
ATOM      4  C   UNL     1      -1.778  37.281  17.461  1.00  0.00     0.021 A 
ATOM      5  N   UNL     1      -3.223  35.668  16.460  1.00  0.00    -0.264 NA
ATOM      6  C   UNL     1      -2.104  36.439  16.398  1.00  0.00     0.111 A 
ENDROOT
BRANCH   1   7
ATOM      7  C   UNL     1      -4.656  36.552  19.813  1.00  0.00     0.073 C 
ATOM      8  O   UNL     1      -4.742  35.554  20.577  1.00  0.00    -0.545 OA
ATOM      9  O   UNL     1      -5.413  37.684  20.093  1.00  0.00    -0.545 OA
ENDBRANCH   1   7
TORSDOF 1
ENDMDL
MODEL 6
REMARK VINA RESULT:    -3.616      3.255      4.036
REMARK INTER + INTRA:          -3.844
REMARK INTER:                  -3.821
REMARK INTRA:                  -0.023
REMARK UNBOUND:                -0.016
REMARK SMILES O=C([O-])c1cccnc1
REMARK SMILES IDX 4 1 5 2 9 3 6 4 8 5 7 6 2 7 1 8 3 9
REMARK H PARENT
REMARK Flexibility Score: inf
ROOT
ATOM      1  C   UNL     1      -4.707  36.208  19.503  1.00  0.00     0.016 A 
ATOM      2  C   UNL     1      -3.848  37.155  18.919  1.00  0.00     0.013 A 
ATOM      3  C   UNL     1      -4.930  34.999  18.823  1.00  0.00     0.120 A 
ATOM      4  C   UNL     1      -3.239  36.886  17.692  1.00  0.00     0.021 A 
ATOM      5  N   UNL     1      -4.324  34.762  17.629  1.00  0.00    -0.264 NA
ATOM      6  C   UNL     1      -3.491  35.671  17.055  1.00  0.00     0.111 A 
ENDROOT
BRANCH   1   7
ATOM      7  C   UNL     1      -5.362  36.475  20.802  1.00  0.00     0.073 C 
ATOM      8  O   UNL     1      -5.553  37.657  21.192  1.00  0.00    -0.545 OA
ATOM      9  O   UNL     1      -5.775  35.422  21.610  1.00  0.00    -0.545 OA
ENDBRANCH   1   7
TORSDOF 1
ENDMDL
MODEL 7
REMARK VINA RESULT:    -3.506      2.800      4.001
REMARK INTER + INTRA:          -3.728
REMARK INTER:                  -3.709
REMARK INTRA:                  -0.018
REMARK UNBOUND:                -0.016
REMARK SMILES O=C([O-])c1cccnc1
REMARK SMILES IDX 4 1 5 2 9 3 6 4 8 5 7 6 2 7 1 8 3 9
REMARK H PARENT
REMARK Flexibility Score: inf
ROOT
ATOM      1  C   UNL     1      -2.816  36.964  16.765  1.00  0.00     0.016 A 
ATOM      2  C   UNL     1      -3.722  37.613  15.910  1.00  0.00     0.013 A 
ATOM      3  C   UNL     1      -1.918  36.038  16.209  1.00  0.00     0.120 A 
ATOM      4  C   UNL     1      -3.718  37.333  14.542  1.00  0.00     0.021 A 
ATOM      5  N   UNL     1      -1.935  35.784  14.873  1.00  0.00    -0.264 NA
ATOM      6  C   UNL     1      -2.808  36.405  14.037  1.00  0.00     0.111 A 
ENDROOT
BRANCH   1   7
ATOM      7  C   UNL     1      -2.804  37.248  18.217  1.00  0.00     0.073 C 
ATOM      8  O   UNL     1      -3.854  37.123  18.903  1.00  0.00    -0.545 OA
ATOM      9  O   UNL     1      -1.633  37.656  18.845  1.00  0.00    -0.545 OA
ENDBRANCH   1   7
TORSDOF 1
ENDMDL
MODEL 8
REMARK VINA RESULT:    -2.880      4.681      5.611
REMARK INTER + INTRA:          -3.065
REMARK INTER:                  -3.041
REMARK INTRA:                  -0.023
REMARK UNBOUND:                -0.016
REMARK SMILES O=C([O-])c1cccnc1
REMARK SMILES IDX 4 1 5 2 9 3 6 4 8 5 7 6 2 7 1 8 3 9
REMARK H PARENT
REMARK Flexibility Score: inf
ROOT
ATOM      1  C   UNL     1      -5.273  35.952  21.969  1.00  0.00     0.016 A 
ATOM      2  C   UNL     1      -5.707  37.219  21.541  1.00  0.00     0.013 A 
ATOM      3  C   UNL     1      -4.522  35.167  21.079  1.00  0.00     0.120 A 
ATOM      4  C   UNL     1      -5.390  37.671  20.258  1.00  0.00     0.021 A 
ATOM      5  N   UNL     1      -4.227  35.631  19.835  1.00  0.00    -0.264 NA
ATOM      6  C   UNL     1      -4.642  36.854  19.410  1.00  0.00     0.111 A 
ENDROOT
BRANCH   1   7
ATOM      7  C   UNL     1      -5.598  35.456  23.323  1.00  0.00     0.073 C 
ATOM      8  O   UNL     1      -5.402  34.249  23.628  1.00  0.00    -0.545 OA
ATOM      9  O   UNL     1      -6.125  36.316  24.280  1.00  0.00    -0.545 OA
ENDBRANCH   1   7
TORSDOF 1
ENDMDL
MODEL 9
REMARK VINA RESULT:    -2.865      3.077      4.004
REMARK INTER + INTRA:          -3.049
REMARK INTER:                  -3.027
REMARK INTRA:                  -0.022
REMARK UNBOUND:                -0.016
REMARK SMILES O=C([O-])c1cccnc1
REMARK SMILES IDX 4 1 5 2 9 3 6 4 8 5 7 6 2 7 1 8 3 9
REMARK H PARENT
REMARK Flexibility Score: inf
ROOT
ATOM      1  C   UNL     1      -5.243  35.840  20.527  1.00  0.00     0.016 A 
ATOM      2  C   UNL     1      -5.615  34.924  21.524  1.00  0.00     0.013 A 
ATOM      3  C   UNL     1      -5.328  37.213  20.814  1.00  0.00     0.120 A 
ATOM      4  C   UNL     1      -6.057  35.383  22.767  1.00  0.00     0.021 A 
ATOM      5  N   UNL     1      -5.761  37.633  22.032  1.00  0.00    -0.264 NA
ATOM      6  C   UNL     1      -6.125  36.755  23.005  1.00  0.00     0.111 A 
ENDROOT
BRANCH   1   7
ATOM      7  C   UNL     1      -4.772  35.374  19.204  1.00  0.00     0.073 C 
ATOM      8  O   UNL     1      -5.169  34.276  18.733  1.00  0.00    -0.545 OA
ATOM      9  O   UNL     1      -3.883  36.145  18.462  1.00  0.00    -0.545 OA
ENDBRANCH   1   7
TORSDOF 1
ENDMDL
