MODEL 1
REMARK VINA RESULT:    -2.891      0.000      0.000
REMARK INTER + INTRA:          -2.891
REMARK INTER:                  -2.891
REMARK INTRA:                   0.000
REMARK UNBOUND:                 0.000
REMARK SMILES CC(=O)[O-]
REMARK SMILES IDX 1 1 2 2 3 3 4 4
REMARK H PARENT
REMARK Flexibility Score: inf
ROOT
ATOM      1  C   UNL     1     -14.283   4.257  13.508  1.00  0.00     0.063 C 
ATOM      2  C   UNL     1     -12.881   4.754  13.603  1.00  0.00     0.038 C 
ATOM      3  O   UNL     1     -12.450   5.228  14.686  1.00  0.00    -0.550 OA
ATOM      4  O   UNL     1     -12.062   4.745  12.480  1.00  0.00    -0.550 OA
ENDROOT
TORSDOF 0
ENDMDL
MODEL 2
REMARK VINA RESULT:    -2.862      0.199      1.632
REMARK INTER + INTRA:          -2.862
REMARK INTER:                  -2.862
REMARK INTRA:                   0.000
REMARK UNBOUND:                 0.000
REMARK SMILES CC(=O)[O-]
REMARK SMILES IDX 1 1 2 2 3 3 4 4
REMARK H PARENT
REMARK Flexibility Score: inf
ROOT
ATOM      1  C   UNL     1     -14.230   4.251  13.187  1.00  0.00     0.063 C 
ATOM      2  C   UNL     1     -12.842   4.753  13.397  1.00  0.00     0.038 C 
ATOM      3  O   UNL     1     -12.021   4.760  12.443  1.00  0.00    -0.550 OA
ATOM      4  O   UNL     1     -12.435   5.165  14.660  1.00  0.00    -0.550 OA
ENDROOT
TORSDOF 0
ENDMDL
MODEL 3
REMARK VINA RESULT:    -2.758     19.306     19.494
REMARK INTER + INTRA:          -2.758
REMARK INTER:                  -2.758
REMARK INTRA:                   0.000
REMARK UNBOUND:                 0.000
REMARK SMILES CC(=O)[O-]
REMARK SMILES IDX 1 1 2 2 3 3 4 4
REMARK H PARENT
REMARK Flexibility Score: inf
ROOT
ATOM      1  C   UNL     1     -20.045  19.423  22.978  1.00  0.00     0.063 C 
ATOM      2  C   UNL     1     -19.576  19.477  24.392  1.00  0.00     0.038 C 
ATOM      3  O   UNL     1     -20.277  18.978  25.311  1.00  0.00    -0.550 OA
ATOM      4  O   UNL     1     -18.388  20.125  24.707  1.00  0.00    -0.550 OA
ENDROOT
TORSDOF 0
ENDMDL
MODEL 4
REMARK VINA RESULT:    -2.635      1.501      1.889
REMARK INTER + INTRA:          -2.635
REMARK INTER:                  -2.635
REMARK INTRA:                   0.000
REMARK UNBOUND:                 0.000
REMARK SMILES CC(=O)[O-]
REMARK SMILES IDX 1 1 2 2 3 3 4 4
REMARK H PARENT
REMARK Flexibility Score: inf
ROOT
ATOM      1  C   UNL     1     -14.000   4.537  13.557  1.00  0.00     0.063 C 
ATOM      2  C   UNL     1     -13.527   5.071  14.866  1.00  0.00     0.038 C 
ATOM      3  O   UNL     1     -14.354   5.516  15.704  1.00  0.00    -0.550 OA
ATOM      4  O   UNL     1     -12.166   5.127  15.144  1.00  0.00    -0.550 OA
ENDROOT
TORSDOF 0
ENDMDL
MODEL 5
REMARK VINA RESULT:    -2.459      1.395      1.719
REMARK INTER + INTRA:          -2.459
REMARK INTER:                  -2.459
REMARK INTRA:                   0.000
REMARK UNBOUND:                 0.000
REMARK SMILES CC(=O)[O-]
REMARK SMILES IDX 1 1 2 2 3 3 4 4
REMARK H PARENT
REMARK Flexibility Score: inf
ROOT
ATOM      1  C   UNL     1     -13.091   5.007  14.592  1.00  0.00     0.063 C 
ATOM      2  C   UNL     1     -13.181   4.703  13.136  1.00  0.00     0.038 C 
ATOM      3  O   UNL     1     -14.293   4.425  12.615  1.00  0.00    -0.550 OA
ATOM      4  O   UNL     1     -12.030   4.673  12.358  1.00  0.00    -0.550 OA
ENDROOT
TORSDOF 0
ENDMDL
MODEL 6
REMARK VINA RESULT:    -2.455     18.759     19.080
REMARK INTER + INTRA:          -2.455
REMARK INTER:                  -2.455
REMARK INTRA:                   0.000
REMARK UNBOUND:                 0.000
REMARK SMILES CC(=O)[O-]
REMARK SMILES IDX 1 1 2 2 3 3 4 4
REMARK H PARENT
REMARK Flexibility Score: inf
ROOT
ATOM      1  C   UNL     1     -19.410  18.888  25.439  1.00  0.00     0.063 C 
ATOM      2  C   UNL     1     -19.451  19.224  23.987  1.00  0.00     0.038 C 
ATOM      3  O   UNL     1     -18.699  20.121  23.525  1.00  0.00    -0.550 OA
ATOM      4  O   UNL     1     -20.357  18.585  23.150  1.00  0.00    -0.550 OA
ENDROOT
TORSDOF 0
ENDMDL
MODEL 7
REMARK VINA RESULT:    -2.270      1.891      2.240
REMARK INTER + INTRA:          -2.270
REMARK INTER:                  -2.270
REMARK INTRA:                   0.000
REMARK UNBOUND:                 0.000
REMARK SMILES CC(=O)[O-]
REMARK SMILES IDX 1 1 2 2 3 3 4 4
REMARK H PARENT
REMARK Flexibility Score: inf
ROOT
ATOM      1  C   UNL     1     -12.760   2.596  11.876  1.00  0.00     0.063 C 
ATOM      2  C   UNL     1     -12.912   3.985  12.395  1.00  0.00     0.038 C 
ATOM      3  O   UNL     1     -11.927   4.768  12.404  1.00  0.00    -0.550 OA
ATOM      4  O   UNL     1     -14.129   4.403  12.919  1.00  0.00    -0.550 OA
ENDROOT
TORSDOF 0
ENDMDL
MODEL 8
REMARK VINA RESULT:    -2.166      2.467      3.180
REMARK INTER + INTRA:          -2.166
REMARK INTER:                  -2.166
REMARK INTRA:                   0.000
REMARK UNBOUND:                 0.000
REMARK SMILES CC(=O)[O-]
REMARK SMILES IDX 1 1 2 2 3 3 4 4
REMARK H PARENT
REMARK Flexibility Score: inf
ROOT
ATOM      1  C   UNL     1     -14.932   3.283  12.625  1.00  0.00     0.063 C 
ATOM      2  C   UNL     1     -14.471   3.981  11.391  1.00  0.00     0.038 C 
ATOM      3  O   UNL     1     -15.213   4.026  10.376  1.00  0.00    -0.550 OA
ATOM      4  O   UNL     1     -13.199   4.537  11.341  1.00  0.00    -0.550 OA
ENDROOT
TORSDOF 0
ENDMDL
MODEL 9
REMARK VINA RESULT:    -2.161      6.479      7.213
REMARK INTER + INTRA:          -2.161
REMARK INTER:                  -2.161
REMARK INTRA:                   0.000
REMARK UNBOUND:                 0.000
REMARK SMILES CC(=O)[O-]
REMARK SMILES IDX 1 1 2 2 3 3 4 4
REMARK H PARENT
REMARK Flexibility Score: inf
ROOT
ATOM      1  C   UNL     1     -17.667   7.397  18.889  1.00  0.00     0.063 C 
ATOM      2  C   UNL     1     -16.881   6.141  19.041  1.00  0.00     0.038 C 
ATOM      3  O   UNL     1     -16.391   5.575  18.030  1.00  0.00    -0.550 OA
ATOM      4  O   UNL     1     -16.731   5.561  20.295  1.00  0.00    -0.550 OA
ENDROOT
TORSDOF 0
ENDMDL
