MODEL 1
REMARK VINA RESULT:    -6.464      0.000      0.000
REMARK INTER + INTRA:         -10.399
REMARK INTER:                  -9.109
REMARK INTRA:                  -1.290
REMARK UNBOUND:                -1.290
REMARK SMILES COc1c(O[C@H]2O[C@H](C(=O)[O-])[C@H](O)[C@@H](O)[C@@H]2O)cc(O)c2c(=O)cc(-c3ccccc3)oc12
REMARK SMILES IDX 5 1 6 2 8 3 12 4 7 5 14 6 16 7 9 8 10 9 11 10 13 11 15 13
REMARK SMILES IDX 17 15 4 17 3 18 18 19 33 20 19 21 21 22 32 23 22 24 25 25
REMARK SMILES IDX 24 26 23 27 2 28 1 29 20 30 26 32 27 33 31 34 28 35 30 36
REMARK SMILES IDX 29 37
REMARK H PARENT 13 12 15 14 17 16 20 31
REMARK Flexibility Score: inf
ROOT
ATOM      1  O   UNL     1     -10.319  84.048  -9.212  1.00  0.00    -0.458 OA
ENDROOT
BRANCH   1   2
ATOM      2  C   UNL     1     -11.041  83.202  -8.306  1.00  0.00     0.339 C 
ATOM      3  C   UNL     1     -13.065  84.324  -8.851  1.00  0.00     0.199 C 
ATOM      4  C   UNL     1     -13.047  83.456 -10.152  1.00  0.00     0.180 C 
ATOM      5  O   UNL     1     -12.205  83.848  -7.814  1.00  0.00    -0.328 OA
ATOM      6  C   UNL     1     -12.741  81.994  -9.797  1.00  0.00     0.181 C 
ATOM      7  C   UNL     1     -11.409  81.871  -8.999  1.00  0.00     0.214 C 
BRANCH   3   8
ATOM      8  C   UNL     1     -14.456  84.415  -8.283  1.00  0.00     0.073 C 
ATOM      9  O   UNL     1     -14.977  83.419  -7.711  1.00  0.00    -0.547 OA
ATOM     10  O   UNL     1     -15.198  85.583  -8.433  1.00  0.00    -0.547 OA
ENDBRANCH   3   8
BRANCH   4  11
ATOM     11  O   UNL     1     -14.266  83.531 -10.851  1.00  0.00    -0.387 OA
ATOM     12  H   UNL     1     -14.290  84.427 -11.284  1.00  0.00     0.211 HD
ENDBRANCH   4  11
BRANCH   6  13
ATOM     13  O   UNL     1     -12.713  81.196 -10.957  1.00  0.00    -0.387 OA
ATOM     14  H   UNL     1     -13.651  80.935 -11.173  1.00  0.00     0.211 HD
ENDBRANCH   6  13
BRANCH   7  15
ATOM     15  O   UNL     1     -11.529  80.860  -8.024  1.00  0.00    -0.384 OA
ATOM     16  H   UNL     1     -11.064  80.061  -8.388  1.00  0.00     0.211 HD
ENDBRANCH   7  15
ENDBRANCH   1   2
BRANCH   1  17
ATOM     17  C   UNL     1      -8.930  84.250  -9.215  1.00  0.00     0.172 A 
ATOM     18  C   UNL     1      -8.457  85.536  -8.936  1.00  0.00     0.205 A 
ATOM     19  C   UNL     1      -8.026  83.217  -9.498  1.00  0.00     0.097 A 
ATOM     20  C   UNL     1      -7.064  85.782  -8.913  1.00  0.00     0.188 A 
ATOM     21  C   UNL     1      -6.649  83.446  -9.522  1.00  0.00     0.134 A 
ATOM     22  C   UNL     1      -6.143  84.731  -9.179  1.00  0.00     0.111 A 
ATOM     23  O   UNL     1      -6.615  86.997  -8.615  1.00  0.00    -0.452 OA
ATOM     24  C   UNL     1      -4.764  85.027  -9.034  1.00  0.00     0.197 A 
ATOM     25  C   UNL     1      -5.330  87.307  -8.505  1.00  0.00     0.138 A 
ATOM     26  C   UNL     1      -4.363  86.320  -8.705  1.00  0.00     0.100 A 
ATOM     27  O   UNL     1      -3.874  84.145  -9.157  1.00  0.00    -0.289 OA
BRANCH  18  28
ATOM     28  O   UNL     1      -9.426  86.516  -8.650  1.00  0.00    -0.490 OA
ATOM     29  C   UNL     1      -9.897  86.895  -7.361  1.00  0.00     0.278 C 
ENDBRANCH  18  28
BRANCH  21  30
ATOM     30  O   UNL     1      -5.848  82.370  -9.918  1.00  0.00    -0.507 OA
ATOM     31  H   UNL     1      -4.857  82.427 -10.101  1.00  0.00     0.293 HD
ENDBRANCH  21  30
BRANCH  25  32
ATOM     32  C   UNL     1      -4.957  88.697  -8.163  1.00  0.00     0.017 A 
ATOM     33  C   UNL     1      -5.339  89.779  -8.980  1.00  0.00     0.012 A 
ATOM     34  C   UNL     1      -4.150  88.946  -7.037  1.00  0.00     0.012 A 
ATOM     35  C   UNL     1      -4.943  91.082  -8.659  1.00  0.00     0.001 A 
ATOM     36  C   UNL     1      -3.761  90.252  -6.719  1.00  0.00     0.001 A 
ATOM     37  C   UNL     1      -4.154  91.318  -7.530  1.00  0.00     0.000 A 
ENDBRANCH  25  32
ENDBRANCH   1  17
TORSDOF 9
ENDMDL
MODEL 2
REMARK VINA RESULT:    -6.078      7.031     10.655
REMARK INTER + INTRA:          -9.855
REMARK INTER:                  -8.493
REMARK INTRA:                  -1.362
REMARK UNBOUND:                -1.290
REMARK SMILES COc1c(O[C@H]2O[C@H](C(=O)[O-])[C@H](O)[C@@H](O)[C@@H]2O)cc(O)c2c(=O)cc(-c3ccccc3)oc12
REMARK SMILES IDX 5 1 6 2 8 3 12 4 7 5 14 6 16 7 9 8 10 9 11 10 13 11 15 13
REMARK SMILES IDX 17 15 4 17 3 18 18 19 33 20 19 21 21 22 32 23 22 24 25 25
REMARK SMILES IDX 24 26 23 27 2 28 1 29 20 30 26 32 27 33 31 34 28 35 30 36
REMARK SMILES IDX 29 37
REMARK H PARENT 13 12 15 14 17 16 20 31
REMARK Flexibility Score: inf
ROOT
ATOM      1  O   UNL     1      -6.750  91.081 -15.555  1.00  0.00    -0.458 OA
ENDROOT
BRANCH   1   2
ATOM      2  C   UNL     1      -6.107  92.355 -15.707  1.00  0.00     0.339 C 
ATOM      3  C   UNL     1      -4.751  91.476 -17.452  1.00  0.00     0.199 C 
ATOM      4  C   UNL     1      -6.018  91.651 -18.351  1.00  0.00     0.180 C 
ATOM      5  O   UNL     1      -4.794  92.210 -16.226  1.00  0.00    -0.328 OA
ATOM      6  C   UNL     1      -6.632  93.040 -18.120  1.00  0.00     0.181 C 
ATOM      7  C   UNL     1      -6.953  93.274 -16.614  1.00  0.00     0.214 C 
BRANCH   3   8
ATOM      8  C   UNL     1      -3.506  91.893 -18.188  1.00  0.00     0.073 C 
ATOM      9  O   UNL     1      -2.865  91.057 -18.881  1.00  0.00    -0.547 OA
ATOM     10  O   UNL     1      -3.022  93.192 -18.063  1.00  0.00    -0.547 OA
ENDBRANCH   3   8
BRANCH   4  11
ATOM     11  O   UNL     1      -5.721  91.484 -19.717  1.00  0.00    -0.387 OA
ATOM     12  H   UNL     1      -5.706  90.503 -19.885  1.00  0.00     0.211 HD
ENDBRANCH   4  11
BRANCH   6  13
ATOM     13  O   UNL     1      -7.780  93.215 -18.917  1.00  0.00    -0.387 OA
ATOM     14  H   UNL     1      -7.799  94.162 -19.226  1.00  0.00     0.211 HD
ENDBRANCH   6  13
BRANCH   7  15
ATOM     15  O   UNL     1      -6.698  94.619 -16.276  1.00  0.00    -0.384 OA
ATOM     16  H   UNL     1      -5.716  94.747 -16.350  1.00  0.00     0.211 HD
ENDBRANCH   7  15
ENDBRANCH   1   2
BRANCH   1  17
ATOM     17  C   UNL     1      -7.341  90.595 -14.378  1.00  0.00     0.172 A 
ATOM     18  C   UNL     1      -6.620  89.668 -13.621  1.00  0.00     0.205 A 
ATOM     19  C   UNL     1      -8.616  91.001 -13.961  1.00  0.00     0.097 A 
ATOM     20  C   UNL     1      -7.170  89.163 -12.419  1.00  0.00     0.188 A 
ATOM     21  C   UNL     1      -9.197  90.485 -12.802  1.00  0.00     0.134 A 
ATOM     22  C   UNL     1      -8.456  89.588 -11.982  1.00  0.00     0.111 A 
ATOM     23  O   UNL     1      -6.469  88.306 -11.683  1.00  0.00    -0.452 OA
ATOM     24  C   UNL     1      -8.895  89.122 -10.718  1.00  0.00     0.197 A 
ATOM     25  C   UNL     1      -6.873  87.831 -10.512  1.00  0.00     0.138 A 
ATOM     26  C   UNL     1      -8.104  88.236  -9.991  1.00  0.00     0.100 A 
ATOM     27  O   UNL     1      -9.976  89.511 -10.200  1.00  0.00    -0.289 OA
BRANCH  18  28
ATOM     28  O   UNL     1      -5.342  89.321 -14.099  1.00  0.00    -0.490 OA
ATOM     29  C   UNL     1      -4.104  89.911 -13.720  1.00  0.00     0.278 C 
ENDBRANCH  18  28
BRANCH  21  30
ATOM     30  O   UNL     1     -10.513  90.879 -12.537  1.00  0.00    -0.507 OA
ATOM     31  H   UNL     1     -11.273  90.829 -13.200  1.00  0.00     0.293 HD
ENDBRANCH  21  30
BRANCH  25  32
ATOM     32  C   UNL     1      -5.998  86.885  -9.785  1.00  0.00     0.017 A 
ATOM     33  C   UNL     1      -5.297  87.281  -8.629  1.00  0.00     0.012 A 
ATOM     34  C   UNL     1      -5.806  85.586 -10.287  1.00  0.00     0.012 A 
ATOM     35  C   UNL     1      -4.444  86.382  -7.978  1.00  0.00     0.001 A 
ATOM     36  C   UNL     1      -4.954  84.690  -9.629  1.00  0.00     0.001 A 
ATOM     37  C   UNL     1      -4.273  85.088  -8.478  1.00  0.00     0.000 A 
ENDBRANCH  25  32
ENDBRANCH   1  17
TORSDOF 9
ENDMDL
MODEL 3
REMARK VINA RESULT:    -5.922      5.860     10.337
REMARK INTER + INTRA:          -9.635
REMARK INTER:                  -8.367
REMARK INTRA:                  -1.267
REMARK UNBOUND:                -1.290
REMARK SMILES COc1c(O[C@H]2O[C@H](C(=O)[O-])[C@H](O)[C@@H](O)[C@@H]2O)cc(O)c2c(=O)cc(-c3ccccc3)oc12
REMARK SMILES IDX 5 1 6 2 8 3 12 4 7 5 14 6 16 7 9 8 10 9 11 10 13 11 15 13
REMARK SMILES IDX 17 15 4 17 3 18 18 19 33 20 19 21 21 22 32 23 22 24 25 25
REMARK SMILES IDX 24 26 23 27 2 28 1 29 20 30 26 32 27 33 31 34 28 35 30 36
REMARK SMILES IDX 29 37
REMARK H PARENT 13 12 15 14 17 16 20 31
REMARK Flexibility Score: inf
ROOT
ATOM      1  O   UNL     1      -6.135  91.871 -13.642  1.00  0.00    -0.458 OA
ENDROOT
BRANCH   1   2
ATOM      2  C   UNL     1      -5.373  92.956 -14.190  1.00  0.00     0.339 C 
ATOM      3  C   UNL     1      -4.076  91.419 -15.460  1.00  0.00     0.199 C 
ATOM      4  C   UNL     1      -5.306  91.375 -16.425  1.00  0.00     0.180 C 
ATOM      5  O   UNL     1      -4.070  92.533 -14.564  1.00  0.00    -0.328 OA
ATOM      6  C   UNL     1      -5.791  92.804 -16.714  1.00  0.00     0.181 C 
ATOM      7  C   UNL     1      -6.113  93.571 -15.398  1.00  0.00     0.214 C 
BRANCH   3   8
ATOM      8  C   UNL     1      -2.785  91.452 -16.233  1.00  0.00     0.073 C 
ATOM      9  O   UNL     1      -1.875  90.614 -15.990  1.00  0.00    -0.547 OA
ATOM     10  O   UNL     1      -2.565  92.443 -17.185  1.00  0.00    -0.547 OA
ENDBRANCH   3   8
BRANCH   4  11
ATOM     11  O   UNL     1      -5.003  90.722 -17.634  1.00  0.00    -0.387 OA
ATOM     12  H   UNL     1      -5.856  90.662 -18.144  1.00  0.00     0.211 HD
ENDBRANCH   4  11
BRANCH   6  13
ATOM     13  O   UNL     1      -6.904  92.785 -17.577  1.00  0.00    -0.387 OA
ATOM     14  H   UNL     1      -7.016  93.701 -17.954  1.00  0.00     0.211 HD
ENDBRANCH   6  13
BRANCH   7  15
ATOM     15  O   UNL     1      -5.739  94.923 -15.531  1.00  0.00    -0.384 OA
ATOM     16  H   UNL     1      -6.559  95.460 -15.371  1.00  0.00     0.211 HD
ENDBRANCH   7  15
ENDBRANCH   1   2
BRANCH   1  17
ATOM     17  C   UNL     1      -5.967  91.313 -12.365  1.00  0.00     0.172 A 
ATOM     18  C   UNL     1      -6.225  89.947 -12.211  1.00  0.00     0.205 A 
ATOM     19  C   UNL     1      -5.567  92.080 -11.263  1.00  0.00     0.097 A 
ATOM     20  C   UNL     1      -6.053  89.340 -10.944  1.00  0.00     0.188 A 
ATOM     21  C   UNL     1      -5.432  91.511  -9.995  1.00  0.00     0.134 A 
ATOM     22  C   UNL     1      -5.627  90.111  -9.827  1.00  0.00     0.111 A 
ATOM     23  O   UNL     1      -6.266  88.035 -10.806  1.00  0.00    -0.452 OA
ATOM     24  C   UNL     1      -5.375  89.414  -8.619  1.00  0.00     0.197 A 
ATOM     25  C   UNL     1      -6.069  87.366  -9.678  1.00  0.00     0.138 A 
ATOM     26  C   UNL     1      -5.607  88.043  -8.547  1.00  0.00     0.100 A 
ATOM     27  O   UNL     1      -4.909  89.990  -7.600  1.00  0.00    -0.289 OA
BRANCH  18  28
ATOM     28  O   UNL     1      -6.609  89.244 -13.368  1.00  0.00    -0.490 OA
ATOM     29  C   UNL     1      -7.934  88.879 -13.739  1.00  0.00     0.278 C 
ENDBRANCH  18  28
BRANCH  21  30
ATOM     30  O   UNL     1      -5.131  92.389  -8.949  1.00  0.00    -0.507 OA
ATOM     31  H   UNL     1      -5.816  92.887  -8.399  1.00  0.00     0.293 HD
ENDBRANCH  21  30
BRANCH  25  32
ATOM     32  C   UNL     1      -6.338  85.912  -9.653  1.00  0.00     0.017 A 
ATOM     33  C   UNL     1      -7.653  85.413  -9.573  1.00  0.00     0.012 A 
ATOM     34  C   UNL     1      -5.263  85.004  -9.642  1.00  0.00     0.012 A 
ATOM     35  C   UNL     1      -7.883  84.035  -9.511  1.00  0.00     0.001 A 
ATOM     36  C   UNL     1      -5.501  83.625  -9.585  1.00  0.00     0.001 A 
ATOM     37  C   UNL     1      -6.808  83.141  -9.517  1.00  0.00     0.000 A 
ENDBRANCH  25  32
ENDBRANCH   1  17
TORSDOF 9
ENDMDL
MODEL 4
REMARK VINA RESULT:    -5.850      2.727      8.014
REMARK INTER + INTRA:          -9.534
REMARK INTER:                  -8.350
REMARK INTRA:                  -1.184
REMARK UNBOUND:                -1.290
REMARK SMILES COc1c(O[C@H]2O[C@H](C(=O)[O-])[C@H](O)[C@@H](O)[C@@H]2O)cc(O)c2c(=O)cc(-c3ccccc3)oc12
REMARK SMILES IDX 5 1 6 2 8 3 12 4 7 5 14 6 16 7 9 8 10 9 11 10 13 11 15 13
REMARK SMILES IDX 17 15 4 17 3 18 18 19 33 20 19 21 21 22 32 23 22 24 25 25
REMARK SMILES IDX 24 26 23 27 2 28 1 29 20 30 26 32 27 33 31 34 28 35 30 36
REMARK SMILES IDX 29 37
REMARK H PARENT 13 12 15 14 17 16 20 31
REMARK Flexibility Score: inf
ROOT
ATOM      1  O   UNL     1      -7.068  84.736  -7.600  1.00  0.00    -0.458 OA
ENDROOT
BRANCH   1   2
ATOM      2  C   UNL     1      -6.085  85.397  -8.411  1.00  0.00     0.339 C 
ATOM      3  C   UNL     1      -4.345  84.318  -7.201  1.00  0.00     0.199 C 
ATOM      4  C   UNL     1      -4.687  83.066  -8.073  1.00  0.00     0.180 C 
ATOM      5  O   UNL     1      -4.859  85.550  -7.711  1.00  0.00    -0.328 OA
ATOM      6  C   UNL     1      -4.819  83.480  -9.547  1.00  0.00     0.181 C 
ATOM      7  C   UNL     1      -5.868  84.617  -9.726  1.00  0.00     0.214 C 
BRANCH   3   8
ATOM      8  C   UNL     1      -2.856  84.477  -7.047  1.00  0.00     0.073 C 
ATOM      9  O   UNL     1      -2.192  83.643  -6.374  1.00  0.00    -0.547 OA
ATOM     10  O   UNL     1      -2.209  85.578  -7.602  1.00  0.00    -0.547 OA
ENDBRANCH   3   8
BRANCH   4  11
ATOM     11  O   UNL     1      -3.717  82.056  -7.948  1.00  0.00    -0.387 OA
ATOM     12  H   UNL     1      -3.408  82.077  -7.001  1.00  0.00     0.211 HD
ENDBRANCH   4  11
BRANCH   6  13
ATOM     13  O   UNL     1      -5.134  82.366 -10.349  1.00  0.00    -0.387 OA
ATOM     14  H   UNL     1      -4.348  81.754 -10.349  1.00  0.00     0.211 HD
ENDBRANCH   6  13
BRANCH   7  15
ATOM     15  O   UNL     1      -5.437  85.510 -10.727  1.00  0.00    -0.384 OA
ATOM     16  H   UNL     1      -4.864  86.185 -10.277  1.00  0.00     0.211 HD
ENDBRANCH   7  15
ENDBRANCH   1   2
BRANCH   1  17
ATOM     17  C   UNL     1      -8.338  84.319  -8.028  1.00  0.00     0.172 A 
ATOM     18  C   UNL     1      -9.288  85.305  -8.313  1.00  0.00     0.205 A 
ATOM     19  C   UNL     1      -8.673  82.965  -8.160  1.00  0.00     0.097 A 
ATOM     20  C   UNL     1     -10.576  84.930  -8.762  1.00  0.00     0.188 A 
ATOM     21  C   UNL     1      -9.950  82.570  -8.561  1.00  0.00     0.134 A 
ATOM     22  C   UNL     1     -10.912  83.556  -8.917  1.00  0.00     0.111 A 
ATOM     23  O   UNL     1     -11.467  85.870  -9.064  1.00  0.00    -0.452 OA
ATOM     24  C   UNL     1     -12.183  83.262  -9.471  1.00  0.00     0.197 A 
ATOM     25  C   UNL     1     -12.673  85.617  -9.554  1.00  0.00     0.138 A 
ATOM     26  C   UNL     1     -13.064  84.296  -9.779  1.00  0.00     0.100 A 
ATOM     27  O   UNL     1     -12.541  82.083  -9.734  1.00  0.00    -0.289 OA
BRANCH  18  28
ATOM     28  O   UNL     1      -8.871  86.642  -8.168  1.00  0.00    -0.490 OA
ATOM     29  C   UNL     1      -9.110  87.490  -7.050  1.00  0.00     0.278 C 
ENDBRANCH  18  28
BRANCH  21  30
ATOM     30  O   UNL     1     -10.205  81.195  -8.558  1.00  0.00    -0.507 OA
ATOM     31  H   UNL     1     -11.122  80.780  -8.473  1.00  0.00     0.293 HD
ENDBRANCH  21  30
BRANCH  25  32
ATOM     32  C   UNL     1     -13.573  86.752  -9.855  1.00  0.00     0.017 A 
ATOM     33  C   UNL     1     -13.062  88.013 -10.221  1.00  0.00     0.012 A 
ATOM     34  C   UNL     1     -14.964  86.596  -9.713  1.00  0.00     0.012 A 
ATOM     35  C   UNL     1     -13.929  89.084 -10.464  1.00  0.00     0.001 A 
ATOM     36  C   UNL     1     -15.826  87.671  -9.963  1.00  0.00     0.001 A 
ATOM     37  C   UNL     1     -15.310  88.913 -10.335  1.00  0.00     0.000 A 
ENDBRANCH  25  32
ENDBRANCH   1  17
TORSDOF 9
ENDMDL
MODEL 5
REMARK VINA RESULT:    -5.837      7.204     11.136
REMARK INTER + INTRA:          -9.515
REMARK INTER:                  -8.163
REMARK INTRA:                  -1.352
REMARK UNBOUND:                -1.290
REMARK SMILES COc1c(O[C@H]2O[C@H](C(=O)[O-])[C@H](O)[C@@H](O)[C@@H]2O)cc(O)c2c(=O)cc(-c3ccccc3)oc12
REMARK SMILES IDX 5 1 6 2 8 3 12 4 7 5 14 6 16 7 9 8 10 9 11 10 13 11 15 13
REMARK SMILES IDX 17 15 4 17 3 18 18 19 33 20 19 21 21 22 32 23 22 24 25 25
REMARK SMILES IDX 24 26 23 27 2 28 1 29 20 30 26 32 27 33 31 34 28 35 30 36
REMARK SMILES IDX 29 37
REMARK H PARENT 13 12 15 14 17 16 20 31
REMARK Flexibility Score: inf
ROOT
ATOM      1  O   UNL     1      -4.174  92.706 -14.300  1.00  0.00    -0.458 OA
ENDROOT
BRANCH   1   2
ATOM      2  C   UNL     1      -5.118  93.007 -15.337  1.00  0.00     0.339 C 
ATOM      3  C   UNL     1      -3.396  92.850 -16.969  1.00  0.00     0.199 C 
ATOM      4  C   UNL     1      -3.571  91.303 -16.820  1.00  0.00     0.180 C 
ATOM      5  O   UNL     1      -4.484  93.617 -16.451  1.00  0.00    -0.328 OA
ATOM      6  C   UNL     1      -5.064  90.942 -16.855  1.00  0.00     0.181 C 
ATOM      7  C   UNL     1      -5.861  91.724 -15.770  1.00  0.00     0.214 C 
BRANCH   3   8
ATOM      8  C   UNL     1      -3.216  93.234 -18.413  1.00  0.00     0.073 C 
ATOM      9  O   UNL     1      -4.181  93.708 -19.072  1.00  0.00    -0.547 OA
ATOM     10  O   UNL     1      -1.996  93.017 -19.047  1.00  0.00    -0.547 OA
ENDBRANCH   3   8
BRANCH   4  11
ATOM     11  O   UNL     1      -2.887  90.596 -17.826  1.00  0.00    -0.387 OA
ATOM     12  H   UNL     1      -2.188  90.055 -17.367  1.00  0.00     0.211 HD
ENDBRANCH   4  11
BRANCH   6  13
ATOM     13  O   UNL     1      -5.243  89.552 -16.714  1.00  0.00    -0.387 OA
ATOM     14  H   UNL     1      -4.358  89.150 -16.492  1.00  0.00     0.211 HD
ENDBRANCH   6  13
BRANCH   7  15
ATOM     15  O   UNL     1      -7.132  92.072 -16.271  1.00  0.00    -0.384 OA
ATOM     16  H   UNL     1      -6.979  92.744 -16.987  1.00  0.00     0.211 HD
ENDBRANCH   7  15
ENDBRANCH   1   2
BRANCH   1  17
ATOM     17  C   UNL     1      -4.385  92.875 -12.923  1.00  0.00     0.172 A 
ATOM     18  C   UNL     1      -4.407  91.730 -12.120  1.00  0.00     0.205 A 
ATOM     19  C   UNL     1      -4.581  94.138 -12.348  1.00  0.00     0.097 A 
ATOM     20  C   UNL     1      -4.602  91.855 -10.724  1.00  0.00     0.188 A 
ATOM     21  C   UNL     1      -4.816  94.282 -10.980  1.00  0.00     0.134 A 
ATOM     22  C   UNL     1      -4.781  93.138 -10.135  1.00  0.00     0.111 A 
ATOM     23  O   UNL     1      -4.590  90.769  -9.959  1.00  0.00    -0.452 OA
ATOM     24  C   UNL     1      -4.863  93.192  -8.721  1.00  0.00     0.197 A 
ATOM     25  C   UNL     1      -4.698  90.792  -8.637  1.00  0.00     0.138 A 
ATOM     26  C   UNL     1      -4.830  92.016  -7.977  1.00  0.00     0.100 A 
ATOM     27  O   UNL     1      -4.931  94.285  -8.097  1.00  0.00    -0.289 OA
BRANCH  18  28
ATOM     28  O   UNL     1      -4.190  90.501 -12.770  1.00  0.00    -0.490 OA
ATOM     29  C   UNL     1      -5.181  89.553 -13.151  1.00  0.00     0.278 C 
ENDBRANCH  18  28
BRANCH  21  30
ATOM     30  O   UNL     1      -5.103  95.576 -10.532  1.00  0.00    -0.507 OA
ATOM     31  H   UNL     1      -4.468  96.358 -10.588  1.00  0.00     0.293 HD
ENDBRANCH  21  30
BRANCH  25  32
ATOM     32  C   UNL     1      -4.666  89.512  -7.895  1.00  0.00     0.017 A 
ATOM     33  C   UNL     1      -3.932  89.379  -6.700  1.00  0.00     0.012 A 
ATOM     34  C   UNL     1      -5.324  88.386  -8.420  1.00  0.00     0.012 A 
ATOM     35  C   UNL     1      -3.883  88.149  -6.034  1.00  0.00     0.001 A 
ATOM     36  C   UNL     1      -5.274  87.159  -7.746  1.00  0.00     0.001 A 
ATOM     37  C   UNL     1      -4.554  87.040  -6.557  1.00  0.00     0.000 A 
ENDBRANCH  25  32
ENDBRANCH   1  17
TORSDOF 9
ENDMDL
MODEL 6
REMARK VINA RESULT:    -5.817      9.778     13.269
REMARK INTER + INTRA:          -9.487
REMARK INTER:                  -8.100
REMARK INTRA:                  -1.388
REMARK UNBOUND:                -1.290
REMARK SMILES COc1c(O[C@H]2O[C@H](C(=O)[O-])[C@H](O)[C@@H](O)[C@@H]2O)cc(O)c2c(=O)cc(-c3ccccc3)oc12
REMARK SMILES IDX 5 1 6 2 8 3 12 4 7 5 14 6 16 7 9 8 10 9 11 10 13 11 15 13
REMARK SMILES IDX 17 15 4 17 3 18 18 19 33 20 19 21 21 22 32 23 22 24 25 25
REMARK SMILES IDX 24 26 23 27 2 28 1 29 20 30 26 32 27 33 31 34 28 35 30 36
REMARK SMILES IDX 29 37
REMARK H PARENT 13 12 15 14 17 16 20 31
REMARK Flexibility Score: inf
ROOT
ATOM      1  O   UNL     1      -4.359  93.140 -17.469  1.00  0.00    -0.458 OA
ENDROOT
BRANCH   1   2
ATOM      2  C   UNL     1      -3.904  92.785 -18.782  1.00  0.00     0.339 C 
ATOM      3  C   UNL     1      -5.478  94.284 -19.747  1.00  0.00     0.199 C 
ATOM      4  C   UNL     1      -4.461  95.405 -19.350  1.00  0.00     0.180 C 
ATOM      5  O   UNL     1      -4.928  92.965 -19.749  1.00  0.00    -0.328 OA
ATOM      6  C   UNL     1      -3.042  94.989 -19.765  1.00  0.00     0.181 C 
ATOM      7  C   UNL     1      -2.653  93.611 -19.154  1.00  0.00     0.214 C 
BRANCH   3   8
ATOM      8  C   UNL     1      -6.053  94.538 -21.114  1.00  0.00     0.073 C 
ATOM      9  O   UNL     1      -5.372  94.301 -22.148  1.00  0.00    -0.547 OA
ATOM     10  O   UNL     1      -7.324  95.091 -21.245  1.00  0.00    -0.547 OA
ENDBRANCH   3   8
BRANCH   4  11
ATOM     11  O   UNL     1      -4.786  96.642 -19.938  1.00  0.00    -0.387 OA
ATOM     12  H   UNL     1      -4.921  97.283 -19.189  1.00  0.00     0.211 HD
ENDBRANCH   4  11
BRANCH   6  13
ATOM     13  O   UNL     1      -2.109  95.983 -19.410  1.00  0.00    -0.387 OA
ATOM     14  H   UNL     1      -2.194  96.148 -18.430  1.00  0.00     0.211 HD
ENDBRANCH   6  13
BRANCH   7  15
ATOM     15  O   UNL     1      -1.876  92.882 -20.077  1.00  0.00    -0.384 OA
ATOM     16  H   UNL     1      -0.935  92.940 -19.762  1.00  0.00     0.211 HD
ENDBRANCH   7  15
ENDBRANCH   1   2
BRANCH   1  17
ATOM     17  C   UNL     1      -4.755  92.241 -16.466  1.00  0.00     0.172 A 
ATOM     18  C   UNL     1      -6.112  92.191 -16.133  1.00  0.00     0.205 A 
ATOM     19  C   UNL     1      -3.838  91.419 -15.798  1.00  0.00     0.097 A 
ATOM     20  C   UNL     1      -6.558  91.288 -15.139  1.00  0.00     0.188 A 
ATOM     21  C   UNL     1      -4.249  90.551 -14.785  1.00  0.00     0.134 A 
ATOM     22  C   UNL     1      -5.633  90.437 -14.472  1.00  0.00     0.111 A 
ATOM     23  O   UNL     1      -7.853  91.218 -14.846  1.00  0.00    -0.452 OA
ATOM     24  C   UNL     1      -6.166  89.486 -13.567  1.00  0.00     0.197 A 
ATOM     25  C   UNL     1      -8.372  90.359 -13.979  1.00  0.00     0.138 A 
ATOM     26  C   UNL     1      -7.536  89.458 -13.317  1.00  0.00     0.100 A 
ATOM     27  O   UNL     1      -5.443  88.628 -12.995  1.00  0.00    -0.289 OA
BRANCH  18  28
ATOM     28  O   UNL     1      -6.971  93.038 -16.858  1.00  0.00    -0.490 OA
ATOM     29  C   UNL     1      -7.484  94.295 -16.431  1.00  0.00     0.278 C 
ENDBRANCH  18  28
BRANCH  21  30
ATOM     30  O   UNL     1      -3.237  89.855 -14.114  1.00  0.00    -0.507 OA
ATOM     31  H   UNL     1      -2.936  88.918 -14.340  1.00  0.00     0.293 HD
ENDBRANCH  21  30
BRANCH  25  32
ATOM     32  C   UNL     1      -9.832  90.376 -13.744  1.00  0.00     0.017 A 
ATOM     33  C   UNL     1     -10.618  89.224 -13.944  1.00  0.00     0.012 A 
ATOM     34  C   UNL     1     -10.465  91.577 -13.376  1.00  0.00     0.012 A 
ATOM     35  C   UNL     1     -12.004  89.273 -13.754  1.00  0.00     0.001 A 
ATOM     36  C   UNL     1     -11.851  91.617 -13.182  1.00  0.00     0.001 A 
ATOM     37  C   UNL     1     -12.620  90.468 -13.373  1.00  0.00     0.000 A 
ENDBRANCH  25  32
ENDBRANCH   1  17
TORSDOF 9
ENDMDL
MODEL 7
REMARK VINA RESULT:    -5.792      7.590     11.287
REMARK INTER + INTRA:          -9.452
REMARK INTER:                  -8.318
REMARK INTRA:                  -1.134
REMARK UNBOUND:                -1.290
REMARK SMILES COc1c(O[C@H]2O[C@H](C(=O)[O-])[C@H](O)[C@@H](O)[C@@H]2O)cc(O)c2c(=O)cc(-c3ccccc3)oc12
REMARK SMILES IDX 5 1 6 2 8 3 12 4 7 5 14 6 16 7 9 8 10 9 11 10 13 11 15 13
REMARK SMILES IDX 17 15 4 17 3 18 18 19 33 20 19 21 21 22 32 23 22 24 25 25
REMARK SMILES IDX 24 26 23 27 2 28 1 29 20 30 26 32 27 33 31 34 28 35 30 36
REMARK SMILES IDX 29 37
REMARK H PARENT 13 12 15 14 17 16 20 31
REMARK Flexibility Score: inf
ROOT
ATOM      1  O   UNL     1      -6.058  91.888 -15.856  1.00  0.00    -0.458 OA
ENDROOT
BRANCH   1   2
ATOM      2  C   UNL     1      -6.493  92.163 -17.195  1.00  0.00     0.339 C 
ATOM      3  C   UNL     1      -5.056  94.056 -17.286  1.00  0.00     0.199 C 
ATOM      4  C   UNL     1      -3.913  93.017 -17.530  1.00  0.00     0.180 C 
ATOM      5  O   UNL     1      -6.373  93.543 -17.502  1.00  0.00    -0.328 OA
ATOM      6  C   UNL     1      -4.352  92.001 -18.595  1.00  0.00     0.181 C 
ATOM      7  C   UNL     1      -5.690  91.309 -18.201  1.00  0.00     0.214 C 
BRANCH   3   8
ATOM      8  C   UNL     1      -4.887  95.261 -18.171  1.00  0.00     0.073 C 
ATOM      9  O   UNL     1      -4.945  96.423 -17.685  1.00  0.00    -0.547 OA
ATOM     10  O   UNL     1      -4.720  95.102 -19.544  1.00  0.00    -0.547 OA
ENDBRANCH   3   8
BRANCH   4  11
ATOM     11  O   UNL     1      -2.715  93.637 -17.930  1.00  0.00    -0.387 OA
ATOM     12  H   UNL     1      -2.608  94.443 -17.355  1.00  0.00     0.211 HD
ENDBRANCH   4  11
BRANCH   6  13
ATOM     13  O   UNL     1      -3.337  91.052 -18.825  1.00  0.00    -0.387 OA
ATOM     14  H   UNL     1      -3.487  90.286 -18.204  1.00  0.00     0.211 HD
ENDBRANCH   6  13
BRANCH   7  15
ATOM     15  O   UNL     1      -6.474  91.095 -19.354  1.00  0.00    -0.384 OA
ATOM     16  H   UNL     1      -5.998  91.539 -20.105  1.00  0.00     0.211 HD
ENDBRANCH   7  15
ENDBRANCH   1   2
BRANCH   1  17
ATOM     17  C   UNL     1      -6.845  91.331 -14.835  1.00  0.00     0.172 A 
ATOM     18  C   UNL     1      -6.248  90.389 -13.991  1.00  0.00     0.205 A 
ATOM     19  C   UNL     1      -8.189  91.683 -14.655  1.00  0.00     0.097 A 
ATOM     20  C   UNL     1      -7.000  89.814 -12.939  1.00  0.00     0.188 A 
ATOM     21  C   UNL     1      -8.962  91.098 -13.650  1.00  0.00     0.134 A 
ATOM     22  C   UNL     1      -8.359  90.184 -12.740  1.00  0.00     0.111 A 
ATOM     23  O   UNL     1      -6.422  88.944 -12.117  1.00  0.00    -0.452 OA
ATOM     24  C   UNL     1      -9.014  89.648 -11.604  1.00  0.00     0.197 A 
ATOM     25  C   UNL     1      -7.025  88.404 -11.066  1.00  0.00     0.138 A 
ATOM     26  C   UNL     1      -8.345  88.750 -10.775  1.00  0.00     0.100 A 
ATOM     27  O   UNL     1     -10.187  89.983 -11.288  1.00  0.00    -0.289 OA
BRANCH  18  28
ATOM     28  O   UNL     1      -4.891  90.100 -14.229  1.00  0.00    -0.490 OA
ATOM     29  C   UNL     1      -3.770  90.705 -13.595  1.00  0.00     0.278 C 
ENDBRANCH  18  28
BRANCH  21  30
ATOM     30  O   UNL     1     -10.317  91.444 -13.627  1.00  0.00    -0.507 OA
ATOM     31  H   UNL     1     -11.007  91.110 -14.284  1.00  0.00     0.293 HD
ENDBRANCH  21  30
BRANCH  25  32
ATOM     32  C   UNL     1      -6.271  87.449 -10.223  1.00  0.00     0.017 A 
ATOM     33  C   UNL     1      -5.704  87.848  -8.997  1.00  0.00     0.012 A 
ATOM     34  C   UNL     1      -6.057  86.136 -10.678  1.00  0.00     0.012 A 
ATOM     35  C   UNL     1      -4.962  86.940  -8.234  1.00  0.00     0.001 A 
ATOM     36  C   UNL     1      -5.318  85.231  -9.907  1.00  0.00     0.001 A 
ATOM     37  C   UNL     1      -4.769  85.632  -8.688  1.00  0.00     0.000 A 
ENDBRANCH  25  32
ENDBRANCH   1  17
TORSDOF 9
ENDMDL
MODEL 8
REMARK VINA RESULT:    -5.778      2.450      4.785
REMARK INTER + INTRA:          -9.432
REMARK INTER:                  -8.211
REMARK INTRA:                  -1.221
REMARK UNBOUND:                -1.290
REMARK SMILES COc1c(O[C@H]2O[C@H](C(=O)[O-])[C@H](O)[C@@H](O)[C@@H]2O)cc(O)c2c(=O)cc(-c3ccccc3)oc12
REMARK SMILES IDX 5 1 6 2 8 3 12 4 7 5 14 6 16 7 9 8 10 9 11 10 13 11 15 13
REMARK SMILES IDX 17 15 4 17 3 18 18 19 33 20 19 21 21 22 32 23 22 24 25 25
REMARK SMILES IDX 24 26 23 27 2 28 1 29 20 30 26 32 27 33 31 34 28 35 30 36
REMARK SMILES IDX 29 37
REMARK H PARENT 13 12 15 14 17 16 20 31
REMARK Flexibility Score: inf
ROOT
ATOM      1  O   UNL     1     -11.834  84.901  -8.040  1.00  0.00    -0.458 OA
ENDROOT
BRANCH   1   2
ATOM      2  C   UNL     1     -13.012  85.019  -8.851  1.00  0.00     0.339 C 
ATOM      3  C   UNL     1     -12.596  82.874  -9.790  1.00  0.00     0.199 C 
ATOM      4  C   UNL     1     -13.185  82.315  -8.453  1.00  0.00     0.180 C 
ATOM      5  O   UNL     1     -12.899  84.248 -10.038  1.00  0.00    -0.328 OA
ATOM      6  C   UNL     1     -14.484  83.057  -8.108  1.00  0.00     0.181 C 
ATOM      7  C   UNL     1     -14.259  84.597  -8.044  1.00  0.00     0.214 C 
BRANCH   3   8
ATOM      8  C   UNL     1     -13.088  82.080 -10.969  1.00  0.00     0.073 C 
ATOM      9  O   UNL     1     -12.697  80.895 -11.149  1.00  0.00    -0.547 OA
ATOM     10  O   UNL     1     -13.938  82.668 -11.902  1.00  0.00    -0.547 OA
ENDBRANCH   3   8
BRANCH   4  11
ATOM     11  O   UNL     1     -13.431  80.932  -8.524  1.00  0.00    -0.387 OA
ATOM     12  H   UNL     1     -12.607  80.517  -8.899  1.00  0.00     0.211 HD
ENDBRANCH   4  11
BRANCH   6  13
ATOM     13  O   UNL     1     -15.027  82.573  -6.902  1.00  0.00    -0.387 OA
ATOM     14  H   UNL     1     -14.292  82.141  -6.385  1.00  0.00     0.211 HD
ENDBRANCH   6  13
BRANCH   7  15
ATOM     15  O   UNL     1     -15.389  85.266  -8.555  1.00  0.00    -0.384 OA
ATOM     16  H   UNL     1     -15.173  86.235  -8.545  1.00  0.00     0.211 HD
ENDBRANCH   7  15
ENDBRANCH   1   2
BRANCH   1  17
ATOM     17  C   UNL     1     -10.546  85.333  -8.395  1.00  0.00     0.172 A 
ATOM     18  C   UNL     1      -9.479  84.458  -8.171  1.00  0.00     0.205 A 
ATOM     19  C   UNL     1     -10.311  86.600  -8.945  1.00  0.00     0.097 A 
ATOM     20  C   UNL     1      -8.166  84.847  -8.528  1.00  0.00     0.188 A 
ATOM     21  C   UNL     1      -9.019  87.022  -9.266  1.00  0.00     0.134 A 
ATOM     22  C   UNL     1      -7.926  86.125  -9.106  1.00  0.00     0.111 A 
ATOM     23  O   UNL     1      -7.157  84.001  -8.346  1.00  0.00    -0.452 OA
ATOM     24  C   UNL     1      -6.604  86.401  -9.535  1.00  0.00     0.197 A 
ATOM     25  C   UNL     1      -5.906  84.250  -8.709  1.00  0.00     0.138 A 
ATOM     26  C   UNL     1      -5.595  85.464  -9.325  1.00  0.00     0.100 A 
ATOM     27  O   UNL     1      -6.306  87.465 -10.140  1.00  0.00    -0.289 OA
BRANCH  18  28
ATOM     28  O   UNL     1      -9.799  83.200  -7.628  1.00  0.00    -0.490 OA
ATOM     29  C   UNL     1      -9.568  81.931  -8.229  1.00  0.00     0.278 C 
ENDBRANCH  18  28
BRANCH  21  30
ATOM     30  O   UNL     1      -8.889  88.342  -9.710  1.00  0.00    -0.507 OA
ATOM     31  H   UNL     1      -8.688  88.611 -10.662  1.00  0.00     0.293 HD
ENDBRANCH  21  30
BRANCH  25  32
ATOM     32  C   UNL     1      -4.871  83.224  -8.455  1.00  0.00     0.017 A 
ATOM     33  C   UNL     1      -4.680  82.680  -7.170  1.00  0.00     0.012 A 
ATOM     34  C   UNL     1      -4.014  82.826  -9.497  1.00  0.00     0.012 A 
ATOM     35  C   UNL     1      -3.670  81.739  -6.943  1.00  0.00     0.001 A 
ATOM     36  C   UNL     1      -3.008  81.880  -9.265  1.00  0.00     0.001 A 
ATOM     37  C   UNL     1      -2.834  81.339  -7.990  1.00  0.00     0.000 A 
ENDBRANCH  25  32
ENDBRANCH   1  17
TORSDOF 9
ENDMDL
MODEL 9
REMARK VINA RESULT:    -5.662      4.466      7.605
REMARK INTER + INTRA:          -9.269
REMARK INTER:                  -7.744
REMARK INTRA:                  -1.525
REMARK UNBOUND:                -1.290
REMARK SMILES COc1c(O[C@H]2O[C@H](C(=O)[O-])[C@H](O)[C@@H](O)[C@@H]2O)cc(O)c2c(=O)cc(-c3ccccc3)oc12
REMARK SMILES IDX 5 1 6 2 8 3 12 4 7 5 14 6 16 7 9 8 10 9 11 10 13 11 15 13
REMARK SMILES IDX 17 15 4 17 3 18 18 19 33 20 19 21 21 22 32 23 22 24 25 25
REMARK SMILES IDX 24 26 23 27 2 28 1 29 20 30 26 32 27 33 31 34 28 35 30 36
REMARK SMILES IDX 29 37
REMARK H PARENT 13 12 15 14 17 16 20 31
REMARK Flexibility Score: inf
ROOT
ATOM      1  O   UNL     1      -6.889  88.762  -8.921  1.00  0.00    -0.458 OA
ENDROOT
BRANCH   1   2
ATOM      2  C   UNL     1      -6.349  87.869  -7.936  1.00  0.00     0.339 C 
ATOM      3  C   UNL     1      -8.075  86.299  -8.397  1.00  0.00     0.199 C 
ATOM      4  C   UNL     1      -7.227  85.931  -9.659  1.00  0.00     0.180 C 
ATOM      5  O   UNL     1      -7.357  87.026  -7.398  1.00  0.00    -0.328 OA
ATOM      6  C   UNL     1      -5.753  85.759  -9.263  1.00  0.00     0.181 C 
ATOM      7  C   UNL     1      -5.206  87.030  -8.547  1.00  0.00     0.214 C 
BRANCH   3   8
ATOM      8  C   UNL     1      -8.635  85.064  -7.746  1.00  0.00     0.073 C 
ATOM      9  O   UNL     1      -8.060  84.551  -6.748  1.00  0.00    -0.547 OA
ATOM     10  O   UNL     1      -9.765  84.446  -8.275  1.00  0.00    -0.547 OA
ENDBRANCH   3   8
BRANCH   4  11
ATOM     11  O   UNL     1      -7.692  84.757 -10.281  1.00  0.00    -0.387 OA
ATOM     12  H   UNL     1      -8.459  85.027 -10.856  1.00  0.00     0.211 HD
ENDBRANCH   4  11
BRANCH   6  13
ATOM     13  O   UNL     1      -4.970  85.434 -10.388  1.00  0.00    -0.387 OA
ATOM     14  H   UNL     1      -4.138  84.991 -10.065  1.00  0.00     0.211 HD
ENDBRANCH   6  13
BRANCH   7  15
ATOM     15  O   UNL     1      -4.311  86.653  -7.525  1.00  0.00    -0.384 OA
ATOM     16  H   UNL     1      -3.907  87.492  -7.180  1.00  0.00     0.211 HD
ENDBRANCH   7  15
ENDBRANCH   1   2
BRANCH   1  17
ATOM     17  C   UNL     1      -6.207  89.835  -9.517  1.00  0.00     0.172 A 
ATOM     18  C   UNL     1      -6.027  89.804 -10.904  1.00  0.00     0.205 A 
ATOM     19  C   UNL     1      -5.703  90.907  -8.768  1.00  0.00     0.097 A 
ATOM     20  C   UNL     1      -5.359  90.872 -11.548  1.00  0.00     0.188 A 
ATOM     21  C   UNL     1      -5.004  91.950  -9.378  1.00  0.00     0.134 A 
ATOM     22  C   UNL     1      -4.864  91.972 -10.794  1.00  0.00     0.111 A 
ATOM     23  O   UNL     1      -5.218  90.857 -12.870  1.00  0.00    -0.452 OA
ATOM     24  C   UNL     1      -4.302  93.052 -11.519  1.00  0.00     0.197 A 
ATOM     25  C   UNL     1      -4.667  91.841 -13.568  1.00  0.00     0.138 A 
ATOM     26  C   UNL     1      -4.197  92.977 -12.906  1.00  0.00     0.100 A 
ATOM     27  O   UNL     1      -3.918  94.110 -10.953  1.00  0.00    -0.289 OA
BRANCH  18  28
ATOM     28  O   UNL     1      -6.574  88.701 -11.585  1.00  0.00    -0.490 OA
ATOM     29  C   UNL     1      -7.800  88.670 -12.307  1.00  0.00     0.278 C 
ENDBRANCH  18  28
BRANCH  21  30
ATOM     30  O   UNL     1      -4.455  92.913  -8.523  1.00  0.00    -0.507 OA
ATOM     31  H   UNL     1      -4.325  93.885  -8.760  1.00  0.00     0.293 HD
ENDBRANCH  21  30
BRANCH  25  32
ATOM     32  C   UNL     1      -4.572  91.708 -15.038  1.00  0.00     0.017 A 
ATOM     33  C   UNL     1      -3.454  92.192 -15.745  1.00  0.00     0.012 A 
ATOM     34  C   UNL     1      -5.643  91.149 -15.758  1.00  0.00     0.012 A 
ATOM     35  C   UNL     1      -3.402  92.091 -17.140  1.00  0.00     0.001 A 
ATOM     36  C   UNL     1      -5.583  91.047 -17.153  1.00  0.00     0.001 A 
ATOM     37  C   UNL     1      -4.465  91.519 -17.843  1.00  0.00     0.000 A 
ENDBRANCH  25  32
ENDBRANCH   1  17
TORSDOF 9
ENDMDL
