MODEL 1
REMARK VINA RESULT:    -4.765      0.000      0.000
REMARK INTER + INTRA:          -6.657
REMARK INTER:                  -6.436
REMARK INTRA:                  -0.221
REMARK UNBOUND:                -0.221
REMARK SMILES CCCCCCC=CC(=O)[O-]
REMARK SMILES IDX 5 1 6 2 7 3 8 4 9 5 10 6 11 7 4 8 3 9 2 10 1 11
REMARK H PARENT
REMARK Flexibility Score: inf
ROOT
ATOM      1  C   UNL     1      28.987  -6.060 -14.017  1.00  0.00     0.004 C 
ENDROOT
BRANCH   1   2
ATOM      2  C   UNL     1      30.001  -5.097 -13.380  1.00  0.00     0.027 C 
BRANCH   2   3
ATOM      3  C   UNL     1      31.130  -5.847 -12.734  1.00  0.00    -0.025 C 
ATOM      4  C   UNL     1      31.529  -5.571 -11.489  1.00  0.00     0.020 C 
BRANCH   4   5
ATOM      5  C   UNL     1      32.624  -6.307 -10.838  1.00  0.00     0.064 C 
ATOM      6  O   UNL     1      33.279  -7.156 -11.497  1.00  0.00    -0.545 OA
ATOM      7  O   UNL     1      32.947  -6.080  -9.505  1.00  0.00    -0.545 OA
ENDBRANCH   4   5
ENDBRANCH   2   3
ENDBRANCH   1   2
BRANCH   1   8
ATOM      8  C   UNL     1      29.581  -6.847 -15.196  1.00  0.00     0.000 C 
BRANCH   8   9
ATOM      9  C   UNL     1      29.838  -8.324 -14.850  1.00  0.00    -0.000 C 
BRANCH   9  10
ATOM     10  C   UNL     1      29.873  -9.222 -16.096  1.00  0.00    -0.003 C 
ATOM     11  C   UNL     1      28.809  -8.844 -17.126  1.00  0.00     0.004 C 
ENDBRANCH   9  10
ENDBRANCH   8   9
ENDBRANCH   1   8
TORSDOF 6
ENDMDL
MODEL 2
REMARK VINA RESULT:    -4.759      3.279      5.629
REMARK INTER + INTRA:          -6.649
REMARK INTER:                  -6.247
REMARK INTRA:                  -0.402
REMARK UNBOUND:                -0.221
REMARK SMILES CCCCCCC=CC(=O)[O-]
REMARK SMILES IDX 5 1 6 2 7 3 8 4 9 5 10 6 11 7 4 8 3 9 2 10 1 11
REMARK H PARENT
REMARK Flexibility Score: inf
ROOT
ATOM      1  C   UNL     1      29.008  -6.209 -13.304  1.00  0.00     0.004 C 
ENDROOT
BRANCH   1   2
ATOM      2  C   UNL     1      29.602  -7.589 -12.982  1.00  0.00     0.027 C 
BRANCH   2   3
ATOM      3  C   UNL     1      29.582  -8.483 -14.188  1.00  0.00    -0.025 C 
ATOM      4  C   UNL     1      29.569  -7.983 -15.427  1.00  0.00     0.020 C 
BRANCH   4   5
ATOM      5  C   UNL     1      29.564  -8.846 -16.618  1.00  0.00     0.064 C 
ATOM      6  O   UNL     1      30.576  -9.547 -16.881  1.00  0.00    -0.545 OA
ATOM      7  O   UNL     1      28.458  -8.901 -17.459  1.00  0.00    -0.545 OA
ENDBRANCH   4   5
ENDBRANCH   2   3
ENDBRANCH   1   2
BRANCH   1   8
ATOM      8  C   UNL     1      30.025  -5.072 -13.123  1.00  0.00     0.000 C 
BRANCH   8   9
ATOM      9  C   UNL     1      31.440  -5.590 -12.812  1.00  0.00    -0.000 C 
BRANCH   9  10
ATOM     10  C   UNL     1      31.803  -5.452 -11.325  1.00  0.00    -0.003 C 
ATOM     11  C   UNL     1      32.670  -6.605 -10.821  1.00  0.00     0.004 C 
ENDBRANCH   9  10
ENDBRANCH   8   9
ENDBRANCH   1   8
TORSDOF 6
ENDMDL
MODEL 3
REMARK VINA RESULT:    -4.669      1.097      1.703
REMARK INTER + INTRA:          -6.527
REMARK INTER:                  -6.185
REMARK INTRA:                  -0.342
REMARK UNBOUND:                -0.221
REMARK SMILES CCCCCCC=CC(=O)[O-]
REMARK SMILES IDX 5 1 6 2 7 3 8 4 9 5 10 6 11 7 4 8 3 9 2 10 1 11
REMARK H PARENT
REMARK Flexibility Score: inf
ROOT
ATOM      1  C   UNL     1      30.080  -5.324 -13.484  1.00  0.00     0.004 C 
ENDROOT
BRANCH   1   2
ATOM      2  C   UNL     1      31.488  -5.841 -13.151  1.00  0.00     0.027 C 
BRANCH   2   3
ATOM      3  C   UNL     1      31.801  -5.660 -11.694  1.00  0.00    -0.025 C 
ATOM      4  C   UNL     1      32.605  -6.506 -11.042  1.00  0.00     0.020 C 
BRANCH   4   5
ATOM      5  C   UNL     1      32.931  -6.334  -9.618  1.00  0.00     0.064 C 
ATOM      6  O   UNL     1      32.425  -5.376  -8.977  1.00  0.00    -0.545 OA
ATOM      7  O   UNL     1      33.790  -7.213  -8.968  1.00  0.00    -0.545 OA
ENDBRANCH   4   5
ENDBRANCH   2   3
ENDBRANCH   1   2
BRANCH   1   8
ATOM      8  C   UNL     1      29.031  -6.446 -13.515  1.00  0.00     0.000 C 
BRANCH   8   9
ATOM      9  C   UNL     1      29.604  -7.775 -14.036  1.00  0.00    -0.000 C 
BRANCH   9  10
ATOM     10  C   UNL     1      29.626  -7.844 -15.571  1.00  0.00    -0.003 C 
ATOM     11  C   UNL     1      29.983  -9.235 -16.093  1.00  0.00     0.004 C 
ENDBRANCH   9  10
ENDBRANCH   8   9
ENDBRANCH   1   8
TORSDOF 6
ENDMDL
MODEL 4
REMARK VINA RESULT:    -4.412      3.229      5.992
REMARK INTER + INTRA:          -6.180
REMARK INTER:                  -5.983
REMARK INTRA:                  -0.198
REMARK UNBOUND:                -0.221
REMARK SMILES CCCCCCC=CC(=O)[O-]
REMARK SMILES IDX 5 1 6 2 7 3 8 4 9 5 10 6 11 7 4 8 3 9 2 10 1 11
REMARK H PARENT
REMARK Flexibility Score: inf
ROOT
ATOM      1  C   UNL     1      30.650  -6.697 -12.767  1.00  0.00     0.004 C 
ENDROOT
BRANCH   1   2
ATOM      2  C   UNL     1      29.931  -5.901 -13.868  1.00  0.00     0.027 C 
BRANCH   2   3
ATOM      3  C   UNL     1      29.796  -6.712 -15.124  1.00  0.00    -0.025 C 
ATOM      4  C   UNL     1      29.804  -8.048 -15.097  1.00  0.00     0.020 C 
BRANCH   4   5
ATOM      5  C   UNL     1      29.659  -8.855 -16.317  1.00  0.00     0.064 C 
ATOM      6  O   UNL     1      30.620  -9.569 -16.708  1.00  0.00    -0.545 OA
ATOM      7  O   UNL     1      28.477  -8.843 -17.048  1.00  0.00    -0.545 OA
ENDBRANCH   4   5
ENDBRANCH   2   3
ENDBRANCH   1   2
BRANCH   1   8
ATOM      8  C   UNL     1      31.665  -5.845 -11.989  1.00  0.00     0.000 C 
BRANCH   8   9
ATOM      9  C   UNL     1      32.723  -6.699 -11.271  1.00  0.00    -0.000 C 
BRANCH   9  10
ATOM     10  C   UNL     1      32.857  -6.340  -9.783  1.00  0.00    -0.003 C 
ATOM     11  C   UNL     1      33.766  -7.306  -9.023  1.00  0.00     0.004 C 
ENDBRANCH   9  10
ENDBRANCH   8   9
ENDBRANCH   1   8
TORSDOF 6
ENDMDL
MODEL 5
REMARK VINA RESULT:    -4.328      4.736      5.665
REMARK INTER + INTRA:          -6.066
REMARK INTER:                  -5.849
REMARK INTRA:                  -0.217
REMARK UNBOUND:                -0.221
REMARK SMILES CCCCCCC=CC(=O)[O-]
REMARK SMILES IDX 5 1 6 2 7 3 8 4 9 5 10 6 11 7 4 8 3 9 2 10 1 11
REMARK H PARENT
REMARK Flexibility Score: inf
ROOT
ATOM      1  C   UNL     1      33.336  -5.522 -16.528  1.00  0.00     0.004 C 
ENDROOT
BRANCH   1   2
ATOM      2  C   UNL     1      31.857  -5.103 -16.542  1.00  0.00     0.027 C 
BRANCH   2   3
ATOM      3  C   UNL     1      31.165  -5.520 -15.277  1.00  0.00    -0.025 C 
ATOM      4  C   UNL     1      30.175  -6.418 -15.285  1.00  0.00     0.020 C 
BRANCH   4   5
ATOM      5  C   UNL     1      29.497  -6.846 -14.052  1.00  0.00     0.064 C 
ATOM      6  O   UNL     1      29.520  -8.060 -13.719  1.00  0.00    -0.545 OA
ATOM      7  O   UNL     1      28.830  -5.930 -13.247  1.00  0.00    -0.545 OA
ENDBRANCH   4   5
ENDBRANCH   2   3
ENDBRANCH   1   2
BRANCH   1   8
ATOM      8  C   UNL     1      34.067  -5.149 -17.827  1.00  0.00     0.000 C 
BRANCH   8   9
ATOM      9  C   UNL     1      35.535  -4.757 -17.587  1.00  0.00    -0.000 C 
BRANCH   9  10
ATOM     10  C   UNL     1      36.148  -5.487 -16.382  1.00  0.00    -0.003 C 
ATOM     11  C   UNL     1      37.506  -6.112 -16.701  1.00  0.00     0.004 C 
ENDBRANCH   9  10
ENDBRANCH   8   9
ENDBRANCH   1   8
TORSDOF 6
ENDMDL
MODEL 6
REMARK VINA RESULT:    -4.289      4.234      4.905
REMARK INTER + INTRA:          -6.014
REMARK INTER:                  -5.686
REMARK INTRA:                  -0.328
REMARK UNBOUND:                -0.221
REMARK SMILES CCCCCCC=CC(=O)[O-]
REMARK SMILES IDX 5 1 6 2 7 3 8 4 9 5 10 6 11 7 4 8 3 9 2 10 1 11
REMARK H PARENT
REMARK Flexibility Score: inf
ROOT
ATOM      1  C   UNL     1      31.098  -5.462 -15.109  1.00  0.00     0.004 C 
ENDROOT
BRANCH   1   2
ATOM      2  C   UNL     1      31.707  -5.392 -16.518  1.00  0.00     0.027 C 
BRANCH   2   3
ATOM      3  C   UNL     1      33.206  -5.453 -16.465  1.00  0.00    -0.025 C 
ATOM      4  C   UNL     1      33.956  -5.149 -17.528  1.00  0.00     0.020 C 
BRANCH   4   5
ATOM      5  C   UNL     1      35.425  -5.191 -17.486  1.00  0.00     0.064 C 
ATOM      6  O   UNL     1      36.081  -4.123 -17.613  1.00  0.00    -0.545 OA
ATOM      7  O   UNL     1      36.103  -6.391 -17.309  1.00  0.00    -0.545 OA
ENDBRANCH   4   5
ENDBRANCH   2   3
ENDBRANCH   1   2
BRANCH   1   8
ATOM      8  C   UNL     1      29.838  -6.339 -15.053  1.00  0.00     0.000 C 
BRANCH   8   9
ATOM      9  C   UNL     1      29.965  -7.490 -14.040  1.00  0.00    -0.000 C 
BRANCH   9  10
ATOM     10  C   UNL     1      29.626  -8.856 -14.657  1.00  0.00    -0.003 C 
ATOM     11  C   UNL     1      29.927  -8.918 -16.154  1.00  0.00     0.004 C 
ENDBRANCH   9  10
ENDBRANCH   8   9
ENDBRANCH   1   8
TORSDOF 6
ENDMDL
MODEL 7
REMARK VINA RESULT:    -4.098      4.342      5.503
REMARK INTER + INTRA:          -5.757
REMARK INTER:                  -5.459
REMARK INTRA:                  -0.298
REMARK UNBOUND:                -0.221
REMARK SMILES CCCCCCC=CC(=O)[O-]
REMARK SMILES IDX 5 1 6 2 7 3 8 4 9 5 10 6 11 7 4 8 3 9 2 10 1 11
REMARK H PARENT
REMARK Flexibility Score: inf
ROOT
ATOM      1  C   UNL     1      31.132  -5.395 -15.348  1.00  0.00     0.004 C 
ENDROOT
BRANCH   1   2
ATOM      2  C   UNL     1      31.821  -5.454 -16.720  1.00  0.00     0.027 C 
BRANCH   2   3
ATOM      3  C   UNL     1      33.315  -5.425 -16.578  1.00  0.00    -0.025 C 
ATOM      4  C   UNL     1      34.113  -5.222 -17.631  1.00  0.00     0.020 C 
BRANCH   4   5
ATOM      5  C   UNL     1      35.578  -5.178 -17.504  1.00  0.00     0.064 C 
ATOM      6  O   UNL     1      36.219  -6.248 -17.334  1.00  0.00    -0.545 OA
ATOM      7  O   UNL     1      36.266  -3.972 -17.569  1.00  0.00    -0.545 OA
ENDBRANCH   4   5
ENDBRANCH   2   3
ENDBRANCH   1   2
BRANCH   1   8
ATOM      8  C   UNL     1      30.203  -6.594 -15.102  1.00  0.00     0.000 C 
BRANCH   8   9
ATOM      9  C   UNL     1      30.082  -6.951 -13.610  1.00  0.00    -0.000 C 
BRANCH   9  10
ATOM     10  C   UNL     1      30.798  -5.938 -12.703  1.00  0.00    -0.003 C 
ATOM     11  C   UNL     1      32.006  -6.540 -11.987  1.00  0.00     0.004 C 
ENDBRANCH   9  10
ENDBRANCH   8   9
ENDBRANCH   1   8
TORSDOF 6
ENDMDL
MODEL 8
REMARK VINA RESULT:    -3.681      5.518      6.457
REMARK INTER + INTRA:          -5.193
REMARK INTER:                  -4.907
REMARK INTRA:                  -0.285
REMARK UNBOUND:                -0.221
REMARK SMILES CCCCCCC=CC(=O)[O-]
REMARK SMILES IDX 5 1 6 2 7 3 8 4 9 5 10 6 11 7 4 8 3 9 2 10 1 11
REMARK H PARENT
REMARK Flexibility Score: inf
ROOT
ATOM      1  C   UNL     1      34.647  -5.820 -17.532  1.00  0.00     0.004 C 
ENDROOT
BRANCH   1   2
ATOM      2  C   UNL     1      33.317  -5.080 -17.319  1.00  0.00     0.027 C 
BRANCH   2   3
ATOM      3  C   UNL     1      32.531  -5.690 -16.195  1.00  0.00    -0.025 C 
ATOM      4  C   UNL     1      31.318  -5.237 -15.865  1.00  0.00     0.020 C 
BRANCH   4   5
ATOM      5  C   UNL     1      30.531  -5.834 -14.775  1.00  0.00     0.064 C 
ATOM      6  O   UNL     1      30.953  -5.759 -13.591  1.00  0.00    -0.545 OA
ATOM      7  O   UNL     1      29.327  -6.480 -15.031  1.00  0.00    -0.545 OA
ENDBRANCH   4   5
ENDBRANCH   2   3
ENDBRANCH   1   2
BRANCH   1   8
ATOM      8  C   UNL     1      35.597  -5.684 -16.332  1.00  0.00     0.000 C 
BRANCH   8   9
ATOM      9  C   UNL     1      37.042  -5.369 -16.756  1.00  0.00    -0.000 C 
BRANCH   9  10
ATOM     10  C   UNL     1      37.125  -4.787 -18.175  1.00  0.00    -0.003 C 
ATOM     11  C   UNL     1      36.981  -3.265 -18.197  1.00  0.00     0.004 C 
ENDBRANCH   9  10
ENDBRANCH   8   9
ENDBRANCH   1   8
TORSDOF 6
ENDMDL
MODEL 9
REMARK VINA RESULT:    -3.667      2.520      3.140
REMARK INTER + INTRA:          -5.174
REMARK INTER:                  -5.041
REMARK INTRA:                  -0.133
REMARK UNBOUND:                -0.221
REMARK SMILES CCCCCCC=CC(=O)[O-]
REMARK SMILES IDX 5 1 6 2 7 3 8 4 9 5 10 6 11 7 4 8 3 9 2 10 1 11
REMARK H PARENT
REMARK Flexibility Score: inf
ROOT
ATOM      1  C   UNL     1      30.035  -6.661 -15.420  1.00  0.00     0.004 C 
ENDROOT
BRANCH   1   2
ATOM      2  C   UNL     1      29.945  -7.501 -14.135  1.00  0.00     0.027 C 
BRANCH   2   3
ATOM      3  C   UNL     1      30.444  -6.730 -12.948  1.00  0.00    -0.025 C 
ATOM      4  C   UNL     1      31.646  -6.971 -12.414  1.00  0.00     0.020 C 
BRANCH   4   5
ATOM      5  C   UNL     1      32.154  -6.215 -11.259  1.00  0.00     0.064 C 
ATOM      6  O   UNL     1      31.746  -5.041 -11.058  1.00  0.00    -0.545 OA
ATOM      7  O   UNL     1      33.078  -6.776 -10.385  1.00  0.00    -0.545 OA
ENDBRANCH   4   5
ENDBRANCH   2   3
ENDBRANCH   1   2
BRANCH   1   8
ATOM      8  C   UNL     1      30.985  -5.462 -15.275  1.00  0.00     0.000 C 
BRANCH   8   9
ATOM      9  C   UNL     1      31.751  -5.157 -16.573  1.00  0.00    -0.000 C 
BRANCH   9  10
ATOM     10  C   UNL     1      33.243  -5.511 -16.473  1.00  0.00    -0.003 C 
ATOM     11  C   UNL     1      33.994  -5.277 -17.783  1.00  0.00     0.004 C 
ENDBRANCH   9  10
ENDBRANCH   8   9
ENDBRANCH   1   8
TORSDOF 6
ENDMDL
