MODEL 1
REMARK VINA RESULT:    -2.718      0.000      0.000
REMARK INTER + INTRA:          -4.249
REMARK INTER:                  -3.910
REMARK INTRA:                  -0.339
REMARK UNBOUND:                -0.339
REMARK SMILES CCCCCCCCCO
REMARK SMILES IDX 6 1 5 2 4 3 3 4 2 5 1 6 7 7 8 8 9 9 10 10
REMARK H PARENT 10 11
REMARK Flexibility Score: inf
ROOT
ATOM      1  C   UNL     1     112.279 127.809 115.606  1.00  0.00     0.000 C 
ENDROOT
BRANCH   1   2
ATOM      2  C   UNL     1     111.884 128.682 116.814  1.00  0.00     0.000 C 
BRANCH   2   3
ATOM      3  C   UNL     1     111.076 127.954 117.904  1.00  0.00    -0.000 C 
BRANCH   3   4
ATOM      4  C   UNL     1     111.644 126.569 118.242  1.00  0.00    -0.000 C 
BRANCH   4   5
ATOM      5  C   UNL     1     110.530 125.517 118.290  1.00  0.00    -0.003 C 
ATOM      6  C   UNL     1     111.050 124.187 118.830  1.00  0.00     0.004 C 
ENDBRANCH   4   5
ENDBRANCH   3   4
ENDBRANCH   2   3
ENDBRANCH   1   2
BRANCH   1   7
ATOM      7  C   UNL     1     113.592 128.215 114.906  1.00  0.00     0.002 C 
BRANCH   7   8
ATOM      8  C   UNL     1     114.541 129.080 115.758  1.00  0.00     0.028 C 
BRANCH   8   9
ATOM      9  C   UNL     1     115.923 128.448 115.976  1.00  0.00     0.156 C 
BRANCH   9  10
ATOM     10  O   UNL     1     116.054 127.254 115.253  1.00  0.00    -0.396 OA
ATOM     11  H   UNL     1     116.128 127.509 114.296  1.00  0.00     0.210 HD
ENDBRANCH   9  10
ENDBRANCH   8   9
ENDBRANCH   7   8
ENDBRANCH   1   7
TORSDOF 8
ENDMDL
MODEL 2
REMARK VINA RESULT:    -2.701     19.504     21.049
REMARK INTER + INTRA:          -4.224
REMARK INTER:                  -3.903
REMARK INTRA:                  -0.322
REMARK UNBOUND:                -0.339
REMARK SMILES CCCCCCCCCO
REMARK SMILES IDX 6 1 5 2 4 3 3 4 2 5 1 6 7 7 8 8 9 9 10 10
REMARK H PARENT 10 11
REMARK Flexibility Score: inf
ROOT
ATOM      1  C   UNL     1     126.697 111.287 115.560  1.00  0.00     0.000 C 
ENDROOT
BRANCH   1   2
ATOM      2  C   UNL     1     127.218 110.436 116.734  1.00  0.00     0.000 C 
BRANCH   2   3
ATOM      3  C   UNL     1     128.112 111.190 117.735  1.00  0.00    -0.000 C 
BRANCH   3   4
ATOM      4  C   UNL     1     127.472 112.488 118.248  1.00  0.00    -0.000 C 
BRANCH   4   5
ATOM      5  C   UNL     1     128.545 113.522 118.610  1.00  0.00    -0.003 C 
ATOM      6  C   UNL     1     127.952 114.926 118.689  1.00  0.00     0.004 C 
ENDBRANCH   4   5
ENDBRANCH   3   4
ENDBRANCH   2   3
ENDBRANCH   1   2
BRANCH   1   7
ATOM      7  C   UNL     1     125.281 110.928 115.067  1.00  0.00     0.002 C 
BRANCH   7   8
ATOM      8  C   UNL     1     124.322 110.420 116.161  1.00  0.00     0.028 C 
BRANCH   8   9
ATOM      9  C   UNL     1     122.841 110.674 115.850  1.00  0.00     0.156 C 
BRANCH   9  10
ATOM     10  O   UNL     1     122.656 111.930 115.257  1.00  0.00    -0.396 OA
ATOM     11  H   UNL     1     122.797 111.807 114.282  1.00  0.00     0.210 HD
ENDBRANCH   9  10
ENDBRANCH   8   9
ENDBRANCH   7   8
ENDBRANCH   1   7
TORSDOF 8
ENDMDL
MODEL 3
REMARK VINA RESULT:    -2.672     14.056     16.171
REMARK INTER + INTRA:          -4.183
REMARK INTER:                  -3.867
REMARK INTRA:                  -0.316
REMARK UNBOUND:                -0.339
REMARK SMILES CCCCCCCCCO
REMARK SMILES IDX 6 1 5 2 4 3 3 4 2 5 1 6 7 7 8 8 9 9 10 10
REMARK H PARENT 10 11
REMARK Flexibility Score: inf
ROOT
ATOM      1  C   UNL     1     112.079 111.586 117.504  1.00  0.00     0.000 C 
ENDROOT
BRANCH   1   2
ATOM      2  C   UNL     1     112.073 110.291 118.340  1.00  0.00     0.000 C 
BRANCH   2   3
ATOM      3  C   UNL     1     113.444 109.875 118.904  1.00  0.00    -0.000 C 
BRANCH   3   4
ATOM      4  C   UNL     1     114.545 110.904 118.613  1.00  0.00    -0.000 C 
BRANCH   4   5
ATOM      5  C   UNL     1     115.094 111.502 119.914  1.00  0.00    -0.003 C 
ATOM      6  C   UNL     1     114.774 110.608 121.109  1.00  0.00     0.004 C 
ENDBRANCH   4   5
ENDBRANCH   3   4
ENDBRANCH   2   3
ENDBRANCH   1   2
BRANCH   1   7
ATOM      7  C   UNL     1     110.758 111.902 116.774  1.00  0.00     0.002 C 
BRANCH   7   8
ATOM      8  C   UNL     1     110.915 112.314 115.298  1.00  0.00     0.028 C 
BRANCH   8   9
ATOM      9  C   UNL     1     110.554 113.780 115.024  1.00  0.00     0.156 C 
BRANCH   9  10
ATOM     10  O   UNL     1     111.704 114.577 114.940  1.00  0.00    -0.396 OA
ATOM     11  H   UNL     1     111.673 115.202 115.711  1.00  0.00     0.210 HD
ENDBRANCH   9  10
ENDBRANCH   8   9
ENDBRANCH   7   8
ENDBRANCH   1   7
TORSDOF 8
ENDMDL
MODEL 4
REMARK VINA RESULT:    -2.661     12.137     14.961
REMARK INTER + INTRA:          -4.167
REMARK INTER:                  -3.914
REMARK INTRA:                  -0.253
REMARK UNBOUND:                -0.339
REMARK SMILES CCCCCCCCCO
REMARK SMILES IDX 6 1 5 2 4 3 3 4 2 5 1 6 7 7 8 8 9 9 10 10
REMARK H PARENT 10 11
REMARK Flexibility Score: inf
ROOT
ATOM      1  C   UNL     1     111.027 112.305 115.639  1.00  0.00     0.000 C 
ENDROOT
BRANCH   1   2
ATOM      2  C   UNL     1     111.165 112.305 117.175  1.00  0.00     0.000 C 
BRANCH   2   3
ATOM      3  C   UNL     1     111.371 110.916 117.807  1.00  0.00    -0.000 C 
BRANCH   3   4
ATOM      4  C   UNL     1     112.449 110.912 118.900  1.00  0.00    -0.000 C 
BRANCH   4   5
ATOM      5  C   UNL     1     113.793 110.430 118.342  1.00  0.00    -0.003 C 
ATOM      6  C   UNL     1     114.951 111.243 118.915  1.00  0.00     0.004 C 
ENDBRANCH   4   5
ENDBRANCH   3   4
ENDBRANCH   2   3
ENDBRANCH   1   2
BRANCH   1   7
ATOM      7  C   UNL     1     110.945 113.700 114.989  1.00  0.00     0.002 C 
BRANCH   7   8
ATOM      8  C   UNL     1     109.925 114.659 115.634  1.00  0.00     0.028 C 
BRANCH   8   9
ATOM      9  C   UNL     1     110.397 116.118 115.687  1.00  0.00     0.156 C 
BRANCH   9  10
ATOM     10  O   UNL     1     111.752 116.224 115.345  1.00  0.00    -0.396 OA
ATOM     11  H   UNL     1     112.101 115.298 115.277  1.00  0.00     0.210 HD
ENDBRANCH   9  10
ENDBRANCH   8   9
ENDBRANCH   7   8
ENDBRANCH   1   7
TORSDOF 8
ENDMDL
MODEL 5
REMARK VINA RESULT:    -2.650     19.259     20.720
REMARK INTER + INTRA:          -4.151
REMARK INTER:                  -3.762
REMARK INTRA:                  -0.389
REMARK UNBOUND:                -0.339
REMARK SMILES CCCCCCCCCO
REMARK SMILES IDX 6 1 5 2 4 3 3 4 2 5 1 6 7 7 8 8 9 9 10 10
REMARK H PARENT 10 11
REMARK Flexibility Score: inf
ROOT
ATOM      1  C   UNL     1     126.507 111.389 118.004  1.00  0.00     0.000 C 
ENDROOT
BRANCH   1   2
ATOM      2  C   UNL     1     127.412 112.205 118.950  1.00  0.00     0.000 C 
BRANCH   2   3
ATOM      3  C   UNL     1     128.418 113.133 118.245  1.00  0.00    -0.000 C 
BRANCH   3   4
ATOM      4  C   UNL     1     128.195 114.615 118.575  1.00  0.00    -0.000 C 
BRANCH   4   5
ATOM      5  C   UNL     1     126.983 114.795 119.496  1.00  0.00    -0.003 C 
ATOM      6  C   UNL     1     126.242 116.093 119.185  1.00  0.00     0.004 C 
ENDBRANCH   4   5
ENDBRANCH   3   4
ENDBRANCH   2   3
ENDBRANCH   1   2
BRANCH   1   7
ATOM      7  C   UNL     1     127.221 110.770 116.787  1.00  0.00     0.002 C 
BRANCH   7   8
ATOM      8  C   UNL     1     126.692 111.237 115.417  1.00  0.00     0.028 C 
BRANCH   8   9
ATOM      9  C   UNL     1     125.319 110.656 115.054  1.00  0.00     0.156 C 
BRANCH   9  10
ATOM     10  O   UNL     1     124.345 111.662 114.987  1.00  0.00    -0.396 OA
ATOM     11  H   UNL     1     124.345 111.994 114.051  1.00  0.00     0.210 HD
ENDBRANCH   9  10
ENDBRANCH   8   9
ENDBRANCH   7   8
ENDBRANCH   1   7
TORSDOF 8
ENDMDL
MODEL 6
REMARK VINA RESULT:    -2.633      1.248      1.869
REMARK INTER + INTRA:          -4.127
REMARK INTER:                  -3.801
REMARK INTRA:                  -0.326
REMARK UNBOUND:                -0.339
REMARK SMILES CCCCCCCCCO
REMARK SMILES IDX 6 1 5 2 4 3 3 4 2 5 1 6 7 7 8 8 9 9 10 10
REMARK H PARENT 10 11
REMARK Flexibility Score: inf
ROOT
ATOM      1  C   UNL     1     112.149 128.528 117.403  1.00  0.00     0.000 C 
ENDROOT
BRANCH   1   2
ATOM      2  C   UNL     1     111.564 127.106 117.302  1.00  0.00     0.000 C 
BRANCH   2   3
ATOM      3  C   UNL     1     110.372 126.827 118.236  1.00  0.00    -0.000 C 
BRANCH   3   4
ATOM      4  C   UNL     1     110.242 125.344 118.611  1.00  0.00    -0.000 C 
BRANCH   4   5
ATOM      5  C   UNL     1     111.393 124.907 119.524  1.00  0.00    -0.003 C 
ATOM      6  C   UNL     1     112.013 123.599 119.041  1.00  0.00     0.004 C 
ENDBRANCH   4   5
ENDBRANCH   3   4
ENDBRANCH   2   3
ENDBRANCH   1   2
BRANCH   1   7
ATOM      7  C   UNL     1     111.858 129.444 116.198  1.00  0.00     0.002 C 
BRANCH   7   8
ATOM      8  C   UNL     1     112.520 129.008 114.876  1.00  0.00     0.028 C 
BRANCH   8   9
ATOM      9  C   UNL     1     114.025 128.736 115.000  1.00  0.00     0.156 C 
BRANCH   9  10
ATOM     10  O   UNL     1     114.304 127.368 114.875  1.00  0.00    -0.396 OA
ATOM     11  H   UNL     1     113.439 126.918 114.692  1.00  0.00     0.210 HD
ENDBRANCH   9  10
ENDBRANCH   8   9
ENDBRANCH   7   8
ENDBRANCH   1   7
TORSDOF 8
ENDMDL
MODEL 7
REMARK VINA RESULT:    -2.625     12.178     14.320
REMARK INTER + INTRA:          -4.115
REMARK INTER:                  -3.689
REMARK INTRA:                  -0.426
REMARK UNBOUND:                -0.339
REMARK SMILES CCCCCCCCCO
REMARK SMILES IDX 6 1 5 2 4 3 3 4 2 5 1 6 7 7 8 8 9 9 10 10
REMARK H PARENT 10 11
REMARK Flexibility Score: inf
ROOT
ATOM      1  C   UNL     1     128.141 127.789 118.286  1.00  0.00     0.000 C 
ENDROOT
BRANCH   1   2
ATOM      2  C   UNL     1     127.887 129.306 118.385  1.00  0.00     0.000 C 
BRANCH   2   3
ATOM      3  C   UNL     1     126.428 129.702 118.675  1.00  0.00    -0.000 C 
BRANCH   3   4
ATOM      4  C   UNL     1     125.421 128.623 118.251  1.00  0.00    -0.000 C 
BRANCH   4   5
ATOM      5  C   UNL     1     124.503 128.242 119.417  1.00  0.00    -0.003 C 
ATOM      6  C   UNL     1     124.179 126.750 119.399  1.00  0.00     0.004 C 
ENDBRANCH   4   5
ENDBRANCH   3   4
ENDBRANCH   2   3
ENDBRANCH   1   2
BRANCH   1   7
ATOM      7  C   UNL     1     128.812 127.320 116.979  1.00  0.00     0.002 C 
BRANCH   7   8
ATOM      8  C   UNL     1     127.844 126.768 115.915  1.00  0.00     0.028 C 
BRANCH   8   9
ATOM      9  C   UNL     1     128.357 125.505 115.209  1.00  0.00     0.156 C 
BRANCH   9  10
ATOM     10  O   UNL     1     127.300 124.647 114.875  1.00  0.00    -0.396 OA
ATOM     11  H   UNL     1     127.637 123.721 115.000  1.00  0.00     0.210 HD
ENDBRANCH   9  10
ENDBRANCH   8   9
ENDBRANCH   7   8
ENDBRANCH   1   7
TORSDOF 8
ENDMDL
MODEL 8
REMARK VINA RESULT:    -2.624     12.425     14.746
REMARK INTER + INTRA:          -4.114
REMARK INTER:                  -3.868
REMARK INTRA:                  -0.246
REMARK UNBOUND:                -0.339
REMARK SMILES CCCCCCCCCO
REMARK SMILES IDX 6 1 5 2 4 3 3 4 2 5 1 6 7 7 8 8 9 9 10 10
REMARK H PARENT 10 11
REMARK Flexibility Score: inf
ROOT
ATOM      1  C   UNL     1     129.034 127.289 116.404  1.00  0.00     0.000 C 
ENDROOT
BRANCH   1   2
ATOM      2  C   UNL     1     128.271 127.788 117.648  1.00  0.00     0.000 C 
BRANCH   2   3
ATOM      3  C   UNL     1     126.747 127.571 117.605  1.00  0.00    -0.000 C 
BRANCH   3   4
ATOM      4  C   UNL     1     125.963 128.710 118.270  1.00  0.00    -0.000 C 
BRANCH   4   5
ATOM      5  C   UNL     1     124.565 128.241 118.690  1.00  0.00    -0.003 C 
ATOM      6  C   UNL     1     124.634 126.924 119.459  1.00  0.00     0.004 C 
ENDBRANCH   4   5
ENDBRANCH   3   4
ENDBRANCH   2   3
ENDBRANCH   1   2
BRANCH   1   7
ATOM      7  C   UNL     1     128.217 126.399 115.447  1.00  0.00     0.002 C 
BRANCH   7   8
ATOM      8  C   UNL     1     128.980 125.189 114.875  1.00  0.00     0.028 C 
BRANCH   8   9
ATOM      9  C   UNL     1     128.686 123.872 115.606  1.00  0.00     0.156 C 
BRANCH   9  10
ATOM     10  O   UNL     1     127.432 123.360 115.242  1.00  0.00    -0.396 OA
ATOM     11  H   UNL     1     127.549 122.928 114.356  1.00  0.00     0.210 HD
ENDBRANCH   9  10
ENDBRANCH   8   9
ENDBRANCH   7   8
ENDBRANCH   1   7
TORSDOF 8
ENDMDL
MODEL 9
REMARK VINA RESULT:    -2.453      2.167      3.392
REMARK INTER + INTRA:          -3.868
REMARK INTER:                  -3.318
REMARK INTRA:                  -0.549
REMARK UNBOUND:                -0.339
REMARK SMILES CCCCCCCCCO
REMARK SMILES IDX 6 1 5 2 4 3 3 4 2 5 1 6 7 7 8 8 9 9 10 10
REMARK H PARENT 10 11
REMARK Flexibility Score: inf
ROOT
ATOM      1  C   UNL     1     114.980 129.921 116.263  1.00  0.00     0.000 C 
ENDROOT
BRANCH   1   2
ATOM      2  C   UNL     1     114.372 129.635 114.875  1.00  0.00     0.000 C 
BRANCH   2   3
ATOM      3  C   UNL     1     112.865 129.322 114.878  1.00  0.00    -0.000 C 
BRANCH   3   4
ATOM      4  C   UNL     1     112.559 127.864 115.245  1.00  0.00    -0.000 C 
BRANCH   4   5
ATOM      5  C   UNL     1     112.046 127.757 116.686  1.00  0.00    -0.003 C 
ATOM      6  C   UNL     1     111.374 129.053 117.130  1.00  0.00     0.004 C 
ENDBRANCH   4   5
ENDBRANCH   3   4
ENDBRANCH   2   3
ENDBRANCH   1   2
BRANCH   1   7
ATOM      7  C   UNL     1     116.165 129.018 116.659  1.00  0.00     0.002 C 
BRANCH   7   8
ATOM      8  C   UNL     1     116.500 127.906 115.646  1.00  0.00     0.028 C 
BRANCH   8   9
ATOM      9  C   UNL     1     117.757 127.101 116.006  1.00  0.00     0.156 C 
BRANCH   9  10
ATOM     10  O   UNL     1     118.911 127.888 115.891  1.00  0.00    -0.396 OA
ATOM     11  H   UNL     1     118.612 128.791 115.608  1.00  0.00     0.210 HD
ENDBRANCH   9  10
ENDBRANCH   8   9
ENDBRANCH   7   8
ENDBRANCH   1   7
TORSDOF 8
ENDMDL
