MODEL 1
REMARK VINA RESULT:    -7.798      0.000      0.000
REMARK INTER + INTRA:         -11.923
REMARK INTER:                 -10.761
REMARK INTRA:                  -1.162
REMARK UNBOUND:                -1.162
REMARK SMILES O=C([O-])[C@@H]1O[C@H](Oc2cc3oc(-c4ccccc4)cc(=O)c3c(O)c2O)[C@@H](O)[C@@H](O)[C@H]1O
REMARK SMILES IDX 7 1 6 2 4 3 31 4 5 5 29 6 27 7 2 8 1 9 3 10 32 11 30 13
REMARK SMILES IDX 28 15 8 17 25 18 9 19 23 20 10 21 22 22 11 23 20 24 12 25
REMARK SMILES IDX 19 26 21 27 26 28 24 30 13 32 14 33 18 34 15 35 17 36 16 37
REMARK H PARENT 32 12 30 14 28 16 26 29 24 31
REMARK Flexibility Score: inf
ROOT
ATOM      1  O   UNL     1      61.799  18.905  48.812  1.00  0.00    -0.458 OA
ENDROOT
BRANCH   1   2
ATOM      2  C   UNL     1      62.903  19.342  48.027  1.00  0.00     0.339 C 
ATOM      3  C   UNL     1      64.883  18.690  49.250  1.00  0.00     0.199 C 
ATOM      4  C   UNL     1      64.465  17.191  48.974  1.00  0.00     0.180 C 
ATOM      5  O   UNL     1      63.968  19.727  48.880  1.00  0.00    -0.328 OA
ATOM      6  C   UNL     1      63.579  16.979  47.720  1.00  0.00     0.181 C 
ATOM      7  C   UNL     1      63.315  18.294  46.980  1.00  0.00     0.214 C 
BRANCH   3   8
ATOM      8  C   UNL     1      65.272  18.870  50.689  1.00  0.00     0.073 C 
ATOM      9  O   UNL     1      66.425  18.589  51.092  1.00  0.00    -0.547 OA
ATOM     10  O   UNL     1      66.555  18.554  51.110  1.00  0.00    -0.547 OA
ENDBRANCH   3   8
BRANCH   4  11
ATOM     11  O   UNL     1      65.625  16.407  48.847  1.00  0.00    -0.387 OA
ATOM     12  H   UNL     1      66.310  16.978  48.428  1.00  0.00     0.211 HD
ENDBRANCH   4  11
BRANCH   6  13
ATOM     13  O   UNL     1      64.104  16.036  46.820  1.00  0.00    -0.387 OA
ATOM     14  H   UNL     1      65.074  15.949  47.012  1.00  0.00     0.211 HD
ENDBRANCH   6  13
BRANCH   7  15
ATOM     15  O   UNL     1      64.486  18.735  46.349  1.00  0.00    -0.384 OA
ATOM     16  H   UNL     1      64.241  19.313  45.586  1.00  0.00     0.211 HD
ENDBRANCH   7  15
ENDBRANCH   1   2
BRANCH   1  17
ATOM     17  C   UNL     1      60.566  18.637  48.237  1.00  0.00     0.172 A 
ATOM     18  C   UNL     1      59.893  17.427  48.500  1.00  0.00     0.201 A 
ATOM     19  C   UNL     1      59.996  19.595  47.403  1.00  0.00     0.098 A 
ATOM     20  C   UNL     1      58.627  17.191  47.918  1.00  0.00     0.176 A 
ATOM     21  C   UNL     1      58.762  19.354  46.789  1.00  0.00     0.146 A 
ATOM     22  C   UNL     1      58.045  18.169  47.069  1.00  0.00     0.111 A 
ATOM     23  O   UNL     1      58.315  20.236  45.907  1.00  0.00    -0.456 OA
ATOM     24  C   UNL     1      56.792  18.005  46.442  1.00  0.00     0.197 A 
ATOM     25  C   UNL     1      57.185  20.057  45.239  1.00  0.00     0.138 A 
ATOM     26  C   UNL     1      56.362  18.965  45.522  1.00  0.00     0.100 A 
ATOM     27  O   UNL     1      56.067  17.004  46.678  1.00  0.00    -0.289 OA
BRANCH  18  28
ATOM     28  O   UNL     1      60.465  16.467  49.319  1.00  0.00    -0.502 OA
ATOM     29  H   UNL     1      61.027  16.704  50.132  1.00  0.00     0.293 HD
ENDBRANCH  18  28
BRANCH  20  30
ATOM     30  O   UNL     1      57.987  15.973  48.156  1.00  0.00    -0.504 OA
ATOM     31  H   UNL     1      58.476  15.096  47.985  1.00  0.00     0.293 HD
ENDBRANCH  20  30
BRANCH  25  32
ATOM     32  C   UNL     1      56.934  20.882  44.050  1.00  0.00     0.017 A 
ATOM     33  C   UNL     1      56.141  20.324  43.044  1.00  0.00     0.012 A 
ATOM     34  C   UNL     1      57.704  22.031  43.762  1.00  0.00     0.012 A 
ATOM     35  C   UNL     1      56.114  20.892  41.765  1.00  0.00     0.001 A 
ATOM     36  C   UNL     1      57.643  22.619  42.483  1.00  0.00     0.001 A 
ATOM     37  C   UNL     1      56.898  22.016  41.476  1.00  0.00     0.000 A 
ENDBRANCH  25  32
ENDBRANCH   1  17
TORSDOF 9
ENDMDL
MODEL 2
REMARK VINA RESULT:    -7.626      1.505      2.444
REMARK INTER + INTRA:         -11.686
REMARK INTER:                 -10.306
REMARK INTRA:                  -1.380
REMARK UNBOUND:                -1.162
REMARK SMILES O=C([O-])[C@@H]1O[C@H](Oc2cc3oc(-c4ccccc4)cc(=O)c3c(O)c2O)[C@@H](O)[C@@H](O)[C@H]1O
REMARK SMILES IDX 7 1 6 2 4 3 31 4 5 5 29 6 27 7 2 8 1 9 3 10 32 11 30 13
REMARK SMILES IDX 28 15 8 17 25 18 9 19 23 20 10 21 22 22 11 23 20 24 12 25
REMARK SMILES IDX 19 26 21 27 26 28 24 30 13 32 14 33 18 34 15 35 17 36 16 37
REMARK H PARENT 32 12 30 14 28 16 26 29 24 31
REMARK Flexibility Score: inf
ROOT
ATOM      1  O   UNL     1      62.486  19.933  48.541  1.00  0.00    -0.458 OA
ENDROOT
BRANCH   1   2
ATOM      2  C   UNL     1      62.676  20.525  49.821  1.00  0.00     0.339 C 
ATOM      3  C   UNL     1      64.400  19.222  50.903  1.00  0.00     0.199 C 
ATOM      4  C   UNL     1      65.393  19.767  49.801  1.00  0.00     0.180 C 
ATOM      5  O   UNL     1      63.006  19.520  50.764  1.00  0.00    -0.328 OA
ATOM      6  C   UNL     1      64.988  21.122  49.167  1.00  0.00     0.181 C 
ATOM      7  C   UNL     1      63.697  21.674  49.778  1.00  0.00     0.214 C 
BRANCH   3   8
ATOM      8  C   UNL     1      64.570  17.740  51.078  1.00  0.00     0.073 C 
ATOM      9  O   UNL     1      64.164  16.932  50.211  1.00  0.00    -0.547 OA
ATOM     10  O   UNL     1      64.114  16.866  50.103  1.00  0.00    -0.547 OA
ENDBRANCH   3   8
BRANCH   4  11
ATOM     11  O   UNL     1      66.675  19.894  50.362  1.00  0.00    -0.387 OA
ATOM     12  H   UNL     1      66.564  20.349  51.229  1.00  0.00     0.211 HD
ENDBRANCH   4  11
BRANCH   6  13
ATOM     13  O   UNL     1      65.996  22.097  49.248  1.00  0.00    -0.387 OA
ATOM     14  H   UNL     1      65.750  22.720  49.981  1.00  0.00     0.211 HD
ENDBRANCH   6  13
BRANCH   7  15
ATOM     15  O   UNL     1      63.932  22.107  51.090  1.00  0.00    -0.384 OA
ATOM     16  H   UNL     1      63.840  23.090  51.125  1.00  0.00     0.211 HD
ENDBRANCH   7  15
ENDBRANCH   1   2
BRANCH   1  17
ATOM     17  C   UNL     1      61.234  19.509  48.121  1.00  0.00     0.172 A 
ATOM     18  C   UNL     1      60.702  18.280  48.562  1.00  0.00     0.201 A 
ATOM     19  C   UNL     1      60.504  20.327  47.264  1.00  0.00     0.098 A 
ATOM     20  C   UNL     1      59.413  17.884  48.136  1.00  0.00     0.176 A 
ATOM     21  C   UNL     1      59.245  19.926  46.803  1.00  0.00     0.146 A 
ATOM     22  C   UNL     1      58.669  18.720  47.263  1.00  0.00     0.111 A 
ATOM     23  O   UNL     1      58.640  20.675  45.893  1.00  0.00    -0.456 OA
ATOM     24  C   UNL     1      57.384  18.392  46.783  1.00  0.00     0.197 A 
ATOM     25  C   UNL     1      57.474  20.336  45.362  1.00  0.00     0.138 A 
ATOM     26  C   UNL     1      56.784  19.215  45.827  1.00  0.00     0.100 A 
ATOM     27  O   UNL     1      56.777  17.363  47.183  1.00  0.00    -0.289 OA
BRANCH  18  28
ATOM     28  O   UNL     1      61.432  17.458  49.404  1.00  0.00    -0.502 OA
ATOM     29  H   UNL     1      61.305  16.450  49.433  1.00  0.00     0.293 HD
ENDBRANCH  18  28
BRANCH  20  30
ATOM     30  O   UNL     1      58.912  16.648  48.549  1.00  0.00    -0.504 OA
ATOM     31  H   UNL     1      58.123  16.604  49.191  1.00  0.00     0.293 HD
ENDBRANCH  20  30
BRANCH  25  32
ATOM     32  C   UNL     1      57.040  21.014  44.133  1.00  0.00     0.017 A 
ATOM     33  C   UNL     1      56.115  20.343  43.329  1.00  0.00     0.012 A 
ATOM     34  C   UNL     1      57.744  22.116  43.599  1.00  0.00     0.012 A 
ATOM     35  C   UNL     1      55.892  20.753  42.010  1.00  0.00     0.001 A 
ATOM     36  C   UNL     1      57.487  22.547  42.282  1.00  0.00     0.001 A 
ATOM     37  C   UNL     1      56.609  21.831  41.476  1.00  0.00     0.000 A 
ENDBRANCH  25  32
ENDBRANCH   1  17
TORSDOF 9
ENDMDL
MODEL 3
REMARK VINA RESULT:    -7.539      2.393      3.630
REMARK INTER + INTRA:         -11.565
REMARK INTER:                 -10.243
REMARK INTRA:                  -1.322
REMARK UNBOUND:                -1.162
REMARK SMILES O=C([O-])[C@@H]1O[C@H](Oc2cc3oc(-c4ccccc4)cc(=O)c3c(O)c2O)[C@@H](O)[C@@H](O)[C@H]1O
REMARK SMILES IDX 7 1 6 2 4 3 31 4 5 5 29 6 27 7 2 8 1 9 3 10 32 11 30 13
REMARK SMILES IDX 28 15 8 17 25 18 9 19 23 20 10 21 22 22 11 23 20 24 12 25
REMARK SMILES IDX 19 26 21 27 26 28 24 30 13 32 14 33 18 34 15 35 17 36 16 37
REMARK H PARENT 32 12 30 14 28 16 26 29 24 31
REMARK Flexibility Score: inf
ROOT
ATOM      1  O   UNL     1      62.939  16.751  47.099  1.00  0.00    -0.458 OA
ENDROOT
BRANCH   1   2
ATOM      2  C   UNL     1      63.138  17.014  48.483  1.00  0.00     0.339 C 
ATOM      3  C   UNL     1      63.137  14.856  49.573  1.00  0.00     0.199 C 
ATOM      4  C   UNL     1      64.475  14.548  48.790  1.00  0.00     0.180 C 
ATOM      5  O   UNL     1      62.428  16.059  49.254  1.00  0.00    -0.328 OA
ATOM      6  C   UNL     1      65.292  15.798  48.373  1.00  0.00     0.181 C 
ATOM      7  C   UNL     1      64.630  17.095  48.846  1.00  0.00     0.214 C 
BRANCH   3   8
ATOM      8  C   UNL     1      62.194  13.692  49.480  1.00  0.00     0.073 C 
ATOM      9  O   UNL     1      61.696  13.342  48.385  1.00  0.00    -0.547 OA
ATOM     10  O   UNL     1      61.658  13.323  48.256  1.00  0.00    -0.547 OA
ENDBRANCH   3   8
BRANCH   4  11
ATOM     11  O   UNL     1      65.288  13.718  49.579  1.00  0.00    -0.387 OA
ATOM     12  H   UNL     1      66.178  13.705  49.157  1.00  0.00     0.211 HD
ENDBRANCH   4  11
BRANCH   6  13
ATOM     13  O   UNL     1      66.624  15.766  48.818  1.00  0.00    -0.387 OA
ATOM     14  H   UNL     1      67.183  16.193  48.118  1.00  0.00     0.211 HD
ENDBRANCH   6  13
BRANCH   7  15
ATOM     15  O   UNL     1      64.742  17.214  50.237  1.00  0.00    -0.384 OA
ATOM     16  H   UNL     1      64.411  18.104  50.511  1.00  0.00     0.211 HD
ENDBRANCH   7  15
ENDBRANCH   1   2
BRANCH   1  17
ATOM     17  C   UNL     1      61.666  16.680  46.554  1.00  0.00     0.172 A 
ATOM     18  C   UNL     1      61.278  15.576  45.766  1.00  0.00     0.201 A 
ATOM     19  C   UNL     1      60.769  17.713  46.810  1.00  0.00     0.098 A 
ATOM     20  C   UNL     1      59.967  15.519  45.242  1.00  0.00     0.176 A 
ATOM     21  C   UNL     1      59.482  17.687  46.262  1.00  0.00     0.146 A 
ATOM     22  C   UNL     1      59.053  16.573  45.505  1.00  0.00     0.111 A 
ATOM     23  O   UNL     1      58.706  18.746  46.428  1.00  0.00    -0.456 OA
ATOM     24  C   UNL     1      57.732  16.597  45.010  1.00  0.00     0.197 A 
ATOM     25  C   UNL     1      57.496  18.826  45.894  1.00  0.00     0.138 A 
ATOM     26  C   UNL     1      56.950  17.736  45.214  1.00  0.00     0.100 A 
ATOM     27  O   UNL     1      57.254  15.622  44.372  1.00  0.00    -0.289 OA
BRANCH  18  28
ATOM     28  O   UNL     1      62.173  14.554  45.498  1.00  0.00    -0.502 OA
ATOM     29  H   UNL     1      63.025  14.696  44.961  1.00  0.00     0.293 HD
ENDBRANCH  18  28
BRANCH  20  30
ATOM     30  O   UNL     1      59.606  14.440  44.432  1.00  0.00    -0.504 OA
ATOM     31  H   UNL     1      59.552  14.555  43.421  1.00  0.00     0.293 HD
ENDBRANCH  20  30
BRANCH  25  32
ATOM     32  C   UNL     1      56.845  20.142  45.824  1.00  0.00     0.017 A 
ATOM     33  C   UNL     1      56.282  20.509  44.599  1.00  0.00     0.012 A 
ATOM     34  C   UNL     1      57.053  21.131  46.810  1.00  0.00     0.012 A 
ATOM     35  C   UNL     1      55.934  21.842  44.349  1.00  0.00     0.001 A 
ATOM     36  C   UNL     1      56.665  22.464  46.566  1.00  0.00     0.001 A 
ATOM     37  C   UNL     1      56.164  22.824  45.320  1.00  0.00     0.000 A 
ENDBRANCH  25  32
ENDBRANCH   1  17
TORSDOF 9
ENDMDL
MODEL 4
REMARK VINA RESULT:    -7.422      1.429      2.844
REMARK INTER + INTRA:         -11.404
REMARK INTER:                 -10.496
REMARK INTRA:                  -0.908
REMARK UNBOUND:                -1.162
REMARK SMILES O=C([O-])[C@@H]1O[C@H](Oc2cc3oc(-c4ccccc4)cc(=O)c3c(O)c2O)[C@@H](O)[C@@H](O)[C@H]1O
REMARK SMILES IDX 7 1 6 2 4 3 31 4 5 5 29 6 27 7 2 8 1 9 3 10 32 11 30 13
REMARK SMILES IDX 28 15 8 17 25 18 9 19 23 20 10 21 22 22 11 23 20 24 12 25
REMARK SMILES IDX 19 26 21 27 26 28 24 30 13 32 14 33 18 34 15 35 17 36 16 37
REMARK H PARENT 32 12 30 14 28 16 26 29 24 31
REMARK Flexibility Score: inf
ROOT
ATOM      1  O   UNL     1      61.172  17.693  49.002  1.00  0.00    -0.458 OA
ENDROOT
BRANCH   1   2
ATOM      2  C   UNL     1      62.493  17.438  48.541  1.00  0.00     0.339 C 
ATOM      3  C   UNL     1      63.192  19.446  47.390  1.00  0.00     0.199 C 
ATOM      4  C   UNL     1      63.141  20.173  48.792  1.00  0.00     0.180 C 
ATOM      5  O   UNL     1      62.702  18.103  47.306  1.00  0.00    -0.328 OA
ATOM      6  C   UNL     1      63.323  19.243  50.020  1.00  0.00     0.181 C 
ATOM      7  C   UNL     1      63.550  17.787  49.602  1.00  0.00     0.214 C 
BRANCH   3   8
ATOM      8  C   UNL     1      62.517  20.280  46.340  1.00  0.00     0.073 C 
ATOM      9  O   UNL     1      61.755  21.226  46.650  1.00  0.00    -0.547 OA
ATOM     10  O   UNL     1      61.680  21.322  46.709  1.00  0.00    -0.547 OA
ENDBRANCH   3   8
BRANCH   4  11
ATOM     11  O   UNL     1      64.130  21.170  48.828  1.00  0.00    -0.387 OA
ATOM     12  H   UNL     1      64.632  21.044  49.667  1.00  0.00     0.211 HD
ENDBRANCH   4  11
BRANCH   6  13
ATOM     13  O   UNL     1      64.361  19.649  50.876  1.00  0.00    -0.387 OA
ATOM     14  H   UNL     1      65.113  19.960  50.307  1.00  0.00     0.211 HD
ENDBRANCH   6  13
BRANCH   7  15
ATOM     15  O   UNL     1      64.820  17.644  49.027  1.00  0.00    -0.384 OA
ATOM     16  H   UNL     1      64.781  17.941  48.085  1.00  0.00     0.211 HD
ENDBRANCH   7  15
ENDBRANCH   1   2
BRANCH   1  17
ATOM     17  C   UNL     1      60.072  17.506  48.178  1.00  0.00     0.172 A 
ATOM     18  C   UNL     1      59.480  16.234  48.042  1.00  0.00     0.201 A 
ATOM     19  C   UNL     1      59.553  18.603  47.496  1.00  0.00     0.098 A 
ATOM     20  C   UNL     1      58.345  16.077  47.213  1.00  0.00     0.176 A 
ATOM     21  C   UNL     1      58.456  18.451  46.641  1.00  0.00     0.146 A 
ATOM     22  C   UNL     1      57.816  17.197  46.519  1.00  0.00     0.111 A 
ATOM     23  O   UNL     1      58.073  19.492  45.918  1.00  0.00    -0.456 OA
ATOM     24  C   UNL     1      56.696  17.122  45.665  1.00  0.00     0.197 A 
ATOM     25  C   UNL     1      57.082  19.418  45.042  1.00  0.00     0.138 A 
ATOM     26  C   UNL     1      56.327  18.249  44.926  1.00  0.00     0.100 A 
ATOM     27  O   UNL     1      56.036  16.056  45.541  1.00  0.00    -0.289 OA
BRANCH  18  28
ATOM     28  O   UNL     1      60.003  15.138  48.708  1.00  0.00    -0.502 OA
ATOM     29  H   UNL     1      61.000  15.016  48.865  1.00  0.00     0.293 HD
ENDBRANCH  18  28
BRANCH  20  30
ATOM     30  O   UNL     1      57.790  14.806  47.056  1.00  0.00    -0.504 OA
ATOM     31  H   UNL     1      56.815  14.639  47.298  1.00  0.00     0.293 HD
ENDBRANCH  20  30
BRANCH  25  32
ATOM     32  C   UNL     1      56.944  20.488  44.045  1.00  0.00     0.017 A 
ATOM     33  C   UNL     1      56.326  20.156  42.837  1.00  0.00     0.012 A 
ATOM     34  C   UNL     1      57.678  21.691  44.135  1.00  0.00     0.012 A 
ATOM     35  C   UNL     1      56.436  21.002  41.727  1.00  0.00     0.001 A 
ATOM     36  C   UNL     1      57.754  22.557  43.025  1.00  0.00     0.001 A 
ATOM     37  C   UNL     1      57.185  22.182  41.812  1.00  0.00     0.000 A 
ENDBRANCH  25  32
ENDBRANCH   1  17
TORSDOF 9
ENDMDL
MODEL 5
REMARK VINA RESULT:    -7.364      3.349      8.350
REMARK INTER + INTRA:         -11.324
REMARK INTER:                  -9.977
REMARK INTRA:                  -1.347
REMARK UNBOUND:                -1.162
REMARK SMILES O=C([O-])[C@@H]1O[C@H](Oc2cc3oc(-c4ccccc4)cc(=O)c3c(O)c2O)[C@@H](O)[C@@H](O)[C@H]1O
REMARK SMILES IDX 7 1 6 2 4 3 31 4 5 5 29 6 27 7 2 8 1 9 3 10 32 11 30 13
REMARK SMILES IDX 28 15 8 17 25 18 9 19 23 20 10 21 22 22 11 23 20 24 12 25
REMARK SMILES IDX 19 26 21 27 26 28 24 30 13 32 14 33 18 34 15 35 17 36 16 37
REMARK H PARENT 32 12 30 14 28 16 26 29 24 31
REMARK Flexibility Score: inf
ROOT
ATOM      1  O   UNL     1      61.933  17.999  47.145  1.00  0.00    -0.458 OA
ENDROOT
BRANCH   1   2
ATOM      2  C   UNL     1      61.390  16.832  47.750  1.00  0.00     0.339 C 
ATOM      3  C   UNL     1      59.561  16.140  46.329  1.00  0.00     0.199 C 
ATOM      4  C   UNL     1      60.643  15.831  45.219  1.00  0.00     0.180 C 
ATOM      5  O   UNL     1      59.990  16.791  47.530  1.00  0.00    -0.328 OA
ATOM      6  C   UNL     1      62.064  15.524  45.758  1.00  0.00     0.181 C 
ATOM      7  C   UNL     1      62.112  15.555  47.288  1.00  0.00     0.214 C 
BRANCH   3   8
ATOM      8  C   UNL     1      58.409  16.904  45.742  1.00  0.00     0.073 C 
ATOM      9  O   UNL     1      57.631  16.374  44.915  1.00  0.00    -0.547 OA
ATOM     10  O   UNL     1      57.560  16.294  44.830  1.00  0.00    -0.547 OA
ENDBRANCH   3   8
BRANCH   4  11
ATOM     11  O   UNL     1      60.207  14.744  44.443  1.00  0.00    -0.387 OA
ATOM     12  H   UNL     1      59.223  14.746  44.477  1.00  0.00     0.211 HD
ENDBRANCH   4  11
BRANCH   6  13
ATOM     13  O   UNL     1      62.579  14.299  45.300  1.00  0.00    -0.387 OA
ATOM     14  H   UNL     1      62.996  13.842  46.077  1.00  0.00     0.211 HD
ENDBRANCH   6  13
BRANCH   7  15
ATOM     15  O   UNL     1      61.433  14.447  47.814  1.00  0.00    -0.384 OA
ATOM     16  H   UNL     1      62.091  13.827  48.212  1.00  0.00     0.211 HD
ENDBRANCH   7  15
ENDBRANCH   1   2
BRANCH   1  17
ATOM     17  C   UNL     1      62.101  19.173  47.864  1.00  0.00     0.172 A 
ATOM     18  C   UNL     1      61.020  20.054  48.072  1.00  0.00     0.201 A 
ATOM     19  C   UNL     1      63.358  19.461  48.390  1.00  0.00     0.098 A 
ATOM     20  C   UNL     1      61.216  21.232  48.829  1.00  0.00     0.176 A 
ATOM     21  C   UNL     1      63.572  20.644  49.105  1.00  0.00     0.146 A 
ATOM     22  C   UNL     1      62.497  21.524  49.366  1.00  0.00     0.111 A 
ATOM     23  O   UNL     1      64.808  20.938  49.480  1.00  0.00    -0.456 OA
ATOM     24  C   UNL     1      62.776  22.682  50.121  1.00  0.00     0.197 A 
ATOM     25  C   UNL     1      65.106  22.065  50.109  1.00  0.00     0.138 A 
ATOM     26  C   UNL     1      64.095  22.947  50.497  1.00  0.00     0.100 A 
ATOM     27  O   UNL     1      61.865  23.490  50.443  1.00  0.00    -0.289 OA
BRANCH  18  28
ATOM     28  O   UNL     1      59.773  19.776  47.538  1.00  0.00    -0.502 OA
ATOM     29  H   UNL     1      59.065  19.249  48.042  1.00  0.00     0.293 HD
ENDBRANCH  18  28
BRANCH  20  30
ATOM     30  O   UNL     1      60.147  22.115  48.996  1.00  0.00    -0.504 OA
ATOM     31  H   UNL     1      60.009  22.882  48.340  1.00  0.00     0.293 HD
ENDBRANCH  20  30
BRANCH  25  32
ATOM     32  C   UNL     1      66.514  22.478  50.180  1.00  0.00     0.017 A 
ATOM     33  C   UNL     1      67.470  21.464  50.280  1.00  0.00     0.012 A 
ATOM     34  C   UNL     1      66.888  23.808  50.472  1.00  0.00     0.012 A 
ATOM     35  C   UNL     1      68.781  21.760  50.670  1.00  0.00     0.001 A 
ATOM     36  C   UNL     1      68.220  24.105  50.827  1.00  0.00     0.001 A 
ATOM     37  C   UNL     1      69.143  23.077  50.982  1.00  0.00     0.000 A 
ENDBRANCH  25  32
ENDBRANCH   1  17
TORSDOF 9
ENDMDL
MODEL 6
REMARK VINA RESULT:    -7.351      2.210      3.211
REMARK INTER + INTRA:         -11.307
REMARK INTER:                 -10.147
REMARK INTRA:                  -1.160
REMARK UNBOUND:                -1.162
REMARK SMILES O=C([O-])[C@@H]1O[C@H](Oc2cc3oc(-c4ccccc4)cc(=O)c3c(O)c2O)[C@@H](O)[C@@H](O)[C@H]1O
REMARK SMILES IDX 7 1 6 2 4 3 31 4 5 5 29 6 27 7 2 8 1 9 3 10 32 11 30 13
REMARK SMILES IDX 28 15 8 17 25 18 9 19 23 20 10 21 22 22 11 23 20 24 12 25
REMARK SMILES IDX 19 26 21 27 26 28 24 30 13 32 14 33 18 34 15 35 17 36 16 37
REMARK H PARENT 32 12 30 14 28 16 26 29 24 31
REMARK Flexibility Score: inf
ROOT
ATOM      1  O   UNL     1      62.668  16.571  47.419  1.00  0.00    -0.458 OA
ENDROOT
BRANCH   1   2
ATOM      2  C   UNL     1      62.782  16.030  48.730  1.00  0.00     0.339 C 
ATOM      3  C   UNL     1      65.149  15.984  49.222  1.00  0.00     0.199 C 
ATOM      4  C   UNL     1      65.106  17.564  49.192  1.00  0.00     0.180 C 
ATOM      5  O   UNL     1      63.974  15.268  48.826  1.00  0.00    -0.328 OA
ATOM      6  C   UNL     1      63.721  18.187  49.503  1.00  0.00     0.181 C 
ATOM      7  C   UNL     1      62.671  17.116  49.812  1.00  0.00     0.214 C 
BRANCH   3   8
ATOM      8  C   UNL     1      66.322  15.475  48.436  1.00  0.00     0.073 C 
ATOM      9  O   UNL     1      67.496  15.627  48.846  1.00  0.00    -0.547 OA
ATOM     10  O   UNL     1      67.612  15.654  48.913  1.00  0.00    -0.547 OA
ENDBRANCH   3   8
BRANCH   4  11
ATOM     11  O   UNL     1      66.046  18.066  50.107  1.00  0.00    -0.387 OA
ATOM     12  H   UNL     1      65.535  18.469  50.848  1.00  0.00     0.211 HD
ENDBRANCH   4  11
BRANCH   6  13
ATOM     13  O   UNL     1      63.755  19.122  50.552  1.00  0.00    -0.387 OA
ATOM     14  H   UNL     1      64.107  18.657  51.355  1.00  0.00     0.211 HD
ENDBRANCH   6  13
BRANCH   7  15
ATOM     15  O   UNL     1      62.933  16.530  51.058  1.00  0.00    -0.384 OA
ATOM     16  H   UNL     1      63.243  17.229  51.683  1.00  0.00     0.211 HD
ENDBRANCH   7  15
ENDBRANCH   1   2
BRANCH   1  17
ATOM     17  C   UNL     1      61.461  16.557  46.735  1.00  0.00     0.172 A 
ATOM     18  C   UNL     1      61.149  15.513  45.841  1.00  0.00     0.201 A 
ATOM     19  C   UNL     1      60.555  17.590  46.958  1.00  0.00     0.098 A 
ATOM     20  C   UNL     1      59.902  15.513  45.176  1.00  0.00     0.176 A 
ATOM     21  C   UNL     1      59.336  17.622  46.274  1.00  0.00     0.146 A 
ATOM     22  C   UNL     1      58.977  16.566  45.405  1.00  0.00     0.111 A 
ATOM     23  O   UNL     1      58.559  18.684  46.422  1.00  0.00    -0.456 OA
ATOM     24  C   UNL     1      57.719  16.646  44.773  1.00  0.00     0.197 A 
ATOM     25  C   UNL     1      57.416  18.820  45.766  1.00  0.00     0.138 A 
ATOM     26  C   UNL     1      56.933  17.785  44.963  1.00  0.00     0.100 A 
ATOM     27  O   UNL     1      57.302  15.722  44.026  1.00  0.00    -0.289 OA
BRANCH  18  28
ATOM     28  O   UNL     1      62.055  14.492  45.607  1.00  0.00    -0.502 OA
ATOM     29  H   UNL     1      62.233  13.751  46.281  1.00  0.00     0.293 HD
ENDBRANCH  18  28
BRANCH  20  30
ATOM     30  O   UNL     1      59.619  14.494  44.265  1.00  0.00    -0.504 OA
ATOM     31  H   UNL     1      59.097  13.671  44.563  1.00  0.00     0.293 HD
ENDBRANCH  20  30
BRANCH  25  32
ATOM     32  C   UNL     1      56.792  20.150  45.710  1.00  0.00     0.017 A 
ATOM     33  C   UNL     1      56.241  20.543  44.488  1.00  0.00     0.012 A 
ATOM     34  C   UNL     1      57.017  21.123  46.709  1.00  0.00     0.012 A 
ATOM     35  C   UNL     1      55.922  21.886  44.253  1.00  0.00     0.001 A 
ATOM     36  C   UNL     1      56.657  22.466  46.480  1.00  0.00     0.001 A 
ATOM     37  C   UNL     1      56.169  22.851  45.236  1.00  0.00     0.000 A 
ENDBRANCH  25  32
ENDBRANCH   1  17
TORSDOF 9
ENDMDL
MODEL 7
REMARK VINA RESULT:    -7.269      1.465      2.142
REMARK INTER + INTRA:         -11.194
REMARK INTER:                 -10.011
REMARK INTRA:                  -1.183
REMARK UNBOUND:                -1.162
REMARK SMILES O=C([O-])[C@@H]1O[C@H](Oc2cc3oc(-c4ccccc4)cc(=O)c3c(O)c2O)[C@@H](O)[C@@H](O)[C@H]1O
REMARK SMILES IDX 7 1 6 2 4 3 31 4 5 5 29 6 27 7 2 8 1 9 3 10 32 11 30 13
REMARK SMILES IDX 28 15 8 17 25 18 9 19 23 20 10 21 22 22 11 23 20 24 12 25
REMARK SMILES IDX 19 26 21 27 26 28 24 30 13 32 14 33 18 34 15 35 17 36 16 37
REMARK H PARENT 32 12 30 14 28 16 26 29 24 31
REMARK Flexibility Score: inf
ROOT
ATOM      1  O   UNL     1      61.506  16.802  48.003  1.00  0.00    -0.458 OA
ENDROOT
BRANCH   1   2
ATOM      2  C   UNL     1      62.748  16.764  47.311  1.00  0.00     0.339 C 
ATOM      3  C   UNL     1      64.039  18.621  48.165  1.00  0.00     0.199 C 
ATOM      4  C   UNL     1      64.064  17.863  49.552  1.00  0.00     0.180 C 
ATOM      5  O   UNL     1      63.223  18.085  47.117  1.00  0.00    -0.328 OA
ATOM      6  C   UNL     1      63.896  16.324  49.460  1.00  0.00     0.181 C 
ATOM      7  C   UNL     1      63.769  15.851  48.010  1.00  0.00     0.214 C 
BRANCH   3   8
ATOM      8  C   UNL     1      63.694  20.068  48.364  1.00  0.00     0.073 C 
ATOM      9  O   UNL     1      64.502  20.863  48.899  1.00  0.00    -0.547 OA
ATOM     10  O   UNL     1      64.606  20.928  48.956  1.00  0.00    -0.547 OA
ENDBRANCH   3   8
BRANCH   4  11
ATOM     11  O   UNL     1      65.273  18.149  50.208  1.00  0.00    -0.387 OA
ATOM     12  H   UNL     1      65.572  17.311  50.633  1.00  0.00     0.211 HD
ENDBRANCH   4  11
BRANCH   6  13
ATOM     13  O   UNL     1      64.930  15.613  50.093  1.00  0.00    -0.387 OA
ATOM     14  H   UNL     1      65.597  16.277  50.411  1.00  0.00     0.211 HD
ENDBRANCH   6  13
BRANCH   7  15
ATOM     15  O   UNL     1      64.999  15.976  47.352  1.00  0.00    -0.384 OA
ATOM     16  H   UNL     1      65.336  15.075  47.125  1.00  0.00     0.211 HD
ENDBRANCH   7  15
ENDBRANCH   1   2
BRANCH   1  17
ATOM     17  C   UNL     1      60.298  16.746  47.323  1.00  0.00     0.172 A 
ATOM     18  C   UNL     1      59.628  15.520  47.139  1.00  0.00     0.201 A 
ATOM     19  C   UNL     1      59.751  17.930  46.834  1.00  0.00     0.098 A 
ATOM     20  C   UNL     1      58.388  15.496  46.461  1.00  0.00     0.176 A 
ATOM     21  C   UNL     1      58.545  17.912  46.127  1.00  0.00     0.146 A 
ATOM     22  C   UNL     1      57.830  16.704  45.965  1.00  0.00     0.111 A 
ATOM     23  O   UNL     1      58.124  19.040  45.573  1.00  0.00    -0.456 OA
ATOM     24  C   UNL     1      56.604  16.763  45.269  1.00  0.00     0.197 A 
ATOM     25  C   UNL     1      57.023  19.098  44.839  1.00  0.00     0.138 A 
ATOM     26  C   UNL     1      56.200  17.977  44.707  1.00  0.00     0.100 A 
ATOM     27  O   UNL     1      55.880  15.743  45.128  1.00  0.00    -0.289 OA
BRANCH  18  28
ATOM     28  O   UNL     1      60.178  14.339  47.612  1.00  0.00    -0.502 OA
ATOM     29  H   UNL     1      60.452  13.577  46.997  1.00  0.00     0.293 HD
ENDBRANCH  18  28
BRANCH  20  30
ATOM     30  O   UNL     1      57.752  14.271  46.252  1.00  0.00    -0.504 OA
ATOM     31  H   UNL     1      56.770  14.156  46.497  1.00  0.00     0.293 HD
ENDBRANCH  20  30
BRANCH  25  32
ATOM     32  C   UNL     1      56.810  20.274  43.984  1.00  0.00     0.017 A 
ATOM     33  C   UNL     1      56.264  20.051  42.718  1.00  0.00     0.012 A 
ATOM     34  C   UNL     1      57.418  21.518  44.262  1.00  0.00     0.012 A 
ATOM     35  C   UNL     1      56.324  21.044  41.734  1.00  0.00     0.001 A 
ATOM     36  C   UNL     1      57.441  22.528  43.279  1.00  0.00     0.001 A 
ATOM     37  C   UNL     1      56.949  22.268  42.005  1.00  0.00     0.000 A 
ENDBRANCH  25  32
ENDBRANCH   1  17
TORSDOF 9
ENDMDL
MODEL 8
REMARK VINA RESULT:    -7.186      3.574      9.540
REMARK INTER + INTRA:         -11.079
REMARK INTER:                  -9.921
REMARK INTRA:                  -1.158
REMARK UNBOUND:                -1.162
REMARK SMILES O=C([O-])[C@@H]1O[C@H](Oc2cc3oc(-c4ccccc4)cc(=O)c3c(O)c2O)[C@@H](O)[C@@H](O)[C@H]1O
REMARK SMILES IDX 7 1 6 2 4 3 31 4 5 5 29 6 27 7 2 8 1 9 3 10 32 11 30 13
REMARK SMILES IDX 28 15 8 17 25 18 9 19 23 20 10 21 22 22 11 23 20 24 12 25
REMARK SMILES IDX 19 26 21 27 26 28 24 30 13 32 14 33 18 34 15 35 17 36 16 37
REMARK H PARENT 32 12 30 14 28 16 26 29 24 31
REMARK Flexibility Score: inf
ROOT
ATOM      1  O   UNL     1      61.789  16.492  47.335  1.00  0.00    -0.458 OA
ENDROOT
BRANCH   1   2
ATOM      2  C   UNL     1      60.887  15.413  47.551  1.00  0.00     0.339 C 
ATOM      3  C   UNL     1      58.670  16.353  47.341  1.00  0.00     0.199 C 
ATOM      4  C   UNL     1      59.005  16.602  45.817  1.00  0.00     0.180 C 
ATOM      5  O   UNL     1      59.720  15.893  48.198  1.00  0.00    -0.328 OA
ATOM      6  C   UNL     1      60.084  15.661  45.221  1.00  0.00     0.181 C 
ATOM      7  C   UNL     1      60.586  14.646  46.252  1.00  0.00     0.214 C 
BRANCH   3   8
ATOM      8  C   UNL     1      58.042  17.575  47.948  1.00  0.00     0.073 C 
ATOM      9  O   UNL     1      56.853  17.885  47.705  1.00  0.00    -0.547 OA
ATOM     10  O   UNL     1      56.723  17.895  47.665  1.00  0.00    -0.547 OA
ENDBRANCH   3   8
BRANCH   4  11
ATOM     11  O   UNL     1      57.827  16.476  45.062  1.00  0.00    -0.387 OA
ATOM     12  H   UNL     1      58.043  15.905  44.288  1.00  0.00     0.211 HD
ENDBRANCH   4  11
BRANCH   6  13
ATOM     13  O   UNL     1      59.654  14.981  44.069  1.00  0.00    -0.387 OA
ATOM     14  H   UNL     1      60.077  15.423  43.287  1.00  0.00     0.211 HD
ENDBRANCH   6  13
BRANCH   7  15
ATOM     15  O   UNL     1      59.590  13.698  46.519  1.00  0.00    -0.384 OA
ATOM     16  H   UNL     1      59.537  13.554  47.495  1.00  0.00     0.211 HD
ENDBRANCH   7  15
ENDBRANCH   1   2
BRANCH   1  17
ATOM     17  C   UNL     1      63.018  16.544  47.976  1.00  0.00     0.172 A 
ATOM     18  C   UNL     1      63.226  17.408  49.071  1.00  0.00     0.201 A 
ATOM     19  C   UNL     1      64.042  15.716  47.526  1.00  0.00     0.098 A 
ATOM     20  C   UNL     1      64.482  17.423  49.720  1.00  0.00     0.176 A 
ATOM     21  C   UNL     1      65.302  15.752  48.134  1.00  0.00     0.146 A 
ATOM     22  C   UNL     1      65.526  16.576  49.261  1.00  0.00     0.111 A 
ATOM     23  O   UNL     1      66.281  15.041  47.597  1.00  0.00    -0.456 OA
ATOM     24  C   UNL     1      66.809  16.540  49.845  1.00  0.00     0.197 A 
ATOM     25  C   UNL     1      67.516  15.064  48.076  1.00  0.00     0.138 A 
ATOM     26  C   UNL     1      67.808  15.771  49.244  1.00  0.00     0.100 A 
ATOM     27  O   UNL     1      67.076  17.203  50.882  1.00  0.00    -0.289 OA
BRANCH  18  28
ATOM     28  O   UNL     1      62.213  18.243  49.511  1.00  0.00    -0.502 OA
ATOM     29  H   UNL     1      61.229  18.044  49.350  1.00  0.00     0.293 HD
ENDBRANCH  18  28
BRANCH  20  30
ATOM     30  O   UNL     1      64.688  18.309  50.779  1.00  0.00    -0.504 OA
ATOM     31  H   UNL     1      64.568  17.995  51.740  1.00  0.00     0.293 HD
ENDBRANCH  20  30
BRANCH  25  32
ATOM     32  C   UNL     1      68.603  14.539  47.239  1.00  0.00     0.017 A 
ATOM     33  C   UNL     1      68.629  14.943  45.901  1.00  0.00     0.012 A 
ATOM     34  C   UNL     1      69.387  13.434  47.639  1.00  0.00     0.012 A 
ATOM     35  C   UNL     1      69.416  14.258  44.968  1.00  0.00     0.001 A 
ATOM     36  C   UNL     1      70.207  12.773  46.702  1.00  0.00     0.001 A 
ATOM     37  C   UNL     1      70.173  13.149  45.364  1.00  0.00     0.000 A 
ENDBRANCH  25  32
ENDBRANCH   1  17
TORSDOF 9
ENDMDL
MODEL 9
REMARK VINA RESULT:    -7.177      2.661      7.606
REMARK INTER + INTRA:         -11.066
REMARK INTER:                  -9.709
REMARK INTRA:                  -1.357
REMARK UNBOUND:                -1.162
REMARK SMILES O=C([O-])[C@@H]1O[C@H](Oc2cc3oc(-c4ccccc4)cc(=O)c3c(O)c2O)[C@@H](O)[C@@H](O)[C@H]1O
REMARK SMILES IDX 7 1 6 2 4 3 31 4 5 5 29 6 27 7 2 8 1 9 3 10 32 11 30 13
REMARK SMILES IDX 28 15 8 17 25 18 9 19 23 20 10 21 22 22 11 23 20 24 12 25
REMARK SMILES IDX 19 26 21 27 26 28 24 30 13 32 14 33 18 34 15 35 17 36 16 37
REMARK H PARENT 32 12 30 14 28 16 26 29 24 31
REMARK Flexibility Score: inf
ROOT
ATOM      1  O   UNL     1      59.726  16.304  45.599  1.00  0.00    -0.458 OA
ENDROOT
BRANCH   1   2
ATOM      2  C   UNL     1      58.592  15.713  46.224  1.00  0.00     0.339 C 
ATOM      3  C   UNL     1      57.435  17.520  47.339  1.00  0.00     0.199 C 
ATOM      4  C   UNL     1      57.131  18.106  45.903  1.00  0.00     0.180 C 
ATOM      5  O   UNL     1      58.312  16.392  47.437  1.00  0.00    -0.328 OA
ATOM      6  C   UNL     1      57.121  17.061  44.758  1.00  0.00     0.181 C 
ATOM      7  C   UNL     1      57.383  15.644  45.277  1.00  0.00     0.214 C 
BRANCH   3   8
ATOM      8  C   UNL     1      57.925  18.603  48.256  1.00  0.00     0.073 C 
ATOM      9  O   UNL     1      57.136  19.437  48.759  1.00  0.00    -0.547 OA
ATOM     10  O   UNL     1      57.031  19.512  48.801  1.00  0.00    -0.547 OA
ENDBRANCH   3   8
BRANCH   4  11
ATOM     11  O   UNL     1      55.889  18.763  45.929  1.00  0.00    -0.387 OA
ATOM     12  H   UNL     1      56.008  19.576  46.472  1.00  0.00     0.211 HD
ENDBRANCH   4  11
BRANCH   6  13
ATOM     13  O   UNL     1      55.932  17.070  44.008  1.00  0.00    -0.387 OA
ATOM     14  H   UNL     1      55.736  16.131  43.749  1.00  0.00     0.211 HD
ENDBRANCH   6  13
BRANCH   7  15
ATOM     15  O   UNL     1      56.276  15.185  46.004  1.00  0.00    -0.384 OA
ATOM     16  H   UNL     1      56.570  14.938  46.915  1.00  0.00     0.211 HD
ENDBRANCH   7  15
ENDBRANCH   1   2
BRANCH   1  17
ATOM     17  C   UNL     1      60.871  16.607  46.321  1.00  0.00     0.172 A 
ATOM     18  C   UNL     1      61.722  15.585  46.788  1.00  0.00     0.201 A 
ATOM     19  C   UNL     1      61.173  17.944  46.564  1.00  0.00     0.098 A 
ATOM     20  C   UNL     1      62.895  15.926  47.501  1.00  0.00     0.176 A 
ATOM     21  C   UNL     1      62.308  18.290  47.304  1.00  0.00     0.146 A 
ATOM     22  C   UNL     1      63.203  17.289  47.747  1.00  0.00     0.111 A 
ATOM     23  O   UNL     1      62.491  19.564  47.618  1.00  0.00    -0.456 OA
ATOM     24  C   UNL     1      64.345  17.710  48.459  1.00  0.00     0.197 A 
ATOM     25  C   UNL     1      63.508  19.968  48.364  1.00  0.00     0.138 A 
ATOM     26  C   UNL     1      64.496  19.066  48.763  1.00  0.00     0.100 A 
ATOM     27  O   UNL     1      65.218  16.888  48.843  1.00  0.00    -0.289 OA
BRANCH  18  28
ATOM     28  O   UNL     1      61.416  14.254  46.559  1.00  0.00    -0.502 OA
ATOM     29  H   UNL     1      61.956  13.490  46.958  1.00  0.00     0.293 HD
ENDBRANCH  18  28
BRANCH  20  30
ATOM     30  O   UNL     1      63.711  14.904  47.991  1.00  0.00    -0.504 OA
ATOM     31  H   UNL     1      63.359  13.950  48.047  1.00  0.00     0.293 HD
ENDBRANCH  20  30
BRANCH  25  32
ATOM     32  C   UNL     1      63.455  21.314  48.953  1.00  0.00     0.017 A 
ATOM     33  C   UNL     1      64.572  21.735  49.679  1.00  0.00     0.012 A 
ATOM     34  C   UNL     1      62.242  22.025  49.083  1.00  0.00     0.012 A 
ATOM     35  C   UNL     1      64.490  22.843  50.529  1.00  0.00     0.001 A 
ATOM     36  C   UNL     1      62.176  23.163  49.911  1.00  0.00     0.001 A 
ATOM     37  C   UNL     1      63.279  23.531  50.674  1.00  0.00     0.000 A 
ENDBRANCH  25  32
ENDBRANCH   1  17
TORSDOF 9
ENDMDL
