MODEL 1
REMARK VINA RESULT:    -5.920      0.000      0.000
REMARK INTER + INTRA:          -7.104
REMARK INTER:                  -7.131
REMARK INTRA:                   0.027
REMARK UNBOUND:                 0.027
REMARK SMILES O=c1c(O)c(-c2ccc(O)cc2O)oc2cc(O)cc(O)c12
REMARK SMILES IDX 5 1 3 2 2 3 1 4 22 5 20 6 19 7 17 8 16 9 15 10 14 11 6 12
REMARK SMILES IDX 8 13 7 14 9 15 11 16 12 17 10 18 13 20 4 22 21 24 18 26
REMARK H PARENT 10 19 13 21 4 23 21 25 18 27
REMARK Flexibility Score: inf
ROOT
ATOM      1  C   UNL     1      71.318  38.628  20.160  1.00  0.00     0.184 A 
ATOM      2  C   UNL     1      71.684  37.602  19.276  1.00  0.00     0.208 A 
ATOM      3  C   UNL     1      70.681  36.786  18.729  1.00  0.00     0.238 A 
ATOM      4  O   UNL     1      71.009  35.907  17.890  1.00  0.00    -0.285 OA
ATOM      5  C   UNL     1      69.328  36.989  19.096  1.00  0.00     0.111 A 
ATOM      6  C   UNL     1      68.234  36.197  18.635  1.00  0.00     0.134 A 
ATOM      7  C   UNL     1      66.926  36.567  18.968  1.00  0.00     0.093 A 
ATOM      8  C   UNL     1      66.675  37.661  19.799  1.00  0.00     0.123 A 
ATOM      9  C   UNL     1      67.739  38.405  20.303  1.00  0.00     0.094 A 
ATOM     10  C   UNL     1      69.054  38.085  19.958  1.00  0.00     0.146 A 
ATOM     11  O   UNL     1      70.038  38.829  20.448  1.00  0.00    -0.451 OA
ENDROOT
BRANCH   1  12
ATOM     12  C   UNL     1      72.332  39.503  20.785  1.00  0.00     0.063 A 
ATOM     13  C   UNL     1      73.172  41.749  21.205  1.00  0.00     0.047 A 
ATOM     14  C   UNL     1      72.200  40.899  20.673  1.00  0.00     0.020 A 
ATOM     15  C   UNL     1      74.293  41.219  21.849  1.00  0.00     0.119 A 
ATOM     16  C   UNL     1      74.435  39.831  21.966  1.00  0.00     0.093 A 
ATOM     17  C   UNL     1      73.463  38.968  21.445  1.00  0.00     0.130 A 
BRANCH  15  18
ATOM     18  O   UNL     1      75.256  42.079  22.371  1.00  0.00    -0.508 OA
ATOM     19  H   UNL     1      76.012  42.437  21.799  1.00  0.00     0.293 HD
ENDBRANCH  15  18
BRANCH  17  20
ATOM     20  O   UNL     1      73.639  37.594  21.621  1.00  0.00    -0.507 OA
ATOM     21  H   UNL     1      74.119  37.197  22.418  1.00  0.00     0.293 HD
ENDBRANCH  17  20
ENDBRANCH   1  12
BRANCH   2  22
ATOM     22  O   UNL     1      73.026  37.421  18.934  1.00  0.00    -0.502 OA
ATOM     23  H   UNL     1      73.778  37.907  19.410  1.00  0.00     0.293 HD
ENDBRANCH   2  22
BRANCH   6  24
ATOM     24  O   UNL     1      68.379  35.033  17.875  1.00  0.00    -0.507 OA
ATOM     25  H   UNL     1      69.197  34.796  17.334  1.00  0.00     0.293 HD
ENDBRANCH   6  24
BRANCH   8  26
ATOM     26  O   UNL     1      65.369  38.011  20.140  1.00  0.00    -0.508 OA
ATOM     27  H   UNL     1      64.631  37.320  20.188  1.00  0.00     0.293 HD
ENDBRANCH   8  26
TORSDOF 6
ENDMDL
MODEL 2
REMARK VINA RESULT:    -5.692      2.344      3.525
REMARK INTER + INTRA:          -6.829
REMARK INTER:                  -6.549
REMARK INTRA:                  -0.281
REMARK UNBOUND:                 0.027
REMARK SMILES O=c1c(O)c(-c2ccc(O)cc2O)oc2cc(O)cc(O)c12
REMARK SMILES IDX 5 1 3 2 2 3 1 4 22 5 20 6 19 7 17 8 16 9 15 10 14 11 6 12
REMARK SMILES IDX 8 13 7 14 9 15 11 16 12 17 10 18 13 20 4 22 21 24 18 26
REMARK H PARENT 10 19 13 21 4 23 21 25 18 27
REMARK Flexibility Score: inf
ROOT
ATOM      1  C   UNL     1      71.538  39.090  19.507  1.00  0.00     0.184 A 
ATOM      2  C   UNL     1      70.976  39.634  20.672  1.00  0.00     0.208 A 
ATOM      3  C   UNL     1      69.692  39.222  21.064  1.00  0.00     0.238 A 
ATOM      4  O   UNL     1      69.219  39.668  22.142  1.00  0.00    -0.285 OA
ATOM      5  C   UNL     1      68.977  38.292  20.270  1.00  0.00     0.111 A 
ATOM      6  C   UNL     1      67.655  37.834  20.550  1.00  0.00     0.134 A 
ATOM      7  C   UNL     1      67.094  36.821  19.763  1.00  0.00     0.093 A 
ATOM      8  C   UNL     1      67.782  36.296  18.667  1.00  0.00     0.123 A 
ATOM      9  C   UNL     1      69.049  36.778  18.350  1.00  0.00     0.094 A 
ATOM     10  C   UNL     1      69.651  37.761  19.138  1.00  0.00     0.146 A 
ATOM     11  O   UNL     1      70.867  38.182  18.810  1.00  0.00    -0.451 OA
ENDROOT
BRANCH   1  12
ATOM     12  C   UNL     1      72.876  39.503  19.033  1.00  0.00     0.063 A 
ATOM     13  C   UNL     1      75.220  38.956  18.673  1.00  0.00     0.047 A 
ATOM     14  C   UNL     1      73.933  38.577  19.062  1.00  0.00     0.020 A 
ATOM     15  C   UNL     1      75.471  40.265  18.256  1.00  0.00     0.119 A 
ATOM     16  C   UNL     1      74.426  41.196  18.224  1.00  0.00     0.093 A 
ATOM     17  C   UNL     1      73.129  40.827  18.603  1.00  0.00     0.130 A 
BRANCH  15  18
ATOM     18  O   UNL     1      76.760  40.630  17.875  1.00  0.00    -0.508 OA
ATOM     19  H   UNL     1      77.124  41.558  18.057  1.00  0.00     0.293 HD
ENDBRANCH  15  18
BRANCH  17  20
ATOM     20  O   UNL     1      72.119  41.786  18.518  1.00  0.00    -0.507 OA
ATOM     21  H   UNL     1      71.375  41.867  19.199  1.00  0.00     0.293 HD
ENDBRANCH  17  20
ENDBRANCH   1  12
BRANCH   2  22
ATOM     22  O   UNL     1      71.702  40.552  21.434  1.00  0.00    -0.502 OA
ATOM     23  H   UNL     1      72.198  41.332  21.017  1.00  0.00     0.293 HD
ENDBRANCH   2  22
BRANCH   6  24
ATOM     24  O   UNL     1      66.847  38.355  21.565  1.00  0.00    -0.507 OA
ATOM     25  H   UNL     1      67.106  39.115  22.175  1.00  0.00     0.293 HD
ENDBRANCH   6  24
BRANCH   8  26
ATOM     26  O   UNL     1      67.209  35.300  17.878  1.00  0.00    -0.508 OA
ATOM     27  H   UNL     1      67.161  34.338  18.192  1.00  0.00     0.293 HD
ENDBRANCH   8  26
TORSDOF 6
ENDMDL
MODEL 3
REMARK VINA RESULT:    -5.646      1.570      3.127
REMARK INTER + INTRA:          -6.774
REMARK INTER:                  -6.365
REMARK INTRA:                  -0.408
REMARK UNBOUND:                 0.027
REMARK SMILES O=c1c(O)c(-c2ccc(O)cc2O)oc2cc(O)cc(O)c12
REMARK SMILES IDX 5 1 3 2 2 3 1 4 22 5 20 6 19 7 17 8 16 9 15 10 14 11 6 12
REMARK SMILES IDX 8 13 7 14 9 15 11 16 12 17 10 18 13 20 4 22 21 24 18 26
REMARK H PARENT 10 19 13 21 4 23 21 25 18 27
REMARK Flexibility Score: inf
ROOT
ATOM      1  C   UNL     1      71.787  39.816  20.891  1.00  0.00     0.184 A 
ATOM      2  C   UNL     1      70.656  40.306  21.561  1.00  0.00     0.208 A 
ATOM      3  C   UNL     1      69.413  39.693  21.336  1.00  0.00     0.238 A 
ATOM      4  O   UNL     1      68.414  40.099  21.986  1.00  0.00    -0.285 OA
ATOM      5  C   UNL     1      69.313  38.617  20.421  1.00  0.00     0.111 A 
ATOM      6  C   UNL     1      68.098  37.947  20.085  1.00  0.00     0.134 A 
ATOM      7  C   UNL     1      68.139  36.816  19.261  1.00  0.00     0.093 A 
ATOM      8  C   UNL     1      69.342  36.369  18.708  1.00  0.00     0.123 A 
ATOM      9  C   UNL     1      70.524  37.052  18.982  1.00  0.00     0.094 A 
ATOM     10  C   UNL     1      70.523  38.161  19.831  1.00  0.00     0.146 A 
ATOM     11  O   UNL     1      71.674  38.773  20.078  1.00  0.00    -0.451 OA
ENDROOT
BRANCH   1  12
ATOM     12  C   UNL     1      73.117  40.435  21.071  1.00  0.00     0.063 A 
ATOM     13  C   UNL     1      74.837  41.952  20.256  1.00  0.00     0.047 A 
ATOM     14  C   UNL     1      73.563  41.392  20.142  1.00  0.00     0.020 A 
ATOM     15  C   UNL     1      75.686  41.561  21.293  1.00  0.00     0.119 A 
ATOM     16  C   UNL     1      75.254  40.609  22.223  1.00  0.00     0.093 A 
ATOM     17  C   UNL     1      73.975  40.046  22.126  1.00  0.00     0.130 A 
BRANCH  15  18
ATOM     18  O   UNL     1      76.956  42.125  21.391  1.00  0.00    -0.508 OA
ATOM     19  H   UNL     1      77.705  41.859  20.761  1.00  0.00     0.293 HD
ENDBRANCH  15  18
BRANCH  17  20
ATOM     20  O   UNL     1      73.583  39.128  23.102  1.00  0.00    -0.507 OA
ATOM     21  H   UNL     1      72.657  39.119  23.511  1.00  0.00     0.293 HD
ENDBRANCH  17  20
ENDBRANCH   1  12
BRANCH   2  22
ATOM     22  O   UNL     1      70.782  41.372  22.455  1.00  0.00    -0.502 OA
ATOM     23  H   UNL     1      71.495  41.395  23.175  1.00  0.00     0.293 HD
ENDBRANCH   2  22
BRANCH   6  24
ATOM     24  O   UNL     1      66.834  38.364  20.510  1.00  0.00    -0.507 OA
ATOM     25  H   UNL     1      66.665  39.065  21.216  1.00  0.00     0.293 HD
ENDBRANCH   6  24
BRANCH   8  26
ATOM     26  O   UNL     1      69.370  35.252  17.875  1.00  0.00    -0.508 OA
ATOM     27  H   UNL     1      68.526  34.739  17.648  1.00  0.00     0.293 HD
ENDBRANCH   8  26
TORSDOF 6
ENDMDL
MODEL 4
REMARK VINA RESULT:    -5.643      1.454      1.905
REMARK INTER + INTRA:          -6.771
REMARK INTER:                  -6.453
REMARK INTRA:                  -0.317
REMARK UNBOUND:                 0.027
REMARK SMILES O=c1c(O)c(-c2ccc(O)cc2O)oc2cc(O)cc(O)c12
REMARK SMILES IDX 5 1 3 2 2 3 1 4 22 5 20 6 19 7 17 8 16 9 15 10 14 11 6 12
REMARK SMILES IDX 8 13 7 14 9 15 11 16 12 17 10 18 13 20 4 22 21 24 18 26
REMARK H PARENT 10 19 13 21 4 23 21 25 18 27
REMARK Flexibility Score: inf
ROOT
ATOM      1  C   UNL     1      72.980  39.155  20.486  1.00  0.00     0.184 A 
ATOM      2  C   UNL     1      73.244  38.149  19.546  1.00  0.00     0.208 A 
ATOM      3  C   UNL     1      72.173  37.406  19.024  1.00  0.00     0.238 A 
ATOM      4  O   UNL     1      72.411  36.546  18.136  1.00  0.00    -0.285 OA
ATOM      5  C   UNL     1      70.854  37.662  19.472  1.00  0.00     0.111 A 
ATOM      6  C   UNL     1      69.698  36.944  19.042  1.00  0.00     0.134 A 
ATOM      7  C   UNL     1      68.430  37.366  19.459  1.00  0.00     0.093 A 
ATOM      8  C   UNL     1      68.280  38.437  20.343  1.00  0.00     0.123 A 
ATOM      9  C   UNL     1      69.407  39.106  20.815  1.00  0.00     0.094 A 
ATOM     10  C   UNL     1      70.683  38.735  20.388  1.00  0.00     0.146 A 
ATOM     11  O   UNL     1      71.729  39.409  20.851  1.00  0.00    -0.451 OA
ENDROOT
BRANCH   1  12
ATOM     12  C   UNL     1      74.069  39.953  21.087  1.00  0.00     0.063 A 
ATOM     13  C   UNL     1      75.932  41.492  20.792  1.00  0.00     0.047 A 
ATOM     14  C   UNL     1      74.861  40.771  20.261  1.00  0.00     0.020 A 
ATOM     15  C   UNL     1      76.233  41.403  22.153  1.00  0.00     0.119 A 
ATOM     16  C   UNL     1      75.453  40.592  22.985  1.00  0.00     0.093 A 
ATOM     17  C   UNL     1      74.370  39.871  22.467  1.00  0.00     0.130 A 
BRANCH  15  18
ATOM     18  O   UNL     1      77.307  42.125  22.668  1.00  0.00    -0.508 OA
ATOM     19  H   UNL     1      77.498  42.154  23.663  1.00  0.00     0.293 HD
ENDBRANCH  15  18
BRANCH  17  20
ATOM     20  O   UNL     1      73.605  39.105  23.349  1.00  0.00    -0.507 OA
ATOM     21  H   UNL     1      72.678  39.375  23.652  1.00  0.00     0.293 HD
ENDBRANCH  17  20
ENDBRANCH   1  12
BRANCH   2  22
ATOM     22  O   UNL     1      74.556  37.915  19.125  1.00  0.00    -0.502 OA
ATOM     23  H   UNL     1      74.827  37.949  18.149  1.00  0.00     0.293 HD
ENDBRANCH   2  22
BRANCH   6  24
ATOM     24  O   UNL     1      69.742  35.806  18.232  1.00  0.00    -0.507 OA
ATOM     25  H   UNL     1      69.524  35.790  17.248  1.00  0.00     0.293 HD
ENDBRANCH   6  24
BRANCH   8  26
ATOM     26  O   UNL     1      67.014  38.838  20.766  1.00  0.00    -0.508 OA
ATOM     27  H   UNL     1      66.885  39.376  21.615  1.00  0.00     0.293 HD
ENDBRANCH   8  26
TORSDOF 6
ENDMDL
MODEL 5
REMARK VINA RESULT:    -5.567      2.018      3.135
REMARK INTER + INTRA:          -6.679
REMARK INTER:                  -6.269
REMARK INTRA:                  -0.410
REMARK UNBOUND:                 0.027
REMARK SMILES O=c1c(O)c(-c2ccc(O)cc2O)oc2cc(O)cc(O)c12
REMARK SMILES IDX 5 1 3 2 2 3 1 4 22 5 20 6 19 7 17 8 16 9 15 10 14 11 6 12
REMARK SMILES IDX 8 13 7 14 9 15 11 16 12 17 10 18 13 20 4 22 21 24 18 26
REMARK H PARENT 10 19 13 21 4 23 21 25 18 27
REMARK Flexibility Score: inf
ROOT
ATOM      1  C   UNL     1      71.331  38.886  19.669  1.00  0.00     0.184 A 
ATOM      2  C   UNL     1      70.658  39.515  20.727  1.00  0.00     0.208 A 
ATOM      3  C   UNL     1      69.336  39.137  21.012  1.00  0.00     0.238 A 
ATOM      4  O   UNL     1      68.759  39.661  22.000  1.00  0.00    -0.285 OA
ATOM      5  C   UNL     1      68.697  38.154  20.217  1.00  0.00     0.111 A 
ATOM      6  C   UNL     1      67.347  37.723  20.390  1.00  0.00     0.134 A 
ATOM      7  C   UNL     1      66.860  36.657  19.624  1.00  0.00     0.093 A 
ATOM      8  C   UNL     1      67.652  36.051  18.645  1.00  0.00     0.123 A 
ATOM      9  C   UNL     1      68.950  36.505  18.428  1.00  0.00     0.094 A 
ATOM     10  C   UNL     1      69.478  37.540  19.202  1.00  0.00     0.146 A 
ATOM     11  O   UNL     1      70.726  37.932  18.972  1.00  0.00    -0.451 OA
ENDROOT
BRANCH   1  12
ATOM     12  C   UNL     1      72.715  39.259  19.308  1.00  0.00     0.063 A 
ATOM     13  C   UNL     1      74.228  40.518  17.875  1.00  0.00     0.047 A 
ATOM     14  C   UNL     1      72.931  40.189  18.275  1.00  0.00     0.020 A 
ATOM     15  C   UNL     1      75.327  39.918  18.493  1.00  0.00     0.119 A 
ATOM     16  C   UNL     1      75.125  38.990  19.522  1.00  0.00     0.093 A 
ATOM     17  C   UNL     1      73.830  38.659  19.939  1.00  0.00     0.130 A 
BRANCH  15  18
ATOM     18  O   UNL     1      76.615  40.253  18.081  1.00  0.00    -0.508 OA
ATOM     19  H   UNL     1      76.778  40.807  17.248  1.00  0.00     0.293 HD
ENDBRANCH  15  18
BRANCH  17  20
ATOM     20  O   UNL     1      73.688  37.754  20.992  1.00  0.00    -0.507 OA
ATOM     21  H   UNL     1      73.917  36.771  20.910  1.00  0.00     0.293 HD
ENDBRANCH  17  20
ENDBRANCH   1  12
BRANCH   2  22
ATOM     22  O   UNL     1      71.312  40.483  21.492  1.00  0.00    -0.502 OA
ATOM     23  H   UNL     1      72.071  40.255  22.123  1.00  0.00     0.293 HD
ENDBRANCH   2  22
BRANCH   6  24
ATOM     24  O   UNL     1      66.445  38.318  21.275  1.00  0.00    -0.507 OA
ATOM     25  H   UNL     1      66.642  38.534  22.241  1.00  0.00     0.293 HD
ENDBRANCH   6  24
BRANCH   8  26
ATOM     26  O   UNL     1      67.152  35.002  17.875  1.00  0.00    -0.508 OA
ATOM     27  H   UNL     1      66.831  34.140  18.299  1.00  0.00     0.293 HD
ENDBRANCH   8  26
TORSDOF 6
ENDMDL
MODEL 6
REMARK VINA RESULT:    -5.237      1.540      6.413
REMARK INTER + INTRA:          -6.281
REMARK INTER:                  -5.988
REMARK INTRA:                  -0.294
REMARK UNBOUND:                 0.027
REMARK SMILES O=c1c(O)c(-c2ccc(O)cc2O)oc2cc(O)cc(O)c12
REMARK SMILES IDX 5 1 3 2 2 3 1 4 22 5 20 6 19 7 17 8 16 9 15 10 14 11 6 12
REMARK SMILES IDX 8 13 7 14 9 15 11 16 12 17 10 18 13 20 4 22 21 24 18 26
REMARK H PARENT 10 19 13 21 4 23 21 25 18 27
REMARK Flexibility Score: inf
ROOT
ATOM      1  C   UNL     1      70.878  38.964  19.839  1.00  0.00     0.184 A 
ATOM      2  C   UNL     1      71.716  38.451  18.837  1.00  0.00     0.208 A 
ATOM      3  C   UNL     1      73.073  38.810  18.835  1.00  0.00     0.238 A 
ATOM      4  O   UNL     1      73.831  38.299  17.969  1.00  0.00    -0.285 OA
ATOM      5  C   UNL     1      73.568  39.700  19.819  1.00  0.00     0.111 A 
ATOM      6  C   UNL     1      74.916  40.163  19.890  1.00  0.00     0.134 A 
ATOM      7  C   UNL     1      75.321  40.944  20.979  1.00  0.00     0.093 A 
ATOM      8  C   UNL     1      74.412  41.333  21.966  1.00  0.00     0.123 A 
ATOM      9  C   UNL     1      73.080  40.935  21.874  1.00  0.00     0.094 A 
ATOM     10  C   UNL     1      72.653  40.124  20.820  1.00  0.00     0.146 A 
ATOM     11  O   UNL     1      71.379  39.755  20.780  1.00  0.00    -0.451 OA
ENDROOT
BRANCH   1  12
ATOM     12  C   UNL     1      69.437  38.639  19.878  1.00  0.00     0.063 A 
ATOM     13  C   UNL     1      67.126  39.401  19.795  1.00  0.00     0.047 A 
ATOM     14  C   UNL     1      68.494  39.669  19.707  1.00  0.00     0.020 A 
ATOM     15  C   UNL     1      66.680  38.104  20.061  1.00  0.00     0.119 A 
ATOM     16  C   UNL     1      67.609  37.072  20.234  1.00  0.00     0.093 A 
ATOM     17  C   UNL     1      68.983  37.325  20.139  1.00  0.00     0.130 A 
BRANCH  15  18
ATOM     18  O   UNL     1      65.313  37.853  20.151  1.00  0.00    -0.508 OA
ATOM     19  H   UNL     1      64.882  37.082  19.653  1.00  0.00     0.293 HD
ENDBRANCH  15  18
BRANCH  17  20
ATOM     20  O   UNL     1      69.863  36.251  20.285  1.00  0.00    -0.507 OA
ATOM     21  H   UNL     1      70.719  36.162  19.751  1.00  0.00     0.293 HD
ENDBRANCH  17  20
ENDBRANCH   1  12
BRANCH   2  22
ATOM     22  O   UNL     1      71.200  37.579  17.875  1.00  0.00    -0.502 OA
ATOM     23  H   UNL     1      70.688  37.905  17.064  1.00  0.00     0.293 HD
ENDBRANCH   2  22
BRANCH   6  24
ATOM     24  O   UNL     1      75.881  39.908  18.912  1.00  0.00    -0.507 OA
ATOM     25  H   UNL     1      76.677  40.498  18.719  1.00  0.00     0.293 HD
ENDBRANCH   6  24
BRANCH   8  26
ATOM     26  O   UNL     1      74.821  42.125  23.037  1.00  0.00    -0.508 OA
ATOM     27  H   UNL     1      75.396  41.752  23.783  1.00  0.00     0.293 HD
ENDBRANCH   8  26
TORSDOF 6
ENDMDL
MODEL 7
REMARK VINA RESULT:    -5.168      1.818      6.949
REMARK INTER + INTRA:          -6.198
REMARK INTER:                  -5.842
REMARK INTRA:                  -0.356
REMARK UNBOUND:                 0.027
REMARK SMILES O=c1c(O)c(-c2ccc(O)cc2O)oc2cc(O)cc(O)c12
REMARK SMILES IDX 5 1 3 2 2 3 1 4 22 5 20 6 19 7 17 8 16 9 15 10 14 11 6 12
REMARK SMILES IDX 8 13 7 14 9 15 11 16 12 17 10 18 13 20 4 22 21 24 18 26
REMARK H PARENT 10 19 13 21 4 23 21 25 18 27
REMARK Flexibility Score: inf
ROOT
ATOM      1  C   UNL     1      71.975  39.083  20.268  1.00  0.00     0.184 A 
ATOM      2  C   UNL     1      72.551  39.670  19.131  1.00  0.00     0.208 A 
ATOM      3  C   UNL     1      73.738  40.405  19.273  1.00  0.00     0.238 A 
ATOM      4  O   UNL     1      74.282  40.877  18.240  1.00  0.00    -0.285 OA
ATOM      5  C   UNL     1      74.318  40.569  20.555  1.00  0.00     0.111 A 
ATOM      6  C   UNL     1      75.497  41.326  20.821  1.00  0.00     0.134 A 
ATOM      7  C   UNL     1      76.047  41.316  22.109  1.00  0.00     0.093 A 
ATOM      8  C   UNL     1      75.425  40.629  23.154  1.00  0.00     0.123 A 
ATOM      9  C   UNL     1      74.241  39.935  22.917  1.00  0.00     0.094 A 
ATOM     10  C   UNL     1      73.688  39.895  21.635  1.00  0.00     0.146 A 
ATOM     11  O   UNL     1      72.566  39.209  21.450  1.00  0.00    -0.451 OA
ENDROOT
BRANCH   1  12
ATOM     12  C   UNL     1      70.713  38.318  20.184  1.00  0.00     0.063 A 
ATOM     13  C   UNL     1      69.516  36.357  19.380  1.00  0.00     0.047 A 
ATOM     14  C   UNL     1      70.704  37.076  19.523  1.00  0.00     0.020 A 
ATOM     15  C   UNL     1      68.319  36.869  19.886  1.00  0.00     0.119 A 
ATOM     16  C   UNL     1      68.316  38.104  20.544  1.00  0.00     0.093 A 
ATOM     17  C   UNL     1      69.502  38.831  20.704  1.00  0.00     0.130 A 
BRANCH  15  18
ATOM     18  O   UNL     1      67.141  36.143  19.731  1.00  0.00    -0.508 OA
ATOM     19  H   UNL     1      66.372  36.234  20.386  1.00  0.00     0.293 HD
ENDBRANCH  15  18
BRANCH  17  20
ATOM     20  O   UNL     1      69.447  40.040  21.399  1.00  0.00    -0.507 OA
ATOM     21  H   UNL     1      70.241  40.661  21.492  1.00  0.00     0.293 HD
ENDBRANCH  17  20
ENDBRANCH   1  12
BRANCH   2  22
ATOM     22  O   UNL     1      71.956  39.496  17.879  1.00  0.00    -0.502 OA
ATOM     23  H   UNL     1      70.956  39.585  17.736  1.00  0.00     0.293 HD
ENDBRANCH   2  22
BRANCH   6  24
ATOM     24  O   UNL     1      76.147  42.119  19.872  1.00  0.00    -0.507 OA
ATOM     25  H   UNL     1      75.871  43.055  19.616  1.00  0.00     0.293 HD
ENDBRANCH   6  24
BRANCH   8  26
ATOM     26  O   UNL     1      75.971  40.639  24.436  1.00  0.00    -0.508 OA
ATOM     27  H   UNL     1      76.410  41.468  24.819  1.00  0.00     0.293 HD
ENDBRANCH   8  26
TORSDOF 6
ENDMDL
MODEL 8
REMARK VINA RESULT:    -5.141      1.802      6.977
REMARK INTER + INTRA:          -6.166
REMARK INTER:                  -5.801
REMARK INTRA:                  -0.365
REMARK UNBOUND:                 0.027
REMARK SMILES O=c1c(O)c(-c2ccc(O)cc2O)oc2cc(O)cc(O)c12
REMARK SMILES IDX 5 1 3 2 2 3 1 4 22 5 20 6 19 7 17 8 16 9 15 10 14 11 6 12
REMARK SMILES IDX 8 13 7 14 9 15 11 16 12 17 10 18 13 20 4 22 21 24 18 26
REMARK H PARENT 10 19 13 21 4 23 21 25 18 27
REMARK Flexibility Score: inf
ROOT
ATOM      1  C   UNL     1      70.796  38.949  20.033  1.00  0.00     0.184 A 
ATOM      2  C   UNL     1      70.513  39.657  21.211  1.00  0.00     0.208 A 
ATOM      3  C   UNL     1      71.491  40.512  21.742  1.00  0.00     0.238 A 
ATOM      4  O   UNL     1      71.209  41.190  22.765  1.00  0.00    -0.285 OA
ATOM      5  C   UNL     1      72.750  40.626  21.104  1.00  0.00     0.111 A 
ATOM      6  C   UNL     1      73.830  41.432  21.576  1.00  0.00     0.134 A 
ATOM      7  C   UNL     1      74.985  41.563  20.797  1.00  0.00     0.093 A 
ATOM      8  C   UNL     1      75.127  40.867  19.594  1.00  0.00     0.123 A 
ATOM      9  C   UNL     1      74.103  40.031  19.154  1.00  0.00     0.094 A 
ATOM     10  C   UNL     1      72.923  39.908  19.890  1.00  0.00     0.146 A 
ATOM     11  O   UNL     1      71.966  39.113  19.427  1.00  0.00    -0.451 OA
ENDROOT
BRANCH   1  12
ATOM     12  C   UNL     1      69.815  38.017  19.440  1.00  0.00     0.063 A 
ATOM     13  C   UNL     1      67.691  37.674  18.301  1.00  0.00     0.047 A 
ATOM     14  C   UNL     1      68.663  38.532  18.820  1.00  0.00     0.020 A 
ATOM     15  C   UNL     1      67.851  36.290  18.400  1.00  0.00     0.119 A 
ATOM     16  C   UNL     1      68.993  35.765  19.017  1.00  0.00     0.093 A 
ATOM     17  C   UNL     1      69.979  36.615  19.532  1.00  0.00     0.130 A 
BRANCH  15  18
ATOM     18  O   UNL     1      66.872  35.446  17.882  1.00  0.00    -0.508 OA
ATOM     19  H   UNL     1      66.116  35.093  18.458  1.00  0.00     0.293 HD
ENDBRANCH  15  18
BRANCH  17  20
ATOM     20  O   UNL     1      71.114  36.037  20.105  1.00  0.00    -0.507 OA
ATOM     21  H   UNL     1      71.725  35.406  19.603  1.00  0.00     0.293 HD
ENDBRANCH  17  20
ENDBRANCH   1  12
BRANCH   2  22
ATOM     22  O   UNL     1      69.264  39.522  21.822  1.00  0.00    -0.502 OA
ATOM     23  H   UNL     1      69.132  39.641  22.820  1.00  0.00     0.293 HD
ENDBRANCH   2  22
BRANCH   6  24
ATOM     24  O   UNL     1      73.827  42.098  22.804  1.00  0.00    -0.507 OA
ATOM     25  H   UNL     1      73.059  42.099  23.458  1.00  0.00     0.293 HD
ENDBRANCH   6  24
BRANCH   8  26
ATOM     26  O   UNL     1      76.288  40.990  18.833  1.00  0.00    -0.508 OA
ATOM     27  H   UNL     1      77.087  40.385  18.983  1.00  0.00     0.293 HD
ENDBRANCH   8  26
TORSDOF 6
ENDMDL
