MODEL 1
REMARK VINA RESULT:    -2.059      0.000      0.000
REMARK INTER + INTRA:          -2.595
REMARK INTER:                  -2.480
REMARK INTRA:                  -0.115
REMARK UNBOUND:                -0.115
REMARK SMILES CC[C@H](C)[C@@H]([NH3+])C(=O)[O-]
REMARK SMILES IDX 3 1 4 2 5 3 6 4 7 8 8 9 9 10 2 11 1 12
REMARK H PARENT 6 5 6 6 6 7
REMARK Flexibility Score: inf
ROOT
ATOM      1  C   UNL     1       1.418  -0.148  -8.586  1.00  0.00     0.050 C 
ATOM      2  C   UNL     1       2.628   0.288  -9.434  1.00  0.00     0.014 C 
ENDROOT
BRANCH   1   3
ATOM      3  C   UNL     1       1.743  -0.222  -7.058  1.00  0.00     0.230 C 
BRANCH   3   4
ATOM      4  N   UNL     1       3.187  -0.218  -6.774  1.00  0.00    -0.350 N 
ATOM      5  H   UNL     1       3.345   0.046  -5.775  1.00  0.00     0.345 HD
ATOM      6  H   UNL     1       3.693   0.466  -7.382  1.00  0.00     0.345 HD
ATOM      7  H   UNL     1       3.588  -1.171  -6.912  1.00  0.00     0.345 HD
ENDBRANCH   3   4
BRANCH   3   8
ATOM      8  C   UNL     1       1.038   0.877  -6.300  1.00  0.00     0.099 C 
ATOM      9  O   UNL     1      -0.149   1.198  -6.579  1.00  0.00    -0.544 OA
ATOM     10  O   UNL     1       1.686   1.515  -5.250  1.00  0.00    -0.544 OA
ENDBRANCH   3   8
ENDBRANCH   1   3
BRANCH   1  11
ATOM     11  C   UNL     1       0.833  -1.459  -9.164  1.00  0.00     0.006 C 
ATOM     12  C   UNL     1      -0.696  -1.504  -9.149  1.00  0.00     0.004 C 
ENDBRANCH   1  11
TORSDOF 4
ENDMDL
MODEL 2
REMARK VINA RESULT:    -1.720      2.216      3.479
REMARK INTER + INTRA:          -2.187
REMARK INTER:                  -2.066
REMARK INTRA:                  -0.122
REMARK UNBOUND:                -0.115
REMARK SMILES CC[C@H](C)[C@@H]([NH3+])C(=O)[O-]
REMARK SMILES IDX 3 1 4 2 5 3 6 4 7 8 8 9 9 10 2 11 1 12
REMARK H PARENT 6 5 6 6 6 7
REMARK Flexibility Score: inf
ROOT
ATOM      1  C   UNL     1       1.420   0.109  -6.733  1.00  0.00     0.050 C 
ATOM      2  C   UNL     1       2.616  -0.243  -5.829  1.00  0.00     0.014 C 
ENDROOT
BRANCH   1   3
ATOM      3  C   UNL     1       1.789   0.121  -8.252  1.00  0.00     0.230 C 
BRANCH   3   4
ATOM      4  N   UNL     1       3.239   0.051  -8.494  1.00  0.00    -0.350 N 
ATOM      5  H   UNL     1       3.517   0.800  -9.169  1.00  0.00     0.345 HD
ATOM      6  H   UNL     1       3.515  -0.875  -8.893  1.00  0.00     0.345 HD
ATOM      7  H   UNL     1       3.764   0.220  -7.608  1.00  0.00     0.345 HD
ENDBRANCH   3   4
BRANCH   3   8
ATOM      8  C   UNL     1       1.062  -0.974  -8.995  1.00  0.00     0.099 C 
ATOM      9  O   UNL     1      -0.146  -1.234  -8.747  1.00  0.00    -0.544 OA
ATOM     10  O   UNL     1       1.717  -1.678  -9.998  1.00  0.00    -0.544 OA
ENDBRANCH   3   8
ENDBRANCH   1   3
BRANCH   1  11
ATOM     11  C   UNL     1       0.773   1.425  -6.237  1.00  0.00     0.006 C 
ATOM     12  C   UNL     1      -0.755   1.418  -6.306  1.00  0.00     0.004 C 
ENDBRANCH   1  11
TORSDOF 4
ENDMDL
MODEL 3
REMARK VINA RESULT:    -0.621      2.809      4.080
REMARK INTER + INTRA:          -0.863
REMARK INTER:                  -0.795
REMARK INTRA:                  -0.068
REMARK UNBOUND:                -0.115
REMARK SMILES CC[C@H](C)[C@@H]([NH3+])C(=O)[O-]
REMARK SMILES IDX 3 1 4 2 5 3 6 4 7 8 8 9 9 10 2 11 1 12
REMARK H PARENT 6 5 6 6 6 7
REMARK Flexibility Score: inf
ROOT
ATOM      1  C   UNL     1       1.408   0.351  -7.299  1.00  0.00     0.050 C 
ATOM      2  C   UNL     1      -0.011   0.793  -6.895  1.00  0.00     0.014 C 
ENDROOT
BRANCH   1   3
ATOM      3  C   UNL     1       1.408  -0.815  -8.341  1.00  0.00     0.230 C 
BRANCH   3   4
ATOM      4  N   UNL     1       0.061  -1.147  -8.834  1.00  0.00    -0.350 N 
ATOM      5  H   UNL     1      -0.606  -1.180  -8.029  1.00  0.00     0.345 HD
ATOM      6  H   UNL     1       0.049  -2.076  -9.313  1.00  0.00     0.345 HD
ATOM      7  H   UNL     1      -0.279  -0.411  -9.491  1.00  0.00     0.345 HD
ENDBRANCH   3   4
BRANCH   3   8
ATOM      8  C   UNL     1       2.346  -0.517  -9.486  1.00  0.00     0.099 C 
ATOM      9  O   UNL     1       3.134   0.465  -9.440  1.00  0.00    -0.544 OA
ATOM     10  O   UNL     1       2.375  -1.362 -10.589  1.00  0.00    -0.544 OA
ENDBRANCH   3   8
ENDBRANCH   1   3
BRANCH   1  11
ATOM     11  C   UNL     1       2.232   0.047  -6.023  1.00  0.00     0.006 C 
ATOM     12  C   UNL     1       2.146   1.147  -4.965  1.00  0.00     0.004 C 
ENDBRANCH   1  11
TORSDOF 4
ENDMDL
MODEL 4
REMARK VINA RESULT:    -0.505      1.657      2.447
REMARK INTER + INTRA:          -0.723
REMARK INTER:                  -0.658
REMARK INTRA:                  -0.065
REMARK UNBOUND:                -0.115
REMARK SMILES CC[C@H](C)[C@@H]([NH3+])C(=O)[O-]
REMARK SMILES IDX 3 1 4 2 5 3 6 4 7 8 8 9 9 10 2 11 1 12
REMARK H PARENT 6 5 6 6 6 7
REMARK Flexibility Score: inf
ROOT
ATOM      1  C   UNL     1       1.537  -0.408  -8.184  1.00  0.00     0.050 C 
ATOM      2  C   UNL     1       0.247  -1.011  -8.773  1.00  0.00     0.014 C 
ENDROOT
BRANCH   1   3
ATOM      3  C   UNL     1       1.257   0.727  -7.146  1.00  0.00     0.230 C 
BRANCH   3   4
ATOM      4  N   UNL     1      -0.162   0.830  -6.771  1.00  0.00    -0.350 N 
ATOM      5  H   UNL     1      -0.244   1.302  -5.841  1.00  0.00     0.345 HD
ATOM      6  H   UNL     1      -0.609  -0.113  -6.706  1.00  0.00     0.345 HD
ATOM      7  H   UNL     1      -0.680   1.414  -7.463  1.00  0.00     0.345 HD
ENDBRANCH   3   4
BRANCH   3   8
ATOM      8  C   UNL     1       2.131   0.571  -5.924  1.00  0.00     0.099 C 
ATOM      9  O   UNL     1       1.991   1.330  -4.927  1.00  0.00    -0.544 OA
ATOM     10  O   UNL     1       3.070  -0.450  -5.875  1.00  0.00    -0.544 OA
ENDBRANCH   3   8
ENDBRANCH   1   3
BRANCH   1  11
ATOM     11  C   UNL     1       2.477   0.018  -9.337  1.00  0.00     0.006 C 
ATOM     12  C   UNL     1       2.550  -1.003 -10.474  1.00  0.00     0.004 C 
ENDBRANCH   1  11
TORSDOF 4
ENDMDL
MODEL 5
REMARK VINA RESULT:    -0.422      0.729      1.898
REMARK INTER + INTRA:          -0.624
REMARK INTER:                  -1.176
REMARK INTRA:                   0.553
REMARK UNBOUND:                -0.115
REMARK SMILES CC[C@H](C)[C@@H]([NH3+])C(=O)[O-]
REMARK SMILES IDX 3 1 4 2 5 3 6 4 7 8 8 9 9 10 2 11 1 12
REMARK H PARENT 6 5 6 6 6 7
REMARK Flexibility Score: inf
ROOT
ATOM      1  C   UNL     1       1.640  -0.651  -8.148  1.00  0.00     0.050 C 
ATOM      2  C   UNL     1       0.139  -0.792  -8.466  1.00  0.00     0.014 C 
ENDROOT
BRANCH   1   3
ATOM      3  C   UNL     1       1.921  -0.446  -6.624  1.00  0.00     0.230 C 
BRANCH   3   4
ATOM      4  N   UNL     1       3.354  -0.495  -6.290  1.00  0.00    -0.350 N 
ATOM      5  H   UNL     1       3.737  -1.437  -6.533  1.00  0.00     0.345 HD
ATOM      6  H   UNL     1       3.514  -0.323  -5.271  1.00  0.00     0.345 HD
ATOM      7  H   UNL     1       3.882   0.210  -6.850  1.00  0.00     0.345 HD
ENDBRANCH   3   4
BRANCH   3   8
ATOM      8  C   UNL     1       1.291   0.831  -6.124  1.00  0.00     0.099 C 
ATOM      9  O   UNL     1       0.174   1.217  -6.561  1.00  0.00    -0.544 OA
ATOM     10  O   UNL     1       1.926   1.571  -5.134  1.00  0.00    -0.544 OA
ENDBRANCH   3   8
ENDBRANCH   1   3
BRANCH   1  11
ATOM     11  C   UNL     1       2.253   0.448  -9.049  1.00  0.00     0.006 C 
ATOM     12  C   UNL     1       3.039  -0.106 -10.239  1.00  0.00     0.004 C 
ENDBRANCH   1  11
TORSDOF 4
ENDMDL
MODEL 6
REMARK VINA RESULT:     0.127      1.354      1.518
REMARK INTER + INTRA:           0.039
REMARK INTER:                  -0.003
REMARK INTRA:                   0.041
REMARK UNBOUND:                -0.115
REMARK SMILES CC[C@H](C)[C@@H]([NH3+])C(=O)[O-]
REMARK SMILES IDX 3 1 4 2 5 3 6 4 7 8 8 9 9 10 2 11 1 12
REMARK H PARENT 6 5 6 6 6 7
REMARK Flexibility Score: inf
ROOT
ATOM      1  C   UNL     1       1.590   0.329  -7.756  1.00  0.00     0.050 C 
ATOM      2  C   UNL     1       3.098   0.069  -7.935  1.00  0.00     0.014 C 
ENDROOT
BRANCH   1   3
ATOM      3  C   UNL     1       1.175   0.486  -6.256  1.00  0.00     0.230 C 
BRANCH   3   4
ATOM      4  N   UNL     1       2.297   0.869  -5.384  1.00  0.00    -0.350 N 
ATOM      5  H   UNL     1       2.066   1.762  -4.891  1.00  0.00     0.345 HD
ATOM      6  H   UNL     1       3.176   1.011  -5.933  1.00  0.00     0.345 HD
ATOM      7  H   UNL     1       2.456   0.142  -4.653  1.00  0.00     0.345 HD
ENDBRANCH   3   4
BRANCH   3   8
ATOM      8  C   UNL     1       0.022   1.449  -6.111  1.00  0.00     0.099 C 
ATOM      9  O   UNL     1      -1.076   1.238  -6.693  1.00  0.00    -0.544 OA
ATOM     10  O   UNL     1       0.154   2.561  -5.290  1.00  0.00    -0.544 OA
ENDBRANCH   3   8
ENDBRANCH   1   3
BRANCH   1  11
ATOM     11  C   UNL     1       0.789  -0.756  -8.515  1.00  0.00     0.006 C 
ATOM     12  C   UNL     1       1.512  -1.296  -9.750  1.00  0.00     0.004 C 
ENDBRANCH   1  11
TORSDOF 4
ENDMDL
MODEL 7
REMARK VINA RESULT:     0.137      3.628      5.411
REMARK INTER + INTRA:           0.050
REMARK INTER:                   0.110
REMARK INTRA:                  -0.060
REMARK UNBOUND:                -0.115
REMARK SMILES CC[C@H](C)[C@@H]([NH3+])C(=O)[O-]
REMARK SMILES IDX 3 1 4 2 5 3 6 4 7 8 8 9 9 10 2 11 1 12
REMARK H PARENT 6 5 6 6 6 7
REMARK Flexibility Score: inf
ROOT
ATOM      1  C   UNL     1      -0.835   3.470  -5.218  1.00  0.00     0.050 C 
ATOM      2  C   UNL     1      -1.823   4.213  -6.137  1.00  0.00     0.014 C 
ENDROOT
BRANCH   1   3
ATOM      3  C   UNL     1      -0.739   1.943  -5.538  1.00  0.00     0.230 C 
BRANCH   3   4
ATOM      4  N   UNL     1      -1.636   1.524  -6.627  1.00  0.00    -0.350 N 
ATOM      5  H   UNL     1      -2.263   2.320  -6.888  1.00  0.00     0.345 HD
ATOM      6  H   UNL     1      -2.230   0.713  -6.342  1.00  0.00     0.345 HD
ATOM      7  H   UNL     1      -1.084   1.271  -7.476  1.00  0.00     0.345 HD
ENDBRANCH   3   4
BRANCH   3   8
ATOM      8  C   UNL     1       0.687   1.538  -5.824  1.00  0.00     0.099 C 
ATOM      9  O   UNL     1       1.621   1.860  -5.042  1.00  0.00    -0.544 OA
ATOM     10  O   UNL     1       0.971   0.760  -6.939  1.00  0.00    -0.544 OA
ENDBRANCH   3   8
ENDBRANCH   1   3
BRANCH   1  11
ATOM     11  C   UNL     1      -1.178   3.778  -3.740  1.00  0.00     0.006 C 
ATOM     12  C   UNL     1      -1.855   5.135  -3.541  1.00  0.00     0.004 C 
ENDBRANCH   1  11
TORSDOF 4
ENDMDL
MODEL 8
REMARK VINA RESULT:     0.383      4.311      5.427
REMARK INTER + INTRA:           0.346
REMARK INTER:                   0.420
REMARK INTRA:                  -0.074
REMARK UNBOUND:                -0.115
REMARK SMILES CC[C@H](C)[C@@H]([NH3+])C(=O)[O-]
REMARK SMILES IDX 3 1 4 2 5 3 6 4 7 8 8 9 9 10 2 11 1 12
REMARK H PARENT 6 5 6 6 6 7
REMARK Flexibility Score: inf
ROOT
ATOM      1  C   UNL     1      -0.784   2.581  -5.083  1.00  0.00     0.050 C 
ATOM      2  C   UNL     1      -1.544   1.958  -6.269  1.00  0.00     0.014 C 
ENDROOT
BRANCH   1   3
ATOM      3  C   UNL     1      -0.994   4.127  -4.972  1.00  0.00     0.230 C 
BRANCH   3   4
ATOM      4  N   UNL     1      -1.797   4.680  -6.074  1.00  0.00    -0.350 N 
ATOM      5  H   UNL     1      -2.681   5.089  -5.691  1.00  0.00     0.345 HD
ATOM      6  H   UNL     1      -2.048   3.943  -6.771  1.00  0.00     0.345 HD
ATOM      7  H   UNL     1      -1.280   5.450  -6.551  1.00  0.00     0.345 HD
ENDBRANCH   3   4
BRANCH   3   8
ATOM      8  C   UNL     1      -1.582   4.498  -3.632  1.00  0.00     0.099 C 
ATOM      9  O   UNL     1      -2.195   3.646  -2.935  1.00  0.00    -0.544 OA
ATOM     10  O   UNL     1      -1.408   5.784  -3.137  1.00  0.00    -0.544 OA
ENDBRANCH   3   8
ENDBRANCH   1   3
BRANCH   1  11
ATOM     11  C   UNL     1       0.704   2.157  -5.148  1.00  0.00     0.006 C 
ATOM     12  C   UNL     1       0.991   1.101  -6.216  1.00  0.00     0.004 C 
ENDBRANCH   1  11
TORSDOF 4
ENDMDL
MODEL 9
REMARK VINA RESULT:     0.650      2.297      3.717
REMARK INTER + INTRA:           0.668
REMARK INTER:                   0.337
REMARK INTRA:                   0.332
REMARK UNBOUND:                -0.115
REMARK SMILES CC[C@H](C)[C@@H]([NH3+])C(=O)[O-]
REMARK SMILES IDX 3 1 4 2 5 3 6 4 7 8 8 9 9 10 2 11 1 12
REMARK H PARENT 6 5 6 6 6 7
REMARK Flexibility Score: inf
ROOT
ATOM      1  C   UNL     1       0.613   1.178  -6.763  1.00  0.00     0.050 C 
ATOM      2  C   UNL     1      -0.732   0.442  -6.914  1.00  0.00     0.014 C 
ENDROOT
BRANCH   1   3
ATOM      3  C   UNL     1       1.843   0.266  -7.078  1.00  0.00     0.230 C 
BRANCH   3   4
ATOM      4  N   UNL     1       2.011  -0.831  -6.111  1.00  0.00    -0.350 N 
ATOM      5  H   UNL     1       1.356  -1.610  -6.351  1.00  0.00     0.345 HD
ATOM      6  H   UNL     1       1.807  -0.514  -5.136  1.00  0.00     0.345 HD
ATOM      7  H   UNL     1       2.981  -1.213  -6.158  1.00  0.00     0.345 HD
ENDBRANCH   3   4
BRANCH   3   8
ATOM      8  C   UNL     1       1.778  -0.262  -8.491  1.00  0.00     0.099 C 
ATOM      9  O   UNL     1       0.890  -1.087  -8.834  1.00  0.00    -0.544 OA
ATOM     10  O   UNL     1       2.680   0.200  -9.440  1.00  0.00    -0.544 OA
ENDBRANCH   3   8
ENDBRANCH   1   3
BRANCH   1  11
ATOM     11  C   UNL     1       0.675   1.851  -5.369  1.00  0.00     0.006 C 
ATOM     12  C   UNL     1      -0.511   2.774  -5.084  1.00  0.00     0.004 C 
ENDBRANCH   1  11
TORSDOF 4
ENDMDL
