MODEL 1
REMARK VINA RESULT:    -3.978      0.000      0.000
REMARK INTER + INTRA:          -6.546
REMARK INTER:                  -5.722
REMARK INTRA:                  -0.825
REMARK UNBOUND:                -0.825
REMARK SMILES O=C(CO)[C@H](O)[C@@H](O)[C@@H](O)CO
REMARK SMILES IDX 7 1 9 2 11 3 12 4 10 6 5 8 2 9 1 10 3 11 4 12 6 14 8 16
REMARK H PARENT 12 5 10 7 4 13 6 15 8 17
REMARK Flexibility Score: inf
ROOT
ATOM      1  C   UNL     1      34.991   5.478 -31.436  1.00  0.00     0.181 C 
ENDROOT
BRANCH   1   2
ATOM      2  C   UNL     1      34.663   5.427 -32.954  1.00  0.00     0.171 C 
BRANCH   2   3
ATOM      3  C   UNL     1      33.864   4.166 -33.332  1.00  0.00     0.190 C 
BRANCH   3   4
ATOM      4  O   UNL     1      32.486   4.431 -33.351  1.00  0.00    -0.394 OA
ATOM      5  H   UNL     1      32.117   4.099 -32.492  1.00  0.00     0.210 HD
ENDBRANCH   3   4
ENDBRANCH   2   3
BRANCH   2   6
ATOM      6  O   UNL     1      35.852   5.460 -33.701  1.00  0.00    -0.388 OA
ATOM      7  H   UNL     1      36.592   5.242 -33.075  1.00  0.00     0.211 HD
ENDBRANCH   2   6
ENDBRANCH   1   2
BRANCH   1   8
ATOM      8  C   UNL     1      34.825   6.905 -30.835  1.00  0.00     0.214 C 
BRANCH   8   9
ATOM      9  C   UNL     1      33.391   7.394 -30.850  1.00  0.00     0.189 C 
ATOM     10  O   UNL     1      32.501   6.619 -31.168  1.00  0.00    -0.294 OA
BRANCH   9  11
ATOM     11  C   UNL     1      33.022   8.804 -30.469  1.00  0.00     0.234 C 
BRANCH  11  12
ATOM     12  O   UNL     1      33.333   9.685 -31.513  1.00  0.00    -0.388 OA
ATOM     13  H   UNL     1      34.024  10.308 -31.168  1.00  0.00     0.211 HD
ENDBRANCH  11  12
ENDBRANCH   9  11
ENDBRANCH   8   9
BRANCH   8  14
ATOM     14  O   UNL     1      35.654   7.835 -31.488  1.00  0.00    -0.382 OA
ATOM     15  H   UNL     1      35.548   7.708 -32.467  1.00  0.00     0.211 HD
ENDBRANCH   8  14
ENDBRANCH   1   8
BRANCH   1  16
ATOM     16  O   UNL     1      34.177   4.572 -30.730  1.00  0.00    -0.387 OA
ATOM     17  H   UNL     1      34.745   3.798 -30.473  1.00  0.00     0.211 HD
ENDBRANCH   1  16
TORSDOF 10
ENDMDL
MODEL 2
REMARK VINA RESULT:    -3.921     13.595     14.957
REMARK INTER + INTRA:          -6.465
REMARK INTER:                  -5.304
REMARK INTRA:                  -1.161
REMARK UNBOUND:                -0.825
REMARK SMILES O=C(CO)[C@H](O)[C@@H](O)[C@@H](O)CO
REMARK SMILES IDX 7 1 9 2 11 3 12 4 10 6 5 8 2 9 1 10 3 11 4 12 6 14 8 16
REMARK H PARENT 12 5 10 7 4 13 6 15 8 17
REMARK Flexibility Score: inf
ROOT
ATOM      1  C   UNL     1      23.768  -3.665 -30.602  1.00  0.00     0.181 C 
ENDROOT
BRANCH   1   2
ATOM      2  C   UNL     1      23.832  -5.015 -31.369  1.00  0.00     0.171 C 
BRANCH   2   3
ATOM      3  C   UNL     1      24.145  -6.199 -30.434  1.00  0.00     0.190 C 
BRANCH   3   4
ATOM      4  O   UNL     1      22.998  -6.609 -29.740  1.00  0.00    -0.394 OA
ATOM      5  H   UNL     1      22.324  -5.888 -29.845  1.00  0.00     0.210 HD
ENDBRANCH   3   4
ENDBRANCH   2   3
BRANCH   2   6
ATOM      6  O   UNL     1      24.812  -4.949 -32.373  1.00  0.00    -0.388 OA
ATOM      7  H   UNL     1      25.563  -5.531 -32.081  1.00  0.00     0.211 HD
ENDBRANCH   2   6
ENDBRANCH   1   2
BRANCH   1   8
ATOM      8  C   UNL     1      23.405  -2.468 -31.528  1.00  0.00     0.214 C 
BRANCH   8   9
ATOM      9  C   UNL     1      22.672  -1.356 -30.804  1.00  0.00     0.189 C 
ATOM     10  O   UNL     1      23.283  -0.666 -30.002  1.00  0.00    -0.294 OA
BRANCH   9  11
ATOM     11  C   UNL     1      21.215  -1.062 -31.053  1.00  0.00     0.234 C 
BRANCH  11  12
ATOM     12  O   UNL     1      20.426  -2.143 -30.637  1.00  0.00    -0.388 OA
ATOM     13  H   UNL     1      20.968  -2.661 -29.987  1.00  0.00     0.211 HD
ENDBRANCH  11  12
ENDBRANCH   9  11
ENDBRANCH   8   9
BRANCH   8  14
ATOM     14  O   UNL     1      22.654  -2.889 -32.640  1.00  0.00    -0.382 OA
ATOM     15  H   UNL     1      23.089  -3.698 -33.017  1.00  0.00     0.211 HD
ENDBRANCH   8  14
ENDBRANCH   1   8
BRANCH   1  16
ATOM     16  O   UNL     1      22.839  -3.745 -29.548  1.00  0.00    -0.387 OA
ATOM     17  H   UNL     1      22.301  -4.569 -29.685  1.00  0.00     0.211 HD
ENDBRANCH   1  16
TORSDOF 10
ENDMDL
MODEL 3
REMARK VINA RESULT:    -3.822     13.918     15.015
REMARK INTER + INTRA:          -6.323
REMARK INTER:                  -5.353
REMARK INTRA:                  -0.970
REMARK UNBOUND:                -0.825
REMARK SMILES O=C(CO)[C@H](O)[C@@H](O)[C@@H](O)CO
REMARK SMILES IDX 7 1 9 2 11 3 12 4 10 6 5 8 2 9 1 10 3 11 4 12 6 14 8 16
REMARK H PARENT 12 5 10 7 4 13 6 15 8 17
REMARK Flexibility Score: inf
ROOT
ATOM      1  C   UNL     1      21.184  -0.630 -32.355  1.00  0.00     0.181 C 
ENDROOT
BRANCH   1   2
ATOM      2  C   UNL     1      21.451  -1.289 -30.973  1.00  0.00     0.171 C 
BRANCH   2   3
ATOM      3  C   UNL     1      22.757  -2.106 -30.964  1.00  0.00     0.190 C 
BRANCH   3   4
ATOM      4  O   UNL     1      22.893  -2.849 -32.146  1.00  0.00    -0.394 OA
ATOM      5  H   UNL     1      23.847  -2.791 -32.415  1.00  0.00     0.210 HD
ENDBRANCH   3   4
ENDBRANCH   2   3
BRANCH   2   6
ATOM      6  O   UNL     1      20.380  -2.129 -30.629  1.00  0.00    -0.388 OA
ATOM      7  H   UNL     1      19.616  -1.876 -31.211  1.00  0.00     0.211 HD
ENDBRANCH   2   6
ENDBRANCH   1   2
BRANCH   1   8
ATOM      8  C   UNL     1      19.890   0.235 -32.365  1.00  0.00     0.214 C 
BRANCH   8   9
ATOM      9  C   UNL     1      20.036   1.516 -33.161  1.00  0.00     0.189 C 
ATOM     10  O   UNL     1      20.307   1.449 -34.351  1.00  0.00    -0.294 OA
BRANCH   9  11
ATOM     11  C   UNL     1      19.842   2.874 -32.537  1.00  0.00     0.234 C 
BRANCH  11  12
ATOM     12  O   UNL     1      18.500   3.051 -32.172  1.00  0.00    -0.388 OA
ATOM     13  H   UNL     1      18.319   2.420 -31.428  1.00  0.00     0.211 HD
ENDBRANCH  11  12
ENDBRANCH   9  11
ENDBRANCH   8   9
BRANCH   8  14
ATOM     14  O   UNL     1      19.461   0.531 -31.059  1.00  0.00    -0.382 OA
ATOM     15  H   UNL     1      19.272   1.504 -31.009  1.00  0.00     0.211 HD
ENDBRANCH   8  14
ENDBRANCH   1   8
BRANCH   1  16
ATOM     16  O   UNL     1      22.282   0.160 -32.741  1.00  0.00    -0.387 OA
ATOM     17  H   UNL     1      23.105  -0.288 -32.410  1.00  0.00     0.211 HD
ENDBRANCH   1  16
TORSDOF 10
ENDMDL
MODEL 4
REMARK VINA RESULT:    -3.798     13.306     15.294
REMARK INTER + INTRA:          -6.288
REMARK INTER:                  -5.328
REMARK INTRA:                  -0.960
REMARK UNBOUND:                -0.825
REMARK SMILES O=C(CO)[C@H](O)[C@@H](O)[C@@H](O)CO
REMARK SMILES IDX 7 1 9 2 11 3 12 4 10 6 5 8 2 9 1 10 3 11 4 12 6 14 8 16
REMARK H PARENT 12 5 10 7 4 13 6 15 8 17
REMARK Flexibility Score: inf
ROOT
ATOM      1  C   UNL     1      23.438  -2.602 -31.715  1.00  0.00     0.181 C 
ENDROOT
BRANCH   1   2
ATOM      2  C   UNL     1      22.780  -1.295 -31.192  1.00  0.00     0.171 C 
BRANCH   2   3
ATOM      3  C   UNL     1      21.274  -1.238 -31.509  1.00  0.00     0.190 C 
BRANCH   3   4
ATOM      4  O   UNL     1      20.546  -2.071 -30.647  1.00  0.00    -0.394 OA
ATOM      5  H   UNL     1      19.778  -1.539 -30.311  1.00  0.00     0.210 HD
ENDBRANCH   3   4
ENDBRANCH   2   3
BRANCH   2   6
ATOM      6  O   UNL     1      23.413  -0.179 -31.763  1.00  0.00    -0.388 OA
ATOM      7  H   UNL     1      23.074   0.622 -31.284  1.00  0.00     0.211 HD
ENDBRANCH   2   6
ENDBRANCH   1   2
BRANCH   1   8
ATOM      8  C   UNL     1      23.810  -3.586 -30.567  1.00  0.00     0.214 C 
BRANCH   8   9
ATOM      9  C   UNL     1      24.234  -4.952 -31.067  1.00  0.00     0.189 C 
ATOM     10  O   UNL     1      24.527  -5.089 -32.246  1.00  0.00    -0.294 OA
BRANCH   9  11
ATOM     11  C   UNL     1      24.323  -6.147 -30.154  1.00  0.00     0.234 C 
BRANCH  11  12
ATOM     12  O   UNL     1      23.038  -6.590 -29.810  1.00  0.00    -0.388 OA
ATOM     13  H   UNL     1      23.118  -7.050 -28.934  1.00  0.00     0.211 HD
ENDBRANCH  11  12
ENDBRANCH   9  11
ENDBRANCH   8   9
BRANCH   8  14
ATOM     14  O   UNL     1      22.756  -3.720 -29.645  1.00  0.00    -0.382 OA
ATOM     15  H   UNL     1      22.401  -2.814 -29.450  1.00  0.00     0.211 HD
ENDBRANCH   8  14
ENDBRANCH   1   8
BRANCH   1  16
ATOM     16  O   UNL     1      22.584  -3.247 -32.630  1.00  0.00    -0.387 OA
ATOM     17  H   UNL     1      23.155  -3.752 -33.267  1.00  0.00     0.211 HD
ENDBRANCH   1  16
TORSDOF 10
ENDMDL
MODEL 5
REMARK VINA RESULT:    -3.768      1.164      4.199
REMARK INTER + INTRA:          -6.245
REMARK INTER:                  -5.535
REMARK INTRA:                  -0.710
REMARK UNBOUND:                -0.825
REMARK SMILES O=C(CO)[C@H](O)[C@@H](O)[C@@H](O)CO
REMARK SMILES IDX 7 1 9 2 11 3 12 4 10 6 5 8 2 9 1 10 3 11 4 12 6 14 8 16
REMARK H PARENT 12 5 10 7 4 13 6 15 8 17
REMARK Flexibility Score: inf
ROOT
ATOM      1  C   UNL     1      33.158   7.351 -30.551  1.00  0.00     0.181 C 
ENDROOT
BRANCH   1   2
ATOM      2  C   UNL     1      32.925   8.879 -30.393  1.00  0.00     0.171 C 
BRANCH   2   3
ATOM      3  C   UNL     1      31.435   9.221 -30.205  1.00  0.00     0.190 C 
BRANCH   3   4
ATOM      4  O   UNL     1      31.029  10.214 -31.110  1.00  0.00    -0.394 OA
ATOM      5  H   UNL     1      31.681  10.958 -31.033  1.00  0.00     0.210 HD
ENDBRANCH   3   4
ENDBRANCH   2   3
BRANCH   2   6
ATOM      6  O   UNL     1      33.414   9.556 -31.522  1.00  0.00    -0.388 OA
ATOM      7  H   UNL     1      33.494  10.515 -31.271  1.00  0.00     0.211 HD
ENDBRANCH   2   6
ENDBRANCH   1   2
BRANCH   1   8
ATOM      8  C   UNL     1      34.222   7.017 -31.637  1.00  0.00     0.214 C 
BRANCH   8   9
ATOM      9  C   UNL     1      34.313   5.537 -31.948  1.00  0.00     0.189 C 
ATOM     10  O   UNL     1      34.028   4.728 -31.076  1.00  0.00    -0.294 OA
BRANCH   9  11
ATOM     11  C   UNL     1      34.726   5.026 -33.304  1.00  0.00     0.234 C 
BRANCH  11  12
ATOM     12  O   UNL     1      35.930   5.625 -33.700  1.00  0.00    -0.388 OA
ATOM     13  H   UNL     1      35.932   5.637 -34.692  1.00  0.00     0.211 HD
ENDBRANCH  11  12
ENDBRANCH   9  11
ENDBRANCH   8   9
BRANCH   8  14
ATOM     14  O   UNL     1      35.490   7.509 -31.280  1.00  0.00    -0.382 OA
ATOM     15  H   UNL     1      35.365   8.380 -30.822  1.00  0.00     0.211 HD
ENDBRANCH   8  14
ENDBRANCH   1   8
BRANCH   1  16
ATOM     16  O   UNL     1      33.545   6.785 -29.322  1.00  0.00    -0.387 OA
ATOM     17  H   UNL     1      33.156   5.872 -29.277  1.00  0.00     0.211 HD
ENDBRANCH   1  16
TORSDOF 10
ENDMDL
MODEL 6
REMARK VINA RESULT:    -3.672      1.193      4.566
REMARK INTER + INTRA:          -6.107
REMARK INTER:                  -5.148
REMARK INTRA:                  -0.959
REMARK UNBOUND:                -0.825
REMARK SMILES O=C(CO)[C@H](O)[C@@H](O)[C@@H](O)CO
REMARK SMILES IDX 7 1 9 2 11 3 12 4 10 6 5 8 2 9 1 10 3 11 4 12 6 14 8 16
REMARK H PARENT 12 5 10 7 4 13 6 15 8 17
REMARK Flexibility Score: inf
ROOT
ATOM      1  C   UNL     1      33.585   7.384 -30.658  1.00  0.00     0.181 C 
ENDROOT
BRANCH   1   2
ATOM      2  C   UNL     1      32.420   8.409 -30.732  1.00  0.00     0.171 C 
BRANCH   2   3
ATOM      3  C   UNL     1      32.910   9.858 -30.548  1.00  0.00     0.190 C 
BRANCH   3   4
ATOM      4  O   UNL     1      33.058  10.499 -31.786  1.00  0.00    -0.394 OA
ATOM      5  H   UNL     1      32.441  10.049 -32.420  1.00  0.00     0.210 HD
ENDBRANCH   3   4
ENDBRANCH   2   3
BRANCH   2   6
ATOM      6  O   UNL     1      31.463   8.118 -29.745  1.00  0.00    -0.388 OA
ATOM      7  H   UNL     1      31.836   8.432 -28.880  1.00  0.00     0.211 HD
ENDBRANCH   2   6
ENDBRANCH   1   2
BRANCH   1   8
ATOM      8  C   UNL     1      33.114   5.923 -30.915  1.00  0.00     0.214 C 
BRANCH   8   9
ATOM      9  C   UNL     1      34.228   5.013 -31.391  1.00  0.00     0.189 C 
ATOM     10  O   UNL     1      35.209   4.852 -30.681  1.00  0.00    -0.294 OA
BRANCH   9  11
ATOM     11  C   UNL     1      34.159   4.284 -32.709  1.00  0.00     0.234 C 
BRANCH  11  12
ATOM     12  O   UNL     1      34.432   5.166 -33.764  1.00  0.00    -0.388 OA
ATOM     13  H   UNL     1      34.968   5.910 -33.385  1.00  0.00     0.211 HD
ENDBRANCH  11  12
ENDBRANCH   9  11
ENDBRANCH   8   9
BRANCH   8  14
ATOM     14  O   UNL     1      32.042   5.882 -31.824  1.00  0.00    -0.382 OA
ATOM     15  H   UNL     1      32.276   6.454 -32.601  1.00  0.00     0.211 HD
ENDBRANCH   8  14
ENDBRANCH   1   8
BRANCH   1  16
ATOM     16  O   UNL     1      34.593   7.723 -31.579  1.00  0.00    -0.387 OA
ATOM     17  H   UNL     1      34.533   8.701 -31.743  1.00  0.00     0.211 HD
ENDBRANCH   1  16
TORSDOF 10
ENDMDL
MODEL 7
REMARK VINA RESULT:    -3.645      0.740      4.375
REMARK INTER + INTRA:          -6.068
REMARK INTER:                  -5.073
REMARK INTRA:                  -0.995
REMARK UNBOUND:                -0.825
REMARK SMILES O=C(CO)[C@H](O)[C@@H](O)[C@@H](O)CO
REMARK SMILES IDX 7 1 9 2 11 3 12 4 10 6 5 8 2 9 1 10 3 11 4 12 6 14 8 16
REMARK H PARENT 12 5 10 7 4 13 6 15 8 17
REMARK Flexibility Score: inf
ROOT
ATOM      1  C   UNL     1      34.752   6.651 -30.823  1.00  0.00     0.181 C 
ENDROOT
BRANCH   1   2
ATOM      2  C   UNL     1      33.287   7.141 -30.985  1.00  0.00     0.171 C 
BRANCH   2   3
ATOM      3  C   UNL     1      33.100   8.584 -30.480  1.00  0.00     0.190 C 
BRANCH   3   4
ATOM      4  O   UNL     1      33.417   9.513 -31.482  1.00  0.00    -0.394 OA
ATOM      5  H   UNL     1      33.149  10.406 -31.144  1.00  0.00     0.210 HD
ENDBRANCH   3   4
ENDBRANCH   2   3
BRANCH   2   6
ATOM      6  O   UNL     1      32.418   6.291 -30.281  1.00  0.00    -0.388 OA
ATOM      7  H   UNL     1      32.983   5.715 -29.702  1.00  0.00     0.211 HD
ENDBRANCH   2   6
ENDBRANCH   1   2
BRANCH   1   8
ATOM      8  C   UNL     1      34.953   5.189 -31.321  1.00  0.00     0.214 C 
BRANCH   8   9
ATOM      9  C   UNL     1      34.633   5.012 -32.792  1.00  0.00     0.189 C 
ATOM     10  O   UNL     1      35.344   5.556 -33.624  1.00  0.00    -0.294 OA
BRANCH   9  11
ATOM     11  C   UNL     1      33.475   4.172 -33.264  1.00  0.00     0.234 C 
BRANCH  11  12
ATOM     12  O   UNL     1      33.861   2.827 -33.360  1.00  0.00    -0.388 OA
ATOM     13  H   UNL     1      34.435   2.750 -34.165  1.00  0.00     0.211 HD
ENDBRANCH  11  12
ENDBRANCH   9  11
ENDBRANCH   8   9
BRANCH   8  14
ATOM     14  O   UNL     1      34.201   4.279 -30.556  1.00  0.00    -0.382 OA
ATOM     15  H   UNL     1      33.783   4.779 -29.806  1.00  0.00     0.211 HD
ENDBRANCH   8  14
ENDBRANCH   1   8
BRANCH   1  16
ATOM     16  O   UNL     1      35.633   7.507 -31.509  1.00  0.00    -0.387 OA
ATOM     17  H   UNL     1      35.261   8.427 -31.452  1.00  0.00     0.211 HD
ENDBRANCH   1  16
TORSDOF 10
ENDMDL
MODEL 8
REMARK VINA RESULT:    -3.555      1.843      4.526
REMARK INTER + INTRA:          -5.938
REMARK INTER:                  -4.681
REMARK INTRA:                  -1.257
REMARK UNBOUND:                -0.825
REMARK SMILES O=C(CO)[C@H](O)[C@@H](O)[C@@H](O)CO
REMARK SMILES IDX 7 1 9 2 11 3 12 4 10 6 5 8 2 9 1 10 3 11 4 12 6 14 8 16
REMARK H PARENT 12 5 10 7 4 13 6 15 8 17
REMARK Flexibility Score: inf
ROOT
ATOM      1  C   UNL     1      33.150   5.272 -31.858  1.00  0.00     0.181 C 
ENDROOT
BRANCH   1   2
ATOM      2  C   UNL     1      34.614   5.075 -32.342  1.00  0.00     0.171 C 
BRANCH   2   3
ATOM      3  C   UNL     1      35.552   6.178 -31.816  1.00  0.00     0.190 C 
BRANCH   3   4
ATOM      4  O   UNL     1      34.863   7.389 -31.656  1.00  0.00    -0.394 OA
ATOM      5  H   UNL     1      35.349   8.070 -32.190  1.00  0.00     0.210 HD
ENDBRANCH   3   4
ENDBRANCH   2   3
BRANCH   2   6
ATOM      6  O   UNL     1      34.656   5.066 -33.746  1.00  0.00    -0.388 OA
ATOM      7  H   UNL     1      35.039   5.938 -34.029  1.00  0.00     0.211 HD
ENDBRANCH   2   6
ENDBRANCH   1   2
BRANCH   1   8
ATOM      8  C   UNL     1      32.216   4.103 -32.287  1.00  0.00     0.214 C 
BRANCH   8   9
ATOM      9  C   UNL     1      32.741   2.741 -31.879  1.00  0.00     0.189 C 
ATOM     10  O   UNL     1      32.989   2.527 -30.702  1.00  0.00    -0.294 OA
BRANCH   9  11
ATOM     11  C   UNL     1      32.952   1.633 -32.878  1.00  0.00     0.234 C 
BRANCH  11  12
ATOM     12  O   UNL     1      34.027   1.941 -33.723  1.00  0.00    -0.388 OA
ATOM     13  H   UNL     1      34.779   2.222 -33.140  1.00  0.00     0.211 HD
ENDBRANCH  11  12
ENDBRANCH   9  11
ENDBRANCH   8   9
BRANCH   8  14
ATOM     14  O   UNL     1      31.969   4.125 -33.671  1.00  0.00    -0.382 OA
ATOM     15  H   UNL     1      31.505   3.282 -33.915  1.00  0.00     0.211 HD
ENDBRANCH   8  14
ENDBRANCH   1   8
BRANCH   1  16
ATOM     16  O   UNL     1      33.114   5.416 -30.459  1.00  0.00    -0.387 OA
ATOM     17  H   UNL     1      32.548   6.207 -30.254  1.00  0.00     0.211 HD
ENDBRANCH   1  16
TORSDOF 10
ENDMDL
MODEL 9
REMARK VINA RESULT:    -3.552     14.066     15.352
REMARK INTER + INTRA:          -5.934
REMARK INTER:                  -5.100
REMARK INTRA:                  -0.833
REMARK UNBOUND:                -0.825
REMARK SMILES O=C(CO)[C@H](O)[C@@H](O)[C@@H](O)CO
REMARK SMILES IDX 7 1 9 2 11 3 12 4 10 6 5 8 2 9 1 10 3 11 4 12 6 14 8 16
REMARK H PARENT 12 5 10 7 4 13 6 15 8 17
REMARK Flexibility Score: inf
ROOT
ATOM      1  C   UNL     1      20.592   2.036 -32.495  1.00  0.00     0.181 C 
ENDROOT
BRANCH   1   2
ATOM      2  C   UNL     1      19.787   3.288 -32.049  1.00  0.00     0.171 C 
BRANCH   2   3
ATOM      3  C   UNL     1      20.027   3.632 -30.567  1.00  0.00     0.190 C 
BRANCH   3   4
ATOM      4  O   UNL     1      18.899   3.328 -29.791  1.00  0.00    -0.394 OA
ATOM      5  H   UNL     1      18.209   4.008 -30.005  1.00  0.00     0.210 HD
ENDBRANCH   3   4
ENDBRANCH   2   3
BRANCH   2   6
ATOM      6  O   UNL     1      18.415   3.072 -32.255  1.00  0.00    -0.388 OA
ATOM      7  H   UNL     1      18.003   2.954 -31.359  1.00  0.00     0.211 HD
ENDBRANCH   2   6
ENDBRANCH   1   2
BRANCH   1   8
ATOM      8  C   UNL     1      20.614   0.921 -31.409  1.00  0.00     0.214 C 
BRANCH   8   9
ATOM      9  C   UNL     1      21.511  -0.246 -31.772  1.00  0.00     0.189 C 
ATOM     10  O   UNL     1      22.097  -0.234 -32.845  1.00  0.00    -0.294 OA
BRANCH   9  11
ATOM     11  C   UNL     1      21.717  -1.416 -30.845  1.00  0.00     0.234 C 
BRANCH  11  12
ATOM     12  O   UNL     1      20.506  -2.093 -30.643  1.00  0.00    -0.388 OA
ATOM     13  H   UNL     1      19.919  -1.481 -30.127  1.00  0.00     0.211 HD
ENDBRANCH  11  12
ENDBRANCH   9  11
ENDBRANCH   8   9
BRANCH   8  14
ATOM     14  O   UNL     1      19.318   0.457 -31.124  1.00  0.00    -0.382 OA
ATOM     15  H   UNL     1      18.989  -0.045 -31.915  1.00  0.00     0.211 HD
ENDBRANCH   8  14
ENDBRANCH   1   8
BRANCH   1  16
ATOM     16  O   UNL     1      20.064   1.517 -33.693  1.00  0.00    -0.387 OA
ATOM     17  H   UNL     1      19.075   1.494 -33.598  1.00  0.00     0.211 HD
ENDBRANCH   1  16
TORSDOF 10
ENDMDL
