MODEL 1
REMARK VINA RESULT:    -5.240      0.000      0.000
REMARK INTER + INTRA:          -6.132
REMARK INTER:                  -5.852
REMARK INTRA:                  -0.280
REMARK UNBOUND:                -0.280
REMARK SMILES COc1cc(C)ccc1C(C)C
REMARK SMILES IDX 6 1 5 2 4 3 3 4 9 5 8 6 7 7 2 8 1 9 10 10 11 11 12 12
REMARK H PARENT
REMARK Flexibility Score: inf
ROOT
ATOM      1  C   UNL     1      -9.980  74.238  28.593  1.00  0.00     0.044 C 
ATOM      2  C   UNL     1      -9.793  74.123  27.109  1.00  0.00    -0.047 A 
ATOM      3  C   UNL     1      -8.988  73.108  26.575  1.00  0.00     0.050 A 
ATOM      4  C   UNL     1      -8.833  72.966  25.180  1.00  0.00     0.122 A 
ATOM      5  C   UNL     1      -9.509  73.856  24.313  1.00  0.00    -0.003 A 
ATOM      6  C   UNL     1     -10.331  74.859  24.864  1.00  0.00     0.008 A 
ATOM      7  C   UNL     1     -10.476  74.986  26.245  1.00  0.00     0.004 A 
ENDROOT
BRANCH   4   8
ATOM      8  O   UNL     1      -8.021  71.958  24.634  1.00  0.00    -0.496 OA
ATOM      9  C   UNL     1      -6.600  71.923  24.723  1.00  0.00     0.278 C 
ENDBRANCH   4   8
BRANCH   5  10
ATOM     10  C   UNL     1      -9.368  73.737  22.801  1.00  0.00     0.017 C 
ATOM     11  C   UNL     1     -10.669  74.133  22.091  1.00  0.00     0.012 C 
ATOM     12  C   UNL     1      -8.186  74.569  22.287  1.00  0.00     0.012 C 
ENDBRANCH   5  10
TORSDOF 2
ENDMDL
MODEL 2
REMARK VINA RESULT:    -5.098      1.905      4.886
REMARK INTER + INTRA:          -5.974
REMARK INTER:                  -5.765
REMARK INTRA:                  -0.209
REMARK UNBOUND:                -0.280
REMARK SMILES COc1cc(C)ccc1C(C)C
REMARK SMILES IDX 6 1 5 2 4 3 3 4 9 5 8 6 7 7 2 8 1 9 10 10 11 11 12 12
REMARK H PARENT
REMARK Flexibility Score: inf
ROOT
ATOM      1  C   UNL     1     -11.697  75.523  19.990  1.00  0.00     0.044 C 
ATOM      2  C   UNL     1     -10.476  74.947  20.646  1.00  0.00    -0.047 A 
ATOM      3  C   UNL     1     -10.471  74.683  22.021  1.00  0.00     0.050 A 
ATOM      4  C   UNL     1      -9.343  74.107  22.643  1.00  0.00     0.122 A 
ATOM      5  C   UNL     1      -8.209  73.784  21.862  1.00  0.00    -0.003 A 
ATOM      6  C   UNL     1      -8.237  74.036  20.476  1.00  0.00     0.008 A 
ATOM      7  C   UNL     1      -9.359  74.604  19.875  1.00  0.00     0.004 A 
ENDROOT
BRANCH   4   8
ATOM      8  O   UNL     1      -9.323  73.848  24.024  1.00  0.00    -0.496 OA
ATOM      9  C   UNL     1     -10.067  74.573  24.998  1.00  0.00     0.278 C 
ENDBRANCH   4   8
BRANCH   5  10
ATOM     10  C   UNL     1      -6.972  73.162  22.495  1.00  0.00     0.017 C 
ATOM     11  C   UNL     1      -7.123  71.641  22.626  1.00  0.00     0.012 C 
ATOM     12  C   UNL     1      -5.706  73.523  21.709  1.00  0.00     0.012 C 
ENDBRANCH   5  10
TORSDOF 2
ENDMDL
MODEL 3
REMARK VINA RESULT:    -5.015      1.768      3.249
REMARK INTER + INTRA:          -5.882
REMARK INTER:                  -5.653
REMARK INTRA:                  -0.229
REMARK UNBOUND:                -0.280
REMARK SMILES COc1cc(C)ccc1C(C)C
REMARK SMILES IDX 6 1 5 2 4 3 3 4 9 5 8 6 7 7 2 8 1 9 10 10 11 11 12 12
REMARK H PARENT
REMARK Flexibility Score: inf
ROOT
ATOM      1  C   UNL     1     -10.675  74.837  26.865  1.00  0.00     0.044 C 
ATOM      2  C   UNL     1      -9.892  74.198  25.755  1.00  0.00    -0.047 A 
ATOM      3  C   UNL     1     -10.000  74.683  24.445  1.00  0.00     0.050 A 
ATOM      4  C   UNL     1      -9.241  74.117  23.400  1.00  0.00     0.122 A 
ATOM      5  C   UNL     1      -8.353  73.052  23.684  1.00  0.00    -0.003 A 
ATOM      6  C   UNL     1      -8.240  72.590  25.010  1.00  0.00     0.008 A 
ATOM      7  C   UNL     1      -8.995  73.161  26.033  1.00  0.00     0.004 A 
ENDROOT
BRANCH   4   8
ATOM      8  O   UNL     1      -9.349  74.588  22.080  1.00  0.00    -0.496 OA
ATOM      9  C   UNL     1     -10.574  74.750  21.373  1.00  0.00     0.278 C 
ENDBRANCH   4   8
BRANCH   5  10
ATOM     10  C   UNL     1      -7.517  72.413  22.584  1.00  0.00     0.017 C 
ATOM     11  C   UNL     1      -6.207  73.182  22.367  1.00  0.00     0.012 C 
ATOM     12  C   UNL     1      -7.243  70.934  22.883  1.00  0.00     0.012 C 
ENDBRANCH   5  10
TORSDOF 2
ENDMDL
MODEL 4
REMARK VINA RESULT:    -5.011      2.922      4.820
REMARK INTER + INTRA:          -5.876
REMARK INTER:                  -5.668
REMARK INTRA:                  -0.208
REMARK UNBOUND:                -0.280
REMARK SMILES COc1cc(C)ccc1C(C)C
REMARK SMILES IDX 6 1 5 2 4 3 3 4 9 5 8 6 7 7 2 8 1 9 10 10 11 11 12 12
REMARK H PARENT
REMARK Flexibility Score: inf
ROOT
ATOM      1  C   UNL     1     -10.771  74.226  32.540  1.00  0.00     0.044 C 
ATOM      2  C   UNL     1     -10.645  74.079  31.051  1.00  0.00    -0.047 A 
ATOM      3  C   UNL     1     -11.728  73.616  30.293  1.00  0.00     0.050 A 
ATOM      4  C   UNL     1     -11.635  73.509  28.890  1.00  0.00     0.122 A 
ATOM      5  C   UNL     1     -10.434  73.885  28.243  1.00  0.00    -0.003 A 
ATOM      6  C   UNL     1      -9.361  74.369  29.017  1.00  0.00     0.008 A 
ATOM      7  C   UNL     1      -9.468  74.470  30.404  1.00  0.00     0.004 A 
ENDROOT
BRANCH   4   8
ATOM      8  O   UNL     1     -12.711  73.037  28.120  1.00  0.00    -0.496 OA
ATOM      9  C   UNL     1     -13.714  73.860  27.534  1.00  0.00     0.278 C 
ENDBRANCH   4   8
BRANCH   5  10
ATOM     10  C   UNL     1     -10.293  73.784  26.730  1.00  0.00     0.017 C 
ATOM     11  C   UNL     1     -10.529  75.144  26.061  1.00  0.00     0.012 C 
ATOM     12  C   UNL     1      -8.927  73.208  26.338  1.00  0.00     0.012 C 
ENDBRANCH   5  10
TORSDOF 2
ENDMDL
MODEL 5
REMARK VINA RESULT:    -5.005      4.335      7.737
REMARK INTER + INTRA:          -5.870
REMARK INTER:                  -5.669
REMARK INTRA:                  -0.201
REMARK UNBOUND:                -0.280
REMARK SMILES COc1cc(C)ccc1C(C)C
REMARK SMILES IDX 6 1 5 2 4 3 3 4 9 5 8 6 7 7 2 8 1 9 10 10 11 11 12 12
REMARK H PARENT
REMARK Flexibility Score: inf
ROOT
ATOM      1  C   UNL     1     -11.267  73.861  27.204  1.00  0.00     0.044 C 
ATOM      2  C   UNL     1     -11.166  73.642  28.685  1.00  0.00    -0.047 A 
ATOM      3  C   UNL     1     -10.683  74.660  29.517  1.00  0.00     0.050 A 
ATOM      4  C   UNL     1     -10.618  74.481  30.915  1.00  0.00     0.122 A 
ATOM      5  C   UNL     1     -11.057  73.260  31.480  1.00  0.00    -0.003 A 
ATOM      6  C   UNL     1     -11.559  72.254  30.632  1.00  0.00     0.008 A 
ATOM      7  C   UNL     1     -11.619  72.446  29.252  1.00  0.00     0.004 A 
ENDROOT
BRANCH   4   8
ATOM      8  O   UNL     1     -10.126  75.492  31.759  1.00  0.00    -0.496 OA
ATOM      9  C   UNL     1     -10.930  76.478  32.398  1.00  0.00     0.278 C 
ENDBRANCH   4   8
BRANCH   5  10
ATOM     10  C   UNL     1     -11.003  73.028  32.984  1.00  0.00     0.017 C 
ATOM     11  C   UNL     1     -12.374  73.261  33.630  1.00  0.00     0.012 C 
ATOM     12  C   UNL     1     -10.473  71.626  33.309  1.00  0.00     0.012 C 
ENDBRANCH   5  10
TORSDOF 2
ENDMDL
MODEL 6
REMARK VINA RESULT:    -4.833      1.452      3.634
REMARK INTER + INTRA:          -5.678
REMARK INTER:                  -5.437
REMARK INTRA:                  -0.241
REMARK UNBOUND:                -0.280
REMARK SMILES COc1cc(C)ccc1C(C)C
REMARK SMILES IDX 6 1 5 2 4 3 3 4 9 5 8 6 7 7 2 8 1 9 10 10 11 11 12 12
REMARK H PARENT
REMARK Flexibility Score: inf
ROOT
ATOM      1  C   UNL     1      -5.632  71.152  24.705  1.00  0.00     0.044 C 
ATOM      2  C   UNL     1      -6.900  71.831  24.278  1.00  0.00    -0.047 A 
ATOM      3  C   UNL     1      -7.770  72.368  25.235  1.00  0.00     0.050 A 
ATOM      4  C   UNL     1      -8.947  73.041  24.844  1.00  0.00     0.122 A 
ATOM      5  C   UNL     1      -9.242  73.182  23.468  1.00  0.00    -0.003 A 
ATOM      6  C   UNL     1      -8.347  72.655  22.517  1.00  0.00     0.008 A 
ATOM      7  C   UNL     1      -7.187  71.993  22.918  1.00  0.00     0.004 A 
ENDROOT
BRANCH   4   8
ATOM      8  O   UNL     1      -9.833  73.575  25.796  1.00  0.00    -0.496 OA
ATOM      9  C   UNL     1      -9.437  74.239  26.991  1.00  0.00     0.278 C 
ENDBRANCH   4   8
BRANCH   5  10
ATOM     10  C   UNL     1     -10.503  73.902  23.006  1.00  0.00     0.017 C 
ATOM     11  C   UNL     1     -10.255  74.666  21.699  1.00  0.00     0.012 C 
ATOM     12  C   UNL     1     -11.676  72.925  22.858  1.00  0.00     0.012 C 
ENDBRANCH   5  10
TORSDOF 2
ENDMDL
MODEL 7
REMARK VINA RESULT:    -4.747      9.654     12.661
REMARK INTER + INTRA:          -5.582
REMARK INTER:                  -5.330
REMARK INTRA:                  -0.252
REMARK UNBOUND:                -0.280
REMARK SMILES COc1cc(C)ccc1C(C)C
REMARK SMILES IDX 6 1 5 2 4 3 3 4 9 5 8 6 7 7 2 8 1 9 10 10 11 11 12 12
REMARK H PARENT
REMARK Flexibility Score: inf
ROOT
ATOM      1  C   UNL     1     -12.377  72.538  39.230  1.00  0.00     0.044 C 
ATOM      2  C   UNL     1     -11.439  71.741  38.372  1.00  0.00    -0.047 A 
ATOM      3  C   UNL     1     -11.044  72.227  37.119  1.00  0.00     0.050 A 
ATOM      4  C   UNL     1     -10.133  71.505  36.318  1.00  0.00     0.122 A 
ATOM      5  C   UNL     1      -9.606  70.282  36.796  1.00  0.00    -0.003 A 
ATOM      6  C   UNL     1      -9.997  69.817  38.067  1.00  0.00     0.008 A 
ATOM      7  C   UNL     1     -10.897  70.542  38.848  1.00  0.00     0.004 A 
ENDROOT
BRANCH   4   8
ATOM      8  O   UNL     1      -9.738  71.978  35.055  1.00  0.00    -0.496 OA
ATOM      9  C   UNL     1     -10.632  72.385  34.024  1.00  0.00     0.278 C 
ENDBRANCH   4   8
BRANCH   5  10
ATOM     10  C   UNL     1      -8.621  69.474  35.962  1.00  0.00     0.017 C 
ATOM     11  C   UNL     1      -7.177  69.724  36.416  1.00  0.00     0.012 C 
ATOM     12  C   UNL     1      -8.959  67.978  36.001  1.00  0.00     0.012 C 
ENDBRANCH   5  10
TORSDOF 2
ENDMDL
MODEL 8
REMARK VINA RESULT:    -4.742     10.714     13.085
REMARK INTER + INTRA:          -5.576
REMARK INTER:                  -5.325
REMARK INTRA:                  -0.250
REMARK UNBOUND:                -0.280
REMARK SMILES COc1cc(C)ccc1C(C)C
REMARK SMILES IDX 6 1 5 2 4 3 3 4 9 5 8 6 7 7 2 8 1 9 10 10 11 11 12 12
REMARK H PARENT
REMARK Flexibility Score: inf
ROOT
ATOM      1  C   UNL     1      -8.624  68.018  37.963  1.00  0.00     0.044 C 
ATOM      2  C   UNL     1      -9.328  69.265  37.512  1.00  0.00    -0.047 A 
ATOM      3  C   UNL     1     -10.366  69.806  38.281  1.00  0.00     0.050 A 
ATOM      4  C   UNL     1     -11.012  70.997  37.888  1.00  0.00     0.122 A 
ATOM      5  C   UNL     1     -10.594  71.656  36.708  1.00  0.00    -0.003 A 
ATOM      6  C   UNL     1      -9.535  71.111  35.957  1.00  0.00     0.008 A 
ATOM      7  C   UNL     1      -8.906  69.933  36.358  1.00  0.00     0.004 A 
ENDROOT
BRANCH   4   8
ATOM      8  O   UNL     1     -12.061  71.544  38.647  1.00  0.00    -0.496 OA
ATOM      9  C   UNL     1     -12.107  71.571  40.069  1.00  0.00     0.278 C 
ENDBRANCH   4   8
BRANCH   5  10
ATOM     10  C   UNL     1     -11.265  72.944  36.249  1.00  0.00     0.017 C 
ATOM     11  C   UNL     1     -10.506  74.175  36.759  1.00  0.00     0.012 C 
ATOM     12  C   UNL     1     -11.411  72.980  34.723  1.00  0.00     0.012 C 
ENDBRANCH   5  10
TORSDOF 2
ENDMDL
MODEL 9
REMARK VINA RESULT:    -4.624      1.917      4.411
REMARK INTER + INTRA:          -5.445
REMARK INTER:                  -5.167
REMARK INTRA:                  -0.278
REMARK UNBOUND:                -0.280
REMARK SMILES COc1cc(C)ccc1C(C)C
REMARK SMILES IDX 6 1 5 2 4 3 3 4 9 5 8 6 7 7 2 8 1 9 10 10 11 11 12 12
REMARK H PARENT
REMARK Flexibility Score: inf
ROOT
ATOM      1  C   UNL     1      -4.760  71.870  22.974  1.00  0.00     0.044 C 
ATOM      2  C   UNL     1      -6.120  72.456  23.222  1.00  0.00    -0.047 A 
ATOM      3  C   UNL     1      -6.652  73.403  22.338  1.00  0.00     0.050 A 
ATOM      4  C   UNL     1      -7.944  73.933  22.539  1.00  0.00     0.122 A 
ATOM      5  C   UNL     1      -8.711  73.493  23.643  1.00  0.00    -0.003 A 
ATOM      6  C   UNL     1      -8.170  72.525  24.511  1.00  0.00     0.008 A 
ATOM      7  C   UNL     1      -6.893  72.008  24.299  1.00  0.00     0.004 A 
ENDROOT
BRANCH   4   8
ATOM      8  O   UNL     1      -8.484  74.891  21.664  1.00  0.00    -0.496 OA
ATOM      9  C   UNL     1      -8.778  74.662  20.290  1.00  0.00     0.278 C 
ENDBRANCH   4   8
BRANCH   5  10
ATOM     10  C   UNL     1     -10.109  74.041  23.895  1.00  0.00     0.017 C 
ATOM     11  C   UNL     1     -11.179  73.141  23.263  1.00  0.00     0.012 C 
ATOM     12  C   UNL     1     -10.368  74.233  25.394  1.00  0.00     0.012 C 
ENDBRANCH   5  10
TORSDOF 2
ENDMDL
