MODEL 1
REMARK VINA RESULT:    -3.736      0.000      0.000
REMARK INTER + INTRA:          -4.388
REMARK INTER:                  -4.173
REMARK INTRA:                  -0.215
REMARK UNBOUND:                -0.215
REMARK SMILES CC(C)c1ccc(C(=O)[O-])cc1
REMARK SMILES IDX 7 1 6 2 11 3 5 4 12 5 4 6 8 7 9 8 10 9 2 10 1 11 3 12
REMARK H PARENT
REMARK Flexibility Score: inf
ROOT
ATOM      1  C   UNL     1      44.392  19.438  73.057  1.00  0.00    -0.003 A 
ATOM      2  C   UNL     1      44.119  19.629  74.424  1.00  0.00     0.010 A 
ATOM      3  C   UNL     1      43.408  19.781  72.115  1.00  0.00     0.010 A 
ATOM      4  C   UNL     1      42.891  20.150  74.837  1.00  0.00     0.004 A 
ATOM      5  C   UNL     1      42.180  20.303  72.528  1.00  0.00     0.004 A 
ATOM      6  C   UNL     1      41.907  20.494  73.895  1.00  0.00    -0.045 A 
ENDROOT
BRANCH   1   7
ATOM      7  C   UNL     1      45.691  18.885  72.616  1.00  0.00     0.071 C 
ATOM      8  O   UNL     1      46.233  19.295  71.555  1.00  0.00    -0.545 OA
ATOM      9  O   UNL     1      46.331  17.906  73.366  1.00  0.00    -0.545 OA
ENDBRANCH   1   7
BRANCH   6  10
ATOM     10  C   UNL     1      40.577  21.060  74.358  1.00  0.00     0.013 C 
ATOM     11  C   UNL     1      40.505  21.120  75.889  1.00  0.00     0.012 C 
ATOM     12  C   UNL     1      39.404  20.257  73.781  1.00  0.00     0.012 C 
ENDBRANCH   6  10
TORSDOF 2
ENDMDL
MODEL 2
REMARK VINA RESULT:    -3.566      2.938      5.255
REMARK INTER + INTRA:          -4.198
REMARK INTER:                  -3.984
REMARK INTRA:                  -0.214
REMARK UNBOUND:                -0.215
REMARK SMILES CC(C)c1ccc(C(=O)[O-])cc1
REMARK SMILES IDX 7 1 6 2 11 3 5 4 12 5 4 6 8 7 9 8 10 9 2 10 1 11 3 12
REMARK H PARENT
REMARK Flexibility Score: inf
ROOT
ATOM      1  C   UNL     1      42.107  20.370  73.665  1.00  0.00    -0.003 A 
ATOM      2  C   UNL     1      42.258  20.370  72.267  1.00  0.00     0.010 A 
ATOM      3  C   UNL     1      43.197  19.990  74.466  1.00  0.00     0.010 A 
ATOM      4  C   UNL     1      43.472  19.997  71.683  1.00  0.00     0.004 A 
ATOM      5  C   UNL     1      44.411  19.617  73.882  1.00  0.00     0.004 A 
ATOM      6  C   UNL     1      44.562  19.617  72.484  1.00  0.00    -0.045 A 
ENDROOT
BRANCH   1   7
ATOM      7  C   UNL     1      40.824  20.764  74.286  1.00  0.00     0.071 C 
ATOM      8  O   UNL     1      40.754  20.992  75.523  1.00  0.00    -0.545 OA
ATOM      9  O   UNL     1      39.676  20.889  73.512  1.00  0.00    -0.545 OA
ENDBRANCH   1   7
BRANCH   6  10
ATOM     10  C   UNL     1      45.875  19.214  71.838  1.00  0.00     0.013 C 
ATOM     11  C   UNL     1      46.803  18.530  72.849  1.00  0.00     0.012 C 
ATOM     12  C   UNL     1      46.563  20.421  71.187  1.00  0.00     0.012 C 
ENDBRANCH   6  10
TORSDOF 2
ENDMDL
MODEL 3
REMARK VINA RESULT:    -3.502      4.798      6.037
REMARK INTER + INTRA:          -4.127
REMARK INTER:                  -3.907
REMARK INTRA:                  -0.220
REMARK UNBOUND:                -0.215
REMARK SMILES CC(C)c1ccc(C(=O)[O-])cc1
REMARK SMILES IDX 7 1 6 2 11 3 5 4 12 5 4 6 8 7 9 8 10 9 2 10 1 11 3 12
REMARK H PARENT
REMARK Flexibility Score: inf
ROOT
ATOM      1  C   UNL     1      47.119  15.096  73.243  1.00  0.00    -0.003 A 
ATOM      2  C   UNL     1      47.112  15.705  71.976  1.00  0.00     0.010 A 
ATOM      3  C   UNL     1      47.124  15.911  74.388  1.00  0.00     0.010 A 
ATOM      4  C   UNL     1      47.112  17.098  71.856  1.00  0.00     0.004 A 
ATOM      5  C   UNL     1      47.124  17.303  74.268  1.00  0.00     0.004 A 
ATOM      6  C   UNL     1      47.118  17.912  73.001  1.00  0.00    -0.045 A 
ENDROOT
BRANCH   1   7
ATOM      7  C   UNL     1      47.119  13.623  73.374  1.00  0.00     0.071 C 
ATOM      8  O   UNL     1      47.121  12.890  72.349  1.00  0.00    -0.545 OA
ATOM      9  O   UNL     1      47.117  13.027  74.629  1.00  0.00    -0.545 OA
ENDBRANCH   1   7
BRANCH   6  10
ATOM     10  C   UNL     1      47.118  19.423  72.857  1.00  0.00     0.013 C 
ATOM     11  C   UNL     1      46.854  20.107  74.204  1.00  0.00     0.012 C 
ATOM     12  C   UNL     1      46.103  19.877  71.800  1.00  0.00     0.012 C 
ENDBRANCH   6  10
TORSDOF 2
ENDMDL
MODEL 4
REMARK VINA RESULT:    -2.825      2.582      4.099
REMARK INTER + INTRA:          -3.370
REMARK INTER:                  -3.151
REMARK INTRA:                  -0.219
REMARK UNBOUND:                -0.215
REMARK SMILES CC(C)c1ccc(C(=O)[O-])cc1
REMARK SMILES IDX 7 1 6 2 11 3 5 4 12 5 4 6 8 7 9 8 10 9 2 10 1 11 3 12
REMARK H PARENT
REMARK Flexibility Score: inf
ROOT
ATOM      1  C   UNL     1      45.192  18.852  73.752  1.00  0.00    -0.003 A 
ATOM      2  C   UNL     1      46.088  19.097  72.697  1.00  0.00     0.010 A 
ATOM      3  C   UNL     1      43.878  19.339  73.653  1.00  0.00     0.010 A 
ATOM      4  C   UNL     1      45.679  19.814  71.569  1.00  0.00     0.004 A 
ATOM      5  C   UNL     1      43.469  20.056  72.526  1.00  0.00     0.004 A 
ATOM      6  C   UNL     1      44.365  20.301  71.470  1.00  0.00    -0.045 A 
ENDROOT
BRANCH   1   7
ATOM      7  C   UNL     1      45.621  18.094  74.947  1.00  0.00     0.071 C 
ATOM      8  O   UNL     1      44.872  18.012  75.957  1.00  0.00    -0.545 OA
ATOM      9  O   UNL     1      46.858  17.461  74.973  1.00  0.00    -0.545 OA
ENDBRANCH   1   7
BRANCH   6  10
ATOM     10  C   UNL     1      43.934  21.078  70.240  1.00  0.00     0.013 C 
ATOM     11  C   UNL     1      42.648  20.495  69.641  1.00  0.00     0.012 C 
ATOM     12  C   UNL     1      45.056  21.125  69.195  1.00  0.00     0.012 C 
ENDBRANCH   6  10
TORSDOF 2
ENDMDL
MODEL 5
REMARK VINA RESULT:    -2.677     17.619     18.218
REMARK INTER + INTRA:          -3.205
REMARK INTER:                  -2.990
REMARK INTRA:                  -0.216
REMARK UNBOUND:                -0.215
REMARK SMILES CC(C)c1ccc(C(=O)[O-])cc1
REMARK SMILES IDX 7 1 6 2 11 3 5 4 12 5 4 6 8 7 9 8 10 9 2 10 1 11 3 12
REMARK H PARENT
REMARK Flexibility Score: inf
ROOT
ATOM      1  C   UNL     1      40.825   5.161  81.659  1.00  0.00    -0.003 A 
ATOM      2  C   UNL     1      41.055   4.628  80.379  1.00  0.00     0.010 A 
ATOM      3  C   UNL     1      39.789   4.626  82.442  1.00  0.00     0.010 A 
ATOM      4  C   UNL     1      40.265   3.583  79.892  1.00  0.00     0.004 A 
ATOM      5  C   UNL     1      38.999   3.580  81.956  1.00  0.00     0.004 A 
ATOM      6  C   UNL     1      39.229   3.047  80.675  1.00  0.00    -0.045 A 
ENDROOT
BRANCH   1   7
ATOM      7  C   UNL     1      41.659   6.268  82.177  1.00  0.00     0.071 C 
ATOM      8  O   UNL     1      41.127   7.258  82.747  1.00  0.00    -0.545 OA
ATOM      9  O   UNL     1      43.042   6.231  82.042  1.00  0.00    -0.545 OA
ENDBRANCH   1   7
BRANCH   6  10
ATOM     10  C   UNL     1      38.379   1.911  80.135  1.00  0.00     0.013 C 
ATOM     11  C   UNL     1      37.558   1.255  81.252  1.00  0.00     0.012 C 
ATOM     12  C   UNL     1      39.241   0.875  79.404  1.00  0.00     0.012 C 
ENDBRANCH   6  10
TORSDOF 2
ENDMDL
MODEL 6
REMARK VINA RESULT:    -2.439     18.341     19.075
REMARK INTER + INTRA:          -2.940
REMARK INTER:                  -2.731
REMARK INTRA:                  -0.209
REMARK UNBOUND:                -0.215
REMARK SMILES CC(C)c1ccc(C(=O)[O-])cc1
REMARK SMILES IDX 7 1 6 2 11 3 5 4 12 5 4 6 8 7 9 8 10 9 2 10 1 11 3 12
REMARK H PARENT
REMARK Flexibility Score: inf
ROOT
ATOM      1  C   UNL     1      38.509   2.537  81.286  1.00  0.00    -0.003 A 
ATOM      2  C   UNL     1      39.555   2.509  80.346  1.00  0.00     0.010 A 
ATOM      3  C   UNL     1      38.515   3.529  82.280  1.00  0.00     0.010 A 
ATOM      4  C   UNL     1      40.584   3.453  80.401  1.00  0.00     0.004 A 
ATOM      5  C   UNL     1      39.544   4.473  82.335  1.00  0.00     0.004 A 
ATOM      6  C   UNL     1      40.590   4.445  81.395  1.00  0.00    -0.045 A 
ENDROOT
BRANCH   1   7
ATOM      7  C   UNL     1      37.418   1.539  81.231  1.00  0.00     0.071 C 
ATOM      8  O   UNL     1      36.843   1.278  80.141  1.00  0.00    -0.545 OA
ATOM      9  O   UNL     1      37.013   0.875  82.383  1.00  0.00    -0.545 OA
ENDBRANCH   1   7
BRANCH   6  10
ATOM     10  C   UNL     1      41.714   5.465  81.443  1.00  0.00     0.013 C 
ATOM     11  C   UNL     1      43.033   4.813  81.877  1.00  0.00     0.012 C 
ATOM     12  C   UNL     1      41.353   6.642  82.357  1.00  0.00     0.012 C 
ENDBRANCH   6  10
TORSDOF 2
ENDMDL
MODEL 7
REMARK VINA RESULT:    -2.367     18.301     18.994
REMARK INTER + INTRA:          -2.859
REMARK INTER:                  -2.649
REMARK INTRA:                  -0.211
REMARK UNBOUND:                -0.215
REMARK SMILES CC(C)c1ccc(C(=O)[O-])cc1
REMARK SMILES IDX 7 1 6 2 11 3 5 4 12 5 4 6 8 7 9 8 10 9 2 10 1 11 3 12
REMARK H PARENT
REMARK Flexibility Score: inf
ROOT
ATOM      1  C   UNL     1      38.432   2.579  81.242  1.00  0.00    -0.003 A 
ATOM      2  C   UNL     1      38.504   3.473  82.325  1.00  0.00     0.010 A 
ATOM      3  C   UNL     1      39.394   2.669  80.222  1.00  0.00     0.010 A 
ATOM      4  C   UNL     1      39.516   4.435  82.386  1.00  0.00     0.004 A 
ATOM      5  C   UNL     1      40.406   3.630  80.284  1.00  0.00     0.004 A 
ATOM      6  C   UNL     1      40.479   4.524  81.367  1.00  0.00    -0.045 A 
ENDROOT
BRANCH   1   7
ATOM      7  C   UNL     1      37.362   1.560  81.174  1.00  0.00     0.071 C 
ATOM      8  O   UNL     1      36.795   1.300  80.079  1.00  0.00    -0.545 OA
ATOM      9  O   UNL     1      36.967   0.876  82.317  1.00  0.00    -0.545 OA
ENDBRANCH   1   7
BRANCH   6  10
ATOM     10  C   UNL     1      41.573   5.573  81.446  1.00  0.00     0.013 C 
ATOM     11  C   UNL     1      42.931   4.933  81.760  1.00  0.00     0.012 C 
ATOM     12  C   UNL     1      41.224   6.659  82.472  1.00  0.00     0.012 C 
ENDBRANCH   6  10
TORSDOF 2
ENDMDL
