MODEL 1
REMARK VINA RESULT:    -2.423      0.000      0.000
REMARK INTER + INTRA:          -4.991
REMARK INTER:                  -4.405
REMARK INTRA:                  -0.585
REMARK UNBOUND:                -0.585
REMARK SMILES CCCCCCCCCCCCCC[C@@H](C)C(=O)[O-]
REMARK SMILES IDX 9 1 10 2 11 3 12 4 13 5 14 6 15 7 16 8 17 9 18 10 19 11 8 12
REMARK SMILES IDX 7 13 6 14 5 15 4 16 3 17 2 18 1 19
REMARK H PARENT
REMARK Flexibility Score: inf
ROOT
ATOM      1  C   UNL     1     -12.078 -11.099   6.501  1.00  0.00     0.000 C 
ENDROOT
BRANCH   1   2
ATOM      2  C   UNL     1     -11.288 -11.710   5.328  1.00  0.00     0.000 C 
BRANCH   2   3
ATOM      3  C   UNL     1     -12.125 -12.057   4.083  1.00  0.00     0.000 C 
BRANCH   3   4
ATOM      4  C   UNL     1     -11.747 -11.216   2.852  1.00  0.00     0.000 C 
BRANCH   4   5
ATOM      5  C   UNL     1     -10.825 -11.972   1.879  1.00  0.00     0.001 C 
BRANCH   5   6
ATOM      6  C   UNL     1     -11.192 -11.767   0.390  1.00  0.00     0.009 C 
BRANCH   6   7
ATOM      7  C   UNL     1     -10.455 -10.571  -0.253  1.00  0.00     0.032 C 
ATOM      8  C   UNL     1      -9.345 -11.060  -1.188  1.00  0.00     0.014 C 
BRANCH   7   9
ATOM      9  C   UNL     1     -11.410  -9.691  -1.015  1.00  0.00     0.044 C 
ATOM     10  O   UNL     1     -11.781  -8.591  -0.528  1.00  0.00    -0.550 OA
ATOM     11  O   UNL     1     -11.884 -10.083  -2.262  1.00  0.00    -0.550 OA
ENDBRANCH   7   9
ENDBRANCH   6   7
ENDBRANCH   5   6
ENDBRANCH   4   5
ENDBRANCH   3   4
ENDBRANCH   2   3
ENDBRANCH   1   2
BRANCH   1  12
ATOM     12  C   UNL     1     -12.123 -12.011   7.736  1.00  0.00     0.000 C 
BRANCH  12  13
ATOM     13  C   UNL     1     -11.038 -11.621   8.747  1.00  0.00    -0.000 C 
BRANCH  13  14
ATOM     14  C   UNL     1     -11.662 -11.056  10.032  1.00  0.00    -0.000 C 
BRANCH  14  15
ATOM     15  C   UNL     1     -11.460  -9.539  10.173  1.00  0.00    -0.000 C 
BRANCH  15  16
ATOM     16  C   UNL     1     -10.994  -9.133  11.582  1.00  0.00    -0.000 C 
BRANCH  16  17
ATOM     17  C   UNL     1     -11.396 -10.159  12.654  1.00  0.00    -0.000 C 
BRANCH  17  18
ATOM     18  C   UNL     1     -11.954  -9.503  13.926  1.00  0.00    -0.003 C 
ATOM     19  C   UNL     1     -11.816  -7.985  13.865  1.00  0.00     0.004 C 
ENDBRANCH  17  18
ENDBRANCH  16  17
ENDBRANCH  15  16
ENDBRANCH  14  15
ENDBRANCH  13  14
ENDBRANCH  12  13
ENDBRANCH   1  12
TORSDOF 14
ENDMDL
MODEL 2
REMARK VINA RESULT:    -1.678     23.174     24.554
REMARK INTER + INTRA:          -3.637
REMARK INTER:                  -4.192
REMARK INTRA:                   0.555
REMARK UNBOUND:                -0.585
REMARK SMILES CCCCCCCCCCCCCC[C@@H](C)C(=O)[O-]
REMARK SMILES IDX 9 1 10 2 11 3 12 4 13 5 14 6 15 7 16 8 17 9 18 10 19 11 8 12
REMARK SMILES IDX 7 13 6 14 5 15 4 16 3 17 2 18 1 19
REMARK H PARENT
REMARK Flexibility Score: inf
ROOT
ATOM      1  C   UNL     1       4.785   4.857   0.320  1.00  0.00     0.000 C 
ENDROOT
BRANCH   1   2
ATOM      2  C   UNL     1       5.387   3.878   1.345  1.00  0.00     0.000 C 
BRANCH   2   3
ATOM      3  C   UNL     1       6.918   3.941   1.493  1.00  0.00     0.000 C 
BRANCH   3   4
ATOM      4  C   UNL     1       7.585   4.856   0.453  1.00  0.00     0.000 C 
BRANCH   4   5
ATOM      5  C   UNL     1       7.130   6.321   0.573  1.00  0.00     0.001 C 
BRANCH   5   6
ATOM      6  C   UNL     1       8.082   7.326  -0.115  1.00  0.00     0.009 C 
BRANCH   6   7
ATOM      7  C   UNL     1       7.404   8.113  -1.259  1.00  0.00     0.032 C 
ATOM      8  C   UNL     1       8.121   7.860  -2.589  1.00  0.00     0.014 C 
BRANCH   7   9
ATOM      9  C   UNL     1       5.951   7.739  -1.388  1.00  0.00     0.044 C 
ATOM     10  O   UNL     1       5.555   7.075  -2.383  1.00  0.00    -0.550 OA
ATOM     11  O   UNL     1       5.038   8.118  -0.411  1.00  0.00    -0.550 OA
ENDBRANCH   7   9
ENDBRANCH   6   7
ENDBRANCH   5   6
ENDBRANCH   4   5
ENDBRANCH   3   4
ENDBRANCH   2   3
ENDBRANCH   1   2
BRANCH   1  12
ATOM     12  C   UNL     1       3.721   5.784   0.927  1.00  0.00     0.000 C 
BRANCH  12  13
ATOM     13  C   UNL     1       3.864   5.861   2.452  1.00  0.00    -0.000 C 
BRANCH  13  14
ATOM     14  C   UNL     1       4.934   6.888   2.853  1.00  0.00    -0.000 C 
BRANCH  14  15
ATOM     15  C   UNL     1       4.341   8.124   3.546  1.00  0.00    -0.000 C 
BRANCH  15  16
ATOM     16  C   UNL     1       2.803   8.119   3.550  1.00  0.00    -0.000 C 
BRANCH  16  17
ATOM     17  C   UNL     1       2.217   8.101   4.972  1.00  0.00    -0.000 C 
BRANCH  17  18
ATOM     18  C   UNL     1       0.682   8.109   4.982  1.00  0.00    -0.003 C 
ATOM     19  C   UNL     1       0.142   8.096   6.409  1.00  0.00     0.004 C 
ENDBRANCH  17  18
ENDBRANCH  16  17
ENDBRANCH  15  16
ENDBRANCH  14  15
ENDBRANCH  13  14
ENDBRANCH  12  13
ENDBRANCH   1  12
TORSDOF 14
ENDMDL
MODEL 3
REMARK VINA RESULT:    -1.625      3.976      4.709
REMARK INTER + INTRA:          -3.540
REMARK INTER:                  -2.710
REMARK INTRA:                  -0.830
REMARK UNBOUND:                -0.585
REMARK SMILES CCCCCCCCCCCCCC[C@@H](C)C(=O)[O-]
REMARK SMILES IDX 9 1 10 2 11 3 12 4 13 5 14 6 15 7 16 8 17 9 18 10 19 11 8 12
REMARK SMILES IDX 7 13 6 14 5 15 4 16 3 17 2 18 1 19
REMARK H PARENT
REMARK Flexibility Score: inf
ROOT
ATOM      1  C   UNL     1     -10.238 -10.659   9.468  1.00  0.00     0.000 C 
ENDROOT
BRANCH   1   2
ATOM      2  C   UNL     1     -10.105 -11.875   8.532  1.00  0.00     0.000 C 
BRANCH   2   3
ATOM      3  C   UNL     1      -8.698 -12.105   7.949  1.00  0.00     0.000 C 
BRANCH   3   4
ATOM      4  C   UNL     1      -8.679 -12.109   6.412  1.00  0.00     0.000 C 
BRANCH   4   5
ATOM      5  C   UNL     1      -7.252 -12.096   5.837  1.00  0.00     0.001 C 
BRANCH   5   6
ATOM      6  C   UNL     1      -7.205 -12.055   4.292  1.00  0.00     0.009 C 
BRANCH   6   7
ATOM      7  C   UNL     1      -6.342 -10.896   3.745  1.00  0.00     0.032 C 
ATOM      8  C   UNL     1      -5.151 -10.626   4.670  1.00  0.00     0.014 C 
BRANCH   7   9
ATOM      9  C   UNL     1      -5.847 -11.196   2.355  1.00  0.00     0.044 C 
ATOM     10  O   UNL     1      -6.667 -11.455   1.435  1.00  0.00    -0.550 OA
ATOM     11  O   UNL     1      -4.485 -11.185   2.076  1.00  0.00    -0.550 OA
ENDBRANCH   7   9
ENDBRANCH   6   7
ENDBRANCH   5   6
ENDBRANCH   4   5
ENDBRANCH   3   4
ENDBRANCH   2   3
ENDBRANCH   1   2
BRANCH   1  12
ATOM     12  C   UNL     1     -11.608 -10.576  10.156  1.00  0.00     0.000 C 
BRANCH  12  13
ATOM     13  C   UNL     1     -12.061 -11.956  10.649  1.00  0.00    -0.000 C 
BRANCH  13  14
ATOM     14  C   UNL     1     -12.008 -12.037  12.182  1.00  0.00    -0.000 C 
BRANCH  14  15
ATOM     15  C   UNL     1     -10.608 -11.744  12.744  1.00  0.00    -0.000 C 
BRANCH  15  16
ATOM     16  C   UNL     1     -10.655 -11.003  14.092  1.00  0.00    -0.000 C 
BRANCH  16  17
ATOM     17  C   UNL     1     -11.693  -9.869  14.105  1.00  0.00    -0.000 C 
BRANCH  17  18
ATOM     18  C   UNL     1     -11.072  -8.491  13.831  1.00  0.00    -0.003 C 
ATOM     19  C   UNL     1     -12.125  -7.390  13.908  1.00  0.00     0.004 C 
ENDBRANCH  17  18
ENDBRANCH  16  17
ENDBRANCH  15  16
ENDBRANCH  14  15
ENDBRANCH  13  14
ENDBRANCH  12  13
ENDBRANCH   1  12
TORSDOF 14
ENDMDL
MODEL 4
REMARK VINA RESULT:    -1.415     23.528     24.943
REMARK INTER + INTRA:          -3.159
REMARK INTER:                  -2.238
REMARK INTRA:                  -0.921
REMARK UNBOUND:                -0.585
REMARK SMILES CCCCCCCCCCCCCC[C@@H](C)C(=O)[O-]
REMARK SMILES IDX 9 1 10 2 11 3 12 4 13 5 14 6 15 7 16 8 17 9 18 10 19 11 8 12
REMARK SMILES IDX 7 13 6 14 5 15 4 16 3 17 2 18 1 19
REMARK H PARENT
REMARK Flexibility Score: inf
ROOT
ATOM      1  C   UNL     1       3.995   4.593   1.548  1.00  0.00     0.000 C 
ENDROOT
BRANCH   1   2
ATOM      2  C   UNL     1       5.267   4.133   0.811  1.00  0.00     0.000 C 
BRANCH   2   3
ATOM      3  C   UNL     1       6.552   4.127   1.659  1.00  0.00     0.000 C 
BRANCH   3   4
ATOM      4  C   UNL     1       7.751   4.765   0.938  1.00  0.00     0.000 C 
BRANCH   4   5
ATOM      5  C   UNL     1       7.324   5.738  -0.174  1.00  0.00     0.001 C 
BRANCH   5   6
ATOM      6  C   UNL     1       7.976   7.136  -0.061  1.00  0.00     0.009 C 
BRANCH   6   7
ATOM      7  C   UNL     1       7.472   8.125  -1.136  1.00  0.00     0.032 C 
ATOM      8  C   UNL     1       8.125   7.830  -2.490  1.00  0.00     0.014 C 
BRANCH   7   9
ATOM      9  C   UNL     1       5.974   8.063  -1.271  1.00  0.00     0.044 C 
ATOM     10  O   UNL     1       5.444   8.006  -2.413  1.00  0.00    -0.550 OA
ATOM     11  O   UNL     1       5.166   8.063  -0.141  1.00  0.00    -0.550 OA
ENDBRANCH   7   9
ENDBRANCH   6   7
ENDBRANCH   5   6
ENDBRANCH   4   5
ENDBRANCH   3   4
ENDBRANCH   2   3
ENDBRANCH   1   2
BRANCH   1  12
ATOM     12  C   UNL     1       3.435   5.919   1.013  1.00  0.00     0.000 C 
BRANCH  12  13
ATOM     13  C   UNL     1       2.709   6.696   2.118  1.00  0.00    -0.000 C 
BRANCH  13  14
ATOM     14  C   UNL     1       3.262   6.326   3.503  1.00  0.00    -0.000 C 
BRANCH  14  15
ATOM     15  C   UNL     1       2.926   7.375   4.575  1.00  0.00    -0.000 C 
BRANCH  15  16
ATOM     16  C   UNL     1       4.171   8.125   5.080  1.00  0.00    -0.000 C 
BRANCH  16  17
ATOM     17  C   UNL     1       5.482   7.447   4.649  1.00  0.00    -0.000 C 
BRANCH  17  18
ATOM     18  C   UNL     1       5.919   7.845   3.231  1.00  0.00    -0.003 C 
ATOM     19  C   UNL     1       7.427   7.687   3.056  1.00  0.00     0.004 C 
ENDBRANCH  17  18
ENDBRANCH  16  17
ENDBRANCH  15  16
ENDBRANCH  14  15
ENDBRANCH  13  14
ENDBRANCH  12  13
ENDBRANCH   1  12
TORSDOF 14
ENDMDL
MODEL 5
REMARK VINA RESULT:    -1.287     23.190     25.389
REMARK INTER + INTRA:          -2.925
REMARK INTER:                  -3.158
REMARK INTRA:                   0.233
REMARK UNBOUND:                -0.585
REMARK SMILES CCCCCCCCCCCCCC[C@@H](C)C(=O)[O-]
REMARK SMILES IDX 9 1 10 2 11 3 12 4 13 5 14 6 15 7 16 8 17 9 18 10 19 11 8 12
REMARK SMILES IDX 7 13 6 14 5 15 4 16 3 17 2 18 1 19
REMARK H PARENT
REMARK Flexibility Score: inf
ROOT
ATOM      1  C   UNL     1       4.975   4.536   1.533  1.00  0.00     0.000 C 
ENDROOT
BRANCH   1   2
ATOM      2  C   UNL     1       4.137   5.082   0.362  1.00  0.00     0.000 C 
BRANCH   2   3
ATOM      3  C   UNL     1       4.252   6.599   0.123  1.00  0.00     0.000 C 
BRANCH   3   4
ATOM      4  C   UNL     1       3.903   7.431   1.368  1.00  0.00     0.000 C 
BRANCH   4   5
ATOM      5  C   UNL     1       2.622   6.944   2.066  1.00  0.00     0.001 C 
BRANCH   5   6
ATOM      6  C   UNL     1       1.873   8.056   2.837  1.00  0.00     0.009 C 
BRANCH   6   7
ATOM      7  C   UNL     1       2.245   8.105   4.336  1.00  0.00     0.032 C 
ATOM      8  C   UNL     1       1.090   7.587   5.197  1.00  0.00     0.014 C 
BRANCH   7   9
ATOM      9  C   UNL     1       3.487   7.300   4.614  1.00  0.00     0.044 C 
ATOM     10  O   UNL     1       4.515   7.862   5.076  1.00  0.00    -0.550 OA
ATOM     11  O   UNL     1       3.506   5.932   4.370  1.00  0.00    -0.550 OA
ENDBRANCH   7   9
ENDBRANCH   6   7
ENDBRANCH   5   6
ENDBRANCH   4   5
ENDBRANCH   3   4
ENDBRANCH   2   3
ENDBRANCH   1   2
BRANCH   1  12
ATOM     12  C   UNL     1       6.462   4.373   1.183  1.00  0.00     0.000 C 
BRANCH  12  13
ATOM     13  C   UNL     1       7.350   4.704   2.389  1.00  0.00    -0.000 C 
BRANCH  13  14
ATOM     14  C   UNL     1       8.125   6.011   2.159  1.00  0.00    -0.000 C 
BRANCH  14  15
ATOM     15  C   UNL     1       8.047   6.498   0.703  1.00  0.00    -0.000 C 
BRANCH  15  16
ATOM     16  C   UNL     1       7.539   7.947   0.592  1.00  0.00    -0.000 C 
BRANCH  16  17
ATOM     17  C   UNL     1       6.506   8.125  -0.532  1.00  0.00    -0.000 C 
BRANCH  17  18
ATOM     18  C   UNL     1       7.118   7.967  -1.932  1.00  0.00    -0.003 C 
ATOM     19  C   UNL     1       6.030   7.830  -2.994  1.00  0.00     0.004 C 
ENDBRANCH  17  18
ENDBRANCH  16  17
ENDBRANCH  15  16
ENDBRANCH  14  15
ENDBRANCH  13  14
ENDBRANCH  12  13
ENDBRANCH   1  12
TORSDOF 14
ENDMDL
MODEL 6
REMARK VINA RESULT:    -0.571      5.481     10.340
REMARK INTER + INTRA:          -1.624
REMARK INTER:                  -1.863
REMARK INTRA:                   0.240
REMARK UNBOUND:                -0.585
REMARK SMILES CCCCCCCCCCCCCC[C@@H](C)C(=O)[O-]
REMARK SMILES IDX 9 1 10 2 11 3 12 4 13 5 14 6 15 7 16 8 17 9 18 10 19 11 8 12
REMARK SMILES IDX 7 13 6 14 5 15 4 16 3 17 2 18 1 19
REMARK H PARENT
REMARK Flexibility Score: inf
ROOT
ATOM      1  C   UNL     1      -9.637 -10.658   8.583  1.00  0.00     0.000 C 
ENDROOT
BRANCH   1   2
ATOM      2  C   UNL     1     -11.144 -10.377   8.434  1.00  0.00     0.000 C 
BRANCH   2   3
ATOM      3  C   UNL     1     -12.072 -11.513   8.903  1.00  0.00     0.000 C 
BRANCH   3   4
ATOM      4  C   UNL     1     -11.729 -12.026  10.312  1.00  0.00     0.000 C 
BRANCH   4   5
ATOM      5  C   UNL     1     -12.125 -11.033  11.417  1.00  0.00     0.001 C 
BRANCH   5   6
ATOM      6  C   UNL     1     -12.031 -11.621  12.844  1.00  0.00     0.009 C 
BRANCH   6   7
ATOM      7  C   UNL     1     -11.145 -10.777  13.787  1.00  0.00     0.032 C 
ATOM      8  C   UNL     1      -9.765 -11.421  13.952  1.00  0.00     0.014 C 
BRANCH   7   9
ATOM      9  C   UNL     1     -10.990  -9.370  13.273  1.00  0.00     0.044 C 
ATOM     10  O   UNL     1     -10.263  -9.141  12.271  1.00  0.00    -0.550 OA
ATOM     11  O   UNL     1     -11.652  -8.318  13.895  1.00  0.00    -0.550 OA
ENDBRANCH   7   9
ENDBRANCH   6   7
ENDBRANCH   5   6
ENDBRANCH   4   5
ENDBRANCH   3   4
ENDBRANCH   2   3
ENDBRANCH   1   2
BRANCH   1  12
ATOM     12  C   UNL     1      -9.249 -12.090   8.184  1.00  0.00     0.000 C 
BRANCH  12  13
ATOM     13  C   UNL     1      -8.212 -12.084   7.055  1.00  0.00    -0.000 C 
BRANCH  13  14
ATOM     14  C   UNL     1      -8.896 -12.125   5.680  1.00  0.00    -0.000 C 
BRANCH  14  15
ATOM     15  C   UNL     1      -7.933 -11.798   4.528  1.00  0.00    -0.000 C 
BRANCH  15  16
ATOM     16  C   UNL     1      -6.455 -11.892   4.948  1.00  0.00    -0.000 C 
BRANCH  16  17
ATOM     17  C   UNL     1      -5.639 -10.665   4.509  1.00  0.00    -0.000 C 
BRANCH  17  18
ATOM     18  C   UNL     1      -5.028 -10.827   3.109  1.00  0.00    -0.003 C 
ATOM     19  C   UNL     1      -6.046 -11.406   2.130  1.00  0.00     0.004 C 
ENDBRANCH  17  18
ENDBRANCH  16  17
ENDBRANCH  15  16
ENDBRANCH  14  15
ENDBRANCH  13  14
ENDBRANCH  12  13
ENDBRANCH   1  12
TORSDOF 14
ENDMDL
MODEL 7
REMARK VINA RESULT:    -0.548     22.633     23.854
REMARK INTER + INTRA:          -1.582
REMARK INTER:                  -1.594
REMARK INTRA:                   0.013
REMARK UNBOUND:                -0.585
REMARK SMILES CCCCCCCCCCCCCC[C@@H](C)C(=O)[O-]
REMARK SMILES IDX 9 1 10 2 11 3 12 4 13 5 14 6 15 7 16 8 17 9 18 10 19 11 8 12
REMARK SMILES IDX 7 13 6 14 5 15 4 16 3 17 2 18 1 19
REMARK H PARENT
REMARK Flexibility Score: inf
ROOT
ATOM      1  C   UNL     1       4.701   6.739   3.708  1.00  0.00     0.000 C 
ENDROOT
BRANCH   1   2
ATOM      2  C   UNL     1       5.340   8.025   3.151  1.00  0.00     0.000 C 
BRANCH   2   3
ATOM      3  C   UNL     1       6.878   8.075   3.219  1.00  0.00     0.000 C 
BRANCH   3   4
ATOM      4  C   UNL     1       7.551   7.623   1.912  1.00  0.00     0.000 C 
BRANCH   4   5
ATOM      5  C   UNL     1       7.890   6.122   1.908  1.00  0.00     0.001 C 
BRANCH   5   6
ATOM      6  C   UNL     1       7.823   5.474   0.506  1.00  0.00     0.009 C 
BRANCH   6   7
ATOM      7  C   UNL     1       6.684   4.438   0.375  1.00  0.00     0.032 C 
ATOM      8  C   UNL     1       6.283   3.898   1.751  1.00  0.00     0.014 C 
BRANCH   7   9
ATOM      9  C   UNL     1       5.481   5.037  -0.305  1.00  0.00     0.044 C 
ATOM     10  O   UNL     1       5.398   6.284  -0.458  1.00  0.00    -0.550 OA
ATOM     11  O   UNL     1       4.459   4.219  -0.774  1.00  0.00    -0.550 OA
ENDBRANCH   7   9
ENDBRANCH   6   7
ENDBRANCH   5   6
ENDBRANCH   4   5
ENDBRANCH   3   4
ENDBRANCH   2   3
ENDBRANCH   1   2
BRANCH   1  12
ATOM     12  C   UNL     1       4.119   5.833   2.612  1.00  0.00     0.000 C 
BRANCH  12  13
ATOM     13  C   UNL     1       2.868   6.462   1.986  1.00  0.00    -0.000 C 
BRANCH  13  14
ATOM     14  C   UNL     1       2.689   7.914   2.455  1.00  0.00    -0.000 C 
BRANCH  14  15
ATOM     15  C   UNL     1       1.398   8.122   3.263  1.00  0.00    -0.000 C 
BRANCH  15  16
ATOM     16  C   UNL     1       1.467   7.484   4.661  1.00  0.00    -0.000 C 
BRANCH  16  17
ATOM     17  C   UNL     1       0.482   8.125   5.652  1.00  0.00    -0.000 C 
BRANCH  17  18
ATOM     18  C   UNL     1       0.199   7.234   6.870  1.00  0.00    -0.003 C 
ATOM     19  C   UNL     1      -0.868   7.854   7.768  1.00  0.00     0.004 C 
ENDBRANCH  17  18
ENDBRANCH  16  17
ENDBRANCH  15  16
ENDBRANCH  14  15
ENDBRANCH  13  14
ENDBRANCH  12  13
ENDBRANCH   1  12
TORSDOF 14
ENDMDL
MODEL 8
REMARK VINA RESULT:    -0.253     22.516     23.659
REMARK INTER + INTRA:          -1.046
REMARK INTER:                  -2.192
REMARK INTRA:                   1.146
REMARK UNBOUND:                -0.585
REMARK SMILES CCCCCCCCCCCCCC[C@@H](C)C(=O)[O-]
REMARK SMILES IDX 9 1 10 2 11 3 12 4 13 5 14 6 15 7 16 8 17 9 18 10 19 11 8 12
REMARK SMILES IDX 7 13 6 14 5 15 4 16 3 17 2 18 1 19
REMARK H PARENT
REMARK Flexibility Score: inf
ROOT
ATOM      1  C   UNL     1       6.135   7.145   3.448  1.00  0.00     0.000 C 
ENDROOT
BRANCH   1   2
ATOM      2  C   UNL     1       7.210   7.858   2.606  1.00  0.00     0.000 C 
BRANCH   2   3
ATOM      3  C   UNL     1       7.974   6.956   1.618  1.00  0.00     0.000 C 
BRANCH   3   4
ATOM      4  C   UNL     1       7.254   5.627   1.338  1.00  0.00     0.000 C 
BRANCH   4   5
ATOM      5  C   UNL     1       6.225   5.738   0.200  1.00  0.00     0.001 C 
BRANCH   5   6
ATOM      6  C   UNL     1       5.107   4.671   0.266  1.00  0.00     0.009 C 
BRANCH   6   7
ATOM      7  C   UNL     1       3.911   5.106   1.143  1.00  0.00     0.032 C 
ATOM      8  C   UNL     1       4.210   4.858   2.625  1.00  0.00     0.014 C 
BRANCH   7   9
ATOM      9  C   UNL     1       3.580   6.558   0.928  1.00  0.00     0.044 C 
ATOM     10  O   UNL     1       2.472   7.017   1.315  1.00  0.00    -0.550 OA
ATOM     11  O   UNL     1       4.493   7.404   0.308  1.00  0.00    -0.550 OA
ENDBRANCH   7   9
ENDBRANCH   6   7
ENDBRANCH   5   6
ENDBRANCH   4   5
ENDBRANCH   3   4
ENDBRANCH   2   3
ENDBRANCH   1   2
BRANCH   1  12
ATOM     12  C   UNL     1       5.228   8.119   4.214  1.00  0.00     0.000 C 
BRANCH  12  13
ATOM     13  C   UNL     1       3.800   8.098   3.653  1.00  0.00    -0.000 C 
BRANCH  13  14
ATOM     14  C   UNL     1       2.828   7.445   4.648  1.00  0.00    -0.000 C 
BRANCH  14  15
ATOM     15  C   UNL     1       1.366   7.848   4.401  1.00  0.00    -0.000 C 
BRANCH  15  16
ATOM     16  C   UNL     1       0.406   7.257   5.448  1.00  0.00    -0.000 C 
BRANCH  16  17
ATOM     17  C   UNL     1       0.315   8.117   6.718  1.00  0.00    -0.000 C 
BRANCH  17  18
ATOM     18  C   UNL     1      -0.878   7.740   7.608  1.00  0.00    -0.003 C 
ATOM     19  C   UNL     1      -0.507   7.821   9.086  1.00  0.00     0.004 C 
ENDBRANCH  17  18
ENDBRANCH  16  17
ENDBRANCH  15  16
ENDBRANCH  14  15
ENDBRANCH  13  14
ENDBRANCH  12  13
ENDBRANCH   1  12
TORSDOF 14
ENDMDL
