MODEL 1
REMARK VINA RESULT:    -2.662      0.000      0.000
REMARK INTER + INTRA:          -5.348
REMARK INTER:                  -4.219
REMARK INTRA:                  -1.129
REMARK UNBOUND:                -1.129
REMARK SMILES CCCCCCCCCCCC(=O)[O-]
REMARK SMILES IDX 7 1 8 2 9 3 10 4 11 5 12 6 13 7 14 8 6 9 5 10 4 11 3 12 2 13
REMARK SMILES IDX 1 14
REMARK H PARENT
REMARK Flexibility Score: inf
ROOT
ATOM      1  C   UNL     1      14.094  27.598  20.518  1.00  0.00     0.000 C 
ENDROOT
BRANCH   1   2
ATOM      2  C   UNL     1      14.912  26.459  21.142  1.00  0.00     0.000 C 
BRANCH   2   3
ATOM      3  C   UNL     1      14.996  26.558  22.674  1.00  0.00     0.000 C 
BRANCH   3   4
ATOM      4  C   UNL     1      13.614  26.716  23.333  1.00  0.00     0.006 C 
BRANCH   4   5
ATOM      5  C   UNL     1      13.701  27.410  24.698  1.00  0.00     0.053 C 
BRANCH   5   6
ATOM      6  C   UNL     1      12.949  28.706  24.713  1.00  0.00     0.041 C 
ATOM      7  O   UNL     1      12.033  28.917  23.876  1.00  0.00    -0.550 OA
ATOM      8  O   UNL     1      13.242  29.668  25.671  1.00  0.00    -0.550 OA
ENDBRANCH   5   6
ENDBRANCH   4   5
ENDBRANCH   3   4
ENDBRANCH   2   3
ENDBRANCH   1   2
BRANCH   1   9
ATOM      9  C   UNL     1      14.877  28.916  20.549  1.00  0.00     0.000 C 
BRANCH   9  10
ATOM     10  C   UNL     1      14.053  30.032  21.205  1.00  0.00    -0.000 C 
BRANCH  10  11
ATOM     11  C   UNL     1      12.620  30.052  20.659  1.00  0.00    -0.000 C 
BRANCH  11  12
ATOM     12  C   UNL     1      12.505  30.994  19.451  1.00  0.00    -0.000 C 
BRANCH  12  13
ATOM     13  C   UNL     1      12.140  30.252  18.157  1.00  0.00    -0.003 C 
ATOM     14  C   UNL     1      13.362  29.930  17.295  1.00  0.00     0.004 C 
ENDBRANCH  12  13
ENDBRANCH  11  12
ENDBRANCH  10  11
ENDBRANCH   9  10
ENDBRANCH   1   9
TORSDOF 10
ENDMDL
MODEL 2
REMARK VINA RESULT:    -2.568     22.124     23.648
REMARK INTER + INTRA:          -5.199
REMARK INTER:                  -4.796
REMARK INTRA:                  -0.403
REMARK UNBOUND:                -1.129
REMARK SMILES CCCCCCCCCCCC(=O)[O-]
REMARK SMILES IDX 7 1 8 2 9 3 10 4 11 5 12 6 13 7 14 8 6 9 5 10 4 11 3 12 2 13
REMARK SMILES IDX 1 14
REMARK H PARENT
REMARK Flexibility Score: inf
ROOT
ATOM      1  C   UNL     1      -5.021  16.777  10.529  1.00  0.00     0.000 C 
ENDROOT
BRANCH   1   2
ATOM      2  C   UNL     1      -4.417  18.155  10.225  1.00  0.00     0.000 C 
BRANCH   2   3
ATOM      3  C   UNL     1      -5.125  19.293  10.977  1.00  0.00     0.000 C 
BRANCH   3   4
ATOM      4  C   UNL     1      -4.824  19.281  12.487  1.00  0.00     0.006 C 
BRANCH   4   5
ATOM      5  C   UNL     1      -4.423  20.667  13.007  1.00  0.00     0.053 C 
BRANCH   5   6
ATOM      6  C   UNL     1      -4.073  20.636  14.464  1.00  0.00     0.041 C 
ATOM      7  O   UNL     1      -4.945  20.331  15.319  1.00  0.00    -0.550 OA
ATOM      8  O   UNL     1      -2.776  20.916  14.873  1.00  0.00    -0.550 OA
ENDBRANCH   5   6
ENDBRANCH   4   5
ENDBRANCH   3   4
ENDBRANCH   2   3
ENDBRANCH   1   2
BRANCH   1   9
ATOM      9  C   UNL     1      -4.790  15.806   9.365  1.00  0.00     0.000 C 
BRANCH   9  10
ATOM     10  C   UNL     1      -5.055  14.358   9.793  1.00  0.00    -0.000 C 
BRANCH  10  11
ATOM     11  C   UNL     1      -3.741  13.585   9.966  1.00  0.00    -0.000 C 
BRANCH  11  12
ATOM     12  C   UNL     1      -2.532  14.484   9.664  1.00  0.00    -0.000 C 
BRANCH  12  13
ATOM     13  C   UNL     1      -1.311  14.140  10.531  1.00  0.00    -0.003 C 
ATOM     14  C   UNL     1      -1.046  12.636  10.610  1.00  0.00     0.004 C 
ENDBRANCH  12  13
ENDBRANCH  11  12
ENDBRANCH  10  11
ENDBRANCH   9  10
ENDBRANCH   1   9
TORSDOF 10
ENDMDL
MODEL 3
REMARK VINA RESULT:    -2.537      2.903      5.435
REMARK INTER + INTRA:          -5.149
REMARK INTER:                  -4.248
REMARK INTRA:                  -0.901
REMARK UNBOUND:                -1.129
REMARK SMILES CCCCCCCCCCCC(=O)[O-]
REMARK SMILES IDX 7 1 8 2 9 3 10 4 11 5 12 6 13 7 14 8 6 9 5 10 4 11 3 12 2 13
REMARK SMILES IDX 1 14
REMARK H PARENT
REMARK Flexibility Score: inf
ROOT
ATOM      1  C   UNL     1      14.140  26.520  21.013  1.00  0.00     0.000 C 
ENDROOT
BRANCH   1   2
ATOM      2  C   UNL     1      14.814  27.243  19.838  1.00  0.00     0.000 C 
BRANCH   2   3
ATOM      3  C   UNL     1      14.457  28.737  19.775  1.00  0.00     0.000 C 
BRANCH   3   4
ATOM      4  C   UNL     1      14.927  29.404  18.470  1.00  0.00     0.006 C 
BRANCH   4   5
ATOM      5  C   UNL     1      13.994  29.093  17.293  1.00  0.00     0.053 C 
BRANCH   5   6
ATOM      6  C   UNL     1      12.982  30.178  17.083  1.00  0.00     0.041 C 
ATOM      7  O   UNL     1      12.894  30.757  15.969  1.00  0.00    -0.550 OA
ATOM      8  O   UNL     1      12.117  30.530  18.112  1.00  0.00    -0.550 OA
ENDBRANCH   5   6
ENDBRANCH   4   5
ENDBRANCH   3   4
ENDBRANCH   2   3
ENDBRANCH   1   2
BRANCH   1   9
ATOM      9  C   UNL     1      15.125  26.316  22.170  1.00  0.00     0.000 C 
BRANCH   9  10
ATOM     10  C   UNL     1      14.620  26.991  23.450  1.00  0.00    -0.000 C 
BRANCH  10  11
ATOM     11  C   UNL     1      13.087  27.011  23.495  1.00  0.00    -0.000 C 
BRANCH  11  12
ATOM     12  C   UNL     1      12.569  28.371  23.988  1.00  0.00    -0.000 C 
BRANCH  12  13
ATOM     13  C   UNL     1      13.167  29.550  23.207  1.00  0.00    -0.003 C 
ATOM     14  C   UNL     1      12.273  30.011  22.055  1.00  0.00     0.004 C 
ENDBRANCH  12  13
ENDBRANCH  11  12
ENDBRANCH  10  11
ENDBRANCH   9  10
ENDBRANCH   1   9
TORSDOF 10
ENDMDL
MODEL 4
REMARK VINA RESULT:    -2.465      2.050      5.546
REMARK INTER + INTRA:          -5.035
REMARK INTER:                  -4.188
REMARK INTRA:                  -0.847
REMARK UNBOUND:                -1.129
REMARK SMILES CCCCCCCCCCCC(=O)[O-]
REMARK SMILES IDX 7 1 8 2 9 3 10 4 11 5 12 6 13 7 14 8 6 9 5 10 4 11 3 12 2 13
REMARK SMILES IDX 1 14
REMARK H PARENT
REMARK Flexibility Score: inf
ROOT
ATOM      1  C   UNL     1      13.226  26.612  23.487  1.00  0.00     0.000 C 
ENDROOT
BRANCH   1   2
ATOM      2  C   UNL     1      14.410  26.931  22.562  1.00  0.00     0.000 C 
BRANCH   2   3
ATOM      3  C   UNL     1      14.059  26.775  21.074  1.00  0.00     0.000 C 
BRANCH   3   4
ATOM      4  C   UNL     1      14.201  28.093  20.291  1.00  0.00     0.006 C 
BRANCH   4   5
ATOM      5  C   UNL     1      13.796  29.311  21.132  1.00  0.00     0.053 C 
BRANCH   5   6
ATOM      6  C   UNL     1      12.571  29.981  20.588  1.00  0.00     0.041 C 
ATOM      7  O   UNL     1      11.729  30.495  21.369  1.00  0.00    -0.550 OA
ATOM      8  O   UNL     1      12.376  30.062  19.215  1.00  0.00    -0.550 OA
ENDBRANCH   5   6
ENDBRANCH   4   5
ENDBRANCH   3   4
ENDBRANCH   2   3
ENDBRANCH   1   2
BRANCH   1   9
ATOM      9  C   UNL     1      13.704  25.936  24.777  1.00  0.00     0.000 C 
BRANCH   9  10
ATOM     10  C   UNL     1      15.116  26.399  25.153  1.00  0.00    -0.000 C 
BRANCH  10  11
ATOM     11  C   UNL     1      15.071  27.467  26.253  1.00  0.00    -0.000 C 
BRANCH  11  12
ATOM     12  C   UNL     1      14.973  28.876  25.647  1.00  0.00    -0.000 C 
BRANCH  12  13
ATOM     13  C   UNL     1      13.630  29.556  25.950  1.00  0.00    -0.003 C 
ATOM     14  C   UNL     1      13.106  29.234  27.350  1.00  0.00     0.004 C 
ENDBRANCH  12  13
ENDBRANCH  11  12
ENDBRANCH  10  11
ENDBRANCH   9  10
ENDBRANCH   1   9
TORSDOF 10
ENDMDL
MODEL 5
REMARK VINA RESULT:    -2.390      2.036      4.967
REMARK INTER + INTRA:          -4.917
REMARK INTER:                  -3.887
REMARK INTRA:                  -1.029
REMARK UNBOUND:                -1.129
REMARK SMILES CCCCCCCCCCCC(=O)[O-]
REMARK SMILES IDX 7 1 8 2 9 3 10 4 11 5 12 6 13 7 14 8 6 9 5 10 4 11 3 12 2 13
REMARK SMILES IDX 1 14
REMARK H PARENT
REMARK Flexibility Score: inf
ROOT
ATOM      1  C   UNL     1      14.576  27.091  22.396  1.00  0.00     0.000 C 
ENDROOT
BRANCH   1   2
ATOM      2  C   UNL     1      14.145  26.598  21.007  1.00  0.00     0.000 C 
BRANCH   2   3
ATOM      3  C   UNL     1      14.765  27.421  19.866  1.00  0.00     0.000 C 
BRANCH   3   4
ATOM      4  C   UNL     1      14.893  28.915  20.216  1.00  0.00     0.006 C 
BRANCH   4   5
ATOM      5  C   UNL     1      14.130  29.807  19.230  1.00  0.00     0.053 C 
BRANCH   5   6
ATOM      6  C   UNL     1      12.712  30.029  19.662  1.00  0.00     0.041 C 
ATOM      7  O   UNL     1      12.383  29.862  20.865  1.00  0.00    -0.550 OA
ATOM      8  O   UNL     1      11.762  30.448  18.740  1.00  0.00    -0.550 OA
ENDBRANCH   5   6
ENDBRANCH   4   5
ENDBRANCH   3   4
ENDBRANCH   2   3
ENDBRANCH   1   2
BRANCH   1   9
ATOM      9  C   UNL     1      13.381  27.142  23.355  1.00  0.00     0.000 C 
BRANCH   9  10
ATOM     10  C   UNL     1      13.803  26.774  24.782  1.00  0.00    -0.000 C 
BRANCH  10  11
ATOM     11  C   UNL     1      13.749  27.997  25.706  1.00  0.00    -0.000 C 
BRANCH  11  12
ATOM     12  C   UNL     1      13.220  29.229  24.955  1.00  0.00    -0.000 C 
BRANCH  12  13
ATOM     13  C   UNL     1      14.248  30.369  24.896  1.00  0.00    -0.003 C 
ATOM     14  C   UNL     1      14.575  30.797  23.465  1.00  0.00     0.004 C 
ENDBRANCH  12  13
ENDBRANCH  11  12
ENDBRANCH  10  11
ENDBRANCH   9  10
ENDBRANCH   1   9
TORSDOF 10
ENDMDL
MODEL 6
REMARK VINA RESULT:    -2.166      2.883      6.230
REMARK INTER + INTRA:          -4.561
REMARK INTER:                  -3.837
REMARK INTRA:                  -0.724
REMARK UNBOUND:                -1.129
REMARK SMILES CCCCCCCCCCCC(=O)[O-]
REMARK SMILES IDX 7 1 8 2 9 3 10 4 11 5 12 6 13 7 14 8 6 9 5 10 4 11 3 12 2 13
REMARK SMILES IDX 1 14
REMARK H PARENT
REMARK Flexibility Score: inf
ROOT
ATOM      1  C   UNL     1      12.751  29.259  22.610  1.00  0.00     0.000 C 
ENDROOT
BRANCH   1   2
ATOM      2  C   UNL     1      14.101  28.719  22.117  1.00  0.00     0.000 C 
BRANCH   2   3
ATOM      3  C   UNL     1      13.954  27.719  20.959  1.00  0.00     0.000 C 
BRANCH   3   4
ATOM      4  C   UNL     1      14.667  28.188  19.678  1.00  0.00     0.006 C 
BRANCH   4   5
ATOM      5  C   UNL     1      14.413  29.672  19.385  1.00  0.00     0.053 C 
BRANCH   5   6
ATOM      6  C   UNL     1      13.281  29.864  18.422  1.00  0.00     0.041 C 
ATOM      7  O   UNL     1      12.136  30.174  18.842  1.00  0.00    -0.550 OA
ATOM      8  O   UNL     1      13.500  29.728  17.057  1.00  0.00    -0.550 OA
ENDBRANCH   5   6
ENDBRANCH   4   5
ENDBRANCH   3   4
ENDBRANCH   2   3
ENDBRANCH   1   2
BRANCH   1   9
ATOM      9  C   UNL     1      12.497  28.855  24.067  1.00  0.00     0.000 C 
BRANCH   9  10
ATOM     10  C   UNL     1      13.347  27.641  24.459  1.00  0.00    -0.000 C 
BRANCH  10  11
ATOM     11  C   UNL     1      14.143  27.916  25.742  1.00  0.00    -0.000 C 
BRANCH  11  12
ATOM     12  C   UNL     1      13.822  29.311  26.299  1.00  0.00    -0.000 C 
BRANCH  12  13
ATOM     13  C   UNL     1      13.375  29.272  27.768  1.00  0.00    -0.003 C 
ATOM     14  C   UNL     1      11.900  29.634  27.947  1.00  0.00     0.004 C 
ENDBRANCH  12  13
ENDBRANCH  11  12
ENDBRANCH  10  11
ENDBRANCH   9  10
ENDBRANCH   1   9
TORSDOF 10
ENDMDL
MODEL 7
REMARK VINA RESULT:    -2.153      3.317      6.156
REMARK INTER + INTRA:          -4.541
REMARK INTER:                  -3.965
REMARK INTRA:                  -0.576
REMARK UNBOUND:                -1.129
REMARK SMILES CCCCCCCCCCCC(=O)[O-]
REMARK SMILES IDX 7 1 8 2 9 3 10 4 11 5 12 6 13 7 14 8 6 9 5 10 4 11 3 12 2 13
REMARK SMILES IDX 1 14
REMARK H PARENT
REMARK Flexibility Score: inf
ROOT
ATOM      1  C   UNL     1      13.987  30.604  21.786  1.00  0.00     0.000 C 
ENDROOT
BRANCH   1   2
ATOM      2  C   UNL     1      12.579  30.057  21.514  1.00  0.00     0.000 C 
BRANCH   2   3
ATOM      3  C   UNL     1      11.650  31.100  20.872  1.00  0.00     0.000 C 
BRANCH   3   4
ATOM      4  C   UNL     1      11.760  31.125  19.337  1.00  0.00     0.006 C 
BRANCH   4   5
ATOM      5  C   UNL     1      12.489  29.891  18.790  1.00  0.00     0.053 C 
BRANCH   5   6
ATOM      6  C   UNL     1      13.182  30.184  17.493  1.00  0.00     0.041 C 
ATOM      7  O   UNL     1      14.351  29.766  17.291  1.00  0.00    -0.550 OA
ATOM      8  O   UNL     1      12.522  30.893  16.498  1.00  0.00    -0.550 OA
ENDBRANCH   5   6
ENDBRANCH   4   5
ENDBRANCH   3   4
ENDBRANCH   2   3
ENDBRANCH   1   2
BRANCH   1   9
ATOM      9  C   UNL     1      14.677  29.814  22.905  1.00  0.00     0.000 C 
BRANCH   9  10
ATOM     10  C   UNL     1      14.004  30.073  24.258  1.00  0.00    -0.000 C 
BRANCH  10  11
ATOM     11  C   UNL     1      13.796  28.764  25.030  1.00  0.00    -0.000 C 
BRANCH  11  12
ATOM     12  C   UNL     1      12.764  27.869  24.326  1.00  0.00    -0.000 C 
BRANCH  12  13
ATOM     13  C   UNL     1      13.373  26.554  23.818  1.00  0.00    -0.003 C 
ATOM     14  C   UNL     1      14.041  25.743  24.929  1.00  0.00     0.004 C 
ENDBRANCH  12  13
ENDBRANCH  11  12
ENDBRANCH  10  11
ENDBRANCH   9  10
ENDBRANCH   1   9
TORSDOF 10
ENDMDL
MODEL 8
REMARK VINA RESULT:    -1.932      3.225      5.046
REMARK INTER + INTRA:          -4.190
REMARK INTER:                  -3.182
REMARK INTRA:                  -1.007
REMARK UNBOUND:                -1.129
REMARK SMILES CCCCCCCCCCCC(=O)[O-]
REMARK SMILES IDX 7 1 8 2 9 3 10 4 11 5 12 6 13 7 14 8 6 9 5 10 4 11 3 12 2 13
REMARK SMILES IDX 1 14
REMARK H PARENT
REMARK Flexibility Score: inf
ROOT
ATOM      1  C   UNL     1      13.842  26.327  23.791  1.00  0.00     0.000 C 
ENDROOT
BRANCH   1   2
ATOM      2  C   UNL     1      14.795  26.528  22.604  1.00  0.00     0.000 C 
BRANCH   2   3
ATOM      3  C   UNL     1      14.055  26.645  21.262  1.00  0.00     0.000 C 
BRANCH   3   4
ATOM      4  C   UNL     1      14.999  26.986  20.094  1.00  0.00     0.006 C 
BRANCH   4   5
ATOM      5  C   UNL     1      14.781  28.412  19.574  1.00  0.00     0.053 C 
BRANCH   5   6
ATOM      6  C   UNL     1      14.740  28.459  18.076  1.00  0.00     0.041 C 
ATOM      7  O   UNL     1      14.385  29.510  17.484  1.00  0.00    -0.550 OA
ATOM      8  O   UNL     1      15.121  27.347  17.336  1.00  0.00    -0.550 OA
ENDBRANCH   5   6
ENDBRANCH   4   5
ENDBRANCH   3   4
ENDBRANCH   2   3
ENDBRANCH   1   2
BRANCH   1   9
ATOM      9  C   UNL     1      13.841  27.555  24.708  1.00  0.00     0.000 C 
BRANCH   9  10
ATOM     10  C   UNL     1      15.017  28.485  24.388  1.00  0.00    -0.000 C 
BRANCH  10  11
ATOM     11  C   UNL     1      14.800  29.877  24.991  1.00  0.00    -0.000 C 
BRANCH  11  12
ATOM     12  C   UNL     1      14.380  30.886  23.910  1.00  0.00    -0.000 C 
BRANCH  12  13
ATOM     13  C   UNL     1      14.281  30.249  22.516  1.00  0.00    -0.003 C 
ATOM     14  C   UNL     1      12.910  30.450  21.870  1.00  0.00     0.004 C 
ENDBRANCH  12  13
ENDBRANCH  11  12
ENDBRANCH  10  11
ENDBRANCH   9  10
ENDBRANCH   1   9
TORSDOF 10
ENDMDL
MODEL 9
REMARK VINA RESULT:    -1.415      1.499      2.247
REMARK INTER + INTRA:          -3.371
REMARK INTER:                  -2.957
REMARK INTRA:                  -0.414
REMARK UNBOUND:                -1.129
REMARK SMILES CCCCCCCCCCCC(=O)[O-]
REMARK SMILES IDX 7 1 8 2 9 3 10 4 11 5 12 6 13 7 14 8 6 9 5 10 4 11 3 12 2 13
REMARK SMILES IDX 1 14
REMARK H PARENT
REMARK Flexibility Score: inf
ROOT
ATOM      1  C   UNL     1      13.604  29.436  20.768  1.00  0.00     0.000 C 
ENDROOT
BRANCH   1   2
ATOM      2  C   UNL     1      14.326  28.330  21.550  1.00  0.00     0.000 C 
BRANCH   2   3
ATOM      3  C   UNL     1      14.443  28.643  23.050  1.00  0.00     0.000 C 
BRANCH   3   4
ATOM      4  C   UNL     1      13.291  28.037  23.872  1.00  0.00     0.006 C 
BRANCH   4   5
ATOM      5  C   UNL     1      13.647  27.908  25.359  1.00  0.00     0.053 C 
BRANCH   5   6
ATOM      6  C   UNL     1      13.390  29.183  26.105  1.00  0.00     0.041 C 
ATOM      7  O   UNL     1      14.313  30.024  26.260  1.00  0.00    -0.550 OA
ATOM      8  O   UNL     1      12.122  29.452  26.604  1.00  0.00    -0.550 OA
ENDBRANCH   5   6
ENDBRANCH   4   5
ENDBRANCH   3   4
ENDBRANCH   2   3
ENDBRANCH   1   2
BRANCH   1   9
ATOM      9  C   UNL     1      14.493  29.985  19.645  1.00  0.00     0.000 C 
BRANCH   9  10
ATOM     10  C   UNL     1      13.784  31.108  18.879  1.00  0.00    -0.000 C 
BRANCH  10  11
ATOM     11  C   UNL     1      12.602  30.562  18.069  1.00  0.00    -0.000 C 
BRANCH  11  12
ATOM     12  C   UNL     1      12.835  30.751  16.562  1.00  0.00    -0.000 C 
BRANCH  12  13
ATOM     13  C   UNL     1      14.288  31.125  16.232  1.00  0.00    -0.003 C 
ATOM     14  C   UNL     1      15.112  29.930  15.752  1.00  0.00     0.004 C 
ENDBRANCH  12  13
ENDBRANCH  11  12
ENDBRANCH  10  11
ENDBRANCH   9  10
ENDBRANCH   1   9
TORSDOF 10
ENDMDL
