MODEL 1
REMARK VINA RESULT:    -4.376      0.000      0.000
REMARK INTER + INTRA:          -4.999
REMARK INTER:                  -4.760
REMARK INTRA:                  -0.239
REMARK UNBOUND:                -0.239
REMARK SMILES C=C1C[C@@]2(O)O[C@@]3(C[C@@H]2C(C)C)[C@H](C)CC[C@H]13
REMARK SMILES IDX 14 1 13 2 15 3 16 4 17 5 7 6 8 7 9 8 4 9 6 10 3 11 2 12 1 13
REMARK SMILES IDX 10 14 11 15 12 16 5 17
REMARK H PARENT 5 18
REMARK Flexibility Score: inf
ROOT
ATOM      1  C   UNL     1       5.747  30.671  -0.636  1.00  0.00     0.011 C 
ATOM      2  C   UNL     1       6.854  30.050   0.226  1.00  0.00     0.019 C 
ATOM      3  C   UNL     1       6.323  29.346   1.494  1.00  0.00     0.007 C 
ATOM      4  C   UNL     1       7.433  29.467   2.561  1.00  0.00     0.011 C 
ATOM      5  C   UNL     1       8.600  30.103   1.812  1.00  0.00     0.047 C 
ATOM      6  C   UNL     1       7.936  31.002   0.764  1.00  0.00     0.081 C 
ATOM      7  C   UNL     1       7.399  32.337   1.362  1.00  0.00     0.046 C 
ATOM      8  C   UNL     1       8.532  33.328   1.088  1.00  0.00     0.054 C 
ATOM      9  C   UNL     1       9.630  32.405   0.509  1.00  0.00     0.173 C 
ATOM     10  O   UNL     1       8.935  31.361  -0.161  1.00  0.00    -0.342 OA
ATOM     11  C   UNL     1      10.498  31.814   1.675  1.00  0.00     0.096 C 
ATOM     12  C   UNL     1       9.669  30.878   2.542  1.00  0.00    -0.066 C 
ATOM     13  C   UNL     1      10.021  30.605   3.805  1.00  0.00     0.008 C 
ENDROOT
BRANCH   8  14
ATOM     14  C   UNL     1       8.133  34.529   0.168  1.00  0.00    -0.009 C 
ATOM     15  C   UNL     1       7.263  34.147  -1.043  1.00  0.00     0.008 C 
ATOM     16  C   UNL     1       7.457  35.648   0.976  1.00  0.00     0.008 C 
ENDBRANCH   8  14
BRANCH   9  17
ATOM     17  O   UNL     1      10.463  33.094  -0.389  1.00  0.00    -0.365 OA
ATOM     18  H   UNL     1      11.267  32.530  -0.532  1.00  0.00     0.214 HD
ENDBRANCH   9  17
TORSDOF 2
ENDMDL
MODEL 2
REMARK VINA RESULT:    -4.080     10.772     12.736
REMARK INTER + INTRA:          -4.677
REMARK INTER:                  -4.462
REMARK INTRA:                  -0.215
REMARK UNBOUND:                -0.239
REMARK SMILES C=C1C[C@@]2(O)O[C@@]3(C[C@@H]2C(C)C)[C@H](C)CC[C@H]13
REMARK SMILES IDX 14 1 13 2 15 3 16 4 17 5 7 6 8 7 9 8 4 9 6 10 3 11 2 12 1 13
REMARK SMILES IDX 10 14 11 15 12 16 5 17
REMARK H PARENT 5 18
REMARK Flexibility Score: inf
ROOT
ATOM      1  C   UNL     1      -0.998  40.794   8.788  1.00  0.00     0.011 C 
ATOM      2  C   UNL     1      -1.377  39.658   7.829  1.00  0.00     0.019 C 
ATOM      3  C   UNL     1      -1.227  38.253   8.452  1.00  0.00     0.007 C 
ATOM      4  C   UNL     1      -0.885  37.293   7.292  1.00  0.00     0.011 C 
ATOM      5  C   UNL     1      -0.999  38.163   6.045  1.00  0.00     0.047 C 
ATOM      6  C   UNL     1      -0.584  39.561   6.515  1.00  0.00     0.081 C 
ATOM      7  C   UNL     1       0.959  39.718   6.664  1.00  0.00     0.046 C 
ATOM      8  C   UNL     1       1.381  40.345   5.334  1.00  0.00     0.054 C 
ATOM      9  C   UNL     1       0.055  40.326   4.538  1.00  0.00     0.173 C 
ATOM     10  O   UNL     1      -0.974  40.465   5.509  1.00  0.00    -0.342 OA
ATOM     11  C   UNL     1      -0.094  38.956   3.786  1.00  0.00     0.096 C 
ATOM     12  C   UNL     1      -0.258  37.814   4.777  1.00  0.00    -0.066 C 
ATOM     13  C   UNL     1       0.034  36.552   4.438  1.00  0.00     0.008 C 
ENDROOT
BRANCH   8  14
ATOM     14  C   UNL     1       2.046  41.755   5.466  1.00  0.00    -0.009 C 
ATOM     15  C   UNL     1       2.512  42.114   6.889  1.00  0.00     0.008 C 
ATOM     16  C   UNL     1       3.205  41.918   4.470  1.00  0.00     0.008 C 
ENDBRANCH   8  14
BRANCH   9  17
ATOM     17  O   UNL     1      -0.003  41.377   3.607  1.00  0.00    -0.365 OA
ATOM     18  H   UNL     1      -0.484  41.034   2.810  1.00  0.00     0.214 HD
ENDBRANCH   9  17
TORSDOF 2
ENDMDL
MODEL 3
REMARK VINA RESULT:    -4.034      3.810      6.155
REMARK INTER + INTRA:          -4.627
REMARK INTER:                  -4.337
REMARK INTRA:                  -0.289
REMARK UNBOUND:                -0.239
REMARK SMILES C=C1C[C@@]2(O)O[C@@]3(C[C@@H]2C(C)C)[C@H](C)CC[C@H]13
REMARK SMILES IDX 14 1 13 2 15 3 16 4 17 5 7 6 8 7 9 8 4 9 6 10 3 11 2 12 1 13
REMARK SMILES IDX 10 14 11 15 12 16 5 17
REMARK H PARENT 5 18
REMARK Flexibility Score: inf
ROOT
ATOM      1  C   UNL     1      12.289  37.230   1.008  1.00  0.00     0.011 C 
ATOM      2  C   UNL     1      11.326  36.038   1.099  1.00  0.00     0.019 C 
ATOM      3  C   UNL     1      11.628  34.925   0.071  1.00  0.00     0.007 C 
ATOM      4  C   UNL     1      10.279  34.251  -0.255  1.00  0.00     0.011 C 
ATOM      5  C   UNL     1       9.294  34.908   0.707  1.00  0.00     0.047 C 
ATOM      6  C   UNL     1       9.831  36.331   0.891  1.00  0.00     0.081 C 
ATOM      7  C   UNL     1       9.505  37.263  -0.314  1.00  0.00     0.046 C 
ATOM      8  C   UNL     1       8.233  37.986   0.132  1.00  0.00     0.054 C 
ATOM      9  C   UNL     1       7.909  37.268   1.463  1.00  0.00     0.173 C 
ATOM     10  O   UNL     1       9.166  36.881   2.003  1.00  0.00    -0.342 OA
ATOM     11  C   UNL     1       7.028  35.999   1.183  1.00  0.00     0.096 C 
ATOM     12  C   UNL     1       7.817  34.959   0.401  1.00  0.00    -0.066 C 
ATOM     13  C   UNL     1       7.199  34.020  -0.326  1.00  0.00     0.008 C 
ENDROOT
BRANCH   8  14
ATOM     14  C   UNL     1       8.377  39.540   0.244  1.00  0.00    -0.009 C 
ATOM     15  C   UNL     1       9.723  40.097  -0.255  1.00  0.00     0.008 C 
ATOM     16  C   UNL     1       7.212  40.258  -0.456  1.00  0.00     0.008 C 
ENDBRANCH   8  14
BRANCH   9  17
ATOM     17  O   UNL     1       7.232  38.116   2.356  1.00  0.00    -0.365 OA
ATOM     18  H   UNL     1       7.919  38.674   2.804  1.00  0.00     0.214 HD
ENDBRANCH   9  17
TORSDOF 2
ENDMDL
MODEL 4
REMARK VINA RESULT:    -3.986      1.527      4.075
REMARK INTER + INTRA:          -4.575
REMARK INTER:                  -4.315
REMARK INTRA:                  -0.260
REMARK UNBOUND:                -0.239
REMARK SMILES C=C1C[C@@]2(O)O[C@@]3(C[C@@H]2C(C)C)[C@H](C)CC[C@H]13
REMARK SMILES IDX 14 1 13 2 15 3 16 4 17 5 7 6 8 7 9 8 4 9 6 10 3 11 2 12 1 13
REMARK SMILES IDX 10 14 11 15 12 16 5 17
REMARK H PARENT 5 18
REMARK Flexibility Score: inf
ROOT
ATOM      1  C   UNL     1       7.371  34.427  -0.673  1.00  0.00     0.011 C 
ATOM      2  C   UNL     1       8.682  34.170   0.083  1.00  0.00     0.019 C 
ATOM      3  C   UNL     1       9.934  34.232  -0.820  1.00  0.00     0.007 C 
ATOM      4  C   UNL     1      10.970  33.270  -0.202  1.00  0.00     0.011 C 
ATOM      5  C   UNL     1      10.321  32.815   1.102  1.00  0.00     0.047 C 
ATOM      6  C   UNL     1       8.819  32.817   0.802  1.00  0.00     0.081 C 
ATOM      7  C   UNL     1       8.364  31.581  -0.029  1.00  0.00     0.046 C 
ATOM      8  C   UNL     1       7.865  30.602   1.036  1.00  0.00     0.054 C 
ATOM      9  C   UNL     1       8.239  31.338   2.344  1.00  0.00     0.173 C 
ATOM     10  O   UNL     1       8.153  32.724   2.039  1.00  0.00    -0.342 OA
ATOM     11  C   UNL     1       9.705  30.967   2.763  1.00  0.00     0.096 C 
ATOM     12  C   UNL     1      10.706  31.509   1.753  1.00  0.00    -0.066 C 
ATOM     13  C   UNL     1      11.929  30.976   1.632  1.00  0.00     0.008 C 
ENDROOT
BRANCH   8  14
ATOM     14  C   UNL     1       6.353  30.221   0.908  1.00  0.00    -0.009 C 
ATOM     15  C   UNL     1       5.686  30.677  -0.403  1.00  0.00     0.008 C 
ATOM     16  C   UNL     1       6.141  28.713   1.116  1.00  0.00     0.008 C 
ENDBRANCH   8  14
BRANCH   9  17
ATOM     17  O   UNL     1       7.359  31.011   3.390  1.00  0.00    -0.365 OA
ATOM     18  H   UNL     1       7.707  30.185   3.815  1.00  0.00     0.214 HD
ENDBRANCH   9  17
TORSDOF 2
ENDMDL
MODEL 5
REMARK VINA RESULT:    -3.974     10.288     11.931
REMARK INTER + INTRA:          -4.561
REMARK INTER:                  -4.370
REMARK INTRA:                  -0.192
REMARK UNBOUND:                -0.239
REMARK SMILES C=C1C[C@@]2(O)O[C@@]3(C[C@@H]2C(C)C)[C@H](C)CC[C@H]13
REMARK SMILES IDX 14 1 13 2 15 3 16 4 17 5 7 6 8 7 9 8 4 9 6 10 3 11 2 12 1 13
REMARK SMILES IDX 10 14 11 15 12 16 5 17
REMARK H PARENT 5 18
REMARK Flexibility Score: inf
ROOT
ATOM      1  C   UNL     1      -0.175  36.293   3.091  1.00  0.00     0.011 C 
ATOM      2  C   UNL     1      -0.494  36.125   4.583  1.00  0.00     0.019 C 
ATOM      3  C   UNL     1      -1.931  35.627   4.852  1.00  0.00     0.007 C 
ATOM      4  C   UNL     1      -2.350  36.212   6.217  1.00  0.00     0.011 C 
ATOM      5  C   UNL     1      -1.086  36.893   6.733  1.00  0.00     0.047 C 
ATOM      6  C   UNL     1      -0.371  37.378   5.467  1.00  0.00     0.081 C 
ATOM      7  C   UNL     1      -1.003  38.670   4.870  1.00  0.00     0.046 C 
ATOM      8  C   UNL     1      -0.137  39.789   5.451  1.00  0.00     0.054 C 
ATOM      9  C   UNL     1       0.780  39.009   6.424  1.00  0.00     0.173 C 
ATOM     10  O   UNL     1       0.941  37.721   5.844  1.00  0.00    -0.342 OA
ATOM     11  C   UNL     1       0.087  38.888   7.826  1.00  0.00     0.096 C 
ATOM     12  C   UNL     1      -1.158  38.017   7.737  1.00  0.00    -0.066 C 
ATOM     13  C   UNL     1      -2.140  38.113   8.643  1.00  0.00     0.008 C 
ENDROOT
BRANCH   8  14
ATOM     14  C   UNL     1       0.620  40.644   4.381  1.00  0.00    -0.009 C 
ATOM     15  C   UNL     1       0.059  40.526   2.953  1.00  0.00     0.008 C 
ATOM     16  C   UNL     1       0.696  42.120   4.802  1.00  0.00     0.008 C 
ENDBRANCH   8  14
BRANCH   9  17
ATOM     17  O   UNL     1       2.027  39.639   6.574  1.00  0.00    -0.365 OA
ATOM     18  H   UNL     1       2.689  38.929   6.778  1.00  0.00     0.214 HD
ENDBRANCH   9  17
TORSDOF 2
ENDMDL
MODEL 6
REMARK VINA RESULT:    -3.954      1.781      3.596
REMARK INTER + INTRA:          -4.539
REMARK INTER:                  -4.243
REMARK INTRA:                  -0.296
REMARK UNBOUND:                -0.239
REMARK SMILES C=C1C[C@@]2(O)O[C@@]3(C[C@@H]2C(C)C)[C@H](C)CC[C@H]13
REMARK SMILES IDX 14 1 13 2 15 3 16 4 17 5 7 6 8 7 9 8 4 9 6 10 3 11 2 12 1 13
REMARK SMILES IDX 10 14 11 15 12 16 5 17
REMARK H PARENT 5 18
REMARK Flexibility Score: inf
ROOT
ATOM      1  C   UNL     1       9.971  30.528   4.199  1.00  0.00     0.011 C 
ATOM      2  C   UNL     1       8.634  30.090   3.586  1.00  0.00     0.019 C 
ATOM      3  C   UNL     1       8.528  28.563   3.372  1.00  0.00     0.007 C 
ATOM      4  C   UNL     1       7.605  28.355   2.152  1.00  0.00     0.011 C 
ATOM      5  C   UNL     1       7.110  29.758   1.817  1.00  0.00     0.047 C 
ATOM      6  C   UNL     1       8.271  30.677   2.212  1.00  0.00     0.081 C 
ATOM      7  C   UNL     1       9.427  30.675   1.169  1.00  0.00     0.046 C 
ATOM      8  C   UNL     1       9.123  31.897   0.300  1.00  0.00     0.054 C 
ATOM      9  C   UNL     1       7.753  32.351   0.859  1.00  0.00     0.173 C 
ATOM     10  O   UNL     1       7.765  31.990   2.234  1.00  0.00    -0.342 OA
ATOM     11  C   UNL     1       6.597  31.597   0.112  1.00  0.00     0.096 C 
ATOM     12  C   UNL     1       6.635  30.109   0.429  1.00  0.00    -0.066 C 
ATOM     13  C   UNL     1       6.071  29.210  -0.389  1.00  0.00     0.008 C 
ENDROOT
BRANCH   8  14
ATOM     14  C   UNL     1      10.235  32.998   0.318  1.00  0.00    -0.009 C 
ATOM     15  C   UNL     1      11.499  32.619   1.112  1.00  0.00     0.008 C 
ATOM     16  C   UNL     1      10.613  33.428  -1.108  1.00  0.00     0.008 C 
ENDBRANCH   8  14
BRANCH   9  17
ATOM     17  O   UNL     1       7.573  33.737   0.717  1.00  0.00    -0.365 OA
ATOM     18  H   UNL     1       8.059  34.172   1.465  1.00  0.00     0.214 HD
ENDBRANCH   9  17
TORSDOF 2
ENDMDL
MODEL 7
REMARK VINA RESULT:    -3.942      2.847      5.039
REMARK INTER + INTRA:          -4.526
REMARK INTER:                  -4.199
REMARK INTRA:                  -0.328
REMARK UNBOUND:                -0.239
REMARK SMILES C=C1C[C@@]2(O)O[C@@]3(C[C@@H]2C(C)C)[C@H](C)CC[C@H]13
REMARK SMILES IDX 14 1 13 2 15 3 16 4 17 5 7 6 8 7 9 8 4 9 6 10 3 11 2 12 1 13
REMARK SMILES IDX 10 14 11 15 12 16 5 17
REMARK H PARENT 5 18
REMARK Flexibility Score: inf
ROOT
ATOM      1  C   UNL     1       6.075  29.628  -0.559  1.00  0.00     0.011 C 
ATOM      2  C   UNL     1       6.488  30.186   0.810  1.00  0.00     0.019 C 
ATOM      3  C   UNL     1       7.056  31.621   0.741  1.00  0.00     0.007 C 
ATOM      4  C   UNL     1       8.070  31.748   1.898  1.00  0.00     0.011 C 
ATOM      5  C   UNL     1       7.927  30.435   2.662  1.00  0.00     0.047 C 
ATOM      6  C   UNL     1       7.562  29.406   1.587  1.00  0.00     0.081 C 
ATOM      7  C   UNL     1       8.787  28.952   0.740  1.00  0.00     0.046 C 
ATOM      8  C   UNL     1       9.234  27.661   1.428  1.00  0.00     0.054 C 
ATOM      9  C   UNL     1       8.307  27.622   2.666  1.00  0.00     0.173 C 
ATOM     10  O   UNL     1       7.102  28.257   2.258  1.00  0.00    -0.342 OA
ATOM     11  C   UNL     1       8.964  28.418   3.848  1.00  0.00     0.096 C 
ATOM     12  C   UNL     1       9.051  29.900   3.515  1.00  0.00    -0.066 C 
ATOM     13  C   UNL     1       9.935  30.699   4.127  1.00  0.00     0.008 C 
ENDROOT
BRANCH   8  14
ATOM     14  C   UNL     1       9.168  26.388   0.520  1.00  0.00    -0.009 C 
ATOM     15  C   UNL     1       8.471  26.602  -0.836  1.00  0.00     0.008 C 
ATOM     16  C   UNL     1      10.565  25.783   0.309  1.00  0.00     0.008 C 
ENDBRANCH   8  14
BRANCH   9  17
ATOM     17  O   UNL     1       8.051  26.303   3.077  1.00  0.00    -0.365 OA
ATOM     18  H   UNL     1       7.847  26.336   4.048  1.00  0.00     0.214 HD
ENDBRANCH   9  17
TORSDOF 2
ENDMDL
MODEL 8
REMARK VINA RESULT:    -3.932     10.433     12.544
REMARK INTER + INTRA:          -4.515
REMARK INTER:                  -4.255
REMARK INTRA:                  -0.260
REMARK UNBOUND:                -0.239
REMARK SMILES C=C1C[C@@]2(O)O[C@@]3(C[C@@H]2C(C)C)[C@H](C)CC[C@H]13
REMARK SMILES IDX 14 1 13 2 15 3 16 4 17 5 7 6 8 7 9 8 4 9 6 10 3 11 2 12 1 13
REMARK SMILES IDX 10 14 11 15 12 16 5 17
REMARK H PARENT 5 18
REMARK Flexibility Score: inf
ROOT
ATOM      1  C   UNL     1       0.265  40.382   3.727  1.00  0.00     0.011 C 
ATOM      2  C   UNL     1      -0.228  40.287   5.178  1.00  0.00     0.019 C 
ATOM      3  C   UNL     1       0.813  40.769   6.212  1.00  0.00     0.007 C 
ATOM      4  C   UNL     1       0.558  39.960   7.501  1.00  0.00     0.011 C 
ATOM      5  C   UNL     1      -0.705  39.161   7.195  1.00  0.00     0.047 C 
ATOM      6  C   UNL     1      -0.629  38.893   5.688  1.00  0.00     0.081 C 
ATOM      7  C   UNL     1       0.362  37.748   5.325  1.00  0.00     0.046 C 
ATOM      8  C   UNL     1      -0.541  36.518   5.216  1.00  0.00     0.054 C 
ATOM      9  C   UNL     1      -1.905  37.083   5.679  1.00  0.00     0.173 C 
ATOM     10  O   UNL     1      -1.904  38.450   5.286  1.00  0.00    -0.342 OA
ATOM     11  C   UNL     1      -2.026  36.970   7.239  1.00  0.00     0.096 C 
ATOM     12  C   UNL     1      -1.014  37.877   7.924  1.00  0.00    -0.066 C 
ATOM     13  C   UNL     1      -0.614  37.648   9.181  1.00  0.00     0.008 C 
ENDROOT
BRANCH   8  14
ATOM     14  C   UNL     1      -0.556  35.849   3.801  1.00  0.00    -0.009 C 
ATOM     15  C   UNL     1      -0.566  36.840   2.623  1.00  0.00     0.008 C 
ATOM     16  C   UNL     1       0.604  34.852   3.647  1.00  0.00     0.008 C 
ENDBRANCH   8  14
BRANCH   9  17
ATOM     17  O   UNL     1      -2.977  36.401   5.078  1.00  0.00    -0.365 OA
ATOM     18  H   UNL     1      -2.902  35.449   5.346  1.00  0.00     0.214 HD
ENDBRANCH   9  17
TORSDOF 2
ENDMDL
MODEL 9
REMARK VINA RESULT:    -3.922     10.234     12.652
REMARK INTER + INTRA:          -4.505
REMARK INTER:                  -4.178
REMARK INTRA:                  -0.326
REMARK UNBOUND:                -0.239
REMARK SMILES C=C1C[C@@]2(O)O[C@@]3(C[C@@H]2C(C)C)[C@H](C)CC[C@H]13
REMARK SMILES IDX 14 1 13 2 15 3 16 4 17 5 7 6 8 7 9 8 4 9 6 10 3 11 2 12 1 13
REMARK SMILES IDX 10 14 11 15 12 16 5 17
REMARK H PARENT 5 18
REMARK Flexibility Score: inf
ROOT
ATOM      1  C   UNL     1      -2.915  39.897   3.183  1.00  0.00     0.011 C 
ATOM      2  C   UNL     1      -1.963  40.638   4.132  1.00  0.00     0.019 C 
ATOM      3  C   UNL     1      -1.148  41.752   3.438  1.00  0.00     0.007 C 
ATOM      4  C   UNL     1       0.191  41.854   4.199  1.00  0.00     0.011 C 
ATOM      5  C   UNL     1       0.021  40.902   5.379  1.00  0.00     0.047 C 
ATOM      6  C   UNL     1      -0.894  39.795   4.846  1.00  0.00     0.081 C 
ATOM      7  C   UNL     1      -0.147  38.774   3.938  1.00  0.00     0.046 C 
ATOM      8  C   UNL     1       0.205  37.636   4.899  1.00  0.00     0.054 C 
ATOM      9  C   UNL     1      -0.249  38.217   6.260  1.00  0.00     0.173 C 
ATOM     10  O   UNL     1      -1.349  39.067   5.963  1.00  0.00    -0.342 OA
ATOM     11  C   UNL     1       0.919  39.049   6.899  1.00  0.00     0.096 C 
ATOM     12  C   UNL     1       1.216  40.287   6.065  1.00  0.00    -0.066 C 
ATOM     13  C   UNL     1       2.404  40.900   6.131  1.00  0.00     0.008 C 
ENDROOT
BRANCH   8  14
ATOM     14  C   UNL     1      -0.434  36.256   4.531  1.00  0.00    -0.009 C 
ATOM     15  C   UNL     1      -1.749  36.351   3.735  1.00  0.00     0.008 C 
ATOM     16  C   UNL     1       0.571  35.359   3.792  1.00  0.00     0.008 C 
ENDBRANCH   8  14
BRANCH   9  17
ATOM     17  O   UNL     1      -0.639  37.202   7.149  1.00  0.00    -0.365 OA
ATOM     18  H   UNL     1      -1.282  36.622   6.665  1.00  0.00     0.214 HD
ENDBRANCH   9  17
TORSDOF 2
ENDMDL
