MODEL 1
REMARK VINA RESULT:    -6.346      0.000      0.000
REMARK INTER + INTRA:          -7.570
REMARK INTER:                  -7.273
REMARK INTRA:                  -0.297
REMARK UNBOUND:                -0.297
REMARK SMILES O=C1C[C@@H](c2ccc(O)cc2)Oc2cc(O)cc(O)c21
REMARK SMILES IDX 3 1 4 2 12 3 13 4 14 5 15 6 17 7 18 8 20 9 2 10 1 11 5 12
REMARK SMILES IDX 6 13 11 14 7 15 10 16 8 17 9 18 19 20 16 22
REMARK H PARENT 9 19 19 21 16 23
REMARK Flexibility Score: inf
ROOT
ATOM      1  C   UNL     1      14.207  15.788  12.745  1.00  0.00     0.131 C 
ATOM      2  C   UNL     1      15.458  16.534  13.225  1.00  0.00     0.211 C 
ATOM      3  O   UNL     1      16.428  16.587  12.182  1.00  0.00    -0.484 OA
ATOM      4  C   UNL     1      16.081  16.918  10.869  1.00  0.00     0.138 A 
ATOM      5  C   UNL     1      17.093  17.268   9.971  1.00  0.00     0.093 A 
ATOM      6  C   UNL     1      16.780  17.628   8.662  1.00  0.00     0.123 A 
ATOM      7  C   UNL     1      15.444  17.659   8.252  1.00  0.00     0.093 A 
ATOM      8  C   UNL     1      14.411  17.320   9.136  1.00  0.00     0.133 A 
ATOM      9  C   UNL     1      14.729  16.893  10.456  1.00  0.00     0.102 A 
ATOM     10  C   UNL     1      13.740  16.335  11.425  1.00  0.00     0.174 C 
ATOM     11  O   UNL     1      12.524  16.205  11.128  1.00  0.00    -0.294 OA
ENDROOT
BRANCH   2  12
ATOM     12  C   UNL     1      16.043  15.869  14.447  1.00  0.00    -0.007 A 
ATOM     13  C   UNL     1      15.661  16.279  15.738  1.00  0.00     0.011 A 
ATOM     14  C   UNL     1      17.023  14.871  14.309  1.00  0.00     0.011 A 
ATOM     15  C   UNL     1      16.230  15.681  16.866  1.00  0.00     0.046 A 
ATOM     16  C   UNL     1      17.589  14.274  15.439  1.00  0.00     0.046 A 
ATOM     17  C   UNL     1      17.194  14.675  16.720  1.00  0.00     0.115 A 
BRANCH  17  18
ATOM     18  O   UNL     1      17.768  14.072  17.836  1.00  0.00    -0.508 OA
ATOM     19  H   UNL     1      17.246  13.947  18.696  1.00  0.00     0.293 HD
ENDBRANCH  17  18
ENDBRANCH   2  12
BRANCH   8  20
ATOM     20  O   UNL     1      13.104  17.441   8.655  1.00  0.00    -0.507 OA
ATOM     21  H   UNL     1      12.767  17.020   7.804  1.00  0.00     0.293 HD
ENDBRANCH   8  20
BRANCH   6  22
ATOM     22  O   UNL     1      17.803  17.968   7.779  1.00  0.00    -0.508 OA
ATOM     23  H   UNL     1      18.580  18.551   8.069  1.00  0.00     0.293 HD
ENDBRANCH   6  22
TORSDOF 4
ENDMDL
MODEL 2
REMARK VINA RESULT:    -6.341      1.603      3.279
REMARK INTER + INTRA:          -7.566
REMARK INTER:                  -7.261
REMARK INTRA:                  -0.305
REMARK UNBOUND:                -0.297
REMARK SMILES O=C1C[C@@H](c2ccc(O)cc2)Oc2cc(O)cc(O)c21
REMARK SMILES IDX 3 1 4 2 12 3 13 4 14 5 15 6 17 7 18 8 20 9 2 10 1 11 5 12
REMARK SMILES IDX 6 13 11 14 7 15 10 16 8 17 9 18 19 20 16 22
REMARK H PARENT 9 19 19 21 16 23
REMARK Flexibility Score: inf
ROOT
ATOM      1  C   UNL     1      16.866  15.855  10.620  1.00  0.00     0.131 C 
ATOM      2  C   UNL     1      15.854  15.109  11.498  1.00  0.00     0.211 C 
ATOM      3  O   UNL     1      14.614  15.815  11.525  1.00  0.00    -0.484 OA
ATOM      4  C   UNL     1      14.034  16.329  10.361  1.00  0.00     0.138 A 
ATOM      5  C   UNL     1      12.692  16.717  10.391  1.00  0.00     0.093 A 
ATOM      6  C   UNL     1      12.076  17.209   9.243  1.00  0.00     0.123 A 
ATOM      7  C   UNL     1      12.800  17.297   8.050  1.00  0.00     0.093 A 
ATOM      8  C   UNL     1      14.144  16.906   7.993  1.00  0.00     0.133 A 
ATOM      9  C   UNL     1      14.796  16.459   9.177  1.00  0.00     0.102 A 
ATOM     10  C   UNL     1      16.260  16.192   9.286  1.00  0.00     0.174 C 
ATOM     11  O   UNL     1      17.036  16.348   8.308  1.00  0.00    -0.294 OA
ENDROOT
BRANCH   2  12
ATOM     12  C   UNL     1      16.384  14.937  12.901  1.00  0.00    -0.007 A 
ATOM     13  C   UNL     1      17.414  14.017  13.169  1.00  0.00     0.011 A 
ATOM     14  C   UNL     1      15.813  15.654  13.966  1.00  0.00     0.011 A 
ATOM     15  C   UNL     1      17.880  13.839  14.475  1.00  0.00     0.046 A 
ATOM     16  C   UNL     1      16.281  15.475  15.271  1.00  0.00     0.046 A 
ATOM     17  C   UNL     1      17.316  14.569  15.530  1.00  0.00     0.115 A 
BRANCH  17  18
ATOM     18  O   UNL     1      17.772  14.401  16.835  1.00  0.00    -0.508 OA
ATOM     19  H   UNL     1      17.451  13.632  17.412  1.00  0.00     0.293 HD
ENDBRANCH  17  18
ENDBRANCH   2  12
BRANCH   8  20
ATOM     20  O   UNL     1      14.767  16.969   6.744  1.00  0.00    -0.507 OA
ATOM     21  H   UNL     1      14.327  16.715   5.872  1.00  0.00     0.293 HD
ENDBRANCH   8  20
BRANCH   6  22
ATOM     22  O   UNL     1      10.738  17.597   9.293  1.00  0.00    -0.508 OA
ATOM     23  H   UNL     1       9.993  16.915   9.370  1.00  0.00     0.293 HD
ENDBRANCH   6  22
TORSDOF 4
ENDMDL
MODEL 3
REMARK VINA RESULT:    -6.328      1.336      2.940
REMARK INTER + INTRA:          -7.550
REMARK INTER:                  -7.253
REMARK INTRA:                  -0.297
REMARK UNBOUND:                -0.297
REMARK SMILES O=C1C[C@@H](c2ccc(O)cc2)Oc2cc(O)cc(O)c21
REMARK SMILES IDX 3 1 4 2 12 3 13 4 14 5 15 6 17 7 18 8 20 9 2 10 1 11 5 12
REMARK SMILES IDX 6 13 11 14 7 15 10 16 8 17 9 18 19 20 16 22
REMARK H PARENT 9 19 19 21 16 23
REMARK Flexibility Score: inf
ROOT
ATOM      1  C   UNL     1      17.689  16.839  11.734  1.00  0.00     0.131 C 
ATOM      2  C   UNL     1      16.597  15.833  12.117  1.00  0.00     0.211 C 
ATOM      3  O   UNL     1      15.365  16.184  11.491  1.00  0.00    -0.484 OA
ATOM      4  C   UNL     1      15.303  16.551  10.143  1.00  0.00     0.138 A 
ATOM      5  C   UNL     1      14.059  16.568   9.506  1.00  0.00     0.093 A 
ATOM      6  C   UNL     1      13.963  16.905   8.158  1.00  0.00     0.123 A 
ATOM      7  C   UNL     1      15.121  17.207   7.434  1.00  0.00     0.093 A 
ATOM      8  C   UNL     1      16.380  17.188   8.049  1.00  0.00     0.133 A 
ATOM      9  C   UNL     1      16.477  16.905   9.440  1.00  0.00     0.102 A 
ATOM     10  C   UNL     1      17.729  17.032  10.243  1.00  0.00     0.174 C 
ATOM     11  O   UNL     1      18.812  17.410   9.725  1.00  0.00    -0.294 OA
ENDROOT
BRANCH   2  12
ATOM     12  C   UNL     1      16.422  15.777  13.615  1.00  0.00    -0.007 A 
ATOM     13  C   UNL     1      15.570  16.685  14.271  1.00  0.00     0.011 A 
ATOM     14  C   UNL     1      17.154  14.851  14.379  1.00  0.00     0.011 A 
ATOM     15  C   UNL     1      15.436  16.648  15.662  1.00  0.00     0.046 A 
ATOM     16  C   UNL     1      17.016  14.817  15.770  1.00  0.00     0.046 A 
ATOM     17  C   UNL     1      16.157  15.712  16.415  1.00  0.00     0.115 A 
BRANCH  17  18
ATOM     18  O   UNL     1      16.030  15.667  17.801  1.00  0.00    -0.508 OA
ATOM     19  H   UNL     1      15.345  15.070  18.251  1.00  0.00     0.293 HD
ENDBRANCH  17  18
ENDBRANCH   2  12
BRANCH   8  20
ATOM     20  O   UNL     1      17.485  17.441   7.231  1.00  0.00    -0.507 OA
ATOM     21  H   UNL     1      18.400  17.691   7.570  1.00  0.00     0.293 HD
ENDBRANCH   8  20
BRANCH   6  22
ATOM     22  O   UNL     1      12.714  16.923   7.541  1.00  0.00    -0.508 OA
ATOM     23  H   UNL     1      12.619  16.841   6.535  1.00  0.00     0.293 HD
ENDBRANCH   6  22
TORSDOF 4
ENDMDL
MODEL 4
REMARK VINA RESULT:    -6.241      1.627      2.197
REMARK INTER + INTRA:          -7.450
REMARK INTER:                  -7.139
REMARK INTRA:                  -0.311
REMARK UNBOUND:                -0.297
REMARK SMILES O=C1C[C@@H](c2ccc(O)cc2)Oc2cc(O)cc(O)c21
REMARK SMILES IDX 3 1 4 2 12 3 13 4 14 5 15 6 17 7 18 8 20 9 2 10 1 11 5 12
REMARK SMILES IDX 6 13 11 14 7 15 10 16 8 17 9 18 19 20 16 22
REMARK H PARENT 9 19 19 21 16 23
REMARK Flexibility Score: inf
ROOT
ATOM      1  C   UNL     1      13.734  15.848  12.663  1.00  0.00     0.131 C 
ATOM      2  C   UNL     1      15.190  16.253  12.402  1.00  0.00     0.211 C 
ATOM      3  O   UNL     1      15.512  16.066  11.026  1.00  0.00    -0.484 OA
ATOM      4  C   UNL     1      14.652  16.484  10.005  1.00  0.00     0.138 A 
ATOM      5  C   UNL     1      15.147  16.574   8.701  1.00  0.00     0.093 A 
ATOM      6  C   UNL     1      14.325  17.010   7.665  1.00  0.00     0.123 A 
ATOM      7  C   UNL     1      13.004  17.378   7.935  1.00  0.00     0.093 A 
ATOM      8  C   UNL     1      12.487  17.304   9.236  1.00  0.00     0.133 A 
ATOM      9  C   UNL     1      13.304  16.802  10.288  1.00  0.00     0.102 A 
ATOM     10  C   UNL     1      12.818  16.504  11.667  1.00  0.00     0.174 C 
ATOM     11  O   UNL     1      11.618  16.685  11.999  1.00  0.00    -0.294 OA
ENDROOT
BRANCH   2  12
ATOM     12  C   UNL     1      16.132  15.454  13.270  1.00  0.00    -0.007 A 
ATOM     13  C   UNL     1      17.085  14.595  12.691  1.00  0.00     0.011 A 
ATOM     14  C   UNL     1      16.029  15.516  14.670  1.00  0.00     0.011 A 
ATOM     15  C   UNL     1      17.933  13.834  13.500  1.00  0.00     0.046 A 
ATOM     16  C   UNL     1      16.880  14.755  15.476  1.00  0.00     0.046 A 
ATOM     17  C   UNL     1      17.835  13.913  14.895  1.00  0.00     0.115 A 
BRANCH  17  18
ATOM     18  O   UNL     1      18.676  13.160  15.711  1.00  0.00    -0.508 OA
ATOM     19  H   UNL     1      19.622  12.934  15.429  1.00  0.00     0.293 HD
ENDBRANCH  17  18
ENDBRANCH   2  12
BRANCH   8  20
ATOM     20  O   UNL     1      11.177  17.753   9.421  1.00  0.00    -0.507 OA
ATOM     21  H   UNL     1      10.466  17.752   8.706  1.00  0.00     0.293 HD
ENDBRANCH   8  20
BRANCH   6  22
ATOM     22  O   UNL     1      14.834  17.088   6.370  1.00  0.00    -0.508 OA
ATOM     23  H   UNL     1      14.229  17.033   5.560  1.00  0.00     0.293 HD
ENDBRANCH   6  22
TORSDOF 4
ENDMDL
MODEL 5
REMARK VINA RESULT:    -6.237      2.423      6.935
REMARK INTER + INTRA:          -7.446
REMARK INTER:                  -7.131
REMARK INTRA:                  -0.315
REMARK UNBOUND:                -0.297
REMARK SMILES O=C1C[C@@H](c2ccc(O)cc2)Oc2cc(O)cc(O)c21
REMARK SMILES IDX 3 1 4 2 12 3 13 4 14 5 15 6 17 7 18 8 20 9 2 10 1 11 5 12
REMARK SMILES IDX 6 13 11 14 7 15 10 16 8 17 9 18 19 20 16 22
REMARK H PARENT 9 19 19 21 16 23
REMARK Flexibility Score: inf
ROOT
ATOM      1  C   UNL     1      15.578  14.694  12.019  1.00  0.00     0.131 C 
ATOM      2  C   UNL     1      15.212  16.145  12.352  1.00  0.00     0.211 C 
ATOM      3  O   UNL     1      14.938  16.275  13.745  1.00  0.00    -0.484 OA
ATOM      4  C   UNL     1      15.763  15.698  14.715  1.00  0.00     0.138 A 
ATOM      5  C   UNL     1      15.640  16.118  16.043  1.00  0.00     0.093 A 
ATOM      6  C   UNL     1      16.463  15.582  17.030  1.00  0.00     0.123 A 
ATOM      7  C   UNL     1      17.431  14.634  16.687  1.00  0.00     0.093 A 
ATOM      8  C   UNL     1      17.579  14.203  15.362  1.00  0.00     0.133 A 
ATOM      9  C   UNL     1      16.701  14.702  14.359  1.00  0.00     0.102 A 
ATOM     10  C   UNL     1      16.638  14.188  12.959  1.00  0.00     0.174 C 
ATOM     11  O   UNL     1      17.381  13.254  12.563  1.00  0.00    -0.294 OA
ENDROOT
BRANCH   2  12
ATOM     12  C   UNL     1      14.021  16.597  11.543  1.00  0.00    -0.007 A 
ATOM     13  C   UNL     1      13.106  17.526  12.072  1.00  0.00     0.011 A 
ATOM     14  C   UNL     1      13.780  16.049  10.272  1.00  0.00     0.011 A 
ATOM     15  C   UNL     1      11.988  17.917  11.331  1.00  0.00     0.046 A 
ATOM     16  C   UNL     1      12.661  16.442   9.532  1.00  0.00     0.046 A 
ATOM     17  C   UNL     1      11.763  17.377  10.057  1.00  0.00     0.115 A 
BRANCH  17  18
ATOM     18  O   UNL     1      10.652  17.760   9.309  1.00  0.00    -0.508 OA
ATOM     19  H   UNL     1      10.417  17.298   8.438  1.00  0.00     0.293 HD
ENDBRANCH  17  18
ENDBRANCH   2  12
BRANCH   8  20
ATOM     20  O   UNL     1      18.615  13.301  15.104  1.00  0.00    -0.507 OA
ATOM     21  H   UNL     1      19.480  13.540  14.645  1.00  0.00     0.293 HD
ENDBRANCH   8  20
BRANCH   6  22
ATOM     22  O   UNL     1      16.321  16.009  18.349  1.00  0.00    -0.508 OA
ATOM     23  H   UNL     1      16.555  15.405  19.128  1.00  0.00     0.293 HD
ENDBRANCH   6  22
TORSDOF 4
ENDMDL
MODEL 6
REMARK VINA RESULT:    -6.201      2.176      4.011
REMARK INTER + INTRA:          -7.405
REMARK INTER:                  -7.104
REMARK INTRA:                  -0.301
REMARK UNBOUND:                -0.297
REMARK SMILES O=C1C[C@@H](c2ccc(O)cc2)Oc2cc(O)cc(O)c21
REMARK SMILES IDX 3 1 4 2 12 3 13 4 14 5 15 6 17 7 18 8 20 9 2 10 1 11 5 12
REMARK SMILES IDX 6 13 11 14 7 15 10 16 8 17 9 18 19 20 16 22
REMARK H PARENT 9 19 19 21 16 23
REMARK Flexibility Score: inf
ROOT
ATOM      1  C   UNL     1      16.247  15.813  10.385  1.00  0.00     0.131 C 
ATOM      2  C   UNL     1      15.656  14.612  11.134  1.00  0.00     0.211 C 
ATOM      3  O   UNL     1      14.439  14.986  11.777  1.00  0.00    -0.484 OA
ATOM      4  C   UNL     1      13.460  15.739  11.120  1.00  0.00     0.138 A 
ATOM      5  C   UNL     1      12.176  15.800  11.667  1.00  0.00     0.093 A 
ATOM      6  C   UNL     1      11.171  16.520  11.025  1.00  0.00     0.123 A 
ATOM      7  C   UNL     1      11.445  17.168   9.818  1.00  0.00     0.093 A 
ATOM      8  C   UNL     1      12.722  17.115   9.245  1.00  0.00     0.133 A 
ATOM      9  C   UNL     1      13.769  16.432   9.927  1.00  0.00     0.102 A 
ATOM     10  C   UNL     1      15.203  16.458   9.516  1.00  0.00     0.174 C 
ATOM     11  O   UNL     1      15.592  17.104   8.508  1.00  0.00    -0.294 OA
ENDROOT
BRANCH   2  12
ATOM     12  C   UNL     1      16.637  14.077  12.149  1.00  0.00    -0.007 A 
ATOM     13  C   UNL     1      17.631  13.158  11.769  1.00  0.00     0.011 A 
ATOM     14  C   UNL     1      16.530  14.450  13.501  1.00  0.00     0.011 A 
ATOM     15  C   UNL     1      18.516  12.642  12.720  1.00  0.00     0.046 A 
ATOM     16  C   UNL     1      17.417  13.933  14.448  1.00  0.00     0.046 A 
ATOM     17  C   UNL     1      18.414  13.030  14.062  1.00  0.00     0.115 A 
BRANCH  17  18
ATOM     18  O   UNL     1      19.291  12.523  15.018  1.00  0.00    -0.508 OA
ATOM     19  H   UNL     1      19.587  11.554  15.003  1.00  0.00     0.293 HD
ENDBRANCH  17  18
ENDBRANCH   2  12
BRANCH   8  20
ATOM     20  O   UNL     1      12.885  17.739   8.005  1.00  0.00    -0.507 OA
ATOM     21  H   UNL     1      12.467  18.620   7.750  1.00  0.00     0.293 HD
ENDBRANCH   8  20
BRANCH   6  22
ATOM     22  O   UNL     1       9.898  16.575  11.589  1.00  0.00    -0.508 OA
ATOM     23  H   UNL     1       9.539  15.819  12.161  1.00  0.00     0.293 HD
ENDBRANCH   6  22
TORSDOF 4
ENDMDL
MODEL 7
REMARK VINA RESULT:    -6.198      1.482      3.140
REMARK INTER + INTRA:          -7.401
REMARK INTER:                  -7.105
REMARK INTRA:                  -0.296
REMARK UNBOUND:                -0.297
REMARK SMILES O=C1C[C@@H](c2ccc(O)cc2)Oc2cc(O)cc(O)c21
REMARK SMILES IDX 3 1 4 2 12 3 13 4 14 5 15 6 17 7 18 8 20 9 2 10 1 11 5 12
REMARK SMILES IDX 6 13 11 14 7 15 10 16 8 17 9 18 19 20 16 22
REMARK H PARENT 9 19 19 21 16 23
REMARK Flexibility Score: inf
ROOT
ATOM      1  C   UNL     1      16.556  16.496  12.534  1.00  0.00     0.131 C 
ATOM      2  C   UNL     1      15.791  15.350  13.206  1.00  0.00     0.211 C 
ATOM      3  O   UNL     1      14.398  15.653  13.256  1.00  0.00    -0.484 OA
ATOM      4  C   UNL     1      13.717  16.171  12.151  1.00  0.00     0.138 A 
ATOM      5  C   UNL     1      12.320  16.145  12.146  1.00  0.00     0.093 A 
ATOM      6  C   UNL     1      11.610  16.630  11.050  1.00  0.00     0.123 A 
ATOM      7  C   UNL     1      12.301  17.128   9.941  1.00  0.00     0.093 A 
ATOM      8  C   UNL     1      13.702  17.157   9.919  1.00  0.00     0.133 A 
ATOM      9  C   UNL     1      14.431  16.719  11.060  1.00  0.00     0.102 A 
ATOM     10  C   UNL     1      15.906  16.870  11.230  1.00  0.00     0.174 C 
ATOM     11  O   UNL     1      16.622  17.410  10.347  1.00  0.00    -0.294 OA
ENDROOT
BRANCH   2  12
ATOM     12  C   UNL     1      16.318  15.097  14.598  1.00  0.00    -0.007 A 
ATOM     13  C   UNL     1      15.875  15.874  15.684  1.00  0.00     0.011 A 
ATOM     14  C   UNL     1      17.304  14.119  14.814  1.00  0.00     0.011 A 
ATOM     15  C   UNL     1      16.390  15.656  16.965  1.00  0.00     0.046 A 
ATOM     16  C   UNL     1      17.816  13.903  16.096  1.00  0.00     0.046 A 
ATOM     17  C   UNL     1      17.361  14.668  17.175  1.00  0.00     0.115 A 
BRANCH  17  18
ATOM     18  O   UNL     1      17.881  14.442  18.447  1.00  0.00    -0.508 OA
ATOM     19  H   UNL     1      18.588  15.049  18.845  1.00  0.00     0.293 HD
ENDBRANCH  17  18
ENDBRANCH   2  12
BRANCH   8  20
ATOM     20  O   UNL     1      14.305  17.612   8.743  1.00  0.00    -0.507 OA
ATOM     21  H   UNL     1      14.728  17.015   8.050  1.00  0.00     0.293 HD
ENDBRANCH   8  20
BRANCH   6  22
ATOM     22  O   UNL     1      10.217  16.601  11.065  1.00  0.00    -0.508 OA
ATOM     23  H   UNL     1       9.708  15.747  11.257  1.00  0.00     0.293 HD
ENDBRANCH   6  22
TORSDOF 4
ENDMDL
MODEL 8
REMARK VINA RESULT:    -6.111      1.775      7.109
REMARK INTER + INTRA:          -7.301
REMARK INTER:                  -6.998
REMARK INTRA:                  -0.303
REMARK UNBOUND:                -0.297
REMARK SMILES O=C1C[C@@H](c2ccc(O)cc2)Oc2cc(O)cc(O)c21
REMARK SMILES IDX 3 1 4 2 12 3 13 4 14 5 15 6 17 7 18 8 20 9 2 10 1 11 5 12
REMARK SMILES IDX 6 13 11 14 7 15 10 16 8 17 9 18 19 20 16 22
REMARK H PARENT 9 19 19 21 16 23
REMARK Flexibility Score: inf
ROOT
ATOM      1  C   UNL     1      16.840  14.348  11.395  1.00  0.00     0.131 C 
ATOM      2  C   UNL     1      16.474  15.824  11.595  1.00  0.00     0.211 C 
ATOM      3  O   UNL     1      15.859  16.009  12.868  1.00  0.00    -0.484 OA
ATOM      4  C   UNL     1      16.380  15.427  14.029  1.00  0.00     0.138 A 
ATOM      5  C   UNL     1      15.942  15.894  15.271  1.00  0.00     0.093 A 
ATOM      6  C   UNL     1      16.459  15.355  16.447  1.00  0.00     0.123 A 
ATOM      7  C   UNL     1      17.434  14.355  16.382  1.00  0.00     0.093 A 
ATOM      8  C   UNL     1      17.894  13.876  15.148  1.00  0.00     0.133 A 
ATOM      9  C   UNL     1      17.326  14.381  13.944  1.00  0.00     0.102 A 
ATOM     10  C   UNL     1      17.598  13.827  12.585  1.00  0.00     0.174 C 
ATOM     11  O   UNL     1      18.370  12.849  12.411  1.00  0.00    -0.294 OA
ENDROOT
BRANCH   2  12
ATOM     12  C   UNL     1      15.552  16.300  10.498  1.00  0.00    -0.007 A 
ATOM     13  C   UNL     1      16.055  16.598   9.219  1.00  0.00     0.011 A 
ATOM     14  C   UNL     1      14.187  16.508  10.762  1.00  0.00     0.011 A 
ATOM     15  C   UNL     1      15.202  17.069   8.217  1.00  0.00     0.046 A 
ATOM     16  C   UNL     1      13.336  16.978   9.758  1.00  0.00     0.046 A 
ATOM     17  C   UNL     1      13.839  17.258   8.483  1.00  0.00     0.115 A 
BRANCH  17  18
ATOM     18  O   UNL     1      12.980  17.727   7.492  1.00  0.00    -0.508 OA
ATOM     19  H   UNL     1      13.270  17.780   6.522  1.00  0.00     0.293 HD
ENDBRANCH  17  18
ENDBRANCH   2  12
BRANCH   8  20
ATOM     20  O   UNL     1      18.915  12.923  15.182  1.00  0.00    -0.507 OA
ATOM     21  H   UNL     1      19.115  12.273  14.438  1.00  0.00     0.293 HD
ENDBRANCH   8  20
BRANCH   6  22
ATOM     22  O   UNL     1      16.006  15.828  17.677  1.00  0.00    -0.508 OA
ATOM     23  H   UNL     1      15.541  15.219  18.339  1.00  0.00     0.293 HD
ENDBRANCH   6  22
TORSDOF 4
ENDMDL
MODEL 9
REMARK VINA RESULT:    -5.971      5.945      8.979
REMARK INTER + INTRA:          -7.141
REMARK INTER:                  -6.828
REMARK INTRA:                  -0.313
REMARK UNBOUND:                -0.297
REMARK SMILES O=C1C[C@@H](c2ccc(O)cc2)Oc2cc(O)cc(O)c21
REMARK SMILES IDX 3 1 4 2 12 3 13 4 14 5 15 6 17 7 18 8 20 9 2 10 1 11 5 12
REMARK SMILES IDX 6 13 11 14 7 15 10 16 8 17 9 18 19 20 16 22
REMARK H PARENT 9 19 19 21 16 23
REMARK Flexibility Score: inf
ROOT
ATOM      1  C   UNL     1      16.821  10.219  18.600  1.00  0.00     0.131 C 
ATOM      2  C   UNL     1      16.226  10.257  17.186  1.00  0.00     0.211 C 
ATOM      3  O   UNL     1      15.581  11.509  16.959  1.00  0.00    -0.484 OA
ATOM      4  C   UNL     1      16.178  12.721  17.319  1.00  0.00     0.138 A 
ATOM      5  C   UNL     1      15.664  13.909  16.791  1.00  0.00     0.093 A 
ATOM      6  C   UNL     1      16.250  15.131  17.109  1.00  0.00     0.123 A 
ATOM      7  C   UNL     1      17.370  15.168  17.944  1.00  0.00     0.093 A 
ATOM      8  C   UNL     1      17.909  13.990  18.479  1.00  0.00     0.133 A 
ATOM      9  C   UNL     1      17.278  12.744  18.207  1.00  0.00     0.102 A 
ATOM     10  C   UNL     1      17.642  11.452  18.859  1.00  0.00     0.174 C 
ATOM     11  O   UNL     1      18.560  11.379  19.717  1.00  0.00    -0.294 OA
ENDROOT
BRANCH   2  12
ATOM     12  C   UNL     1      15.249   9.124  16.985  1.00  0.00    -0.007 A 
ATOM     13  C   UNL     1      14.192   9.246  16.065  1.00  0.00     0.011 A 
ATOM     14  C   UNL     1      15.352   7.956  17.759  1.00  0.00     0.011 A 
ATOM     15  C   UNL     1      13.272   8.206  15.906  1.00  0.00     0.046 A 
ATOM     16  C   UNL     1      14.431   6.917  17.596  1.00  0.00     0.046 A 
ATOM     17  C   UNL     1      13.390   7.037  16.670  1.00  0.00     0.115 A 
BRANCH  17  18
ATOM     18  O   UNL     1      12.479   5.994  16.519  1.00  0.00    -0.508 OA
ATOM     19  H   UNL     1      11.741   5.835  17.195  1.00  0.00     0.293 HD
ENDBRANCH  17  18
ENDBRANCH   2  12
BRANCH   8  20
ATOM     20  O   UNL     1      19.066  14.120  19.250  1.00  0.00    -0.507 OA
ATOM     21  H   UNL     1      19.349  13.472  19.969  1.00  0.00     0.293 HD
ENDBRANCH   8  20
BRANCH   6  22
ATOM     22  O   UNL     1      15.720  16.306  16.578  1.00  0.00    -0.508 OA
ATOM     23  H   UNL     1      15.783  17.187  17.074  1.00  0.00     0.293 HD
ENDBRANCH   6  22
TORSDOF 4
ENDMDL
