MODEL 1
REMARK VINA RESULT:     7.000      0.000      0.000
REMARK INTER + INTRA:           8.865
REMARK INTER:                   9.046
REMARK INTRA:                  -0.181
REMARK UNBOUND:                -0.181
REMARK SMILES CCCCCCC(=O)[O-]
REMARK SMILES IDX 5 1 6 2 7 3 8 4 9 5 4 6 3 7 2 8 1 9
REMARK H PARENT
REMARK Flexibility Score: inf
ROOT
ATOM      1  C   UNL     1     -13.841  -7.607 -22.170  1.00  0.00     0.006 C 
ENDROOT
BRANCH   1   2
ATOM      2  C   UNL     1     -14.670  -7.938 -23.415  1.00  0.00     0.053 C 
BRANCH   2   3
ATOM      3  C   UNL     1     -14.796  -6.737 -24.297  1.00  0.00     0.041 C 
ATOM      4  O   UNL     1     -15.741  -6.655 -25.125  1.00  0.00    -0.550 OA
ATOM      5  O   UNL     1     -13.841  -5.730 -24.241  1.00  0.00    -0.550 OA
ENDBRANCH   2   3
ENDBRANCH   1   2
BRANCH   1   6
ATOM      6  C   UNL     1     -12.593  -8.500 -22.087  1.00  0.00     0.000 C 
BRANCH   6   7
ATOM      7  C   UNL     1     -12.259  -8.918 -20.648  1.00  0.00    -0.000 C 
BRANCH   7   8
ATOM      8  C   UNL     1     -12.743  -7.897 -19.607  1.00  0.00    -0.003 C 
ATOM      9  C   UNL     1     -12.750  -8.501 -18.206  1.00  0.00     0.004 C 
ENDBRANCH   7   8
ENDBRANCH   6   7
ENDBRANCH   1   6
TORSDOF 5
ENDMDL
MODEL 2
REMARK VINA RESULT:     7.258      1.000      1.342
REMARK INTER + INTRA:           9.200
REMARK INTER:                   9.349
REMARK INTRA:                  -0.149
REMARK UNBOUND:                -0.181
REMARK SMILES CCCCCCC(=O)[O-]
REMARK SMILES IDX 5 1 6 2 7 3 8 4 9 5 4 6 3 7 2 8 1 9
REMARK H PARENT
REMARK Flexibility Score: inf
ROOT
ATOM      1  C   UNL     1     -13.406  -7.889 -22.129  1.00  0.00     0.006 C 
ENDROOT
BRANCH   1   2
ATOM      2  C   UNL     1     -14.175  -8.559 -23.271  1.00  0.00     0.053 C 
BRANCH   2   3
ATOM      3  C   UNL     1     -15.324  -7.704 -23.704  1.00  0.00     0.041 C 
ATOM      4  O   UNL     1     -15.216  -6.963 -24.716  1.00  0.00    -0.550 OA
ATOM      5  O   UNL     1     -16.496  -7.687 -22.960  1.00  0.00    -0.550 OA
ENDBRANCH   2   3
ENDBRANCH   1   2
BRANCH   1   6
ATOM      6  C   UNL     1     -12.131  -8.676 -21.789  1.00  0.00     0.000 C 
BRANCH   6   7
ATOM      7  C   UNL     1     -12.062  -9.082 -20.309  1.00  0.00    -0.000 C 
BRANCH   7   8
ATOM      8  C   UNL     1     -12.696  -8.038 -19.379  1.00  0.00    -0.003 C 
ATOM      9  C   UNL     1     -12.814  -8.570 -17.954  1.00  0.00     0.004 C 
ENDBRANCH   7   8
ENDBRANCH   6   7
ENDBRANCH   1   6
TORSDOF 5
ENDMDL
MODEL 3
REMARK VINA RESULT:     8.261      2.747      5.035
REMARK INTER + INTRA:          10.495
REMARK INTER:                  10.690
REMARK INTRA:                  -0.195
REMARK UNBOUND:                -0.181
REMARK SMILES CCCCCCC(=O)[O-]
REMARK SMILES IDX 5 1 6 2 7 3 8 4 9 5 4 6 3 7 2 8 1 9
REMARK H PARENT
REMARK Flexibility Score: inf
ROOT
ATOM      1  C   UNL     1     -12.690  -8.062 -22.250  1.00  0.00     0.006 C 
ENDROOT
BRANCH   1   2
ATOM      2  C   UNL     1     -12.331  -8.929 -21.039  1.00  0.00     0.053 C 
BRANCH   2   3
ATOM      3  C   UNL     1     -12.769  -8.267 -19.771  1.00  0.00     0.041 C 
ATOM      4  O   UNL     1     -12.542  -8.813 -18.659  1.00  0.00    -0.550 OA
ATOM      5  O   UNL     1     -13.473  -7.070 -19.818  1.00  0.00    -0.550 OA
ENDBRANCH   2   3
ENDBRANCH   1   2
BRANCH   1   6
ATOM      6  C   UNL     1     -13.939  -8.604 -22.962  1.00  0.00     0.000 C 
BRANCH   6   7
ATOM      7  C   UNL     1     -15.003  -7.521 -23.197  1.00  0.00    -0.000 C 
BRANCH   7   8
ATOM      8  C   UNL     1     -15.259  -7.255 -24.687  1.00  0.00    -0.003 C 
ATOM      9  C   UNL     1     -14.727  -5.886 -25.101  1.00  0.00     0.004 C 
ENDBRANCH   7   8
ENDBRANCH   6   7
ENDBRANCH   1   6
TORSDOF 5
ENDMDL
MODEL 4
REMARK VINA RESULT:     8.969     22.901     24.125
REMARK INTER + INTRA:          11.410
REMARK INTER:                  11.022
REMARK INTRA:                   0.388
REMARK UNBOUND:                -0.181
REMARK SMILES CCCCCCC(=O)[O-]
REMARK SMILES IDX 5 1 6 2 7 3 8 4 9 5 4 6 3 7 2 8 1 9
REMARK H PARENT
REMARK Flexibility Score: inf
ROOT
ATOM      1  C   UNL     1     -29.889 -19.786  -9.836  1.00  0.00     0.006 C 
ENDROOT
BRANCH   1   2
ATOM      2  C   UNL     1     -31.125 -20.041  -8.968  1.00  0.00     0.053 C 
BRANCH   2   3
ATOM      3  C   UNL     1     -30.851 -19.674  -7.544  1.00  0.00     0.041 C 
ATOM      4  O   UNL     1     -30.331 -18.562  -7.265  1.00  0.00    -0.550 OA
ATOM      5  O   UNL     1     -31.124 -20.581  -6.528  1.00  0.00    -0.550 OA
ENDBRANCH   2   3
ENDBRANCH   1   2
BRANCH   1   6
ATOM      6  C   UNL     1     -28.607 -19.811  -8.989  1.00  0.00     0.000 C 
BRANCH   6   7
ATOM      7  C   UNL     1     -27.363 -19.390  -9.785  1.00  0.00    -0.000 C 
BRANCH   7   8
ATOM      8  C   UNL     1     -26.324 -18.663  -8.919  1.00  0.00    -0.003 C 
ATOM      9  C   UNL     1     -26.607 -18.866  -7.434  1.00  0.00     0.004 C 
ENDBRANCH   7   8
ENDBRANCH   6   7
ENDBRANCH   1   6
TORSDOF 5
ENDMDL
MODEL 5
REMARK VINA RESULT:     9.073      8.529      9.634
REMARK INTER + INTRA:          11.544
REMARK INTER:                  11.717
REMARK INTRA:                  -0.173
REMARK UNBOUND:                -0.181
REMARK SMILES CCCCCCC(=O)[O-]
REMARK SMILES IDX 5 1 6 2 7 3 8 4 9 5 4 6 3 7 2 8 1 9
REMARK H PARENT
REMARK Flexibility Score: inf
ROOT
ATOM      1  C   UNL     1     -21.011 -13.114 -24.745  1.00  0.00     0.006 C 
ENDROOT
BRANCH   1   2
ATOM      2  C   UNL     1     -21.731 -14.423 -24.408  1.00  0.00     0.053 C 
BRANCH   2   3
ATOM      3  C   UNL     1     -22.151 -14.438 -22.973  1.00  0.00     0.041 C 
ATOM      4  O   UNL     1     -22.889 -15.361 -22.538  1.00  0.00    -0.550 OA
ATOM      5  O   UNL     1     -21.770 -13.405 -22.126  1.00  0.00    -0.550 OA
ENDBRANCH   2   3
ENDBRANCH   1   2
BRANCH   1   6
ATOM      6  C   UNL     1     -19.540 -13.372 -25.103  1.00  0.00     0.000 C 
BRANCH   6   7
ATOM      7  C   UNL     1     -18.570 -12.866 -24.025  1.00  0.00    -0.000 C 
BRANCH   7   8
ATOM      8  C   UNL     1     -17.275 -13.690 -23.959  1.00  0.00    -0.003 C 
ATOM      9  C   UNL     1     -16.515 -13.417 -22.665  1.00  0.00     0.004 C 
ENDBRANCH   7   8
ENDBRANCH   6   7
ENDBRANCH   1   6
TORSDOF 5
ENDMDL
MODEL 6
REMARK VINA RESULT:     9.271     16.734     17.610
REMARK INTER + INTRA:          11.800
REMARK INTER:                  11.900
REMARK INTRA:                  -0.100
REMARK UNBOUND:                -0.181
REMARK SMILES CCCCCCC(=O)[O-]
REMARK SMILES IDX 5 1 6 2 7 3 8 4 9 5 4 6 3 7 2 8 1 9
REMARK H PARENT
REMARK Flexibility Score: inf
ROOT
ATOM      1  C   UNL     1     -26.979  -4.367 -11.632  1.00  0.00     0.006 C 
ENDROOT
BRANCH   1   2
ATOM      2  C   UNL     1     -27.777  -3.288 -10.893  1.00  0.00     0.053 C 
BRANCH   2   3
ATOM      3  C   UNL     1     -29.244  -3.565 -10.983  1.00  0.00     0.041 C 
ATOM      4  O   UNL     1     -29.974  -2.875 -11.743  1.00  0.00    -0.550 OA
ATOM      5  O   UNL     1     -29.815  -4.552 -10.190  1.00  0.00    -0.550 OA
ENDBRANCH   2   3
ENDBRANCH   1   2
BRANCH   1   6
ATOM      6  C   UNL     1     -25.576  -3.860 -11.999  1.00  0.00     0.000 C 
BRANCH   6   7
ATOM      7  C   UNL     1     -25.104  -4.366 -13.370  1.00  0.00    -0.000 C 
BRANCH   7   8
ATOM      8  C   UNL     1     -24.706  -3.224 -14.317  1.00  0.00    -0.003 C 
ATOM      9  C   UNL     1     -24.901  -3.627 -15.776  1.00  0.00     0.004 C 
ENDBRANCH   7   8
ENDBRANCH   6   7
ENDBRANCH   1   6
TORSDOF 5
ENDMDL
MODEL 7
REMARK VINA RESULT:     9.794      7.576      8.923
REMARK INTER + INTRA:          12.476
REMARK INTER:                  12.645
REMARK INTRA:                  -0.169
REMARK UNBOUND:                -0.181
REMARK SMILES CCCCCCC(=O)[O-]
REMARK SMILES IDX 5 1 6 2 7 3 8 4 9 5 4 6 3 7 2 8 1 9
REMARK H PARENT
REMARK Flexibility Score: inf
ROOT
ATOM      1  C   UNL     1     -18.601 -12.930 -23.850  1.00  0.00     0.006 C 
ENDROOT
BRANCH   1   2
ATOM      2  C   UNL     1     -17.312 -13.742 -24.010  1.00  0.00     0.053 C 
BRANCH   2   3
ATOM      3  C   UNL     1     -16.335 -13.396 -22.932  1.00  0.00     0.041 C 
ATOM      4  O   UNL     1     -16.548 -13.756 -21.744  1.00  0.00    -0.550 OA
ATOM      5  O   UNL     1     -15.214 -12.631 -23.228  1.00  0.00    -0.550 OA
ENDBRANCH   2   3
ENDBRANCH   1   2
BRANCH   1   6
ATOM      6  C   UNL     1     -19.455 -12.997 -25.125  1.00  0.00     0.000 C 
BRANCH   6   7
ATOM      7  C   UNL     1     -20.822 -13.656 -24.888  1.00  0.00    -0.000 C 
BRANCH   7   8
ATOM      8  C   UNL     1     -21.380 -13.374 -23.485  1.00  0.00    -0.003 C 
ATOM      9  C   UNL     1     -22.295 -14.502 -23.020  1.00  0.00     0.004 C 
ENDBRANCH   7   8
ENDBRANCH   6   7
ENDBRANCH   1   6
TORSDOF 5
ENDMDL
MODEL 8
REMARK VINA RESULT:     9.803     17.116     18.122
REMARK INTER + INTRA:          12.488
REMARK INTER:                  12.728
REMARK INTRA:                  -0.240
REMARK UNBOUND:                -0.181
REMARK SMILES CCCCCCC(=O)[O-]
REMARK SMILES IDX 5 1 6 2 7 3 8 4 9 5 4 6 3 7 2 8 1 9
REMARK H PARENT
REMARK Flexibility Score: inf
ROOT
ATOM      1  C   UNL     1     -26.090  -5.210 -11.585  1.00  0.00     0.006 C 
ENDROOT
BRANCH   1   2
ATOM      2  C   UNL     1     -26.956  -6.422 -11.229  1.00  0.00     0.053 C 
BRANCH   2   3
ATOM      3  C   UNL     1     -26.101  -7.574 -10.809  1.00  0.00     0.041 C 
ATOM      4  O   UNL     1     -26.626  -8.686 -10.536  1.00  0.00    -0.550 OA
ATOM      5  O   UNL     1     -24.730  -7.408 -10.669  1.00  0.00    -0.550 OA
ENDBRANCH   2   3
ENDBRANCH   1   2
BRANCH   1   6
ATOM      6  C   UNL     1     -26.959  -4.022 -12.023  1.00  0.00     0.000 C 
BRANCH   6   7
ATOM      7  C   UNL     1     -27.715  -3.378 -10.851  1.00  0.00    -0.000 C 
BRANCH   7   8
ATOM      8  C   UNL     1     -29.236  -3.379 -11.055  1.00  0.00    -0.003 C 
ATOM      9  C   UNL     1     -29.911  -4.416 -10.162  1.00  0.00     0.004 C 
ENDBRANCH   7   8
ENDBRANCH   6   7
ENDBRANCH   1   6
TORSDOF 5
ENDMDL
