MODEL 1
REMARK VINA RESULT:    -4.309      0.000      0.000
REMARK INTER + INTRA:          -5.556
REMARK INTER:                  -5.316
REMARK INTRA:                  -0.239
REMARK UNBOUND:                -0.239
REMARK SMILES C=CC[C@H](C)C(=O)CC
REMARK SMILES IDX 4 1 5 2 6 3 7 4 8 5 9 6 3 7 2 8 1 9
REMARK H PARENT
REMARK Flexibility Score: inf
ROOT
ATOM      1  C   UNL     1      29.383  57.122  10.704  1.00  0.00     0.057 C 
ATOM      2  C   UNL     1      30.883  56.831  10.591  1.00  0.00     0.016 C 
ENDROOT
BRANCH   1   3
ATOM      3  C   UNL     1      29.136  58.152  11.789  1.00  0.00     0.135 C 
ATOM      4  O   UNL     1      29.808  59.175  11.817  1.00  0.00    -0.299 OA
BRANCH   3   5
ATOM      5  C   UNL     1      28.064  57.950  12.827  1.00  0.00     0.072 C 
ATOM      6  C   UNL     1      28.259  58.897  14.006  1.00  0.00     0.012 C 
ENDBRANCH   3   5
ENDBRANCH   1   3
BRANCH   1   7
ATOM      7  C   UNL     1      28.599  55.822  10.978  1.00  0.00     0.038 C 
BRANCH   7   8
ATOM      8  C   UNL     1      29.511  54.654  11.252  1.00  0.00    -0.034 C 
ATOM      9  C   UNL     1      29.175  53.406  10.917  1.00  0.00     0.004 C 
ENDBRANCH   7   8
ENDBRANCH   1   7
TORSDOF 4
ENDMDL
MODEL 2
REMARK VINA RESULT:    -4.306      9.139     10.461
REMARK INTER + INTRA:          -5.552
REMARK INTER:                  -5.053
REMARK INTRA:                  -0.499
REMARK UNBOUND:                -0.239
REMARK SMILES C=CC[C@H](C)C(=O)CC
REMARK SMILES IDX 4 1 5 2 6 3 7 4 8 5 9 6 3 7 2 8 1 9
REMARK H PARENT
REMARK Flexibility Score: inf
ROOT
ATOM      1  C   UNL     1      24.324  53.199  20.329  1.00  0.00     0.057 C 
ATOM      2  C   UNL     1      25.281  52.658  21.397  1.00  0.00     0.016 C 
ENDROOT
BRANCH   1   3
ATOM      3  C   UNL     1      23.995  52.108  19.329  1.00  0.00     0.135 C 
ATOM      4  O   UNL     1      23.142  52.308  18.474  1.00  0.00    -0.299 OA
BRANCH   3   5
ATOM      5  C   UNL     1      24.712  50.784  19.355  1.00  0.00     0.072 C 
ATOM      6  C   UNL     1      25.615  50.627  18.137  1.00  0.00     0.012 C 
ENDBRANCH   3   5
ENDBRANCH   1   3
BRANCH   1   7
ATOM      7  C   UNL     1      24.934  54.432  19.631  1.00  0.00     0.038 C 
BRANCH   7   8
ATOM      8  C   UNL     1      26.441  54.397  19.627  1.00  0.00    -0.034 C 
ATOM      9  C   UNL     1      27.135  54.111  18.522  1.00  0.00     0.004 C 
ENDBRANCH   7   8
ENDBRANCH   1   7
TORSDOF 4
ENDMDL
MODEL 3
REMARK VINA RESULT:    -4.292      5.589      6.763
REMARK INTER + INTRA:          -5.534
REMARK INTER:                  -5.025
REMARK INTRA:                  -0.510
REMARK UNBOUND:                -0.239
REMARK SMILES C=CC[C@H](C)C(=O)CC
REMARK SMILES IDX 4 1 5 2 6 3 7 4 8 5 9 6 3 7 2 8 1 9
REMARK H PARENT
REMARK Flexibility Score: inf
ROOT
ATOM      1  C   UNL     1      24.234  52.905   7.394  1.00  0.00     0.057 C 
ATOM      2  C   UNL     1      25.170  53.472   6.322  1.00  0.00     0.016 C 
ENDROOT
BRANCH   1   3
ATOM      3  C   UNL     1      23.855  53.995   8.378  1.00  0.00     0.135 C 
ATOM      4  O   UNL     1      22.918  53.818   9.145  1.00  0.00    -0.299 OA
BRANCH   3   5
ATOM      5  C   UNL     1      24.623  55.289   8.444  1.00  0.00     0.072 C 
ATOM      6  C   UNL     1      25.568  55.303   9.641  1.00  0.00     0.012 C 
ENDBRANCH   3   5
ENDBRANCH   1   3
BRANCH   1   7
ATOM      7  C   UNL     1      24.893  51.709   8.111  1.00  0.00     0.038 C 
BRANCH   7   8
ATOM      8  C   UNL     1      26.397  51.761   8.039  1.00  0.00    -0.034 C 
ATOM      9  C   UNL     1      27.148  51.929   9.130  1.00  0.00     0.004 C 
ENDBRANCH   7   8
ENDBRANCH   1   7
TORSDOF 4
ENDMDL
MODEL 4
REMARK VINA RESULT:    -4.241      7.183      9.313
REMARK INTER + INTRA:          -5.472
REMARK INTER:                  -5.067
REMARK INTRA:                  -0.405
REMARK UNBOUND:                -0.239
REMARK SMILES C=CC[C@H](C)C(=O)CC
REMARK SMILES IDX 4 1 5 2 6 3 7 4 8 5 9 6 3 7 2 8 1 9
REMARK H PARENT
REMARK Flexibility Score: inf
ROOT
ATOM      1  C   UNL     1      29.401  49.565  16.940  1.00  0.00     0.057 C 
ATOM      2  C   UNL     1      30.894  49.271  16.758  1.00  0.00     0.016 C 
ENDROOT
BRANCH   1   3
ATOM      3  C   UNL     1      28.579  48.608  16.098  1.00  0.00     0.135 C 
ATOM      4  O   UNL     1      27.363  48.732  16.055  1.00  0.00    -0.299 OA
BRANCH   3   5
ATOM      5  C   UNL     1      29.234  47.514  15.297  1.00  0.00     0.072 C 
ATOM      6  C   UNL     1      28.491  47.275  13.987  1.00  0.00     0.012 C 
ENDBRANCH   3   5
ENDBRANCH   1   3
BRANCH   1   7
ATOM      7  C   UNL     1      29.091  51.033  16.581  1.00  0.00     0.038 C 
BRANCH   7   8
ATOM      8  C   UNL     1      29.673  51.429  15.249  1.00  0.00    -0.034 C 
ATOM      9  C   UNL     1      28.907  51.591  14.167  1.00  0.00     0.004 C 
ENDBRANCH   7   8
ENDBRANCH   1   7
TORSDOF 4
ENDMDL
MODEL 5
REMARK VINA RESULT:    -4.229      8.011      9.171
REMARK INTER + INTRA:          -5.457
REMARK INTER:                  -5.078
REMARK INTRA:                  -0.378
REMARK UNBOUND:                -0.239
REMARK SMILES C=CC[C@H](C)C(=O)CC
REMARK SMILES IDX 4 1 5 2 6 3 7 4 8 5 9 6 3 7 2 8 1 9
REMARK H PARENT
REMARK Flexibility Score: inf
ROOT
ATOM      1  C   UNL     1      28.460  50.266  16.043  1.00  0.00     0.057 C 
ATOM      2  C   UNL     1      27.287  50.977  16.727  1.00  0.00     0.016 C 
ENDROOT
BRANCH   1   3
ATOM      3  C   UNL     1      27.990  49.614  14.757  1.00  0.00     0.135 C 
ATOM      4  O   UNL     1      28.009  50.252  13.713  1.00  0.00    -0.299 OA
BRANCH   3   5
ATOM      5  C   UNL     1      27.516  48.184  14.735  1.00  0.00     0.072 C 
ATOM      6  C   UNL     1      28.420  47.322  13.861  1.00  0.00     0.012 C 
ENDBRANCH   3   5
ENDBRANCH   1   3
BRANCH   1   7
ATOM      7  C   UNL     1      29.095  49.232  16.994  1.00  0.00     0.038 C 
BRANCH   7   8
ATOM      8  C   UNL     1      30.601  49.272  16.955  1.00  0.00    -0.034 C 
ATOM      9  C   UNL     1      31.290  48.817  15.905  1.00  0.00     0.004 C 
ENDBRANCH   7   8
ENDBRANCH   1   7
TORSDOF 4
ENDMDL
MODEL 6
REMARK VINA RESULT:    -4.153      1.798      2.778
REMARK INTER + INTRA:          -5.363
REMARK INTER:                  -4.868
REMARK INTRA:                  -0.495
REMARK UNBOUND:                -0.239
REMARK SMILES C=CC[C@H](C)C(=O)CC
REMARK SMILES IDX 4 1 5 2 6 3 7 4 8 5 9 6 3 7 2 8 1 9
REMARK H PARENT
REMARK Flexibility Score: inf
ROOT
ATOM      1  C   UNL     1      27.813  55.619  11.606  1.00  0.00     0.057 C 
ATOM      2  C   UNL     1      26.980  56.329  10.534  1.00  0.00     0.016 C 
ENDROOT
BRANCH   1   3
ATOM      3  C   UNL     1      27.770  56.408  12.900  1.00  0.00     0.135 C 
ATOM      4  O   UNL     1      28.126  55.878  13.944  1.00  0.00    -0.299 OA
BRANCH   3   5
ATOM      5  C   UNL     1      27.314  57.844  12.924  1.00  0.00     0.072 C 
ATOM      6  C   UNL     1      28.411  58.756  13.461  1.00  0.00     0.012 C 
ENDBRANCH   3   5
ENDBRANCH   1   3
BRANCH   1   7
ATOM      7  C   UNL     1      29.263  55.419  11.120  1.00  0.00     0.038 C 
BRANCH   7   8
ATOM      8  C   UNL     1      29.872  56.697  10.603  1.00  0.00    -0.034 C 
ATOM      9  C   UNL     1      30.983  57.213  11.136  1.00  0.00     0.004 C 
ENDBRANCH   7   8
ENDBRANCH   1   7
TORSDOF 4
ENDMDL
MODEL 7
REMARK VINA RESULT:    -4.069      8.469      9.361
REMARK INTER + INTRA:          -5.259
REMARK INTER:                  -4.964
REMARK INTRA:                  -0.295
REMARK UNBOUND:                -0.239
REMARK SMILES C=CC[C@H](C)C(=O)CC
REMARK SMILES IDX 4 1 5 2 6 3 7 4 8 5 9 6 3 7 2 8 1 9
REMARK H PARENT
REMARK Flexibility Score: inf
ROOT
ATOM      1  C   UNL     1      28.332  47.855  14.926  1.00  0.00     0.057 C 
ATOM      2  C   UNL     1      28.313  47.146  13.568  1.00  0.00     0.016 C 
ENDROOT
BRANCH   1   3
ATOM      3  C   UNL     1      27.820  49.274  14.775  1.00  0.00     0.135 C 
ATOM      4  O   UNL     1      28.372  50.037  13.994  1.00  0.00    -0.299 OA
BRANCH   3   5
ATOM      5  C   UNL     1      26.628  49.761  15.558  1.00  0.00     0.072 C 
ATOM      6  C   UNL     1      25.433  48.833  15.368  1.00  0.00     0.012 C 
ENDBRANCH   3   5
ENDBRANCH   1   3
BRANCH   1   7
ATOM      7  C   UNL     1      29.752  47.834  15.528  1.00  0.00     0.038 C 
BRANCH   7   8
ATOM      8  C   UNL     1      29.857  48.680  16.770  1.00  0.00    -0.034 C 
ATOM      9  C   UNL     1      30.895  49.493  16.982  1.00  0.00     0.004 C 
ENDBRANCH   7   8
ENDBRANCH   1   7
TORSDOF 4
ENDMDL
MODEL 8
REMARK VINA RESULT:    -4.054      8.925      9.837
REMARK INTER + INTRA:          -5.241
REMARK INTER:                  -4.875
REMARK INTRA:                  -0.366
REMARK UNBOUND:                -0.239
REMARK SMILES C=CC[C@H](C)C(=O)CC
REMARK SMILES IDX 4 1 5 2 6 3 7 4 8 5 9 6 3 7 2 8 1 9
REMARK H PARENT
REMARK Flexibility Score: inf
ROOT
ATOM      1  C   UNL     1      25.299  52.540  19.957  1.00  0.00     0.057 C 
ATOM      2  C   UNL     1      25.322  52.303  21.471  1.00  0.00     0.016 C 
ENDROOT
BRANCH   1   3
ATOM      3  C   UNL     1      25.548  54.005  19.659  1.00  0.00     0.135 C 
ATOM      4  O   UNL     1      24.620  54.801  19.716  1.00  0.00    -0.299 OA
BRANCH   3   5
ATOM      5  C   UNL     1      26.924  54.507  19.308  1.00  0.00     0.072 C 
ATOM      6  C   UNL     1      27.434  53.857  18.027  1.00  0.00     0.012 C 
ENDBRANCH   3   5
ENDBRANCH   1   3
BRANCH   1   7
ATOM      7  C   UNL     1      23.960  52.066  19.356  1.00  0.00     0.038 C 
BRANCH   7   8
ATOM      8  C   UNL     1      24.109  50.793  18.564  1.00  0.00    -0.034 C 
ATOM      9  C   UNL     1      25.302  50.358  18.150  1.00  0.00     0.004 C 
ENDBRANCH   7   8
ENDBRANCH   1   7
TORSDOF 4
ENDMDL
MODEL 9
REMARK VINA RESULT:    -4.021      8.895      9.988
REMARK INTER + INTRA:          -5.200
REMARK INTER:                  -4.750
REMARK INTRA:                  -0.450
REMARK UNBOUND:                -0.239
REMARK SMILES C=CC[C@H](C)C(=O)CC
REMARK SMILES IDX 4 1 5 2 6 3 7 4 8 5 9 6 3 7 2 8 1 9
REMARK H PARENT
REMARK Flexibility Score: inf
ROOT
ATOM      1  C   UNL     1      25.305  53.601  19.424  1.00  0.00     0.057 C 
ATOM      2  C   UNL     1      24.226  54.642  19.736  1.00  0.00     0.016 C 
ENDROOT
BRANCH   1   3
ATOM      3  C   UNL     1      25.195  52.437  20.389  1.00  0.00     0.135 C 
ATOM      4  O   UNL     1      25.335  52.630  21.589  1.00  0.00    -0.299 OA
BRANCH   3   5
ATOM      5  C   UNL     1      24.897  51.044  19.899  1.00  0.00     0.072 C 
ATOM      6  C   UNL     1      24.444  51.061  18.444  1.00  0.00     0.012 C 
ENDBRANCH   3   5
ENDBRANCH   1   3
BRANCH   1   7
ATOM      7  C   UNL     1      26.707  54.243  19.480  1.00  0.00     0.038 C 
BRANCH   7   8
ATOM      8  C   UNL     1      27.423  54.164  18.156  1.00  0.00    -0.034 C 
ATOM      9  C   UNL     1      27.443  53.041  17.433  1.00  0.00     0.004 C 
ENDBRANCH   7   8
ENDBRANCH   1   7
TORSDOF 4
ENDMDL
