MODEL 1
REMARK VINA RESULT:    -3.293      0.000      0.000
REMARK INTER + INTRA:          -9.007
REMARK INTER:                  -6.373
REMARK INTRA:                  -2.634
REMARK UNBOUND:                -2.634
REMARK SMILES CCCCCCCCCCCCCCCCCC(=O)[O-]
REMARK SMILES IDX 10 1 11 2 12 3 13 4 14 5 15 6 16 7 17 8 18 9 19 10 20 11
REMARK SMILES IDX 9 12 8 13 7 14 6 15 5 16 4 17 3 18 2 19 1 20
REMARK H PARENT
REMARK Flexibility Score: inf
ROOT
ATOM      1  C   UNL     1      30.550  47.042   7.914  1.00  0.00     0.000 C 
ENDROOT
BRANCH   1   2
ATOM      2  C   UNL     1      29.613  47.584   6.822  1.00  0.00     0.000 C 
BRANCH   2   3
ATOM      3  C   UNL     1      28.189  47.862   7.338  1.00  0.00     0.000 C 
BRANCH   3   4
ATOM      4  C   UNL     1      28.000  47.729   8.863  1.00  0.00     0.000 C 
BRANCH   4   5
ATOM      5  C   UNL     1      26.542  47.588   9.333  1.00  0.00     0.000 C 
BRANCH   5   6
ATOM      6  C   UNL     1      26.194  46.157   9.781  1.00  0.00     0.000 C 
BRANCH   6   7
ATOM      7  C   UNL     1      25.218  45.457   8.815  1.00  0.00     0.006 C 
BRANCH   7   8
ATOM      8  C   UNL     1      25.893  44.904   7.550  1.00  0.00     0.053 C 
BRANCH   8   9
ATOM      9  C   UNL     1      27.074  44.041   7.866  1.00  0.00     0.041 C 
ATOM     10  O   UNL     1      28.222  44.364   7.460  1.00  0.00    -0.550 OA
ATOM     11  O   UNL     1      26.910  42.887   8.622  1.00  0.00    -0.550 OA
ENDBRANCH   8   9
ENDBRANCH   7   8
ENDBRANCH   6   7
ENDBRANCH   5   6
ENDBRANCH   4   5
ENDBRANCH   3   4
ENDBRANCH   2   3
ENDBRANCH   1   2
BRANCH   1  12
ATOM     12  C   UNL     1      31.805  47.912   8.115  1.00  0.00     0.000 C 
BRANCH  12  13
ATOM     13  C   UNL     1      31.920  49.119   7.166  1.00  0.00    -0.000 C 
BRANCH  13  14
ATOM     14  C   UNL     1      32.684  50.300   7.791  1.00  0.00    -0.000 C 
BRANCH  14  15
ATOM     15  C   UNL     1      32.509  51.605   6.999  1.00  0.00    -0.000 C 
BRANCH  15  16
ATOM     16  C   UNL     1      31.276  51.575   6.079  1.00  0.00    -0.000 C 
BRANCH  16  17
ATOM     17  C   UNL     1      30.068  52.322   6.673  1.00  0.00    -0.000 C 
BRANCH  17  18
ATOM     18  C   UNL     1      28.803  51.467   6.873  1.00  0.00    -0.000 C 
BRANCH  18  19
ATOM     19  C   UNL     1      28.298  51.475   8.323  1.00  0.00    -0.003 C 
ATOM     20  C   UNL     1      29.384  51.000   9.285  1.00  0.00     0.004 C 
ENDBRANCH  18  19
ENDBRANCH  17  18
ENDBRANCH  16  17
ENDBRANCH  15  16
ENDBRANCH  14  15
ENDBRANCH  13  14
ENDBRANCH  12  13
ENDBRANCH   1  12
TORSDOF 16
ENDMDL
MODEL 2
REMARK VINA RESULT:    -3.251     17.170     18.604
REMARK INTER + INTRA:          -8.926
REMARK INTER:                  -7.798
REMARK INTRA:                  -1.128
REMARK UNBOUND:                -2.634
REMARK SMILES CCCCCCCCCCCCCCCCCC(=O)[O-]
REMARK SMILES IDX 10 1 11 2 12 3 13 4 14 5 15 6 16 7 17 8 18 9 19 10 20 11
REMARK SMILES IDX 9 12 8 13 7 14 6 15 5 16 4 17 3 18 2 19 1 20
REMARK H PARENT
REMARK Flexibility Score: inf
ROOT
ATOM      1  C   UNL     1      33.615  50.174  24.988  1.00  0.00     0.000 C 
ENDROOT
BRANCH   1   2
ATOM      2  C   UNL     1      34.029  48.910  25.759  1.00  0.00     0.000 C 
BRANCH   2   3
ATOM      3  C   UNL     1      35.448  48.429  25.404  1.00  0.00     0.000 C 
BRANCH   3   4
ATOM      4  C   UNL     1      35.864  47.079  26.022  1.00  0.00     0.000 C 
BRANCH   4   5
ATOM      5  C   UNL     1      34.742  46.031  26.123  1.00  0.00     0.000 C 
BRANCH   5   6
ATOM      6  C   UNL     1      35.204  44.620  25.719  1.00  0.00     0.000 C 
BRANCH   6   7
ATOM      7  C   UNL     1      36.505  44.640  24.892  1.00  0.00     0.006 C 
BRANCH   7   8
ATOM      8  C   UNL     1      37.358  43.372  25.053  1.00  0.00     0.053 C 
BRANCH   8   9
ATOM      9  C   UNL     1      37.310  42.496  23.840  1.00  0.00     0.041 C 
ATOM     10  O   UNL     1      36.535  42.773  22.887  1.00  0.00    -0.550 OA
ATOM     11  O   UNL     1      38.134  41.380  23.756  1.00  0.00    -0.550 OA
ENDBRANCH   8   9
ENDBRANCH   7   8
ENDBRANCH   6   7
ENDBRANCH   5   6
ENDBRANCH   4   5
ENDBRANCH   3   4
ENDBRANCH   2   3
ENDBRANCH   1   2
BRANCH   1  12
ATOM     12  C   UNL     1      33.236  51.345  25.913  1.00  0.00     0.000 C 
BRANCH  12  13
ATOM     13  C   UNL     1      33.569  52.745  25.366  1.00  0.00    -0.000 C 
BRANCH  13  14
ATOM     14  C   UNL     1      32.597  53.829  25.863  1.00  0.00    -0.000 C 
BRANCH  14  15
ATOM     15  C   UNL     1      31.540  54.204  24.813  1.00  0.00    -0.000 C 
BRANCH  15  16
ATOM     16  C   UNL     1      30.223  54.685  25.448  1.00  0.00    -0.000 C 
BRANCH  16  17
ATOM     17  C   UNL     1      29.149  53.583  25.507  1.00  0.00    -0.000 C 
BRANCH  17  18
ATOM     18  C   UNL     1      29.618  52.242  26.100  1.00  0.00    -0.000 C 
BRANCH  18  19
ATOM     19  C   UNL     1      29.480  51.071  25.116  1.00  0.00    -0.003 C 
ATOM     20  C   UNL     1      30.172  51.382  23.792  1.00  0.00     0.004 C 
ENDBRANCH  18  19
ENDBRANCH  17  18
ENDBRANCH  16  17
ENDBRANCH  15  16
ENDBRANCH  14  15
ENDBRANCH  13  14
ENDBRANCH  12  13
ENDBRANCH   1  12
TORSDOF 16
ENDMDL
MODEL 3
REMARK VINA RESULT:    -3.235      2.888      6.363
REMARK INTER + INTRA:          -8.895
REMARK INTER:                  -6.196
REMARK INTRA:                  -2.699
REMARK UNBOUND:                -2.634
REMARK SMILES CCCCCCCCCCCCCCCCCC(=O)[O-]
REMARK SMILES IDX 10 1 11 2 12 3 13 4 14 5 15 6 16 7 17 8 18 9 19 10 20 11
REMARK SMILES IDX 9 12 8 13 7 14 6 15 5 16 4 17 3 18 2 19 1 20
REMARK H PARENT
REMARK Flexibility Score: inf
ROOT
ATOM      1  C   UNL     1      30.595  46.121   7.696  1.00  0.00     0.000 C 
ENDROOT
BRANCH   1   2
ATOM      2  C   UNL     1      31.580  46.939   8.549  1.00  0.00     0.000 C 
BRANCH   2   3
ATOM      3  C   UNL     1      32.054  48.225   7.848  1.00  0.00     0.000 C 
BRANCH   3   4
ATOM      4  C   UNL     1      31.484  48.456   6.433  1.00  0.00     0.000 C 
BRANCH   4   5
ATOM      5  C   UNL     1      30.431  49.573   6.325  1.00  0.00     0.000 C 
BRANCH   5   6
ATOM      6  C   UNL     1      30.576  50.640   7.424  1.00  0.00     0.000 C 
BRANCH   6   7
ATOM      7  C   UNL     1      29.505  51.743   7.320  1.00  0.00     0.006 C 
BRANCH   7   8
ATOM      8  C   UNL     1      28.518  51.758   8.498  1.00  0.00     0.053 C 
BRANCH   8   9
ATOM      9  C   UNL     1      27.163  52.251   8.098  1.00  0.00     0.041 C 
ATOM     10  O   UNL     1      26.632  53.216   8.709  1.00  0.00    -0.550 OA
ATOM     11  O   UNL     1      26.489  51.652   7.040  1.00  0.00    -0.550 OA
ENDBRANCH   8   9
ENDBRANCH   7   8
ENDBRANCH   6   7
ENDBRANCH   5   6
ENDBRANCH   4   5
ENDBRANCH   3   4
ENDBRANCH   2   3
ENDBRANCH   1   2
BRANCH   1  12
ATOM     12  C   UNL     1      29.125  46.353   8.089  1.00  0.00     0.000 C 
BRANCH  12  13
ATOM     13  C   UNL     1      28.907  47.341   9.249  1.00  0.00    -0.000 C 
BRANCH  13  14
ATOM     14  C   UNL     1      27.828  48.396   8.942  1.00  0.00    -0.000 C 
BRANCH  14  15
ATOM     15  C   UNL     1      27.214  48.226   7.544  1.00  0.00    -0.000 C 
BRANCH  15  16
ATOM     16  C   UNL     1      25.686  48.048   7.590  1.00  0.00    -0.000 C 
BRANCH  16  17
ATOM     17  C   UNL     1      25.194  47.435   8.914  1.00  0.00    -0.000 C 
BRANCH  17  18
ATOM     18  C   UNL     1      24.877  45.930   8.861  1.00  0.00    -0.000 C 
BRANCH  18  19
ATOM     19  C   UNL     1      25.945  45.069   9.552  1.00  0.00    -0.003 C 
ATOM     20  C   UNL     1      26.413  43.938   8.641  1.00  0.00     0.004 C 
ENDBRANCH  18  19
ENDBRANCH  17  18
ENDBRANCH  16  17
ENDBRANCH  15  16
ENDBRANCH  14  15
ENDBRANCH  13  14
ENDBRANCH  12  13
ENDBRANCH   1  12
TORSDOF 16
ENDMDL
MODEL 4
REMARK VINA RESULT:    -3.222      4.254      7.500
REMARK INTER + INTRA:          -8.870
REMARK INTER:                  -6.618
REMARK INTRA:                  -2.253
REMARK UNBOUND:                -2.634
REMARK SMILES CCCCCCCCCCCCCCCCCC(=O)[O-]
REMARK SMILES IDX 10 1 11 2 12 3 13 4 14 5 15 6 16 7 17 8 18 9 19 10 20 11
REMARK SMILES IDX 9 12 8 13 7 14 6 15 5 16 4 17 3 18 2 19 1 20
REMARK H PARENT
REMARK Flexibility Score: inf
ROOT
ATOM      1  C   UNL     1      31.087  46.535   8.481  1.00  0.00     0.000 C 
ENDROOT
BRANCH   1   2
ATOM      2  C   UNL     1      31.878  47.775   8.031  1.00  0.00     0.000 C 
BRANCH   2   3
ATOM      3  C   UNL     1      31.748  48.053   6.522  1.00  0.00     0.000 C 
BRANCH   3   4
ATOM      4  C   UNL     1      31.299  49.481   6.148  1.00  0.00     0.000 C 
BRANCH   4   5
ATOM      5  C   UNL     1      31.231  50.475   7.321  1.00  0.00     0.000 C 
BRANCH   5   6
ATOM      6  C   UNL     1      30.357  51.703   7.013  1.00  0.00     0.000 C 
BRANCH   6   7
ATOM      7  C   UNL     1      31.190  52.929   6.590  1.00  0.00     0.006 C 
BRANCH   7   8
ATOM      8  C   UNL     1      32.705  52.730   6.749  1.00  0.00     0.053 C 
BRANCH   8   9
ATOM      9  C   UNL     1      33.465  54.012   6.612  1.00  0.00     0.041 C 
ATOM     10  O   UNL     1      33.049  55.060   7.174  1.00  0.00    -0.550 OA
ATOM     11  O   UNL     1      34.642  54.047   5.875  1.00  0.00    -0.550 OA
ENDBRANCH   8   9
ENDBRANCH   7   8
ENDBRANCH   6   7
ENDBRANCH   5   6
ENDBRANCH   4   5
ENDBRANCH   3   4
ENDBRANCH   2   3
ENDBRANCH   1   2
BRANCH   1  12
ATOM     12  C   UNL     1      29.566  46.772   8.511  1.00  0.00     0.000 C 
BRANCH  12  13
ATOM     13  C   UNL     1      29.103  47.929   9.414  1.00  0.00    -0.000 C 
BRANCH  13  14
ATOM     14  C   UNL     1      27.960  48.753   8.793  1.00  0.00    -0.000 C 
BRANCH  14  15
ATOM     15  C   UNL     1      27.647  48.336   7.348  1.00  0.00    -0.000 C 
BRANCH  15  16
ATOM     16  C   UNL     1      26.151  48.052   7.128  1.00  0.00    -0.000 C 
BRANCH  16  17
ATOM     17  C   UNL     1      25.806  46.554   7.218  1.00  0.00    -0.000 C 
BRANCH  17  18
ATOM     18  C   UNL     1      25.307  46.078   8.595  1.00  0.00    -0.000 C 
BRANCH  18  19
ATOM     19  C   UNL     1      26.237  45.042   9.242  1.00  0.00    -0.003 C 
ATOM     20  C   UNL     1      26.965  44.218   8.183  1.00  0.00     0.004 C 
ENDBRANCH  18  19
ENDBRANCH  17  18
ENDBRANCH  16  17
ENDBRANCH  15  16
ENDBRANCH  14  15
ENDBRANCH  13  14
ENDBRANCH  12  13
ENDBRANCH   1  12
TORSDOF 16
ENDMDL
MODEL 5
REMARK VINA RESULT:    -3.219      2.596      6.863
REMARK INTER + INTRA:          -8.865
REMARK INTER:                  -6.335
REMARK INTRA:                  -2.530
REMARK UNBOUND:                -2.634
REMARK SMILES CCCCCCCCCCCCCCCCCC(=O)[O-]
REMARK SMILES IDX 10 1 11 2 12 3 13 4 14 5 15 6 16 7 17 8 18 9 19 10 20 11
REMARK SMILES IDX 9 12 8 13 7 14 6 15 5 16 4 17 3 18 2 19 1 20
REMARK H PARENT
REMARK Flexibility Score: inf
ROOT
ATOM      1  C   UNL     1      29.475  46.908   7.141  1.00  0.00     0.000 C 
ENDROOT
BRANCH   1   2
ATOM      2  C   UNL     1      30.251  46.502   8.405  1.00  0.00     0.000 C 
BRANCH   2   3
ATOM      3  C   UNL     1      31.652  47.136   8.478  1.00  0.00     0.000 C 
BRANCH   3   4
ATOM      4  C   UNL     1      31.999  48.108   7.332  1.00  0.00     0.000 C 
BRANCH   4   5
ATOM      5  C   UNL     1      32.193  49.575   7.753  1.00  0.00     0.000 C 
BRANCH   5   6
ATOM      6  C   UNL     1      31.776  50.572   6.657  1.00  0.00     0.000 C 
BRANCH   6   7
ATOM      7  C   UNL     1      30.259  50.550   6.387  1.00  0.00     0.006 C 
BRANCH   7   8
ATOM      8  C   UNL     1      29.506  51.745   6.993  1.00  0.00     0.053 C 
BRANCH   8   9
ATOM      9  C   UNL     1      28.753  51.374   8.231  1.00  0.00     0.041 C 
ATOM     10  O   UNL     1      29.373  51.024   9.271  1.00  0.00    -0.550 OA
ATOM     11  O   UNL     1      27.364  51.428   8.243  1.00  0.00    -0.550 OA
ENDBRANCH   8   9
ENDBRANCH   7   8
ENDBRANCH   6   7
ENDBRANCH   5   6
ENDBRANCH   4   5
ENDBRANCH   3   4
ENDBRANCH   2   3
ENDBRANCH   1   2
BRANCH   1  12
ATOM     12  C   UNL     1      28.183  47.685   7.453  1.00  0.00     0.000 C 
BRANCH  12  13
ATOM     13  C   UNL     1      27.884  47.880   8.950  1.00  0.00    -0.000 C 
BRANCH  13  14
ATOM     14  C   UNL     1      26.379  47.999   9.249  1.00  0.00    -0.000 C 
BRANCH  14  15
ATOM     15  C   UNL     1      25.570  46.811   8.705  1.00  0.00    -0.000 C 
BRANCH  15  16
ATOM     16  C   UNL     1      25.877  45.499   9.448  1.00  0.00    -0.000 C 
BRANCH  16  17
ATOM     17  C   UNL     1      26.028  44.295   8.501  1.00  0.00    -0.000 C 
BRANCH  17  18
ATOM     18  C   UNL     1      27.477  43.938   8.121  1.00  0.00    -0.000 C 
BRANCH  18  19
ATOM     19  C   UNL     1      27.639  43.600   6.632  1.00  0.00    -0.003 C 
ATOM     20  C   UNL     1      29.112  43.468   6.256  1.00  0.00     0.004 C 
ENDBRANCH  18  19
ENDBRANCH  17  18
ENDBRANCH  16  17
ENDBRANCH  15  16
ENDBRANCH  14  15
ENDBRANCH  13  14
ENDBRANCH  12  13
ENDBRANCH   1  12
TORSDOF 16
ENDMDL
MODEL 6
REMARK VINA RESULT:    -3.217      1.305      2.823
REMARK INTER + INTRA:          -8.860
REMARK INTER:                  -6.571
REMARK INTRA:                  -2.289
REMARK UNBOUND:                -2.634
REMARK SMILES CCCCCCCCCCCCCCCCCC(=O)[O-]
REMARK SMILES IDX 10 1 11 2 12 3 13 4 14 5 15 6 16 7 17 8 18 9 19 10 20 11
REMARK SMILES IDX 9 12 8 13 7 14 6 15 5 16 4 17 3 18 2 19 1 20
REMARK H PARENT
REMARK Flexibility Score: inf
ROOT
ATOM      1  C   UNL     1      31.958  48.423   7.372  1.00  0.00     0.000 C 
ENDROOT
BRANCH   1   2
ATOM      2  C   UNL     1      31.778  47.323   8.432  1.00  0.00     0.000 C 
BRANCH   2   3
ATOM      3  C   UNL     1      30.817  46.208   7.980  1.00  0.00     0.000 C 
BRANCH   3   4
ATOM      4  C   UNL     1      30.095  46.459   6.640  1.00  0.00     0.000 C 
BRANCH   4   5
ATOM      5  C   UNL     1      28.777  45.688   6.451  1.00  0.00     0.000 C 
BRANCH   5   6
ATOM      6  C   UNL     1      28.220  45.126   7.771  1.00  0.00     0.000 C 
BRANCH   6   7
ATOM      7  C   UNL     1      26.856  44.430   7.586  1.00  0.00     0.006 C 
BRANCH   7   8
ATOM      8  C   UNL     1      26.639  43.238   8.531  1.00  0.00     0.053 C 
BRANCH   8   9
ATOM      9  C   UNL     1      27.085  41.944   7.927  1.00  0.00     0.041 C 
ATOM     10  O   UNL     1      27.123  41.807   6.675  1.00  0.00    -0.550 OA
ATOM     11  O   UNL     1      27.473  40.891   8.746  1.00  0.00    -0.550 OA
ENDBRANCH   8   9
ENDBRANCH   7   8
ENDBRANCH   6   7
ENDBRANCH   5   6
ENDBRANCH   4   5
ENDBRANCH   3   4
ENDBRANCH   2   3
ENDBRANCH   1   2
BRANCH   1  12
ATOM     12  C   UNL     1      32.401  49.770   7.974  1.00  0.00     0.000 C 
BRANCH  12  13
ATOM     13  C   UNL     1      32.244  50.984   7.042  1.00  0.00    -0.000 C 
BRANCH  13  14
ATOM     14  C   UNL     1      30.880  51.021   6.330  1.00  0.00    -0.000 C 
BRANCH  14  15
ATOM     15  C   UNL     1      29.906  52.026   6.964  1.00  0.00    -0.000 C 
BRANCH  15  16
ATOM     16  C   UNL     1      28.668  51.343   7.572  1.00  0.00    -0.000 C 
BRANCH  16  17
ATOM     17  C   UNL     1      28.972  50.622   8.897  1.00  0.00    -0.000 C 
BRANCH  17  18
ATOM     18  C   UNL     1      28.684  49.109   8.901  1.00  0.00    -0.000 C 
BRANCH  18  19
ATOM     19  C   UNL     1      27.344  48.753   8.242  1.00  0.00    -0.003 C 
ATOM     20  C   UNL     1      26.438  47.999   9.212  1.00  0.00     0.004 C 
ENDBRANCH  18  19
ENDBRANCH  17  18
ENDBRANCH  16  17
ENDBRANCH  15  16
ENDBRANCH  14  15
ENDBRANCH  13  14
ENDBRANCH  12  13
ENDBRANCH   1  12
TORSDOF 16
ENDMDL
MODEL 7
REMARK VINA RESULT:    -3.060      1.480      2.768
REMARK INTER + INTRA:          -8.556
REMARK INTER:                  -6.365
REMARK INTRA:                  -2.192
REMARK UNBOUND:                -2.634
REMARK SMILES CCCCCCCCCCCCCCCCCC(=O)[O-]
REMARK SMILES IDX 10 1 11 2 12 3 13 4 14 5 15 6 16 7 17 8 18 9 19 10 20 11
REMARK SMILES IDX 9 12 8 13 7 14 6 15 5 16 4 17 3 18 2 19 1 20
REMARK H PARENT
REMARK Flexibility Score: inf
ROOT
ATOM      1  C   UNL     1      28.644  47.660   9.232  1.00  0.00     0.000 C 
ENDROOT
BRANCH   1   2
ATOM      2  C   UNL     1      27.138  47.968   9.197  1.00  0.00     0.000 C 
BRANCH   2   3
ATOM      3  C   UNL     1      26.448  47.437   7.927  1.00  0.00     0.000 C 
BRANCH   3   4
ATOM      4  C   UNL     1      25.385  46.343   8.158  1.00  0.00     0.000 C 
BRANCH   4   5
ATOM      5  C   UNL     1      25.706  45.346   9.285  1.00  0.00     0.000 C 
BRANCH   5   6
ATOM      6  C   UNL     1      26.657  44.223   8.836  1.00  0.00     0.000 C 
BRANCH   6   7
ATOM      7  C   UNL     1      26.349  43.724   7.410  1.00  0.00     0.006 C 
BRANCH   7   8
ATOM      8  C   UNL     1      25.868  42.266   7.357  1.00  0.00     0.053 C 
BRANCH   8   9
ATOM      9  C   UNL     1      26.993  41.289   7.490  1.00  0.00     0.041 C 
ATOM     10  O   UNL     1      26.791  40.150   7.988  1.00  0.00    -0.550 OA
ATOM     11  O   UNL     1      28.266  41.632   7.048  1.00  0.00    -0.550 OA
ENDBRANCH   8   9
ENDBRANCH   7   8
ENDBRANCH   6   7
ENDBRANCH   5   6
ENDBRANCH   4   5
ENDBRANCH   3   4
ENDBRANCH   2   3
ENDBRANCH   1   2
BRANCH   1  12
ATOM     12  C   UNL     1      29.138  46.932   7.969  1.00  0.00     0.000 C 
BRANCH  12  13
ATOM     13  C   UNL     1      30.459  46.158   8.135  1.00  0.00    -0.000 C 
BRANCH  13  14
ATOM     14  C   UNL     1      31.669  47.082   8.360  1.00  0.00    -0.000 C 
BRANCH  14  15
ATOM     15  C   UNL     1      31.786  48.178   7.290  1.00  0.00    -0.000 C 
BRANCH  15  16
ATOM     16  C   UNL     1      32.238  49.527   7.877  1.00  0.00    -0.000 C 
BRANCH  16  17
ATOM     17  C   UNL     1      31.446  50.721   7.313  1.00  0.00    -0.000 C 
BRANCH  17  18
ATOM     18  C   UNL     1      29.924  50.513   7.222  1.00  0.00    -0.000 C 
BRANCH  18  19
ATOM     19  C   UNL     1      29.142  51.343   8.250  1.00  0.00    -0.003 C 
ATOM     20  C   UNL     1      27.655  51.383   7.908  1.00  0.00     0.004 C 
ENDBRANCH  18  19
ENDBRANCH  17  18
ENDBRANCH  16  17
ENDBRANCH  15  16
ENDBRANCH  14  15
ENDBRANCH  13  14
ENDBRANCH  12  13
ENDBRANCH   1  12
TORSDOF 16
ENDMDL
MODEL 8
REMARK VINA RESULT:    -3.054      2.852      7.205
REMARK INTER + INTRA:          -8.544
REMARK INTER:                  -6.289
REMARK INTRA:                  -2.255
REMARK UNBOUND:                -2.634
REMARK SMILES CCCCCCCCCCCCCCCCCC(=O)[O-]
REMARK SMILES IDX 10 1 11 2 12 3 13 4 14 5 15 6 16 7 17 8 18 9 19 10 20 11
REMARK SMILES IDX 9 12 8 13 7 14 6 15 5 16 4 17 3 18 2 19 1 20
REMARK H PARENT
REMARK Flexibility Score: inf
ROOT
ATOM      1  C   UNL     1      27.607  48.245   9.072  1.00  0.00     0.000 C 
ENDROOT
BRANCH   1   2
ATOM      2  C   UNL     1      28.765  47.672   8.237  1.00  0.00     0.000 C 
BRANCH   2   3
ATOM      3  C   UNL     1      29.944  47.189   9.101  1.00  0.00     0.000 C 
BRANCH   3   4
ATOM      4  C   UNL     1      31.246  46.884   8.332  1.00  0.00     0.000 C 
BRANCH   4   5
ATOM      5  C   UNL     1      32.011  48.118   7.823  1.00  0.00     0.000 C 
BRANCH   5   6
ATOM      6  C   UNL     1      31.733  48.423   6.340  1.00  0.00     0.000 C 
BRANCH   6   7
ATOM      7  C   UNL     1      31.076  49.801   6.134  1.00  0.00     0.006 C 
BRANCH   7   8
ATOM      8  C   UNL     1      31.324  50.783   7.290  1.00  0.00     0.053 C 
BRANCH   8   9
ATOM      9  C   UNL     1      30.050  51.291   7.888  1.00  0.00     0.041 C 
ATOM     10  O   UNL     1      29.716  50.952   9.055  1.00  0.00    -0.550 OA
ATOM     11  O   UNL     1      29.235  52.151   7.162  1.00  0.00    -0.550 OA
ENDBRANCH   8   9
ENDBRANCH   7   8
ENDBRANCH   6   7
ENDBRANCH   5   6
ENDBRANCH   4   5
ENDBRANCH   3   4
ENDBRANCH   2   3
ENDBRANCH   1   2
BRANCH   1  12
ATOM     12  C   UNL     1      26.313  47.419   8.948  1.00  0.00     0.000 C 
BRANCH  12  13
ATOM     13  C   UNL     1      26.350  46.041   9.633  1.00  0.00    -0.000 C 
BRANCH  13  14
ATOM     14  C   UNL     1      26.222  44.874   8.637  1.00  0.00    -0.000 C 
BRANCH  14  15
ATOM     15  C   UNL     1      26.047  45.349   7.187  1.00  0.00    -0.000 C 
BRANCH  15  16
ATOM     16  C   UNL     1      27.259  45.004   6.304  1.00  0.00    -0.000 C 
BRANCH  16  17
ATOM     17  C   UNL     1      28.377  44.282   7.078  1.00  0.00    -0.000 C 
BRANCH  17  18
ATOM     18  C   UNL     1      29.651  43.986   6.264  1.00  0.00    -0.000 C 
BRANCH  18  19
ATOM     19  C   UNL     1      29.815  42.497   5.929  1.00  0.00    -0.003 C 
ATOM     20  C   UNL     1      28.730  41.659   6.601  1.00  0.00     0.004 C 
ENDBRANCH  18  19
ENDBRANCH  17  18
ENDBRANCH  16  17
ENDBRANCH  15  16
ENDBRANCH  14  15
ENDBRANCH  13  14
ENDBRANCH  12  13
ENDBRANCH   1  12
TORSDOF 16
ENDMDL
MODEL 9
REMARK VINA RESULT:    -3.048      3.555      6.607
REMARK INTER + INTRA:          -8.533
REMARK INTER:                  -6.206
REMARK INTRA:                  -2.328
REMARK UNBOUND:                -2.634
REMARK SMILES CCCCCCCCCCCCCCCCCC(=O)[O-]
REMARK SMILES IDX 10 1 11 2 12 3 13 4 14 5 15 6 16 7 17 8 18 9 19 10 20 11
REMARK SMILES IDX 9 12 8 13 7 14 6 15 5 16 4 17 3 18 2 19 1 20
REMARK H PARENT
REMARK Flexibility Score: inf
ROOT
ATOM      1  C   UNL     1      31.988  48.145   7.344  1.00  0.00     0.000 C 
ENDROOT
BRANCH   1   2
ATOM      2  C   UNL     1      32.390  49.574   7.746  1.00  0.00     0.000 C 
BRANCH   2   3
ATOM      3  C   UNL     1      31.702  50.653   6.889  1.00  0.00     0.000 C 
BRANCH   3   4
ATOM      4  C   UNL     1      30.399  50.213   6.191  1.00  0.00     0.000 C 
BRANCH   4   5
ATOM      5  C   UNL     1      29.148  51.029   6.561  1.00  0.00     0.000 C 
BRANCH   5   6
ATOM      6  C   UNL     1      29.210  51.603   7.988  1.00  0.00     0.000 C 
BRANCH   6   7
ATOM      7  C   UNL     1      27.814  51.927   8.554  1.00  0.00     0.006 C 
BRANCH   7   8
ATOM      8  C   UNL     1      26.793  52.338   7.482  1.00  0.00     0.053 C 
BRANCH   8   9
ATOM      9  C   UNL     1      26.314  53.744   7.661  1.00  0.00     0.041 C 
ATOM     10  O   UNL     1      26.067  54.189   8.813  1.00  0.00    -0.550 OA
ATOM     11  O   UNL     1      26.155  54.571   6.555  1.00  0.00    -0.550 OA
ENDBRANCH   8   9
ENDBRANCH   7   8
ENDBRANCH   6   7
ENDBRANCH   5   6
ENDBRANCH   4   5
ENDBRANCH   3   4
ENDBRANCH   2   3
ENDBRANCH   1   2
BRANCH   1  12
ATOM     12  C   UNL     1      31.524  47.293   8.540  1.00  0.00     0.000 C 
BRANCH  12  13
ATOM     13  C   UNL     1      30.040  46.885   8.514  1.00  0.00    -0.000 C 
BRANCH  13  14
ATOM     14  C   UNL     1      29.111  47.969   9.090  1.00  0.00    -0.000 C 
BRANCH  14  15
ATOM     15  C   UNL     1      27.838  48.164   8.253  1.00  0.00    -0.000 C 
BRANCH  15  16
ATOM     16  C   UNL     1      26.588  48.385   9.124  1.00  0.00    -0.000 C 
BRANCH  16  17
ATOM     17  C   UNL     1      25.626  47.183   9.106  1.00  0.00    -0.000 C 
BRANCH  17  18
ATOM     18  C   UNL     1      26.094  45.956   9.909  1.00  0.00    -0.000 C 
BRANCH  18  19
ATOM     19  C   UNL     1      26.072  44.658   9.089  1.00  0.00    -0.003 C 
ATOM     20  C   UNL     1      27.205  44.634   8.067  1.00  0.00     0.004 C 
ENDBRANCH  18  19
ENDBRANCH  17  18
ENDBRANCH  16  17
ENDBRANCH  15  16
ENDBRANCH  14  15
ENDBRANCH  13  14
ENDBRANCH  12  13
ENDBRANCH   1  12
TORSDOF 16
ENDMDL
