MODEL 1
REMARK VINA RESULT:    -3.471      0.000      0.000
REMARK INTER + INTRA:          -4.112
REMARK INTER:                  -4.080
REMARK INTRA:                  -0.032
REMARK UNBOUND:                -0.032
REMARK SMILES O=C([O-])CCC(=O)[O-]
REMARK SMILES IDX 4 1 2 2 1 3 3 4 5 5 6 6 7 7 8 8
REMARK H PARENT
REMARK Flexibility Score: inf
ROOT
ATOM      1  C   UNL     1     128.319 127.125 123.354  1.00  0.00     0.059 C 
ENDROOT
BRANCH   1   2
ATOM      2  C   UNL     1     129.109 127.342 122.102  1.00  0.00     0.042 C 
ATOM      3  O   UNL     1     130.119 128.093 122.113  1.00  0.00    -0.550 OA
ATOM      4  O   UNL     1     128.759 126.676 120.934  1.00  0.00    -0.550 OA
ENDBRANCH   1   2
BRANCH   1   5
ATOM      5  C   UNL     1     129.201 126.518 124.444  1.00  0.00     0.059 C 
BRANCH   5   6
ATOM      6  C   UNL     1     128.367 125.774 125.440  1.00  0.00     0.042 C 
ATOM      7  O   UNL     1     128.420 126.074 126.660  1.00  0.00    -0.550 OA
ATOM      8  O   UNL     1     127.569 124.715 125.024  1.00  0.00    -0.550 OA
ENDBRANCH   5   6
ENDBRANCH   1   5
TORSDOF 3
ENDMDL
MODEL 2
REMARK VINA RESULT:    -3.206     21.212     22.247
REMARK INTER + INTRA:          -3.800
REMARK INTER:                  -3.623
REMARK INTRA:                  -0.177
REMARK UNBOUND:                -0.032
REMARK SMILES O=C([O-])CCC(=O)[O-]
REMARK SMILES IDX 4 1 2 2 1 3 3 4 5 5 6 6 7 7 8 8
REMARK H PARENT
REMARK Flexibility Score: inf
ROOT
ATOM      1  C   UNL     1     112.879 117.780 109.442  1.00  0.00     0.059 C 
ENDROOT
BRANCH   1   2
ATOM      2  C   UNL     1     114.147 117.935 108.664  1.00  0.00     0.042 C 
ATOM      3  O   UNL     1     115.222 117.447 109.102  1.00  0.00    -0.550 OA
ATOM      4  O   UNL     1     114.134 118.576 107.431  1.00  0.00    -0.550 OA
ENDBRANCH   1   2
BRANCH   1   5
ATOM      5  C   UNL     1     112.215 119.140 109.660  1.00  0.00     0.059 C 
BRANCH   5   6
ATOM      6  C   UNL     1     113.123 120.049 110.427  1.00  0.00     0.042 C 
ATOM      7  O   UNL     1     113.484 119.747 111.594  1.00  0.00    -0.550 OA
ATOM      8  O   UNL     1     113.531 121.255 109.870  1.00  0.00    -0.550 OA
ENDBRANCH   5   6
ENDBRANCH   1   5
TORSDOF 3
ENDMDL
MODEL 3
REMARK VINA RESULT:    -3.205     21.148     22.334
REMARK INTER + INTRA:          -3.800
REMARK INTER:                  -3.629
REMARK INTRA:                  -0.171
REMARK UNBOUND:                -0.032
REMARK SMILES O=C([O-])CCC(=O)[O-]
REMARK SMILES IDX 4 1 2 2 1 3 3 4 5 5 6 6 7 7 8 8
REMARK H PARENT
REMARK Flexibility Score: inf
ROOT
ATOM      1  C   UNL     1     112.250 119.157 109.659  1.00  0.00     0.059 C 
ENDROOT
BRANCH   1   2
ATOM      2  C   UNL     1     113.196 120.046 110.403  1.00  0.00     0.042 C 
ATOM      3  O   UNL     1     113.504 121.174 109.936  1.00  0.00    -0.550 OA
ATOM      4  O   UNL     1     113.700 119.651 111.635  1.00  0.00    -0.550 OA
ENDBRANCH   1   2
BRANCH   1   5
ATOM      5  C   UNL     1     112.887 117.791 109.405  1.00  0.00     0.059 C 
BRANCH   5   6
ATOM      6  C   UNL     1     114.140 117.938 108.601  1.00  0.00     0.042 C 
ATOM      7  O   UNL     1     115.228 117.477 109.033  1.00  0.00    -0.550 OA
ATOM      8  O   UNL     1     114.116 118.630 107.396  1.00  0.00    -0.550 OA
ENDBRANCH   5   6
ENDBRANCH   1   5
TORSDOF 3
ENDMDL
MODEL 4
REMARK VINA RESULT:    -3.197     14.400     16.002
REMARK INTER + INTRA:          -3.789
REMARK INTER:                  -3.695
REMARK INTRA:                  -0.095
REMARK UNBOUND:                -0.032
REMARK SMILES O=C([O-])CCC(=O)[O-]
REMARK SMILES IDX 4 1 2 2 1 3 3 4 5 5 6 6 7 7 8 8
REMARK H PARENT
REMARK Flexibility Score: inf
ROOT
ATOM      1  C   UNL     1     118.726 127.470 111.142  1.00  0.00     0.059 C 
ENDROOT
BRANCH   1   2
ATOM      2  C   UNL     1     119.194 127.848 112.512  1.00  0.00     0.042 C 
ATOM      3  O   UNL     1     118.476 128.574 113.248  1.00  0.00    -0.550 OA
ATOM      4  O   UNL     1     120.402 127.360 112.995  1.00  0.00    -0.550 OA
ENDBRANCH   1   2
BRANCH   1   5
ATOM      5  C   UNL     1     119.559 128.181 110.076  1.00  0.00     0.059 C 
BRANCH   5   6
ATOM      6  C   UNL     1     120.623 127.271 109.548  1.00  0.00     0.042 C 
ATOM      7  O   UNL     1     120.318 126.139 109.092  1.00  0.00    -0.550 OA
ATOM      8  O   UNL     1     121.957 127.654 109.607  1.00  0.00    -0.550 OA
ENDBRANCH   5   6
ENDBRANCH   1   5
TORSDOF 3
ENDMDL
MODEL 5
REMARK VINA RESULT:    -3.196     15.236     16.127
REMARK INTER + INTRA:          -3.788
REMARK INTER:                  -3.753
REMARK INTRA:                  -0.035
REMARK UNBOUND:                -0.032
REMARK SMILES O=C([O-])CCC(=O)[O-]
REMARK SMILES IDX 4 1 2 2 1 3 3 4 5 5 6 6 7 7 8 8
REMARK H PARENT
REMARK Flexibility Score: inf
ROOT
ATOM      1  C   UNL     1     122.163 127.607 109.729  1.00  0.00     0.059 C 
ENDROOT
BRANCH   1   2
ATOM      2  C   UNL     1     123.474 126.927 109.492  1.00  0.00     0.042 C 
ATOM      3  O   UNL     1     124.474 127.594 109.116  1.00  0.00    -0.550 OA
ATOM      4  O   UNL     1     123.606 125.566 109.734  1.00  0.00    -0.550 OA
ENDBRANCH   1   2
BRANCH   1   5
ATOM      5  C   UNL     1     121.016 126.770 109.164  1.00  0.00     0.059 C 
BRANCH   5   6
ATOM      6  C   UNL     1     119.696 127.325 109.601  1.00  0.00     0.042 C 
ATOM      7  O   UNL     1     119.582 128.549 109.872  1.00  0.00    -0.550 OA
ATOM      8  O   UNL     1     118.604 126.480 109.758  1.00  0.00    -0.550 OA
ENDBRANCH   5   6
ENDBRANCH   1   5
TORSDOF 3
ENDMDL
MODEL 6
REMARK VINA RESULT:    -3.159     15.224     16.313
REMARK INTER + INTRA:          -3.745
REMARK INTER:                  -3.711
REMARK INTRA:                  -0.034
REMARK UNBOUND:                -0.032
REMARK SMILES O=C([O-])CCC(=O)[O-]
REMARK SMILES IDX 4 1 2 2 1 3 3 4 5 5 6 6 7 7 8 8
REMARK H PARENT
REMARK Flexibility Score: inf
ROOT
ATOM      1  C   UNL     1     120.974 126.685 109.178  1.00  0.00     0.059 C 
ENDROOT
BRANCH   1   2
ATOM      2  C   UNL     1     119.651 127.269 109.562  1.00  0.00     0.042 C 
ATOM      3  O   UNL     1     118.637 126.529 109.658  1.00  0.00    -0.550 OA
ATOM      4  O   UNL     1     119.548 128.621 109.863  1.00  0.00    -0.550 OA
ENDBRANCH   1   2
BRANCH   1   5
ATOM      5  C   UNL     1     122.116 127.516 109.762  1.00  0.00     0.059 C 
BRANCH   5   6
ATOM      6  C   UNL     1     123.430 126.842 109.523  1.00  0.00     0.042 C 
ATOM      7  O   UNL     1     123.565 125.614 109.762  1.00  0.00    -0.550 OA
ATOM      8  O   UNL     1     124.522 127.582 109.085  1.00  0.00    -0.550 OA
ENDBRANCH   5   6
ENDBRANCH   1   5
TORSDOF 3
ENDMDL
MODEL 7
REMARK VINA RESULT:    -3.145     14.515     15.672
REMARK INTER + INTRA:          -3.728
REMARK INTER:                  -3.663
REMARK INTRA:                  -0.066
REMARK UNBOUND:                -0.032
REMARK SMILES O=C([O-])CCC(=O)[O-]
REMARK SMILES IDX 4 1 2 2 1 3 3 4 5 5 6 6 7 7 8 8
REMARK H PARENT
REMARK Flexibility Score: inf
ROOT
ATOM      1  C   UNL     1     119.652 128.148 109.943  1.00  0.00     0.059 C 
ENDROOT
BRANCH   1   2
ATOM      2  C   UNL     1     120.771 127.278 109.465  1.00  0.00     0.042 C 
ATOM      3  O   UNL     1     121.964 127.666 109.574  1.00  0.00    -0.550 OA
ATOM      4  O   UNL     1     120.501 126.019 108.944  1.00  0.00    -0.550 OA
ENDBRANCH   1   2
BRANCH   1   5
ATOM      5  C   UNL     1     118.807 127.410 110.982  1.00  0.00     0.059 C 
BRANCH   5   6
ATOM      6  C   UNL     1     119.267 127.745 112.366  1.00  0.00     0.042 C 
ATOM      7  O   UNL     1     120.377 127.325 112.784  1.00  0.00    -0.550 OA
ATOM      8  O   UNL     1     118.447 128.481 113.212  1.00  0.00    -0.550 OA
ENDBRANCH   5   6
ENDBRANCH   1   5
TORSDOF 3
ENDMDL
MODEL 8
REMARK VINA RESULT:    -3.116     17.164     18.686
REMARK INTER + INTRA:          -3.694
REMARK INTER:                  -3.651
REMARK INTRA:                  -0.044
REMARK UNBOUND:                -0.032
REMARK SMILES O=C([O-])CCC(=O)[O-]
REMARK SMILES IDX 4 1 2 2 1 3 3 4 5 5 6 6 7 7 8 8
REMARK H PARENT
REMARK Flexibility Score: inf
ROOT
ATOM      1  C   UNL     1     125.575 114.797 109.479  1.00  0.00     0.059 C 
ENDROOT
BRANCH   1   2
ATOM      2  C   UNL     1     124.313 114.033 109.230  1.00  0.00     0.042 C 
ATOM      3  O   UNL     1     124.356 112.792 109.019  1.00  0.00    -0.550 OA
ATOM      4  O   UNL     1     123.086 114.681 109.279  1.00  0.00    -0.550 OA
ENDBRANCH   1   2
BRANCH   1   5
ATOM      5  C   UNL     1     125.517 116.164 108.797  1.00  0.00     0.059 C 
BRANCH   5   6
ATOM      6  C   UNL     1     126.220 117.193 109.625  1.00  0.00     0.042 C 
ATOM      7  O   UNL     1     127.312 116.916 110.186  1.00  0.00    -0.550 OA
ATOM      8  O   UNL     1     125.643 118.442 109.819  1.00  0.00    -0.550 OA
ENDBRANCH   5   6
ENDBRANCH   1   5
TORSDOF 3
ENDMDL
MODEL 9
REMARK VINA RESULT:    -3.097     17.103     18.481
REMARK INTER + INTRA:          -3.672
REMARK INTER:                  -3.622
REMARK INTRA:                  -0.050
REMARK UNBOUND:                -0.032
REMARK SMILES O=C([O-])CCC(=O)[O-]
REMARK SMILES IDX 4 1 2 2 1 3 3 4 5 5 6 6 7 7 8 8
REMARK H PARENT
REMARK Flexibility Score: inf
ROOT
ATOM      1  C   UNL     1     125.654 116.175 108.799  1.00  0.00     0.059 C 
ENDROOT
BRANCH   1   2
ATOM      2  C   UNL     1     126.271 117.189 109.711  1.00  0.00     0.042 C 
ATOM      3  O   UNL     1     127.381 116.957 110.257  1.00  0.00    -0.550 OA
ATOM      4  O   UNL     1     125.643 118.411 109.919  1.00  0.00    -0.550 OA
ENDBRANCH   1   2
BRANCH   1   5
ATOM      5  C   UNL     1     125.612 114.804 109.474  1.00  0.00     0.059 C 
BRANCH   5   6
ATOM      6  C   UNL     1     124.292 114.142 109.234  1.00  0.00     0.042 C 
ATOM      7  O   UNL     1     124.231 112.898 109.058  1.00  0.00    -0.550 OA
ATOM      8  O   UNL     1     123.135 114.907 109.155  1.00  0.00    -0.550 OA
ENDBRANCH   5   6
ENDBRANCH   1   5
TORSDOF 3
ENDMDL
