MODEL 1
REMARK VINA RESULT:    -5.068      0.000      0.000
REMARK INTER + INTRA:          -6.282
REMARK INTER:                  -5.957
REMARK INTRA:                  -0.325
REMARK UNBOUND:                -0.325
REMARK SMILES COc1ccc(C=CC(=O)[O-])cc1
REMARK SMILES IDX 6 1 5 2 12 3 4 4 13 5 3 6 7 7 8 8 9 9 10 10 11 11 2 12 1 13
REMARK H PARENT
REMARK Flexibility Score: inf
ROOT
ATOM      1  C   UNL     1     -36.069  -7.152 -14.891  1.00  0.00    -0.025 A 
ATOM      2  C   UNL     1     -36.042  -5.955 -14.163  1.00  0.00     0.012 A 
ATOM      3  C   UNL     1     -36.112  -7.101 -16.293  1.00  0.00     0.012 A 
ATOM      4  C   UNL     1     -36.004  -4.725 -14.826  1.00  0.00     0.047 A 
ATOM      5  C   UNL     1     -36.074  -5.872 -16.958  1.00  0.00     0.047 A 
ATOM      6  C   UNL     1     -36.015  -4.670 -16.225  1.00  0.00     0.118 A 
ENDROOT
BRANCH   1   7
ATOM      7  C   UNL     1     -36.161  -8.437 -14.168  1.00  0.00     0.010 C 
ATOM      8  C   UNL     1     -37.300  -9.028 -13.777  1.00  0.00     0.025 C 
BRANCH   8   9
ATOM      9  C   UNL     1     -38.659  -8.604 -14.161  1.00  0.00     0.064 C 
ATOM     10  O   UNL     1     -39.148  -9.012 -15.247  1.00  0.00    -0.545 OA
ATOM     11  O   UNL     1     -39.386  -7.707 -13.387  1.00  0.00    -0.545 OA
ENDBRANCH   8   9
ENDBRANCH   1   7
BRANCH   6  12
ATOM     12  O   UNL     1     -35.973  -3.413 -16.844  1.00  0.00    -0.497 OA
ATOM     13  C   UNL     1     -35.367  -3.158 -18.107  1.00  0.00     0.278 C 
ENDBRANCH   6  12
TORSDOF 3
ENDMDL
MODEL 2
REMARK VINA RESULT:    -5.020      0.870      1.632
REMARK INTER + INTRA:          -6.225
REMARK INTER:                  -5.950
REMARK INTRA:                  -0.275
REMARK UNBOUND:                -0.325
REMARK SMILES COc1ccc(C=CC(=O)[O-])cc1
REMARK SMILES IDX 6 1 5 2 12 3 4 4 13 5 3 6 7 7 8 8 9 9 10 10 11 11 2 12 1 13
REMARK H PARENT
REMARK Flexibility Score: inf
ROOT
ATOM      1  C   UNL     1     -36.015  -6.709 -14.439  1.00  0.00    -0.025 A 
ATOM      2  C   UNL     1     -36.044  -6.338 -15.790  1.00  0.00     0.012 A 
ATOM      3  C   UNL     1     -35.913  -5.711 -13.456  1.00  0.00     0.012 A 
ATOM      4  C   UNL     1     -36.026  -4.988 -16.153  1.00  0.00     0.047 A 
ATOM      5  C   UNL     1     -35.896  -4.361 -13.818  1.00  0.00     0.047 A 
ATOM      6  C   UNL     1     -35.957  -3.989 -15.175  1.00  0.00     0.118 A 
ENDROOT
BRANCH   1   7
ATOM      7  C   UNL     1     -35.981  -8.142 -14.082  1.00  0.00     0.010 C 
ATOM      8  C   UNL     1     -37.049  -8.950 -14.010  1.00  0.00     0.025 C 
BRANCH   8   9
ATOM      9  C   UNL     1     -38.413  -8.606 -14.454  1.00  0.00     0.064 C 
ATOM     10  O   UNL     1     -38.712  -8.721 -15.672  1.00  0.00    -0.545 OA
ATOM     11  O   UNL     1     -39.356  -8.091 -13.572  1.00  0.00    -0.545 OA
ENDBRANCH   8   9
ENDBRANCH   1   7
BRANCH   6  12
ATOM     12  O   UNL     1     -35.945  -2.650 -15.589  1.00  0.00    -0.497 OA
ATOM     13  C   UNL     1     -36.011  -2.227 -16.948  1.00  0.00     0.278 C 
ENDBRANCH   6  12
TORSDOF 3
ENDMDL
MODEL 3
REMARK VINA RESULT:    -4.926      2.007      2.531
REMARK INTER + INTRA:          -6.116
REMARK INTER:                  -5.803
REMARK INTRA:                  -0.312
REMARK UNBOUND:                -0.325
REMARK SMILES COc1ccc(C=CC(=O)[O-])cc1
REMARK SMILES IDX 6 1 5 2 12 3 4 4 13 5 3 6 7 7 8 8 9 9 10 10 11 11 2 12 1 13
REMARK H PARENT
REMARK Flexibility Score: inf
ROOT
ATOM      1  C   UNL     1     -36.637  -5.600 -15.669  1.00  0.00    -0.025 A 
ATOM      2  C   UNL     1     -35.845  -4.504 -15.302  1.00  0.00     0.012 A 
ATOM      3  C   UNL     1     -36.641  -6.027 -17.007  1.00  0.00     0.012 A 
ATOM      4  C   UNL     1     -35.027  -3.876 -16.246  1.00  0.00     0.047 A 
ATOM      5  C   UNL     1     -35.823  -5.400 -17.951  1.00  0.00     0.047 A 
ATOM      6  C   UNL     1     -35.004  -4.318 -17.574  1.00  0.00     0.118 A 
ENDROOT
BRANCH   1   7
ATOM      7  C   UNL     1     -37.533  -6.214 -14.666  1.00  0.00     0.010 C 
ATOM      8  C   UNL     1     -37.331  -7.394 -14.064  1.00  0.00     0.025 C 
BRANCH   8   9
ATOM      9  C   UNL     1     -36.097  -8.197 -14.147  1.00  0.00     0.064 C 
ATOM     10  O   UNL     1     -35.178  -8.004 -13.308  1.00  0.00    -0.545 OA
ATOM     11  O   UNL     1     -35.894  -9.112 -15.173  1.00  0.00    -0.545 OA
ENDBRANCH   8   9
ENDBRANCH   1   7
BRANCH   6  12
ATOM     12  O   UNL     1     -34.164  -3.658 -18.483  1.00  0.00    -0.497 OA
ATOM     13  C   UNL     1     -33.824  -4.157 -19.772  1.00  0.00     0.278 C 
ENDBRANCH   6  12
TORSDOF 3
ENDMDL
MODEL 4
REMARK VINA RESULT:    -4.889      2.913      3.855
REMARK INTER + INTRA:          -6.072
REMARK INTER:                  -5.752
REMARK INTRA:                  -0.320
REMARK UNBOUND:                -0.325
REMARK SMILES COc1ccc(C=CC(=O)[O-])cc1
REMARK SMILES IDX 6 1 5 2 12 3 4 4 13 5 3 6 7 7 8 8 9 9 10 10 11 11 2 12 1 13
REMARK H PARENT
REMARK Flexibility Score: inf
ROOT
ATOM      1  C   UNL     1     -36.798  -5.517 -14.470  1.00  0.00    -0.025 A 
ATOM      2  C   UNL     1     -35.710  -4.935 -13.806  1.00  0.00     0.012 A 
ATOM      3  C   UNL     1     -38.097  -5.294 -13.985  1.00  0.00     0.012 A 
ATOM      4  C   UNL     1     -35.920  -4.098 -12.706  1.00  0.00     0.047 A 
ATOM      5  C   UNL     1     -38.308  -4.457 -12.885  1.00  0.00     0.047 A 
ATOM      6  C   UNL     1     -37.215  -3.847 -12.238  1.00  0.00     0.118 A 
ENDROOT
BRANCH   1   7
ATOM      7  C   UNL     1     -36.549  -6.439 -15.597  1.00  0.00     0.010 C 
ATOM      8  C   UNL     1     -36.240  -7.739 -15.483  1.00  0.00     0.025 C 
BRANCH   8   9
ATOM      9  C   UNL     1     -36.281  -8.522 -14.234  1.00  0.00     0.064 C 
ATOM     10  O   UNL     1     -37.340  -9.125 -13.918  1.00  0.00    -0.545 OA
ATOM     11  O   UNL     1     -35.200  -8.551 -13.360  1.00  0.00    -0.545 OA
ENDBRANCH   8   9
ENDBRANCH   1   7
BRANCH   6  12
ATOM     12  O   UNL     1     -37.373  -2.999 -11.134  1.00  0.00    -0.497 OA
ATOM     13  C   UNL     1     -36.962  -1.636 -11.101  1.00  0.00     0.278 C 
ENDBRANCH   6  12
TORSDOF 3
ENDMDL
MODEL 5
REMARK VINA RESULT:    -4.697      1.358      1.990
REMARK INTER + INTRA:          -5.846
REMARK INTER:                  -5.593
REMARK INTRA:                  -0.253
REMARK UNBOUND:                -0.325
REMARK SMILES COc1ccc(C=CC(=O)[O-])cc1
REMARK SMILES IDX 6 1 5 2 12 3 4 4 13 5 3 6 7 7 8 8 9 9 10 10 11 11 2 12 1 13
REMARK H PARENT
REMARK Flexibility Score: inf
ROOT
ATOM      1  C   UNL     1     -37.515  -7.355 -14.987  1.00  0.00    -0.025 A 
ATOM      2  C   UNL     1     -37.755  -6.972 -16.313  1.00  0.00     0.012 A 
ATOM      3  C   UNL     1     -36.626  -6.601 -14.204  1.00  0.00     0.012 A 
ATOM      4  C   UNL     1     -37.157  -5.820 -16.834  1.00  0.00     0.047 A 
ATOM      5  C   UNL     1     -36.028  -5.450 -14.724  1.00  0.00     0.047 A 
ATOM      6  C   UNL     1     -36.295  -5.047 -16.047  1.00  0.00     0.118 A 
ENDROOT
BRANCH   1   7
ATOM      7  C   UNL     1     -38.116  -8.605 -14.475  1.00  0.00     0.010 C 
ATOM      8  C   UNL     1     -39.219  -8.682 -13.716  1.00  0.00     0.025 C 
BRANCH   8   9
ATOM      9  C   UNL     1     -40.132  -7.562 -13.418  1.00  0.00     0.064 C 
ATOM     10  O   UNL     1     -41.267  -7.531 -13.961  1.00  0.00    -0.545 OA
ATOM     11  O   UNL     1     -39.741  -6.504 -12.607  1.00  0.00    -0.545 OA
ENDBRANCH   8   9
ENDBRANCH   1   7
BRANCH   6  12
ATOM     12  O   UNL     1     -35.722  -3.900 -16.614  1.00  0.00    -0.497 OA
ATOM     13  C   UNL     1     -34.632  -3.914 -17.531  1.00  0.00     0.278 C 
ENDBRANCH   6  12
TORSDOF 3
ENDMDL
MODEL 6
REMARK VINA RESULT:    -4.630      2.700      4.122
REMARK INTER + INTRA:          -5.768
REMARK INTER:                  -5.471
REMARK INTRA:                  -0.297
REMARK UNBOUND:                -0.325
REMARK SMILES COc1ccc(C=CC(=O)[O-])cc1
REMARK SMILES IDX 6 1 5 2 12 3 4 4 13 5 3 6 7 7 8 8 9 9 10 10 11 11 2 12 1 13
REMARK H PARENT
REMARK Flexibility Score: inf
ROOT
ATOM      1  C   UNL     1     -36.634  -6.209 -13.876  1.00  0.00    -0.025 A 
ATOM      2  C   UNL     1     -37.986  -5.912 -13.658  1.00  0.00     0.012 A 
ATOM      3  C   UNL     1     -35.652  -5.324 -13.406  1.00  0.00     0.012 A 
ATOM      4  C   UNL     1     -38.350  -4.773 -12.932  1.00  0.00     0.047 A 
ATOM      5  C   UNL     1     -36.014  -4.186 -12.680  1.00  0.00     0.047 A 
ATOM      6  C   UNL     1     -37.372  -3.904 -12.434  1.00  0.00     0.118 A 
ENDROOT
BRANCH   1   7
ATOM      7  C   UNL     1     -36.276  -7.389 -14.690  1.00  0.00     0.010 C 
ATOM      8  C   UNL     1     -36.325  -7.453 -16.029  1.00  0.00     0.025 C 
BRANCH   8   9
ATOM      9  C   UNL     1     -36.558  -6.311 -16.932  1.00  0.00     0.064 C 
ATOM     10  O   UNL     1     -35.572  -5.716 -17.440  1.00  0.00    -0.545 OA
ATOM     11  O   UNL     1     -37.839  -5.831 -17.179  1.00  0.00    -0.545 OA
ENDBRANCH   8   9
ENDBRANCH   1   7
BRANCH   6  12
ATOM     12  O   UNL     1     -37.788  -2.777 -11.710  1.00  0.00    -0.497 OA
ATOM     13  C   UNL     1     -36.950  -1.671 -11.394  1.00  0.00     0.278 C 
ENDBRANCH   6  12
TORSDOF 3
ENDMDL
MODEL 7
REMARK VINA RESULT:    -4.623      3.096      3.702
REMARK INTER + INTRA:          -5.760
REMARK INTER:                  -5.566
REMARK INTRA:                  -0.194
REMARK UNBOUND:                -0.325
REMARK SMILES COc1ccc(C=CC(=O)[O-])cc1
REMARK SMILES IDX 6 1 5 2 12 3 4 4 13 5 3 6 7 7 8 8 9 9 10 10 11 11 2 12 1 13
REMARK H PARENT
REMARK Flexibility Score: inf
ROOT
ATOM      1  C   UNL     1     -39.466  -6.776 -13.790  1.00  0.00    -0.025 A 
ATOM      2  C   UNL     1     -39.548  -6.045 -12.597  1.00  0.00     0.012 A 
ATOM      3  C   UNL     1     -39.358  -6.088 -15.009  1.00  0.00     0.012 A 
ATOM      4  C   UNL     1     -39.469  -4.649 -12.616  1.00  0.00     0.047 A 
ATOM      5  C   UNL     1     -39.279  -4.693 -15.030  1.00  0.00     0.047 A 
ATOM      6  C   UNL     1     -39.330  -3.961 -13.827  1.00  0.00     0.118 A 
ENDROOT
BRANCH   1   7
ATOM      7  C   UNL     1     -39.604  -8.246 -13.749  1.00  0.00     0.010 C 
ATOM      8  C   UNL     1     -38.688  -9.125 -14.183  1.00  0.00     0.025 C 
BRANCH   8   9
ATOM      9  C   UNL     1     -37.313  -8.792 -14.598  1.00  0.00     0.064 C 
ATOM     10  O   UNL     1     -37.028  -8.769 -15.825  1.00  0.00    -0.545 OA
ATOM     11  O   UNL     1     -36.306  -8.573 -13.666  1.00  0.00    -0.545 OA
ENDBRANCH   8   9
ENDBRANCH   1   7
BRANCH   6  12
ATOM     12  O   UNL     1     -39.252  -2.562 -13.794  1.00  0.00    -0.497 OA
ATOM     13  C   UNL     1     -38.270  -1.828 -13.070  1.00  0.00     0.278 C 
ENDBRANCH   6  12
TORSDOF 3
ENDMDL
MODEL 8
REMARK VINA RESULT:    -4.592      2.306      2.741
REMARK INTER + INTRA:          -5.722
REMARK INTER:                  -5.398
REMARK INTRA:                  -0.324
REMARK UNBOUND:                -0.325
REMARK SMILES COc1ccc(C=CC(=O)[O-])cc1
REMARK SMILES IDX 6 1 5 2 12 3 4 4 13 5 3 6 7 7 8 8 9 9 10 10 11 11 2 12 1 13
REMARK H PARENT
REMARK Flexibility Score: inf
ROOT
ATOM      1  C   UNL     1     -39.073  -5.818 -13.986  1.00  0.00    -0.025 A 
ATOM      2  C   UNL     1     -38.093  -5.194 -13.204  1.00  0.00     0.012 A 
ATOM      3  C   UNL     1     -39.415  -5.263 -15.230  1.00  0.00     0.012 A 
ATOM      4  C   UNL     1     -37.425  -4.061 -13.680  1.00  0.00     0.047 A 
ATOM      5  C   UNL     1     -38.748  -4.131 -15.707  1.00  0.00     0.047 A 
ATOM      6  C   UNL     1     -37.741  -3.523 -14.933  1.00  0.00     0.118 A 
ENDROOT
BRANCH   1   7
ATOM      7  C   UNL     1     -39.802  -6.982 -13.440  1.00  0.00     0.010 C 
ATOM      8  C   UNL     1     -39.567  -8.264 -13.757  1.00  0.00     0.025 C 
BRANCH   8   9
ATOM      9  C   UNL     1     -38.426  -8.753 -14.552  1.00  0.00     0.064 C 
ATOM     10  O   UNL     1     -37.378  -9.125 -13.962  1.00  0.00    -0.545 OA
ATOM     11  O   UNL     1     -38.453  -8.747 -15.942  1.00  0.00    -0.545 OA
ENDBRANCH   8   9
ENDBRANCH   1   7
BRANCH   6  12
ATOM     12  O   UNL     1     -37.041  -2.388 -15.367  1.00  0.00    -0.497 OA
ATOM     13  C   UNL     1     -36.122  -2.378 -16.455  1.00  0.00     0.278 C 
ENDBRANCH   6  12
TORSDOF 3
ENDMDL
MODEL 9
REMARK VINA RESULT:    -4.521      1.452      5.285
REMARK INTER + INTRA:          -5.639
REMARK INTER:                  -5.320
REMARK INTRA:                  -0.319
REMARK UNBOUND:                -0.325
REMARK SMILES COc1ccc(C=CC(=O)[O-])cc1
REMARK SMILES IDX 6 1 5 2 12 3 4 4 13 5 3 6 7 7 8 8 9 9 10 10 11 11 2 12 1 13
REMARK H PARENT
REMARK Flexibility Score: inf
ROOT
ATOM      1  C   UNL     1     -35.515  -4.846 -16.759  1.00  0.00    -0.025 A 
ATOM      2  C   UNL     1     -35.689  -4.464 -15.422  1.00  0.00     0.012 A 
ATOM      3  C   UNL     1     -35.926  -6.125 -17.167  1.00  0.00     0.012 A 
ATOM      4  C   UNL     1     -36.314  -5.328 -14.516  1.00  0.00     0.047 A 
ATOM      5  C   UNL     1     -36.551  -6.989 -16.263  1.00  0.00     0.047 A 
ATOM      6  C   UNL     1     -36.753  -6.592 -14.926  1.00  0.00     0.118 A 
ENDROOT
BRANCH   1   7
ATOM      7  C   UNL     1     -34.806  -3.937 -17.684  1.00  0.00     0.010 C 
ATOM      8  C   UNL     1     -35.388  -3.163 -18.611  1.00  0.00     0.025 C 
BRANCH   8   9
ATOM      9  C   UNL     1     -36.839  -2.935 -18.746  1.00  0.00     0.064 C 
ATOM     10  O   UNL     1     -37.491  -3.599 -19.594  1.00  0.00    -0.545 OA
ATOM     11  O   UNL     1     -37.490  -1.952 -18.010  1.00  0.00    -0.545 OA
ENDBRANCH   8   9
ENDBRANCH   1   7
BRANCH   6  12
ATOM     12  O   UNL     1     -37.377  -7.420 -13.982  1.00  0.00    -0.497 OA
ATOM     13  C   UNL     1     -37.775  -8.765 -14.230  1.00  0.00     0.278 C 
ENDBRANCH   6  12
TORSDOF 3
ENDMDL
