MODEL 1
REMARK VINA RESULT:    -6.030      0.000      0.000
REMARK INTER + INTRA:         -10.725
REMARK INTER:                  -9.203
REMARK INTRA:                  -1.522
REMARK UNBOUND:                -1.522
REMARK SMILES CC(=O)CCC=C(C)CCC=C(C)CCC=C(C)C
REMARK SMILES IDX 10 1 11 2 12 3 13 4 14 5 15 6 16 7 18 8 17 9 19 10 9 11 7 12
REMARK SMILES IDX 6 13 8 14 5 15 4 16 2 17 3 18 1 19
REMARK H PARENT
REMARK Flexibility Score: inf
ROOT
ATOM      1  C   UNL     1      -8.381  23.219  66.367  1.00  0.00     0.032 C 
ENDROOT
BRANCH   1   2
ATOM      2  C   UNL     1      -8.316  22.488  65.050  1.00  0.00    -0.028 C 
ATOM      3  C   UNL     1      -8.256  23.094  63.841  1.00  0.00    -0.077 C 
ATOM      4  C   UNL     1      -8.173  24.597  63.706  1.00  0.00     0.039 C 
BRANCH   3   5
ATOM      5  C   UNL     1      -8.249  22.239  62.593  1.00  0.00     0.034 C 
BRANCH   5   6
ATOM      6  C   UNL     1      -6.962  22.463  61.790  1.00  0.00     0.032 C 
BRANCH   6   7
ATOM      7  C   UNL     1      -5.843  21.602  62.323  1.00  0.00    -0.028 C 
ATOM      8  C   UNL     1      -4.779  21.314  60.074  1.00  0.00     0.039 C 
ATOM      9  C   UNL     1      -4.868  21.059  61.561  1.00  0.00    -0.080 C 
ATOM     10  C   UNL     1      -3.835  20.189  62.229  1.00  0.00     0.039 C 
ENDBRANCH   6   7
ENDBRANCH   5   6
ENDBRANCH   3   5
ENDBRANCH   1   2
BRANCH   1  11
ATOM     11  C   UNL     1      -8.665  22.243  67.513  1.00  0.00     0.034 C 
BRANCH  11  12
ATOM     12  C   UNL     1      -7.542  22.269  68.530  1.00  0.00    -0.077 C 
ATOM     13  C   UNL     1      -7.048  21.148  69.102  1.00  0.00    -0.028 C 
ATOM     14  C   UNL     1      -6.910  23.592  68.874  1.00  0.00     0.039 C 
BRANCH  13  15
ATOM     15  C   UNL     1      -7.583  19.763  68.830  1.00  0.00     0.035 C 
BRANCH  15  16
ATOM     16  C   UNL     1      -6.696  19.012  67.831  1.00  0.00     0.079 C 
BRANCH  16  17
ATOM     17  C   UNL     1      -7.376  18.897  66.494  1.00  0.00     0.130 C 
ATOM     18  O   UNL     1      -8.469  18.358  66.413  1.00  0.00    -0.300 OA
ATOM     19  C   UNL     1      -6.730  19.459  65.264  1.00  0.00     0.087 C 
ENDBRANCH  16  17
ENDBRANCH  15  16
ENDBRANCH  13  15
ENDBRANCH  11  12
ENDBRANCH   1  11
TORSDOF 9
ENDMDL
MODEL 2
REMARK VINA RESULT:    -6.021      2.204      7.163
REMARK INTER + INTRA:         -10.711
REMARK INTER:                  -9.552
REMARK INTRA:                  -1.160
REMARK UNBOUND:                -1.522
REMARK SMILES CC(=O)CCC=C(C)CCC=C(C)CCC=C(C)C
REMARK SMILES IDX 10 1 11 2 12 3 13 4 14 5 15 6 16 7 18 8 17 9 19 10 9 11 7 12
REMARK SMILES IDX 6 13 8 14 5 15 4 16 2 17 3 18 1 19
REMARK H PARENT
REMARK Flexibility Score: inf
ROOT
ATOM      1  C   UNL     1      -6.835  20.413  64.269  1.00  0.00     0.032 C 
ENDROOT
BRANCH   1   2
ATOM      2  C   UNL     1      -7.323  20.709  65.665  1.00  0.00    -0.028 C 
ATOM      3  C   UNL     1      -7.976  19.821  66.450  1.00  0.00    -0.077 C 
ATOM      4  C   UNL     1      -8.215  18.394  66.013  1.00  0.00     0.039 C 
BRANCH   3   5
ATOM      5  C   UNL     1      -8.459  20.266  67.813  1.00  0.00     0.034 C 
BRANCH   5   6
ATOM      6  C   UNL     1      -7.278  20.439  68.777  1.00  0.00     0.032 C 
BRANCH   6   7
ATOM      7  C   UNL     1      -7.693  20.122  70.193  1.00  0.00    -0.028 C 
ATOM      8  C   UNL     1      -8.153  22.517  70.763  1.00  0.00     0.039 C 
ATOM      9  C   UNL     1      -8.066  21.048  71.104  1.00  0.00    -0.080 C 
ATOM     10  C   UNL     1      -8.420  20.584  72.494  1.00  0.00     0.039 C 
ENDBRANCH   6   7
ENDBRANCH   5   6
ENDBRANCH   3   5
ENDBRANCH   1   2
BRANCH   1  11
ATOM     11  C   UNL     1      -7.880  20.834  63.231  1.00  0.00     0.034 C 
BRANCH  11  12
ATOM     12  C   UNL     1      -7.459  22.113  62.536  1.00  0.00    -0.077 C 
ATOM     13  C   UNL     1      -6.702  22.121  61.415  1.00  0.00    -0.028 C 
ATOM     14  C   UNL     1      -7.955  23.427  63.079  1.00  0.00     0.039 C 
BRANCH  13  15
ATOM     15  C   UNL     1      -6.157  20.873  60.764  1.00  0.00     0.035 C 
BRANCH  15  16
ATOM     16  C   UNL     1      -4.648  20.989  60.520  1.00  0.00     0.079 C 
BRANCH  16  17
ATOM     17  C   UNL     1      -3.876  20.286  61.603  1.00  0.00     0.130 C 
ATOM     18  O   UNL     1      -3.601  19.102  61.481  1.00  0.00    -0.300 OA
ATOM     19  C   UNL     1      -3.424  21.034  62.821  1.00  0.00     0.087 C 
ENDBRANCH  16  17
ENDBRANCH  15  16
ENDBRANCH  13  15
ENDBRANCH  11  12
ENDBRANCH   1  11
TORSDOF 9
ENDMDL
MODEL 3
REMARK VINA RESULT:    -5.983      2.006      6.638
REMARK INTER + INTRA:         -10.652
REMARK INTER:                  -9.631
REMARK INTRA:                  -1.021
REMARK UNBOUND:                -1.522
REMARK SMILES CC(=O)CCC=C(C)CCC=C(C)CCC=C(C)C
REMARK SMILES IDX 10 1 11 2 12 3 13 4 14 5 15 6 16 7 18 8 17 9 19 10 9 11 7 12
REMARK SMILES IDX 6 13 8 14 5 15 4 16 2 17 3 18 1 19
REMARK H PARENT
REMARK Flexibility Score: inf
ROOT
ATOM      1  C   UNL     1      -8.757  22.714  65.345  1.00  0.00     0.032 C 
ENDROOT
BRANCH   1   2
ATOM      2  C   UNL     1      -8.044  22.549  66.662  1.00  0.00    -0.028 C 
ATOM      3  C   UNL     1      -7.702  23.573  67.479  1.00  0.00    -0.077 C 
ATOM      4  C   UNL     1      -8.083  25.001  67.170  1.00  0.00     0.039 C 
BRANCH   3   5
ATOM      5  C   UNL     1      -6.939  23.271  68.751  1.00  0.00     0.034 C 
BRANCH   5   6
ATOM      6  C   UNL     1      -6.795  21.757  68.950  1.00  0.00     0.032 C 
BRANCH   6   7
ATOM      7  C   UNL     1      -7.300  21.347  70.312  1.00  0.00    -0.028 C 
ATOM      8  C   UNL     1      -7.514  18.933  69.681  1.00  0.00     0.039 C 
ATOM      9  C   UNL     1      -7.650  20.086  70.648  1.00  0.00    -0.080 C 
ATOM     10  C   UNL     1      -8.173  19.833  72.039  1.00  0.00     0.039 C 
ENDBRANCH   6   7
ENDBRANCH   5   6
ENDBRANCH   3   5
ENDBRANCH   1   2
BRANCH   1  11
ATOM     11  C   UNL     1      -8.039  21.933  64.240  1.00  0.00     0.034 C 
BRANCH  11  12
ATOM     12  C   UNL     1      -7.658  22.850  63.095  1.00  0.00    -0.077 C 
ATOM     13  C   UNL     1      -6.896  22.445  62.055  1.00  0.00    -0.028 C 
ATOM     14  C   UNL     1      -8.201  24.255  63.085  1.00  0.00     0.039 C 
BRANCH  13  15
ATOM     15  C   UNL     1      -6.305  21.060  61.941  1.00  0.00     0.035 C 
BRANCH  15  16
ATOM     16  C   UNL     1      -5.013  21.075  61.116  1.00  0.00     0.079 C 
BRANCH  16  17
ATOM     17  C   UNL     1      -3.846  20.607  61.942  1.00  0.00     0.130 C 
ATOM     18  O   UNL     1      -3.637  19.411  62.075  1.00  0.00    -0.300 OA
ATOM     19  C   UNL     1      -2.924  21.599  62.584  1.00  0.00     0.087 C 
ENDBRANCH  16  17
ENDBRANCH  15  16
ENDBRANCH  13  15
ENDBRANCH  11  12
ENDBRANCH   1  11
TORSDOF 9
ENDMDL
MODEL 4
REMARK VINA RESULT:    -5.857      2.266      3.927
REMARK INTER + INTRA:         -10.461
REMARK INTER:                  -9.101
REMARK INTRA:                  -1.360
REMARK UNBOUND:                -1.522
REMARK SMILES CC(=O)CCC=C(C)CCC=C(C)CCC=C(C)C
REMARK SMILES IDX 10 1 11 2 12 3 13 4 14 5 15 6 16 7 18 8 17 9 19 10 9 11 7 12
REMARK SMILES IDX 6 13 8 14 5 15 4 16 2 17 3 18 1 19
REMARK H PARENT
REMARK Flexibility Score: inf
ROOT
ATOM      1  C   UNL     1      -7.402  20.186  67.915  1.00  0.00     0.032 C 
ENDROOT
BRANCH   1   2
ATOM      2  C   UNL     1      -7.613  20.536  66.464  1.00  0.00    -0.028 C 
ATOM      3  C   UNL     1      -7.982  19.649  65.510  1.00  0.00    -0.077 C 
ATOM      4  C   UNL     1      -8.296  18.208  65.838  1.00  0.00     0.039 C 
BRANCH   3   5
ATOM      5  C   UNL     1      -8.106  20.124  64.078  1.00  0.00     0.034 C 
BRANCH   5   6
ATOM      6  C   UNL     1      -7.015  21.151  63.751  1.00  0.00     0.032 C 
BRANCH   6   7
ATOM      7  C   UNL     1      -6.675  21.119  62.281  1.00  0.00    -0.028 C 
ATOM      8  C   UNL     1      -4.251  20.643  62.689  1.00  0.00     0.039 C 
ATOM      9  C   UNL     1      -5.433  20.916  61.789  1.00  0.00    -0.080 C 
ATOM     10  C   UNL     1      -5.239  20.947  60.295  1.00  0.00     0.039 C 
ENDBRANCH   6   7
ENDBRANCH   5   6
ENDBRANCH   3   5
ENDBRANCH   1   2
BRANCH   1  11
ATOM     11  C   UNL     1      -8.582  20.669  68.764  1.00  0.00     0.034 C 
BRANCH  11  12
ATOM     12  C   UNL     1      -8.099  21.216  70.092  1.00  0.00    -0.077 C 
ATOM     13  C   UNL     1      -8.060  22.539  70.367  1.00  0.00    -0.028 C 
ATOM     14  C   UNL     1      -7.703  20.244  71.172  1.00  0.00     0.039 C 
BRANCH  13  15
ATOM     15  C   UNL     1      -8.445  23.612  69.377  1.00  0.00     0.035 C 
BRANCH  15  16
ATOM     16  C   UNL     1      -7.272  23.963  68.456  1.00  0.00     0.079 C 
BRANCH  16  17
ATOM     17  C   UNL     1      -7.752  24.697  67.234  1.00  0.00     0.130 C 
ATOM     18  O   UNL     1      -7.680  25.916  67.191  1.00  0.00    -0.300 OA
ATOM     19  C   UNL     1      -8.299  23.941  66.061  1.00  0.00     0.087 C 
ENDBRANCH  16  17
ENDBRANCH  15  16
ENDBRANCH  13  15
ENDBRANCH  11  12
ENDBRANCH   1  11
TORSDOF 9
ENDMDL
MODEL 5
REMARK VINA RESULT:    -5.694      2.577      7.063
REMARK INTER + INTRA:         -10.212
REMARK INTER:                  -8.853
REMARK INTRA:                  -1.358
REMARK UNBOUND:                -1.522
REMARK SMILES CC(=O)CCC=C(C)CCC=C(C)CCC=C(C)C
REMARK SMILES IDX 10 1 11 2 12 3 13 4 14 5 15 6 16 7 18 8 17 9 19 10 9 11 7 12
REMARK SMILES IDX 6 13 8 14 5 15 4 16 2 17 3 18 1 19
REMARK H PARENT
REMARK Flexibility Score: inf
ROOT
ATOM      1  C   UNL     1      -7.089  21.515  63.074  1.00  0.00     0.032 C 
ENDROOT
BRANCH   1   2
ATOM      2  C   UNL     1      -7.444  20.368  63.985  1.00  0.00    -0.028 C 
ATOM      3  C   UNL     1      -7.905  20.512  65.250  1.00  0.00    -0.077 C 
ATOM      4  C   UNL     1      -8.182  21.870  65.849  1.00  0.00     0.039 C 
BRANCH   3   5
ATOM      5  C   UNL     1      -8.173  19.272  66.076  1.00  0.00     0.034 C 
BRANCH   5   6
ATOM      6  C   UNL     1      -7.044  19.040  67.088  1.00  0.00     0.032 C 
BRANCH   6   7
ATOM      7  C   UNL     1      -7.573  19.097  68.500  1.00  0.00    -0.028 C 
ATOM      8  C   UNL     1      -6.489  21.303  68.984  1.00  0.00     0.039 C 
ATOM      9  C   UNL     1      -7.312  20.096  69.372  1.00  0.00    -0.080 C 
ATOM     10  C   UNL     1      -7.880  20.000  70.765  1.00  0.00     0.039 C 
ENDBRANCH   6   7
ENDBRANCH   5   6
ENDBRANCH   3   5
ENDBRANCH   1   2
BRANCH   1  11
ATOM     11  C   UNL     1      -6.286  21.019  61.868  1.00  0.00     0.034 C 
BRANCH  11  12
ATOM     12  C   UNL     1      -4.800  21.205  62.100  1.00  0.00    -0.077 C 
ATOM     13  C   UNL     1      -4.110  22.259  61.608  1.00  0.00    -0.028 C 
ATOM     14  C   UNL     1      -4.073  20.210  62.965  1.00  0.00     0.039 C 
BRANCH  13  15
ATOM     15  C   UNL     1      -4.725  23.332  60.742  1.00  0.00     0.035 C 
BRANCH  15  16
ATOM     16  C   UNL     1      -4.994  24.608  61.548  1.00  0.00     0.079 C 
BRANCH  16  17
ATOM     17  C   UNL     1      -6.443  25.002  61.458  1.00  0.00     0.130 C 
ATOM     18  O   UNL     1      -6.962  25.160  60.364  1.00  0.00    -0.300 OA
ATOM     19  C   UNL     1      -7.260  25.179  62.702  1.00  0.00     0.087 C 
ENDBRANCH  16  17
ENDBRANCH  15  16
ENDBRANCH  13  15
ENDBRANCH  11  12
ENDBRANCH   1  11
TORSDOF 9
ENDMDL
MODEL 6
REMARK VINA RESULT:    -5.684      3.137      5.788
REMARK INTER + INTRA:         -10.197
REMARK INTER:                  -9.076
REMARK INTRA:                  -1.121
REMARK UNBOUND:                -1.522
REMARK SMILES CC(=O)CCC=C(C)CCC=C(C)CCC=C(C)C
REMARK SMILES IDX 10 1 11 2 12 3 13 4 14 5 15 6 16 7 18 8 17 9 19 10 9 11 7 12
REMARK SMILES IDX 6 13 8 14 5 15 4 16 2 17 3 18 1 19
REMARK H PARENT
REMARK Flexibility Score: inf
ROOT
ATOM      1  C   UNL     1      -7.032  22.694  69.087  1.00  0.00     0.032 C 
ENDROOT
BRANCH   1   2
ATOM      2  C   UNL     1      -7.479  23.961  68.405  1.00  0.00    -0.028 C 
ATOM      3  C   UNL     1      -7.926  24.025  67.128  1.00  0.00    -0.077 C 
ATOM      4  C   UNL     1      -8.089  22.788  66.277  1.00  0.00     0.039 C 
BRANCH   3   5
ATOM      5  C   UNL     1      -8.294  25.374  66.549  1.00  0.00     0.034 C 
BRANCH   5   6
ATOM      6  C   UNL     1      -7.641  26.506  67.351  1.00  0.00     0.032 C 
BRANCH   6   7
ATOM      7  C   UNL     1      -8.147  27.850  66.887  1.00  0.00    -0.028 C 
ATOM      8  C   UNL     1      -7.765  28.938  69.110  1.00  0.00     0.039 C 
ATOM      9  C   UNL     1      -8.231  28.946  67.673  1.00  0.00    -0.080 C 
ATOM     10  C   UNL     1      -8.791  30.213  67.079  1.00  0.00     0.039 C 
ENDBRANCH   6   7
ENDBRANCH   5   6
ENDBRANCH   3   5
ENDBRANCH   1   2
BRANCH   1  11
ATOM     11  C   UNL     1      -8.226  21.964  69.709  1.00  0.00     0.034 C 
BRANCH  11  12
ATOM     12  C   UNL     1      -7.774  20.705  70.421  1.00  0.00    -0.077 C 
ATOM     13  C   UNL     1      -7.646  19.515  69.791  1.00  0.00    -0.028 C 
ATOM     14  C   UNL     1      -7.392  20.794  71.875  1.00  0.00     0.039 C 
BRANCH  13  15
ATOM     15  C   UNL     1      -7.981  19.298  68.335  1.00  0.00     0.035 C 
BRANCH  15  16
ATOM     16  C   UNL     1      -6.735  19.439  67.453  1.00  0.00     0.079 C 
BRANCH  16  17
ATOM     17  C   UNL     1      -7.084  19.251  66.002  1.00  0.00     0.130 C 
ATOM     18  O   UNL     1      -6.367  19.733  65.138  1.00  0.00    -0.300 OA
ATOM     19  C   UNL     1      -8.294  18.458  65.609  1.00  0.00     0.087 C 
ENDBRANCH  16  17
ENDBRANCH  15  16
ENDBRANCH  13  15
ENDBRANCH  11  12
ENDBRANCH   1  11
TORSDOF 9
ENDMDL
MODEL 7
REMARK VINA RESULT:    -5.611      3.135      4.736
REMARK INTER + INTRA:         -10.085
REMARK INTER:                  -8.749
REMARK INTRA:                  -1.336
REMARK UNBOUND:                -1.522
REMARK SMILES CC(=O)CCC=C(C)CCC=C(C)CCC=C(C)C
REMARK SMILES IDX 10 1 11 2 12 3 13 4 14 5 15 6 16 7 18 8 17 9 19 10 9 11 7 12
REMARK SMILES IDX 6 13 8 14 5 15 4 16 2 17 3 18 1 19
REMARK H PARENT
REMARK Flexibility Score: inf
ROOT
ATOM      1  C   UNL     1      -7.254  23.121  69.495  1.00  0.00     0.032 C 
ENDROOT
BRANCH   1   2
ATOM      2  C   UNL     1      -7.302  23.623  68.075  1.00  0.00    -0.028 C 
ATOM      3  C   UNL     1      -7.994  24.715  67.673  1.00  0.00    -0.077 C 
ATOM      4  C   UNL     1      -8.737  25.593  68.652  1.00  0.00     0.039 C 
BRANCH   3   5
ATOM      5  C   UNL     1      -8.000  25.077  66.204  1.00  0.00     0.034 C 
BRANCH   5   6
ATOM      6  C   UNL     1      -7.976  26.600  66.021  1.00  0.00     0.032 C 
BRANCH   6   7
ATOM      7  C   UNL     1      -7.611  26.961  64.602  1.00  0.00    -0.028 C 
ATOM      8  C   UNL     1      -6.180  28.896  65.294  1.00  0.00     0.039 C 
ATOM      9  C   UNL     1      -6.825  28.005  64.258  1.00  0.00    -0.080 C 
ATOM     10  C   UNL     1      -6.577  28.266  62.794  1.00  0.00     0.039 C 
ENDBRANCH   6   7
ENDBRANCH   5   6
ENDBRANCH   3   5
ENDBRANCH   1   2
BRANCH   1  11
ATOM     11  C   UNL     1      -8.369  22.102  69.747  1.00  0.00     0.034 C 
BRANCH  11  12
ATOM     12  C   UNL     1      -7.816  20.851  70.399  1.00  0.00    -0.077 C 
ATOM     13  C   UNL     1      -7.624  19.697  69.722  1.00  0.00    -0.028 C 
ATOM     14  C   UNL     1      -7.405  20.912  71.847  1.00  0.00     0.039 C 
BRANCH  13  15
ATOM     15  C   UNL     1      -7.980  19.511  68.266  1.00  0.00     0.035 C 
BRANCH  15  16
ATOM     16  C   UNL     1      -6.769  19.772  67.362  1.00  0.00     0.079 C 
BRANCH  16  17
ATOM     17  C   UNL     1      -7.210  20.216  65.994  1.00  0.00     0.130 C 
ATOM     18  O   UNL     1      -6.531  19.936  65.017  1.00  0.00    -0.300 OA
ATOM     19  C   UNL     1      -8.487  20.979  65.819  1.00  0.00     0.087 C 
ENDBRANCH  16  17
ENDBRANCH  15  16
ENDBRANCH  13  15
ENDBRANCH  11  12
ENDBRANCH   1  11
TORSDOF 9
ENDMDL
MODEL 8
REMARK VINA RESULT:    -5.583      2.605      4.215
REMARK INTER + INTRA:         -10.042
REMARK INTER:                  -9.100
REMARK INTRA:                  -0.942
REMARK UNBOUND:                -1.522
REMARK SMILES CC(=O)CCC=C(C)CCC=C(C)CCC=C(C)C
REMARK SMILES IDX 10 1 11 2 12 3 13 4 14 5 15 6 16 7 18 8 17 9 19 10 9 11 7 12
REMARK SMILES IDX 6 13 8 14 5 15 4 16 2 17 3 18 1 19
REMARK H PARENT
REMARK Flexibility Score: inf
ROOT
ATOM      1  C   UNL     1      -7.107  20.251  64.067  1.00  0.00     0.032 C 
ENDROOT
BRANCH   1   2
ATOM      2  C   UNL     1      -6.751  21.348  63.095  1.00  0.00    -0.028 C 
ATOM      3  C   UNL     1      -5.600  21.395  62.385  1.00  0.00    -0.077 C 
ATOM      4  C   UNL     1      -4.577  20.286  62.449  1.00  0.00     0.039 C 
BRANCH   3   5
ATOM      5  C   UNL     1      -5.346  22.583  61.483  1.00  0.00     0.034 C 
BRANCH   5   6
ATOM      6  C   UNL     1      -3.867  22.655  61.084  1.00  0.00     0.032 C 
BRANCH   6   7
ATOM      7  C   UNL     1      -3.169  23.774  61.817  1.00  0.00    -0.028 C 
ATOM      8  C   UNL     1      -1.702  22.219  63.121  1.00  0.00     0.039 C 
ATOM      9  C   UNL     1      -2.211  23.593  62.753  1.00  0.00    -0.080 C 
ATOM     10  C   UNL     1      -1.629  24.808  63.429  1.00  0.00     0.039 C 
ENDBRANCH   6   7
ENDBRANCH   5   6
ENDBRANCH   3   5
ENDBRANCH   1   2
BRANCH   1  11
ATOM     11  C   UNL     1      -7.677  20.840  65.361  1.00  0.00     0.034 C 
BRANCH  11  12
ATOM     12  C   UNL     1      -7.994  19.741  66.356  1.00  0.00    -0.077 C 
ATOM     13  C   UNL     1      -8.035  19.953  67.690  1.00  0.00    -0.028 C 
ATOM     14  C   UNL     1      -8.336  18.371  65.833  1.00  0.00     0.039 C 
BRANCH  13  15
ATOM     15  C   UNL     1      -7.728  21.282  68.337  1.00  0.00     0.035 C 
BRANCH  15  16
ATOM     16  C   UNL     1      -6.880  21.101  69.601  1.00  0.00     0.079 C 
BRANCH  16  17
ATOM     17  C   UNL     1      -7.745  21.113  70.831  1.00  0.00     0.130 C 
ATOM     18  O   UNL     1      -8.284  22.152  71.184  1.00  0.00    -0.300 OA
ATOM     19  C   UNL     1      -7.970  19.855  71.614  1.00  0.00     0.087 C 
ENDBRANCH  16  17
ENDBRANCH  15  16
ENDBRANCH  13  15
ENDBRANCH  11  12
ENDBRANCH   1  11
TORSDOF 9
ENDMDL
MODEL 9
REMARK VINA RESULT:    -3.590      1.910      6.620
REMARK INTER + INTRA:          -7.000
REMARK INTER:                  -5.734
REMARK INTRA:                  -1.267
REMARK UNBOUND:                -1.522
REMARK SMILES CC(=O)CCC=C(C)CCC=C(C)CCC=C(C)C
REMARK SMILES IDX 10 1 11 2 12 3 13 4 14 5 15 6 16 7 18 8 17 9 19 10 9 11 7 12
REMARK SMILES IDX 6 13 8 14 5 15 4 16 2 17 3 18 1 19
REMARK H PARENT
REMARK Flexibility Score: inf
ROOT
ATOM      1  C   UNL     1      -7.296  20.107  65.355  1.00  0.00     0.032 C 
ENDROOT
BRANCH   1   2
ATOM      2  C   UNL     1      -8.248  20.405  66.484  1.00  0.00    -0.028 C 
ATOM      3  C   UNL     1      -7.916  20.363  67.796  1.00  0.00    -0.077 C 
ATOM      4  C   UNL     1      -6.504  20.078  68.252  1.00  0.00     0.039 C 
BRANCH   3   5
ATOM      5  C   UNL     1      -8.986  20.633  68.831  1.00  0.00     0.034 C 
BRANCH   5   6
ATOM      6  C   UNL     1      -8.468  21.594  69.909  1.00  0.00     0.032 C 
BRANCH   6   7
ATOM      7  C   UNL     1      -9.057  22.971  69.723  1.00  0.00    -0.028 C 
ATOM      8  C   UNL     1      -7.058  23.832  68.484  1.00  0.00     0.039 C 
ATOM      9  C   UNL     1      -8.425  23.995  69.106  1.00  0.00    -0.080 C 
ATOM     10  C   UNL     1      -9.125  25.327  69.028  1.00  0.00     0.039 C 
ENDBRANCH   6   7
ENDBRANCH   5   6
ENDBRANCH   3   5
ENDBRANCH   1   2
BRANCH   1  11
ATOM     11  C   UNL     1      -7.962  20.373  64.002  1.00  0.00     0.034 C 
BRANCH  11  12
ATOM     12  C   UNL     1      -7.663  21.780  63.524  1.00  0.00    -0.077 C 
ATOM     13  C   UNL     1      -6.948  22.035  62.405  1.00  0.00    -0.028 C 
ATOM     14  C   UNL     1      -8.236  22.941  64.292  1.00  0.00     0.039 C 
BRANCH  13  15
ATOM     15  C   UNL     1      -6.334  20.960  61.539  1.00  0.00     0.035 C 
BRANCH  15  16
ATOM     16  C   UNL     1      -4.860  21.259  61.247  1.00  0.00     0.079 C 
BRANCH  16  17
ATOM     17  C   UNL     1      -4.008  20.974  62.453  1.00  0.00     0.130 C 
ATOM     18  O   UNL     1      -4.344  20.105  63.243  1.00  0.00    -0.300 OA
ATOM     19  C   UNL     1      -2.736  21.735  62.680  1.00  0.00     0.087 C 
ENDBRANCH  16  17
ENDBRANCH  15  16
ENDBRANCH  13  15
ENDBRANCH  11  12
ENDBRANCH   1  11
TORSDOF 9
ENDMDL
