MODEL 1
REMARK VINA RESULT:    13.753      0.000      0.000
REMARK INTER + INTRA:          18.354
REMARK INTER:                  18.175
REMARK INTRA:                   0.179
REMARK UNBOUND:                 0.179
REMARK SMILES CC[C@@H](C=C[C@H](C)[C@@H]1CC[C@@H]2[C@@H]3CC=C4C[C@@H](O)CC[C@]4(C)[C@@H]3CC[C@]21C)C(C)C
REMARK SMILES IDX 6 1 7 2 5 3 4 4 3 5 2 6 1 7 28 8 29 9 30 10 8 11 9 12 26 13
REMARK SMILES IDX 10 14 11 15 25 16 27 17 12 18 24 19 23 20 13 21 21 22 14 23
REMARK SMILES IDX 15 24 20 25 22 26 16 27 19 28 17 29 18 30
REMARK H PARENT 18 31
REMARK Flexibility Score: inf
ROOT
ATOM      1  C   UNL     1      76.776  40.351  24.739  1.00  0.00     0.012 C 
ATOM      2  C   UNL     1      77.192  41.817  24.968  1.00  0.00     0.012 C 
ENDROOT
BRANCH   1   3
ATOM      3  C   UNL     1      75.977  39.828  25.925  1.00  0.00    -0.028 C 
ATOM      4  C   UNL     1      75.874  40.462  27.111  1.00  0.00    -0.027 C 
BRANCH   4   5
ATOM      5  C   UNL     1      75.122  39.924  28.328  1.00  0.00     0.014 C 
BRANCH   5   6
ATOM      6  C   UNL     1      75.047  41.037  29.408  1.00  0.00     0.004 C 
ATOM      7  C   UNL     1      76.419  41.570  29.843  1.00  0.00     0.004 C 
ENDBRANCH   5   6
BRANCH   5   8
ATOM      8  C   UNL     1      75.611  38.510  28.823  1.00  0.00    -0.011 C 
ATOM      9  C   UNL     1      77.057  38.149  28.416  1.00  0.00     0.008 C 
ATOM     10  C   UNL     1      75.429  38.328  30.338  1.00  0.00     0.008 C 
ENDBRANCH   5   8
ENDBRANCH   4   5
ENDBRANCH   1   3
BRANCH   1  11
ATOM     11  C   UNL     1      76.144  40.154  23.321  1.00  0.00     0.002 C 
ATOM     12  C   UNL     1      77.080  40.339  22.098  1.00  0.00     0.005 C 
ATOM     13  C   UNL     1      74.863  40.963  22.944  1.00  0.00    -0.026 C 
ATOM     14  C   UNL     1      76.174  40.693  20.900  1.00  0.00     0.005 C 
ATOM     15  C   UNL     1      74.762  40.561  21.455  1.00  0.00    -0.001 C 
ATOM     16  C   UNL     1      73.561  40.509  23.629  1.00  0.00     0.007 C 
ATOM     17  C   UNL     1      75.098  42.479  23.218  1.00  0.00     0.012 C 
ATOM     18  C   UNL     1      73.551  41.082  20.641  1.00  0.00     0.000 C 
ATOM     19  C   UNL     1      72.316  41.115  22.930  1.00  0.00     0.005 C 
ATOM     20  C   UNL     1      72.220  40.782  21.407  1.00  0.00     0.003 C 
ATOM     21  C   UNL     1      73.651  42.536  20.169  1.00  0.00     0.031 C 
ATOM     22  C   UNL     1      70.922  41.322  20.622  1.00  0.00    -0.008 C 
ATOM     23  C   UNL     1      72.451  42.932  19.383  1.00  0.00    -0.027 C 
ATOM     24  C   UNL     1      71.205  42.504  19.676  1.00  0.00    -0.065 C 
ATOM     25  C   UNL     1      69.735  41.714  21.572  1.00  0.00     0.014 C 
ATOM     26  C   UNL     1      70.448  40.148  19.720  1.00  0.00     0.016 C 
ATOM     27  C   UNL     1      70.064  43.125  18.882  1.00  0.00     0.063 C 
ATOM     28  C   UNL     1      68.782  42.838  21.089  1.00  0.00     0.033 C 
ATOM     29  C   UNL     1      68.689  43.060  19.570  1.00  0.00     0.118 C 
BRANCH  29  30
ATOM     30  O   UNL     1      67.874  42.086  18.969  1.00  0.00    -0.393 OA
ATOM     31  H   UNL     1      68.299  41.841  18.104  1.00  0.00     0.210 HD
ENDBRANCH  29  30
ENDBRANCH   1  11
TORSDOF 6
ENDMDL
