MODEL 1
REMARK VINA RESULT:    -0.184      0.000      0.000
REMARK INTER + INTRA:          -0.184
REMARK INTER:                  -0.184
REMARK INTRA:                   0.000
REMARK UNBOUND:                 0.000
REMARK SMILES CC1=CC(=O)[C@H]2C[C@@H]1C2(C)C
REMARK SMILES IDX 1 1 2 2 3 3 4 4 5 5 6 6 7 7 8 8 9 9 10 10 11 11
REMARK H PARENT
REMARK Flexibility Score: inf
ROOT
ATOM      1  C   UNL     1     136.549 137.142 138.334  1.00  0.00     0.040 C 
ATOM      2  C   UNL     1     137.731 136.773 139.173  1.00  0.00    -0.066 C 
ATOM      3  C   UNL     1     137.993 135.476 139.496  1.00  0.00     0.047 C 
ATOM      4  C   UNL     1     139.189 135.239 140.368  1.00  0.00     0.159 C 
ATOM      5  O   UNL     1     139.512 134.090 140.767  1.00  0.00    -0.295 OA
ATOM      6  C   UNL     1     139.986 136.489 140.739  1.00  0.00     0.067 C 
ATOM      7  C   UNL     1     140.124 137.260 139.408  1.00  0.00     0.021 C 
ATOM      8  C   UNL     1     138.719 137.836 139.698  1.00  0.00     0.022 C 
ATOM      9  C   UNL     1     138.992 137.589 141.210  1.00  0.00    -0.019 C 
ATOM     10  C   UNL     1     139.711 138.786 141.883  1.00  0.00     0.012 C 
ATOM     11  C   UNL     1     137.799 137.168 142.113  1.00  0.00     0.012 C 
ENDROOT
TORSDOF 0
ENDMDL
MODEL 2
REMARK VINA RESULT:    -0.149      2.226      3.675
REMARK INTER + INTRA:          -0.149
REMARK INTER:                  -0.149
REMARK INTRA:                   0.000
REMARK UNBOUND:                 0.000
REMARK SMILES CC1=CC(=O)[C@H]2C[C@@H]1C2(C)C
REMARK SMILES IDX 1 1 2 2 3 3 4 4 5 5 6 6 7 7 8 8 9 9 10 10 11 11
REMARK H PARENT
REMARK Flexibility Score: inf
ROOT
ATOM      1  C   UNL     1     139.709 137.614 142.123  1.00  0.00     0.040 C 
ATOM      2  C   UNL     1     138.429 137.318 141.409  1.00  0.00    -0.066 C 
ATOM      3  C   UNL     1     138.417 136.958 140.095  1.00  0.00     0.047 C 
ATOM      4  C   UNL     1     137.069 136.718 139.485  1.00  0.00     0.159 C 
ATOM      5  O   UNL     1     136.925 136.419 138.272  1.00  0.00    -0.295 OA
ATOM      6  C   UNL     1     135.884 136.864 140.440  1.00  0.00     0.067 C 
ATOM      7  C   UNL     1     136.322 136.098 141.707  1.00  0.00     0.021 C 
ATOM      8  C   UNL     1     137.064 137.388 142.125  1.00  0.00     0.022 C 
ATOM      9  C   UNL     1     136.057 138.184 141.245  1.00  0.00    -0.019 C 
ATOM     10  C   UNL     1     134.773 138.573 142.022  1.00  0.00     0.012 C 
ATOM     11  C   UNL     1     136.572 139.444 140.495  1.00  0.00     0.012 C 
ENDROOT
TORSDOF 0
ENDMDL
MODEL 3
REMARK VINA RESULT:    -0.140      2.314      3.216
REMARK INTER + INTRA:          -0.140
REMARK INTER:                  -0.140
REMARK INTRA:                   0.000
REMARK UNBOUND:                 0.000
REMARK SMILES CC1=CC(=O)[C@H]2C[C@@H]1C2(C)C
REMARK SMILES IDX 1 1 2 2 3 3 4 4 5 5 6 6 7 7 8 8 9 9 10 10 11 11
REMARK H PARENT
REMARK Flexibility Score: inf
ROOT
ATOM      1  C   UNL     1     137.029 135.305 138.393  1.00  0.00     0.040 C 
ATOM      2  C   UNL     1     137.232 136.501 139.267  1.00  0.00    -0.066 C 
ATOM      3  C   UNL     1     136.779 137.732 138.901  1.00  0.00     0.047 C 
ATOM      4  C   UNL     1     137.072 138.856 139.849  1.00  0.00     0.159 C 
ATOM      5  O   UNL     1     136.739 140.044 139.604  1.00  0.00    -0.295 OA
ATOM      6  C   UNL     1     137.802 138.456 141.131  1.00  0.00     0.067 C 
ATOM      7  C   UNL     1     137.056 137.193 141.614  1.00  0.00     0.021 C 
ATOM      8  C   UNL     1     137.946 136.398 140.632  1.00  0.00     0.022 C 
ATOM      9  C   UNL     1     139.000 137.537 140.753  1.00  0.00    -0.019 C 
ATOM     10  C   UNL     1     139.972 137.318 141.939  1.00  0.00     0.012 C 
ATOM     11  C   UNL     1     139.839 137.899 139.495  1.00  0.00     0.012 C 
ENDROOT
TORSDOF 0
ENDMDL
MODEL 4
REMARK VINA RESULT:    -0.133     21.430     23.709
REMARK INTER + INTRA:          -0.133
REMARK INTER:                  -0.133
REMARK INTRA:                   0.000
REMARK UNBOUND:                 0.000
REMARK SMILES CC1=CC(=O)[C@H]2C[C@@H]1C2(C)C
REMARK SMILES IDX 1 1 2 2 3 3 4 4 5 5 6 6 7 7 8 8 9 9 10 10 11 11
REMARK H PARENT
REMARK Flexibility Score: inf
ROOT
ATOM      1  C   UNL     1     123.783 137.388 125.450  1.00  0.00     0.040 C 
ATOM      2  C   UNL     1     122.544 138.214 125.308  1.00  0.00    -0.066 C 
ATOM      3  C   UNL     1     121.858 138.657 126.398  1.00  0.00     0.047 C 
ATOM      4  C   UNL     1     120.615 139.448 126.123  1.00  0.00     0.159 C 
ATOM      5  O   UNL     1     119.876 139.879 127.045  1.00  0.00    -0.295 OA
ATOM      6  C   UNL     1     120.310 139.694 124.645  1.00  0.00     0.067 C 
ATOM      7  C   UNL     1     121.666 140.125 124.045  1.00  0.00     0.021 C 
ATOM      8  C   UNL     1     121.992 138.618 123.924  1.00  0.00     0.022 C 
ATOM      9  C   UNL     1     120.460 138.349 123.878  1.00  0.00    -0.019 C 
ATOM     10  C   UNL     1     119.890 138.424 122.439  1.00  0.00     0.012 C 
ATOM     11  C   UNL     1     119.921 137.053 124.549  1.00  0.00     0.012 C 
ENDROOT
TORSDOF 0
ENDMDL
MODEL 5
REMARK VINA RESULT:    -0.132     21.180     22.616
REMARK INTER + INTRA:          -0.132
REMARK INTER:                  -0.132
REMARK INTRA:                   0.000
REMARK UNBOUND:                 0.000
REMARK SMILES CC1=CC(=O)[C@H]2C[C@@H]1C2(C)C
REMARK SMILES IDX 1 1 2 2 3 3 4 4 5 5 6 6 7 7 8 8 9 9 10 10 11 11
REMARK H PARENT
REMARK Flexibility Score: inf
ROOT
ATOM      1  C   UNL     1     139.999 123.375 122.173  1.00  0.00     0.040 C 
ATOM      2  C   UNL     1     139.199 122.305 122.845  1.00  0.00    -0.066 C 
ATOM      3  C   UNL     1     137.844 122.247 122.715  1.00  0.00     0.047 C 
ATOM      4  C   UNL     1     137.153 121.146 123.463  1.00  0.00     0.159 C 
ATOM      5  O   UNL     1     135.903 121.011 123.454  1.00  0.00    -0.295 OA
ATOM      6  C   UNL     1     138.075 120.202 124.235  1.00  0.00     0.067 C 
ATOM      7  C   UNL     1     139.212 119.885 123.240  1.00  0.00     0.021 C 
ATOM      8  C   UNL     1     139.866 121.208 123.701  1.00  0.00     0.022 C 
ATOM      9  C   UNL     1     139.094 121.056 125.043  1.00  0.00    -0.019 C 
ATOM     10  C   UNL     1     139.876 120.213 126.082  1.00  0.00     0.012 C 
ATOM     11  C   UNL     1     138.583 122.345 125.747  1.00  0.00     0.012 C 
ENDROOT
TORSDOF 0
ENDMDL
MODEL 6
REMARK VINA RESULT:    -0.129     20.488     22.012
REMARK INTER + INTRA:          -0.129
REMARK INTER:                  -0.129
REMARK INTRA:                   0.000
REMARK UNBOUND:                 0.000
REMARK SMILES CC1=CC(=O)[C@H]2C[C@@H]1C2(C)C
REMARK SMILES IDX 1 1 2 2 3 3 4 4 5 5 6 6 7 7 8 8 9 9 10 10 11 11
REMARK H PARENT
REMARK Flexibility Score: inf
ROOT
ATOM      1  C   UNL     1     136.254 122.826 126.065  1.00  0.00     0.040 C 
ATOM      2  C   UNL     1     137.316 121.866 125.631  1.00  0.00    -0.066 C 
ATOM      3  C   UNL     1     138.197 121.332 126.522  1.00  0.00     0.047 C 
ATOM      4  C   UNL     1     139.233 120.407 125.957  1.00  0.00     0.159 C 
ATOM      5  O   UNL     1     140.125 119.882 126.672  1.00  0.00    -0.295 OA
ATOM      6  C   UNL     1     139.129 120.149 124.454  1.00  0.00     0.067 C 
ATOM      7  C   UNL     1     137.627 119.885 124.218  1.00  0.00     0.021 C 
ATOM      8  C   UNL     1     137.455 121.420 124.160  1.00  0.00     0.022 C 
ATOM      9  C   UNL     1     138.948 121.513 123.729  1.00  0.00    -0.019 C 
ATOM     10  C   UNL     1     139.128 121.393 122.194  1.00  0.00     0.012 C 
ATOM     11  C   UNL     1     139.781 122.729 124.223  1.00  0.00     0.012 C 
ENDROOT
TORSDOF 0
ENDMDL
MODEL 7
REMARK VINA RESULT:    -0.124      1.677      2.210
REMARK INTER + INTRA:          -0.124
REMARK INTER:                  -0.124
REMARK INTRA:                   0.000
REMARK UNBOUND:                 0.000
REMARK SMILES CC1=CC(=O)[C@H]2C[C@@H]1C2(C)C
REMARK SMILES IDX 1 1 2 2 3 3 4 4 5 5 6 6 7 7 8 8 9 9 10 10 11 11
REMARK H PARENT
REMARK Flexibility Score: inf
ROOT
ATOM      1  C   UNL     1     138.338 139.628 137.192  1.00  0.00     0.040 C 
ATOM      2  C   UNL     1     138.724 138.829 138.396  1.00  0.00    -0.066 C 
ATOM      3  C   UNL     1     139.276 137.589 138.277  1.00  0.00     0.047 C 
ATOM      4  C   UNL     1     139.591 136.877 139.558  1.00  0.00     0.159 C 
ATOM      5  O   UNL     1     140.066 135.713 139.580  1.00  0.00    -0.295 OA
ATOM      6  C   UNL     1     139.292 137.665 140.834  1.00  0.00     0.067 C 
ATOM      7  C   UNL     1     139.866 139.071 140.554  1.00  0.00     0.021 C 
ATOM      8  C   UNL     1     138.535 139.373 139.828  1.00  0.00     0.022 C 
ATOM      9  C   UNL     1     137.869 138.281 140.714  1.00  0.00    -0.019 C 
ATOM     10  C   UNL     1     137.356 138.847 142.063  1.00  0.00     0.012 C 
ATOM     11  C   UNL     1     136.740 137.414 140.088  1.00  0.00     0.012 C 
ENDROOT
TORSDOF 0
ENDMDL
MODEL 8
REMARK VINA RESULT:    -0.116      1.838      2.856
REMARK INTER + INTRA:          -0.116
REMARK INTER:                  -0.116
REMARK INTRA:                   0.000
REMARK UNBOUND:                 0.000
REMARK SMILES CC1=CC(=O)[C@H]2C[C@@H]1C2(C)C
REMARK SMILES IDX 1 1 2 2 3 3 4 4 5 5 6 6 7 7 8 8 9 9 10 10 11 11
REMARK H PARENT
REMARK Flexibility Score: inf
ROOT
ATOM      1  C   UNL     1     137.741 134.460 138.571  1.00  0.00     0.040 C 
ATOM      2  C   UNL     1     137.765 135.591 139.549  1.00  0.00    -0.066 C 
ATOM      3  C   UNL     1     138.845 135.814 140.348  1.00  0.00     0.047 C 
ATOM      4  C   UNL     1     138.735 136.960 141.308  1.00  0.00     0.159 C 
ATOM      5  O   UNL     1     139.649 137.242 142.125  1.00  0.00    -0.295 OA
ATOM      6  C   UNL     1     137.435 137.760 141.224  1.00  0.00     0.067 C 
ATOM      7  C   UNL     1     137.221 137.978 139.710  1.00  0.00     0.021 C 
ATOM      8  C   UNL     1     136.581 136.571 139.688  1.00  0.00     0.022 C 
ATOM      9  C   UNL     1     136.241 136.764 141.194  1.00  0.00    -0.019 C 
ATOM     10  C   UNL     1     134.878 137.470 141.406  1.00  0.00     0.012 C 
ATOM     11  C   UNL     1     136.295 135.519 142.125  1.00  0.00     0.012 C 
ENDROOT
TORSDOF 0
ENDMDL
