MODEL 1
REMARK VINA RESULT:    -3.972      0.000      0.000
REMARK INTER + INTRA:          -4.337
REMARK INTER:                  -4.320
REMARK INTRA:                  -0.016
REMARK UNBOUND:                -0.016
REMARK SMILES OCc1ccco1
REMARK SMILES IDX 2 1 3 2 5 3 6 4 4 5 7 6 1 7
REMARK H PARENT 1 8
REMARK Flexibility Score: inf
ROOT
ATOM      1  C   UNL     1      21.024  -2.029 -20.965  1.00  0.00     0.231 C 
ENDROOT
BRANCH   1   2
ATOM      2  C   UNL     1      20.706  -0.650 -20.482  1.00  0.00     0.129 A 
ATOM      3  C   UNL     1      20.574   1.167 -19.256  1.00  0.00     0.042 A 
ATOM      4  C   UNL     1      19.850   1.302 -20.424  1.00  0.00     0.195 A 
ATOM      5  C   UNL     1      21.125  -0.095 -19.290  1.00  0.00     0.048 A 
ATOM      6  O   UNL     1      19.946   0.201 -21.134  1.00  0.00    -0.467 OA
ENDBRANCH   1   2
BRANCH   1   7
ATOM      7  O   UNL     1      19.855  -2.801 -21.013  1.00  0.00    -0.388 OA
ATOM      8  H   UNL     1      19.288  -2.506 -20.252  1.00  0.00     0.211 HD
ENDBRANCH   1   7
TORSDOF 2
ENDMDL
MODEL 2
REMARK VINA RESULT:    -3.693     12.908     13.889
REMARK INTER + INTRA:          -4.034
REMARK INTER:                  -4.019
REMARK INTRA:                  -0.015
REMARK UNBOUND:                -0.016
REMARK SMILES OCc1ccco1
REMARK SMILES IDX 2 1 3 2 5 3 6 4 4 5 7 6 1 7
REMARK H PARENT 1 8
REMARK Flexibility Score: inf
ROOT
ATOM      1  C   UNL     1      13.581   6.112 -12.488  1.00  0.00     0.231 C 
ENDROOT
BRANCH   1   2
ATOM      2  C   UNL     1      12.779   6.132 -11.227  1.00  0.00     0.129 A 
ATOM      3  C   UNL     1      12.188   6.063  -9.113  1.00  0.00     0.042 A 
ATOM      4  C   UNL     1      11.085   6.183  -9.934  1.00  0.00     0.195 A 
ATOM      5  C   UNL     1      13.284   6.026  -9.947  1.00  0.00     0.048 A 
ATOM      6  O   UNL     1      11.469   6.220 -11.190  1.00  0.00    -0.467 OA
ENDBRANCH   1   2
BRANCH   1   7
ATOM      7  O   UNL     1      13.549   4.832 -13.057  1.00  0.00    -0.388 OA
ATOM      8  H   UNL     1      13.019   4.261 -12.441  1.00  0.00     0.211 HD
ENDBRANCH   1   7
TORSDOF 2
ENDMDL
MODEL 3
REMARK VINA RESULT:    -3.656     13.173     13.743
REMARK INTER + INTRA:          -3.993
REMARK INTER:                  -3.977
REMARK INTRA:                  -0.016
REMARK UNBOUND:                -0.016
REMARK SMILES OCc1ccco1
REMARK SMILES IDX 2 1 3 2 5 3 6 4 4 5 7 6 1 7
REMARK H PARENT 1 8
REMARK Flexibility Score: inf
ROOT
ATOM      1  C   UNL     1       9.093   6.566 -15.543  1.00  0.00     0.231 C 
ENDROOT
BRANCH   1   2
ATOM      2  C   UNL     1       9.861   7.559 -16.355  1.00  0.00     0.129 A 
ATOM      3  C   UNL     1      10.415   9.073 -17.846  1.00  0.00     0.042 A 
ATOM      4  C   UNL     1      11.509   8.689 -17.098  1.00  0.00     0.195 A 
ATOM      5  C   UNL     1       9.348   8.341 -17.370  1.00  0.00     0.048 A 
ATOM      6  O   UNL     1      11.148   7.783 -16.218  1.00  0.00    -0.467 OA
ENDBRANCH   1   2
BRANCH   1   7
ATOM      7  O   UNL     1       9.482   5.264 -15.884  1.00  0.00    -0.388 OA
ATOM      8  H   UNL     1       8.676   4.691 -15.782  1.00  0.00     0.211 HD
ENDBRANCH   1   7
TORSDOF 2
ENDMDL
MODEL 4
REMARK VINA RESULT:    -3.648     12.993     13.915
REMARK INTER + INTRA:          -3.985
REMARK INTER:                  -3.965
REMARK INTRA:                  -0.020
REMARK UNBOUND:                -0.016
REMARK SMILES OCc1ccco1
REMARK SMILES IDX 2 1 3 2 5 3 6 4 4 5 7 6 1 7
REMARK H PARENT 1 8
REMARK Flexibility Score: inf
ROOT
ATOM      1  C   UNL     1      12.266   5.261 -13.477  1.00  0.00     0.231 C 
ENDROOT
BRANCH   1   2
ATOM      2  C   UNL     1      11.463   5.598 -12.262  1.00  0.00     0.129 A 
ATOM      3  C   UNL     1       9.793   5.957 -10.882  1.00  0.00     0.042 A 
ATOM      4  C   UNL     1      11.001   6.265 -10.291  1.00  0.00     0.195 A 
ATOM      5  C   UNL     1      10.088   5.529 -12.158  1.00  0.00     0.048 A 
ATOM      6  O   UNL     1      11.979   6.043 -11.140  1.00  0.00    -0.467 OA
ENDBRANCH   1   2
BRANCH   1   7
ATOM      7  O   UNL     1      13.546   4.831 -13.103  1.00  0.00    -0.388 OA
ATOM      8  H   UNL     1      13.930   4.362 -13.890  1.00  0.00     0.211 HD
ENDBRANCH   1   7
TORSDOF 2
ENDMDL
MODEL 5
REMARK VINA RESULT:    -3.641     12.224     12.709
REMARK INTER + INTRA:          -3.977
REMARK INTER:                  -3.958
REMARK INTRA:                  -0.019
REMARK UNBOUND:                -0.016
REMARK SMILES OCc1ccco1
REMARK SMILES IDX 2 1 3 2 5 3 6 4 4 5 7 6 1 7
REMARK H PARENT 1 8
REMARK Flexibility Score: inf
ROOT
ATOM      1  C   UNL     1      10.590   5.755 -15.100  1.00  0.00     0.231 C 
ENDROOT
BRANCH   1   2
ATOM      2  C   UNL     1      11.260   6.887 -15.810  1.00  0.00     0.129 A 
ATOM      3  C   UNL     1      12.771   8.278 -16.588  1.00  0.00     0.042 A 
ATOM      4  C   UNL     1      11.498   8.681 -16.938  1.00  0.00     0.195 A 
ATOM      5  C   UNL     1      12.620   7.121 -15.856  1.00  0.00     0.048 A 
ATOM      6  O   UNL     1      10.618   7.832 -16.458  1.00  0.00    -0.467 OA
ENDBRANCH   1   2
BRANCH   1   7
ATOM      7  O   UNL     1       9.472   5.326 -15.828  1.00  0.00    -0.388 OA
ATOM      8  H   UNL     1       9.729   4.471 -16.264  1.00  0.00     0.211 HD
ENDBRANCH   1   7
TORSDOF 2
ENDMDL
MODEL 6
REMARK VINA RESULT:    -3.639     14.546     15.137
REMARK INTER + INTRA:          -3.975
REMARK INTER:                  -3.958
REMARK INTRA:                  -0.016
REMARK UNBOUND:                -0.016
REMARK SMILES OCc1ccco1
REMARK SMILES IDX 2 1 3 2 5 3 6 4 4 5 7 6 1 7
REMARK H PARENT 1 8
REMARK Flexibility Score: inf
ROOT
ATOM      1  C   UNL     1      12.761   6.456  -9.968  1.00  0.00     0.231 C 
ENDROOT
BRANCH   1   2
ATOM      2  C   UNL     1      11.485   6.344 -10.738  1.00  0.00     0.129 A 
ATOM      3  C   UNL     1       9.390   5.982 -11.290  1.00  0.00     0.042 A 
ATOM      4  C   UNL     1      10.139   6.344 -12.392  1.00  0.00     0.195 A 
ATOM      5  C   UNL     1      10.259   5.978 -10.220  1.00  0.00     0.048 A 
ATOM      6  O   UNL     1      11.385   6.551 -12.031  1.00  0.00    -0.467 OA
ENDBRANCH   1   2
BRANCH   1   7
ATOM      7  O   UNL     1      12.563   6.033  -8.647  1.00  0.00    -0.388 OA
ATOM      8  H   UNL     1      11.582   5.941  -8.522  1.00  0.00     0.211 HD
ENDBRANCH   1   7
TORSDOF 2
ENDMDL
MODEL 7
REMARK VINA RESULT:    -3.631     14.107     14.977
REMARK INTER + INTRA:          -3.966
REMARK INTER:                  -3.953
REMARK INTRA:                  -0.013
REMARK UNBOUND:                -0.016
REMARK SMILES OCc1ccco1
REMARK SMILES IDX 2 1 3 2 5 3 6 4 4 5 7 6 1 7
REMARK H PARENT 1 8
REMARK Flexibility Score: inf
ROOT
ATOM      1  C   UNL     1       9.924   8.954 -18.129  1.00  0.00     0.231 C 
ENDROOT
BRANCH   1   2
ATOM      2  C   UNL     1       9.179   8.349 -16.983  1.00  0.00     0.129 A 
ATOM      3  C   UNL     1       8.548   7.008 -15.363  1.00  0.00     0.042 A 
ATOM      4  C   UNL     1       7.659   8.053 -15.519  1.00  0.00     0.195 A 
ATOM      5  C   UNL     1       9.529   7.195 -16.312  1.00  0.00     0.048 A 
ATOM      6  O   UNL     1       8.061   8.835 -16.494  1.00  0.00    -0.467 OA
ENDBRANCH   1   2
BRANCH   1   7
ATOM      7  O   UNL     1      11.004   9.710 -17.655  1.00  0.00    -0.388 OA
ATOM      8  H   UNL     1      11.315   9.268 -16.820  1.00  0.00     0.211 HD
ENDBRANCH   1   7
TORSDOF 2
ENDMDL
MODEL 8
REMARK VINA RESULT:    -3.621     15.880     16.720
REMARK INTER + INTRA:          -3.955
REMARK INTER:                  -3.940
REMARK INTRA:                  -0.015
REMARK UNBOUND:                -0.016
REMARK SMILES OCc1ccco1
REMARK SMILES IDX 2 1 3 2 5 3 6 4 4 5 7 6 1 7
REMARK H PARENT 1 8
REMARK Flexibility Score: inf
ROOT
ATOM      1  C   UNL     1      12.382  10.889 -11.796  1.00  0.00     0.231 C 
ENDROOT
BRANCH   1   2
ATOM      2  C   UNL     1      11.153  10.265 -12.374  1.00  0.00     0.129 A 
ATOM      3  C   UNL     1       9.157   9.970 -13.242  1.00  0.00     0.042 A 
ATOM      4  C   UNL     1       9.779   8.761 -13.001  1.00  0.00     0.195 A 
ATOM      5  C   UNL     1      10.042  10.944 -12.833  1.00  0.00     0.048 A 
ATOM      6  O   UNL     1      10.966   8.970 -12.481  1.00  0.00    -0.467 OA
ENDBRANCH   1   2
BRANCH   1   7
ATOM      7  O   UNL     1      12.035  11.997 -11.011  1.00  0.00    -0.388 OA
ATOM      8  H   UNL     1      11.067  12.161 -11.164  1.00  0.00     0.211 HD
ENDBRANCH   1   7
TORSDOF 2
ENDMDL
MODEL 9
REMARK VINA RESULT:    -3.604     12.269     13.288
REMARK INTER + INTRA:          -3.937
REMARK INTER:                  -3.921
REMARK INTRA:                  -0.015
REMARK UNBOUND:                -0.016
REMARK SMILES OCc1ccco1
REMARK SMILES IDX 2 1 3 2 5 3 6 4 4 5 7 6 1 7
REMARK H PARENT 1 8
REMARK Flexibility Score: inf
ROOT
ATOM      1  C   UNL     1       9.665   8.650 -17.207  1.00  0.00     0.231 C 
ENDROOT
BRANCH   1   2
ATOM      2  C   UNL     1      10.963   8.190 -16.626  1.00  0.00     0.129 A 
ATOM      3  C   UNL     1      13.105   7.909 -16.232  1.00  0.00     0.042 A 
ATOM      4  C   UNL     1      12.340   7.090 -15.426  1.00  0.00     0.195 A 
ATOM      5  C   UNL     1      12.217   8.618 -17.011  1.00  0.00     0.048 A 
ATOM      6  O   UNL     1      11.066   7.278 -15.686  1.00  0.00    -0.467 OA
ENDBRANCH   1   2
BRANCH   1   7
ATOM      7  O   UNL     1       9.848   9.044 -18.539  1.00  0.00    -0.388 OA
ATOM      8  H   UNL     1      10.686   9.577 -18.565  1.00  0.00     0.211 HD
ENDBRANCH   1   7
TORSDOF 2
ENDMDL
