MODEL 1
REMARK VINA RESULT:    -5.153      0.000      0.000
REMARK INTER + INTRA:          -5.714
REMARK INTER:                  -5.455
REMARK INTRA:                  -0.260
REMARK UNBOUND:                -0.260
REMARK SMILES C=C(C)[C@@H]1CC=C(C)CC1
REMARK SMILES IDX 8 1 7 2 6 3 5 4 4 5 10 6 9 7 2 8 1 9 3 10
REMARK H PARENT
REMARK Flexibility Score: inf
ROOT
ATOM      1  C   UNL     1       6.950   5.571 -32.722  1.00  0.00     0.039 C 
ATOM      2  C   UNL     1       5.983   5.182 -31.640  1.00  0.00    -0.077 C 
ATOM      3  C   UNL     1       5.308   6.128 -30.966  1.00  0.00    -0.027 C 
ATOM      4  C   UNL     1       4.324   5.730 -29.897  1.00  0.00     0.035 C 
ATOM      5  C   UNL     1       3.452   4.510 -30.315  1.00  0.00     0.018 C 
ATOM      6  C   UNL     1       4.162   3.530 -31.300  1.00  0.00     0.013 C 
ATOM      7  C   UNL     1       5.683   3.732 -31.343  1.00  0.00     0.031 C 
ENDROOT
BRANCH   5   8
ATOM      8  C   UNL     1       2.102   4.956 -30.862  1.00  0.00    -0.077 C 
ATOM      9  C   UNL     1       1.105   5.313 -30.034  1.00  0.00     0.008 C 
ATOM     10  C   UNL     1       1.857   4.995 -32.349  1.00  0.00     0.039 C 
ENDBRANCH   5   8
TORSDOF 1
ENDMDL
MODEL 2
REMARK VINA RESULT:    -5.115      1.040      4.092
REMARK INTER + INTRA:          -5.674
REMARK INTER:                  -5.470
REMARK INTRA:                  -0.203
REMARK UNBOUND:                -0.260
REMARK SMILES C=C(C)[C@@H]1CC=C(C)CC1
REMARK SMILES IDX 8 1 7 2 6 3 5 4 4 5 10 6 9 7 2 8 1 9 3 10
REMARK H PARENT
REMARK Flexibility Score: inf
ROOT
ATOM      1  C   UNL     1       0.526   5.427 -30.637  1.00  0.00     0.039 C 
ATOM      2  C   UNL     1       1.914   4.908 -30.388  1.00  0.00    -0.077 C 
ATOM      3  C   UNL     1       2.516   4.125 -31.298  1.00  0.00    -0.027 C 
ATOM      4  C   UNL     1       3.916   3.627 -31.052  1.00  0.00     0.035 C 
ATOM      5  C   UNL     1       4.843   4.725 -30.455  1.00  0.00     0.018 C 
ATOM      6  C   UNL     1       4.095   5.784 -29.587  1.00  0.00     0.013 C 
ATOM      7  C   UNL     1       2.694   5.319 -29.162  1.00  0.00     0.031 C 
ENDROOT
BRANCH   5   8
ATOM      8  C   UNL     1       5.677   5.397 -31.540  1.00  0.00    -0.077 C 
ATOM      9  C   UNL     1       6.366   6.522 -31.282  1.00  0.00     0.008 C 
ATOM     10  C   UNL     1       5.737   4.812 -32.927  1.00  0.00     0.039 C 
ENDBRANCH   5   8
TORSDOF 1
ENDMDL
MODEL 3
REMARK VINA RESULT:    -4.975      1.057      4.020
REMARK INTER + INTRA:          -5.525
REMARK INTER:                  -5.330
REMARK INTRA:                  -0.195
REMARK UNBOUND:                -0.260
REMARK SMILES C=C(C)[C@@H]1CC=C(C)CC1
REMARK SMILES IDX 8 1 7 2 6 3 5 4 4 5 10 6 9 7 2 8 1 9 3 10
REMARK H PARENT
REMARK Flexibility Score: inf
ROOT
ATOM      1  C   UNL     1       1.317   5.272 -29.880  1.00  0.00     0.039 C 
ATOM      2  C   UNL     1       2.771   4.948 -30.074  1.00  0.00    -0.077 C 
ATOM      3  C   UNL     1       3.133   3.891 -30.821  1.00  0.00    -0.027 C 
ATOM      4  C   UNL     1       4.593   3.585 -31.030  1.00  0.00     0.035 C 
ATOM      5  C   UNL     1       5.438   4.864 -31.296  1.00  0.00     0.018 C 
ATOM      6  C   UNL     1       4.873   6.151 -30.618  1.00  0.00     0.013 C 
ATOM      7  C   UNL     1       3.853   5.839 -29.514  1.00  0.00     0.031 C 
ENDROOT
BRANCH   5   8
ATOM      8  C   UNL     1       5.659   5.082 -32.788  1.00  0.00    -0.077 C 
ATOM      9  C   UNL     1       4.677   5.569 -33.567  1.00  0.00     0.008 C 
ATOM     10  C   UNL     1       6.984   4.747 -33.420  1.00  0.00     0.039 C 
ENDBRANCH   5   8
TORSDOF 1
ENDMDL
MODEL 4
REMARK VINA RESULT:    -4.672      1.225      2.163
REMARK INTER + INTRA:          -5.205
REMARK INTER:                  -5.023
REMARK INTRA:                  -0.182
REMARK UNBOUND:                -0.260
REMARK SMILES C=C(C)[C@@H]1CC=C(C)CC1
REMARK SMILES IDX 8 1 7 2 6 3 5 4 4 5 10 6 9 7 2 8 1 9 3 10
REMARK H PARENT
REMARK Flexibility Score: inf
ROOT
ATOM      1  C   UNL     1       7.589   4.739 -32.781  1.00  0.00     0.039 C 
ATOM      2  C   UNL     1       6.142   4.377 -32.598  1.00  0.00    -0.077 C 
ATOM      3  C   UNL     1       5.762   3.621 -31.555  1.00  0.00    -0.027 C 
ATOM      4  C   UNL     1       4.307   3.280 -31.365  1.00  0.00     0.035 C 
ATOM      5  C   UNL     1       3.370   4.492 -31.640  1.00  0.00     0.018 C 
ATOM      6  C   UNL     1       3.933   5.504 -32.687  1.00  0.00     0.013 C 
ATOM      7  C   UNL     1       5.078   4.916 -33.523  1.00  0.00     0.031 C 
ENDROOT
BRANCH   5   8
ATOM      8  C   UNL     1       2.984   5.199 -30.347  1.00  0.00    -0.077 C 
ATOM      9  C   UNL     1       1.715   5.180 -29.904  1.00  0.00     0.008 C 
ATOM     10  C   UNL     1       4.020   5.940 -29.544  1.00  0.00     0.039 C 
ENDBRANCH   5   8
TORSDOF 1
ENDMDL
MODEL 5
REMARK VINA RESULT:    -4.464      1.589      3.241
REMARK INTER + INTRA:          -4.985
REMARK INTER:                  -4.737
REMARK INTRA:                  -0.248
REMARK UNBOUND:                -0.260
REMARK SMILES C=C(C)[C@@H]1CC=C(C)CC1
REMARK SMILES IDX 8 1 7 2 6 3 5 4 4 5 10 6 9 7 2 8 1 9 3 10
REMARK H PARENT
REMARK Flexibility Score: inf
ROOT
ATOM      1  C   UNL     1       1.565   4.165 -34.707  1.00  0.00     0.039 C 
ATOM      2  C   UNL     1       2.708   4.168 -33.731  1.00  0.00    -0.077 C 
ATOM      3  C   UNL     1       3.372   5.306 -33.471  1.00  0.00    -0.027 C 
ATOM      4  C   UNL     1       4.502   5.306 -32.475  1.00  0.00     0.035 C 
ATOM      5  C   UNL     1       4.179   4.462 -31.208  1.00  0.00     0.018 C 
ATOM      6  C   UNL     1       3.205   3.271 -31.470  1.00  0.00     0.013 C 
ATOM      7  C   UNL     1       3.081   2.924 -32.960  1.00  0.00     0.031 C 
ENDROOT
BRANCH   5   8
ATOM      8  C   UNL     1       3.677   5.341 -30.069  1.00  0.00    -0.077 C 
ATOM      9  C   UNL     1       4.448   6.319 -29.561  1.00  0.00     0.008 C 
ATOM     10  C   UNL     1       2.305   5.123 -29.486  1.00  0.00     0.039 C 
ENDBRANCH   5   8
TORSDOF 1
ENDMDL
MODEL 6
REMARK VINA RESULT:    -4.309      1.835      3.548
REMARK INTER + INTRA:          -4.820
REMARK INTER:                  -4.570
REMARK INTRA:                  -0.250
REMARK UNBOUND:                -0.260
REMARK SMILES C=C(C)[C@@H]1CC=C(C)CC1
REMARK SMILES IDX 8 1 7 2 6 3 5 4 4 5 10 6 9 7 2 8 1 9 3 10
REMARK H PARENT
REMARK Flexibility Score: inf
ROOT
ATOM      1  C   UNL     1       2.812   5.600 -29.111  1.00  0.00     0.039 C 
ATOM      2  C   UNL     1       3.403   4.906 -30.305  1.00  0.00    -0.077 C 
ATOM      3  C   UNL     1       3.023   3.656 -30.615  1.00  0.00    -0.027 C 
ATOM      4  C   UNL     1       3.604   2.974 -31.827  1.00  0.00     0.035 C 
ATOM      5  C   UNL     1       3.705   3.925 -33.054  1.00  0.00     0.018 C 
ATOM      6  C   UNL     1       3.906   5.427 -32.679  1.00  0.00     0.013 C 
ATOM      7  C   UNL     1       4.365   5.618 -31.227  1.00  0.00     0.031 C 
ENDROOT
BRANCH   5   8
ATOM      8  C   UNL     1       2.517   3.749 -33.992  1.00  0.00    -0.077 C 
ATOM      9  C   UNL     1       2.311   2.585 -34.632  1.00  0.00     0.008 C 
ATOM     10  C   UNL     1       1.554   4.884 -34.225  1.00  0.00     0.039 C 
ENDBRANCH   5   8
TORSDOF 1
ENDMDL
MODEL 7
REMARK VINA RESULT:    -4.278      1.048      4.052
REMARK INTER + INTRA:          -4.788
REMARK INTER:                  -4.549
REMARK INTRA:                  -0.240
REMARK UNBOUND:                -0.260
REMARK SMILES C=C(C)[C@@H]1CC=C(C)CC1
REMARK SMILES IDX 8 1 7 2 6 3 5 4 4 5 10 6 9 7 2 8 1 9 3 10
REMARK H PARENT
REMARK Flexibility Score: inf
ROOT
ATOM      1  C   UNL     1       1.874   4.765 -29.499  1.00  0.00     0.039 C 
ATOM      2  C   UNL     1       2.925   5.368 -30.387  1.00  0.00    -0.077 C 
ATOM      3  C   UNL     1       4.114   5.728 -29.878  1.00  0.00    -0.027 C 
ATOM      4  C   UNL     1       5.172   6.312 -30.778  1.00  0.00     0.035 C 
ATOM      5  C   UNL     1       5.269   5.569 -32.142  1.00  0.00     0.018 C 
ATOM      6  C   UNL     1       3.924   4.938 -32.619  1.00  0.00     0.013 C 
ATOM      7  C   UNL     1       2.707   5.506 -31.875  1.00  0.00     0.031 C 
ENDROOT
BRANCH   5   8
ATOM      8  C   UNL     1       6.387   4.534 -32.131  1.00  0.00    -0.077 C 
ATOM      9  C   UNL     1       6.147   3.264 -31.760  1.00  0.00     0.008 C 
ATOM     10  C   UNL     1       7.787   4.920 -32.530  1.00  0.00     0.039 C 
ENDBRANCH   5   8
TORSDOF 1
ENDMDL
MODEL 8
REMARK VINA RESULT:    -4.260      1.323      2.167
REMARK INTER + INTRA:          -4.769
REMARK INTER:                  -4.681
REMARK INTRA:                  -0.088
REMARK UNBOUND:                -0.260
REMARK SMILES C=C(C)[C@@H]1CC=C(C)CC1
REMARK SMILES IDX 8 1 7 2 6 3 5 4 4 5 10 6 9 7 2 8 1 9 3 10
REMARK H PARENT
REMARK Flexibility Score: inf
ROOT
ATOM      1  C   UNL     1       7.869   4.782 -32.624  1.00  0.00     0.039 C 
ATOM      2  C   UNL     1       6.517   5.393 -32.385  1.00  0.00    -0.077 C 
ATOM      3  C   UNL     1       5.420   4.838 -32.927  1.00  0.00    -0.027 C 
ATOM      4  C   UNL     1       4.066   5.443 -32.665  1.00  0.00     0.035 C 
ATOM      5  C   UNL     1       3.885   5.880 -31.183  1.00  0.00     0.018 C 
ATOM      6  C   UNL     1       5.213   6.298 -30.477  1.00  0.00     0.013 C 
ATOM      7  C   UNL     1       6.347   6.583 -31.471  1.00  0.00     0.031 C 
ENDROOT
BRANCH   5   8
ATOM      8  C   UNL     1       3.147   4.818 -30.378  1.00  0.00    -0.077 C 
ATOM      9  C   UNL     1       2.529   5.131 -29.225  1.00  0.00     0.008 C 
ATOM     10  C   UNL     1       3.104   3.390 -30.858  1.00  0.00     0.039 C 
ENDBRANCH   5   8
TORSDOF 1
ENDMDL
MODEL 9
REMARK VINA RESULT:    -4.065      1.343      2.119
REMARK INTER + INTRA:          -4.563
REMARK INTER:                  -4.341
REMARK INTRA:                  -0.222
REMARK UNBOUND:                -0.260
REMARK SMILES C=C(C)[C@@H]1CC=C(C)CC1
REMARK SMILES IDX 8 1 7 2 6 3 5 4 4 5 10 6 9 7 2 8 1 9 3 10
REMARK H PARENT
REMARK Flexibility Score: inf
ROOT
ATOM      1  C   UNL     1       5.940   4.657 -35.113  1.00  0.00     0.039 C 
ATOM      2  C   UNL     1       6.033   4.564 -33.616  1.00  0.00    -0.077 C 
ATOM      3  C   UNL     1       5.976   5.677 -32.866  1.00  0.00    -0.027 C 
ATOM      4  C   UNL     1       6.048   5.575 -31.365  1.00  0.00     0.035 C 
ATOM      5  C   UNL     1       5.200   4.395 -30.807  1.00  0.00     0.018 C 
ATOM      6  C   UNL     1       5.065   3.190 -31.789  1.00  0.00     0.013 C 
ATOM      7  C   UNL     1       6.105   3.227 -32.918  1.00  0.00     0.031 C 
ENDROOT
BRANCH   5   8
ATOM      8  C   UNL     1       3.832   4.871 -30.332  1.00  0.00    -0.077 C 
ATOM      9  C   UNL     1       3.656   6.126 -29.884  1.00  0.00     0.008 C 
ATOM     10  C   UNL     1       2.651   3.936 -30.350  1.00  0.00     0.039 C 
ENDBRANCH   5   8
TORSDOF 1
ENDMDL
