MODEL 1
REMARK VINA RESULT:    -4.707      0.000      0.000
REMARK INTER + INTRA:         -10.609
REMARK INTER:                  -8.559
REMARK INTRA:                  -2.051
REMARK UNBOUND:                -2.051
REMARK SMILES CCCCCCCCCCCCCCCC(=O)[O-]
REMARK SMILES IDX 9 1 10 2 11 3 12 4 13 5 14 6 15 7 16 8 17 9 18 10 8 11 7 12
REMARK SMILES IDX 6 13 5 14 4 15 3 16 2 17 1 18
REMARK H PARENT
REMARK Flexibility Score: inf
ROOT
ATOM      1  C   UNL     1     -25.836 -62.767   4.190  1.00  0.00     0.000 C 
ENDROOT
BRANCH   1   2
ATOM      2  C   UNL     1     -25.040 -62.265   2.974  1.00  0.00     0.000 C 
BRANCH   2   3
ATOM      3  C   UNL     1     -23.973 -63.274   2.513  1.00  0.00     0.000 C 
BRANCH   3   4
ATOM      4  C   UNL     1     -22.795 -62.602   1.786  1.00  0.00     0.000 C 
BRANCH   4   5
ATOM      5  C   UNL     1     -23.038 -61.104   1.522  1.00  0.00     0.000 C 
BRANCH   5   6
ATOM      6  C   UNL     1     -21.876 -60.447   0.758  1.00  0.00     0.006 C 
BRANCH   6   7
ATOM      7  C   UNL     1     -22.031 -60.557  -0.765  1.00  0.00     0.053 C 
BRANCH   7   8
ATOM      8  C   UNL     1     -22.941 -59.486  -1.277  1.00  0.00     0.041 C 
ATOM      9  O   UNL     1     -22.533 -58.298  -1.365  1.00  0.00    -0.550 OA
ATOM     10  O   UNL     1     -24.226 -59.807  -1.700  1.00  0.00    -0.550 OA
ENDBRANCH   7   8
ENDBRANCH   6   7
ENDBRANCH   5   6
ENDBRANCH   4   5
ENDBRANCH   3   4
ENDBRANCH   2   3
ENDBRANCH   1   2
BRANCH   1  11
ATOM     11  C   UNL     1     -25.071 -63.832   4.996  1.00  0.00     0.000 C 
BRANCH  11  12
ATOM     12  C   UNL     1     -24.323 -63.232   6.198  1.00  0.00    -0.000 C 
BRANCH  12  13
ATOM     13  C   UNL     1     -22.810 -63.099   5.951  1.00  0.00    -0.000 C 
BRANCH  13  14
ATOM     14  C   UNL     1     -22.418 -61.683   5.476  1.00  0.00    -0.000 C 
BRANCH  14  15
ATOM     15  C   UNL     1     -23.358 -60.573   5.990  1.00  0.00    -0.000 C 
BRANCH  15  16
ATOM     16  C   UNL     1     -23.022 -59.159   5.490  1.00  0.00    -0.000 C 
BRANCH  16  17
ATOM     17  C   UNL     1     -23.786 -58.783   4.211  1.00  0.00    -0.003 C 
ATOM     18  C   UNL     1     -23.085 -57.650   3.466  1.00  0.00     0.004 C 
ENDBRANCH  16  17
ENDBRANCH  15  16
ENDBRANCH  14  15
ENDBRANCH  13  14
ENDBRANCH  12  13
ENDBRANCH  11  12
ENDBRANCH   1  11
TORSDOF 14
ENDMDL
MODEL 2
REMARK VINA RESULT:    -4.597      1.662      2.472
REMARK INTER + INTRA:         -10.409
REMARK INTER:                  -8.177
REMARK INTRA:                  -2.232
REMARK UNBOUND:                -2.051
REMARK SMILES CCCCCCCCCCCCCCCC(=O)[O-]
REMARK SMILES IDX 9 1 10 2 11 3 12 4 13 5 14 6 15 7 16 8 17 9 18 10 8 11 7 12
REMARK SMILES IDX 6 13 5 14 4 15 3 16 2 17 1 18
REMARK H PARENT
REMARK Flexibility Score: inf
ROOT
ATOM      1  C   UNL     1     -25.055 -61.167   2.500  1.00  0.00     0.000 C 
ENDROOT
BRANCH   1   2
ATOM      2  C   UNL     1     -24.484 -59.756   2.282  1.00  0.00     0.000 C 
BRANCH   2   3
ATOM      3  C   UNL     1     -22.946 -59.742   2.253  1.00  0.00     0.000 C 
BRANCH   3   4
ATOM      4  C   UNL     1     -22.381 -59.060   0.995  1.00  0.00     0.000 C 
BRANCH   4   5
ATOM      5  C   UNL     1     -21.893 -60.072  -0.059  1.00  0.00     0.000 C 
BRANCH   5   6
ATOM      6  C   UNL     1     -22.916 -60.283  -1.188  1.00  0.00     0.006 C 
BRANCH   6   7
ATOM      7  C   UNL     1     -23.783 -59.042  -1.440  1.00  0.00     0.053 C 
BRANCH   7   8
ATOM      8  C   UNL     1     -25.186 -59.443  -1.774  1.00  0.00     0.041 C 
ATOM      9  O   UNL     1     -26.012 -59.681  -0.854  1.00  0.00    -0.550 OA
ATOM     10  O   UNL     1     -25.594 -59.510  -3.101  1.00  0.00    -0.550 OA
ENDBRANCH   7   8
ENDBRANCH   6   7
ENDBRANCH   5   6
ENDBRANCH   4   5
ENDBRANCH   3   4
ENDBRANCH   2   3
ENDBRANCH   1   2
BRANCH   1  11
ATOM     11  C   UNL     1     -24.002 -62.268   2.283  1.00  0.00     0.000 C 
BRANCH  11  12
ATOM     12  C   UNL     1     -23.782 -63.127   3.540  1.00  0.00    -0.000 C 
BRANCH  12  13
ATOM     13  C   UNL     1     -22.541 -62.698   4.343  1.00  0.00    -0.000 C 
BRANCH  13  14
ATOM     14  C   UNL     1     -22.913 -62.119   5.726  1.00  0.00    -0.000 C 
BRANCH  14  15
ATOM     15  C   UNL     1     -22.768 -60.587   5.817  1.00  0.00    -0.000 C 
BRANCH  15  16
ATOM     16  C   UNL     1     -24.081 -59.827   6.071  1.00  0.00    -0.000 C 
BRANCH  16  17
ATOM     17  C   UNL     1     -23.941 -58.311   5.862  1.00  0.00    -0.003 C 
ATOM     18  C   UNL     1     -22.547 -57.953   5.354  1.00  0.00     0.004 C 
ENDBRANCH  16  17
ENDBRANCH  15  16
ENDBRANCH  14  15
ENDBRANCH  13  14
ENDBRANCH  12  13
ENDBRANCH  11  12
ENDBRANCH   1  11
TORSDOF 14
ENDMDL
MODEL 3
REMARK VINA RESULT:    -4.569      1.649      3.184
REMARK INTER + INTRA:         -10.360
REMARK INTER:                  -8.364
REMARK INTRA:                  -1.996
REMARK UNBOUND:                -2.051
REMARK SMILES CCCCCCCCCCCCCCCC(=O)[O-]
REMARK SMILES IDX 9 1 10 2 11 3 12 4 13 5 14 6 15 7 16 8 17 9 18 10 8 11 7 12
REMARK SMILES IDX 6 13 5 14 4 15 3 16 2 17 1 18
REMARK H PARENT
REMARK Flexibility Score: inf
ROOT
ATOM      1  C   UNL     1     -23.076 -62.446   2.787  1.00  0.00     0.000 C 
ENDROOT
BRANCH   1   2
ATOM      2  C   UNL     1     -22.525 -62.457   1.352  1.00  0.00     0.000 C 
BRANCH   2   3
ATOM      3  C   UNL     1     -22.144 -61.050   0.858  1.00  0.00     0.000 C 
BRANCH   3   4
ATOM      4  C   UNL     1     -22.099 -60.951  -0.677  1.00  0.00     0.000 C 
BRANCH   4   5
ATOM      5  C   UNL     1     -22.530 -59.567  -1.195  1.00  0.00     0.000 C 
BRANCH   5   6
ATOM      6  C   UNL     1     -23.622 -58.927  -0.320  1.00  0.00     0.006 C 
BRANCH   6   7
ATOM      7  C   UNL     1     -25.039 -59.236  -0.822  1.00  0.00     0.053 C 
BRANCH   7   8
ATOM      8  C   UNL     1     -25.218 -58.739  -2.222  1.00  0.00     0.041 C 
ATOM      9  O   UNL     1     -25.655 -59.510  -3.116  1.00  0.00    -0.550 OA
ATOM     10  O   UNL     1     -24.945 -57.411  -2.530  1.00  0.00    -0.550 OA
ENDBRANCH   7   8
ENDBRANCH   6   7
ENDBRANCH   5   6
ENDBRANCH   4   5
ENDBRANCH   3   4
ENDBRANCH   2   3
ENDBRANCH   1   2
BRANCH   1  11
ATOM     11  C   UNL     1     -24.576 -62.789   2.844  1.00  0.00     0.000 C 
BRANCH  11  12
ATOM     12  C   UNL     1     -25.414 -61.658   3.463  1.00  0.00    -0.000 C 
BRANCH  12  13
ATOM     13  C   UNL     1     -25.509 -60.422   2.552  1.00  0.00    -0.000 C 
BRANCH  13  14
ATOM     14  C   UNL     1     -25.112 -59.123   3.287  1.00  0.00    -0.000 C 
BRANCH  14  15
ATOM     15  C   UNL     1     -23.588 -58.928   3.424  1.00  0.00    -0.000 C 
BRANCH  15  16
ATOM     16  C   UNL     1     -23.157 -57.974   4.549  1.00  0.00    -0.000 C 
BRANCH  16  17
ATOM     17  C   UNL     1     -22.983 -58.686   5.900  1.00  0.00    -0.003 C 
ATOM     18  C   UNL     1     -22.649 -60.162   5.703  1.00  0.00     0.004 C 
ENDBRANCH  16  17
ENDBRANCH  15  16
ENDBRANCH  14  15
ENDBRANCH  13  14
ENDBRANCH  12  13
ENDBRANCH  11  12
ENDBRANCH   1  11
TORSDOF 14
ENDMDL
MODEL 4
REMARK VINA RESULT:    -4.542      1.639      2.767
REMARK INTER + INTRA:         -10.310
REMARK INTER:                  -8.323
REMARK INTRA:                  -1.986
REMARK UNBOUND:                -2.051
REMARK SMILES CCCCCCCCCCCCCCCC(=O)[O-]
REMARK SMILES IDX 9 1 10 2 11 3 12 4 13 5 14 6 15 7 16 8 17 9 18 10 8 11 7 12
REMARK SMILES IDX 6 13 5 14 4 15 3 16 2 17 1 18
REMARK H PARENT
REMARK Flexibility Score: inf
ROOT
ATOM      1  C   UNL     1     -24.601 -61.245   3.439  1.00  0.00     0.000 C 
ENDROOT
BRANCH   1   2
ATOM      2  C   UNL     1     -24.876 -62.719   3.095  1.00  0.00     0.000 C 
BRANCH   2   3
ATOM      3  C   UNL     1     -23.725 -63.362   2.301  1.00  0.00     0.000 C 
BRANCH   3   4
ATOM      4  C   UNL     1     -22.521 -62.419   2.132  1.00  0.00     0.000 C 
BRANCH   4   5
ATOM      5  C   UNL     1     -22.061 -62.302   0.667  1.00  0.00     0.000 C 
BRANCH   5   6
ATOM      6  C   UNL     1     -21.878 -60.841   0.224  1.00  0.00     0.006 C 
BRANCH   6   7
ATOM      7  C   UNL     1     -22.228 -60.623  -1.254  1.00  0.00     0.053 C 
BRANCH   7   8
ATOM      8  C   UNL     1     -23.136 -59.444  -1.408  1.00  0.00     0.041 C 
ATOM      9  O   UNL     1     -22.730 -58.289  -1.114  1.00  0.00    -0.550 OA
ATOM     10  O   UNL     1     -24.417 -59.614  -1.921  1.00  0.00    -0.550 OA
ENDBRANCH   7   8
ENDBRANCH   6   7
ENDBRANCH   5   6
ENDBRANCH   4   5
ENDBRANCH   3   4
ENDBRANCH   2   3
ENDBRANCH   1   2
BRANCH   1  11
ATOM     11  C   UNL     1     -25.412 -60.275   2.561  1.00  0.00     0.000 C 
BRANCH  11  12
ATOM     12  C   UNL     1     -24.622 -59.004   2.207  1.00  0.00    -0.000 C 
BRANCH  12  13
ATOM     13  C   UNL     1     -23.210 -58.991   2.819  1.00  0.00    -0.000 C 
BRANCH  13  14
ATOM     14  C   UNL     1     -22.797 -57.584   3.304  1.00  0.00    -0.000 C 
BRANCH  14  15
ATOM     15  C   UNL     1     -22.688 -57.462   4.837  1.00  0.00    -0.000 C 
BRANCH  15  16
ATOM     16  C   UNL     1     -22.764 -58.795   5.599  1.00  0.00    -0.000 C 
BRANCH  16  17
ATOM     17  C   UNL     1     -23.997 -58.889   6.511  1.00  0.00    -0.003 C 
ATOM     18  C   UNL     1     -25.241 -58.351   5.810  1.00  0.00     0.004 C 
ENDBRANCH  16  17
ENDBRANCH  15  16
ENDBRANCH  14  15
ENDBRANCH  13  14
ENDBRANCH  12  13
ENDBRANCH  11  12
ENDBRANCH   1  11
TORSDOF 14
ENDMDL
MODEL 5
REMARK VINA RESULT:    -4.501      1.310      2.530
REMARK INTER + INTRA:         -10.236
REMARK INTER:                  -8.210
REMARK INTRA:                  -2.026
REMARK UNBOUND:                -2.051
REMARK SMILES CCCCCCCCCCCCCCCC(=O)[O-]
REMARK SMILES IDX 9 1 10 2 11 3 12 4 13 5 14 6 15 7 16 8 17 9 18 10 8 11 7 12
REMARK SMILES IDX 6 13 5 14 4 15 3 16 2 17 1 18
REMARK H PARENT
REMARK Flexibility Score: inf
ROOT
ATOM      1  C   UNL     1     -24.596 -61.758   2.530  1.00  0.00     0.000 C 
ENDROOT
BRANCH   1   2
ATOM      2  C   UNL     1     -23.470 -62.740   2.168  1.00  0.00     0.000 C 
BRANCH   2   3
ATOM      3  C   UNL     1     -22.445 -62.128   1.197  1.00  0.00     0.000 C 
BRANCH   3   4
ATOM      4  C   UNL     1     -22.455 -60.590   1.214  1.00  0.00     0.000 C 
BRANCH   4   5
ATOM      5  C   UNL     1     -22.676 -59.982  -0.183  1.00  0.00     0.000 C 
BRANCH   5   6
ATOM      6  C   UNL     1     -23.833 -58.969  -0.208  1.00  0.00     0.006 C 
BRANCH   6   7
ATOM      7  C   UNL     1     -25.087 -59.519  -0.899  1.00  0.00     0.053 C 
BRANCH   7   8
ATOM      8  C   UNL     1     -25.256 -58.896  -2.249  1.00  0.00     0.041 C 
ATOM      9  O   UNL     1     -25.835 -59.530  -3.171  1.00  0.00    -0.550 OA
ATOM     10  O   UNL     1     -24.816 -57.598  -2.477  1.00  0.00    -0.550 OA
ENDBRANCH   7   8
ENDBRANCH   6   7
ENDBRANCH   5   6
ENDBRANCH   4   5
ENDBRANCH   3   4
ENDBRANCH   2   3
ENDBRANCH   1   2
BRANCH   1  11
ATOM     11  C   UNL     1     -25.637 -62.379   3.478  1.00  0.00     0.000 C 
BRANCH  11  12
ATOM     12  C   UNL     1     -25.281 -63.820   3.878  1.00  0.00    -0.000 C 
BRANCH  12  13
ATOM     13  C   UNL     1     -25.286 -64.032   5.402  1.00  0.00    -0.000 C 
BRANCH  13  14
ATOM     14  C   UNL     1     -24.609 -62.867   6.156  1.00  0.00    -0.000 C 
BRANCH  14  15
ATOM     15  C   UNL     1     -23.070 -62.881   6.068  1.00  0.00    -0.000 C 
BRANCH  15  16
ATOM     16  C   UNL     1     -22.440 -61.580   5.546  1.00  0.00    -0.000 C 
BRANCH  16  17
ATOM     17  C   UNL     1     -23.274 -60.335   5.890  1.00  0.00    -0.003 C 
ATOM     18  C   UNL     1     -23.082 -59.240   4.845  1.00  0.00     0.004 C 
ENDBRANCH  16  17
ENDBRANCH  15  16
ENDBRANCH  14  15
ENDBRANCH  13  14
ENDBRANCH  12  13
ENDBRANCH  11  12
ENDBRANCH   1  11
TORSDOF 14
ENDMDL
MODEL 6
REMARK VINA RESULT:    -4.475      2.284      3.816
REMARK INTER + INTRA:         -10.189
REMARK INTER:                  -8.263
REMARK INTRA:                  -1.925
REMARK UNBOUND:                -2.051
REMARK SMILES CCCCCCCCCCCCCCCC(=O)[O-]
REMARK SMILES IDX 9 1 10 2 11 3 12 4 13 5 14 6 15 7 16 8 17 9 18 10 8 11 7 12
REMARK SMILES IDX 6 13 5 14 4 15 3 16 2 17 1 18
REMARK H PARENT
REMARK Flexibility Score: inf
ROOT
ATOM      1  C   UNL     1     -22.332 -62.287   1.905  1.00  0.00     0.000 C 
ENDROOT
BRANCH   1   2
ATOM      2  C   UNL     1     -21.985 -62.157   0.413  1.00  0.00     0.000 C 
BRANCH   2   3
ATOM      3  C   UNL     1     -21.875 -60.691  -0.040  1.00  0.00     0.000 C 
BRANCH   3   4
ATOM      4  C   UNL     1     -22.750 -60.381  -1.267  1.00  0.00     0.000 C 
BRANCH   4   5
ATOM      5  C   UNL     1     -23.346 -58.962  -1.227  1.00  0.00     0.000 C 
BRANCH   5   6
ATOM      6  C   UNL     1     -24.881 -58.972  -1.123  1.00  0.00     0.006 C 
BRANCH   6   7
ATOM      7  C   UNL     1     -25.534 -57.826  -1.907  1.00  0.00     0.053 C 
BRANCH   7   8
ATOM      8  C   UNL     1     -25.974 -58.299  -3.256  1.00  0.00     0.041 C 
ATOM      9  O   UNL     1     -25.875 -59.517  -3.563  1.00  0.00    -0.550 OA
ATOM     10  O   UNL     1     -26.537 -57.405  -4.159  1.00  0.00    -0.550 OA
ENDBRANCH   7   8
ENDBRANCH   6   7
ENDBRANCH   5   6
ENDBRANCH   4   5
ENDBRANCH   3   4
ENDBRANCH   2   3
ENDBRANCH   1   2
BRANCH   1  11
ATOM     11  C   UNL     1     -23.689 -62.975   2.137  1.00  0.00     0.000 C 
BRANCH  11  12
ATOM     12  C   UNL     1     -24.686 -62.071   2.880  1.00  0.00    -0.000 C 
BRANCH  12  13
ATOM     13  C   UNL     1     -24.706 -60.632   2.333  1.00  0.00    -0.000 C 
BRANCH  13  14
ATOM     14  C   UNL     1     -24.571 -59.579   3.455  1.00  0.00    -0.000 C 
BRANCH  14  15
ATOM     15  C   UNL     1     -23.276 -58.747   3.373  1.00  0.00    -0.000 C 
BRANCH  15  16
ATOM     16  C   UNL     1     -23.173 -57.831   2.142  1.00  0.00    -0.000 C 
BRANCH  16  17
ATOM     17  C   UNL     1     -24.448 -57.006   1.907  1.00  0.00    -0.003 C 
ATOM     18  C   UNL     1     -24.141 -55.511   1.895  1.00  0.00     0.004 C 
ENDBRANCH  16  17
ENDBRANCH  15  16
ENDBRANCH  14  15
ENDBRANCH  13  14
ENDBRANCH  12  13
ENDBRANCH  11  12
ENDBRANCH   1  11
TORSDOF 14
ENDMDL
MODEL 7
REMARK VINA RESULT:    -4.458      1.573      3.607
REMARK INTER + INTRA:         -10.157
REMARK INTER:                  -8.260
REMARK INTRA:                  -1.898
REMARK UNBOUND:                -2.051
REMARK SMILES CCCCCCCCCCCCCCCC(=O)[O-]
REMARK SMILES IDX 9 1 10 2 11 3 12 4 13 5 14 6 15 7 16 8 17 9 18 10 8 11 7 12
REMARK SMILES IDX 6 13 5 14 4 15 3 16 2 17 1 18
REMARK H PARENT
REMARK Flexibility Score: inf
ROOT
ATOM      1  C   UNL     1     -24.192 -61.150   1.728  1.00  0.00     0.000 C 
ENDROOT
BRANCH   1   2
ATOM      2  C   UNL     1     -22.859 -61.904   1.871  1.00  0.00     0.000 C 
BRANCH   2   3
ATOM      3  C   UNL     1     -21.889 -61.608   0.714  1.00  0.00     0.000 C 
BRANCH   3   4
ATOM      4  C   UNL     1     -21.937 -60.139   0.259  1.00  0.00     0.000 C 
BRANCH   4   5
ATOM      5  C   UNL     1     -22.245 -59.993  -1.242  1.00  0.00     0.000 C 
BRANCH   5   6
ATOM      6  C   UNL     1     -23.748 -59.815  -1.519  1.00  0.00     0.006 C 
BRANCH   6   7
ATOM      7  C   UNL     1     -24.249 -58.407  -1.175  1.00  0.00     0.053 C 
BRANCH   7   8
ATOM      8  C   UNL     1     -25.159 -57.899  -2.249  1.00  0.00     0.041 C 
ATOM      9  O   UNL     1     -24.882 -56.834  -2.862  1.00  0.00    -0.550 OA
ATOM     10  O   UNL     1     -26.290 -58.624  -2.605  1.00  0.00    -0.550 OA
ENDBRANCH   7   8
ENDBRANCH   6   7
ENDBRANCH   5   6
ENDBRANCH   4   5
ENDBRANCH   3   4
ENDBRANCH   2   3
ENDBRANCH   1   2
BRANCH   1  11
ATOM     11  C   UNL     1     -24.513 -60.284   2.960  1.00  0.00     0.000 C 
BRANCH  11  12
ATOM     12  C   UNL     1     -23.288 -60.071   3.864  1.00  0.00    -0.000 C 
BRANCH  12  13
ATOM     13  C   UNL     1     -23.525 -60.548   5.308  1.00  0.00    -0.000 C 
BRANCH  13  14
ATOM     14  C   UNL     1     -22.333 -61.363   5.857  1.00  0.00    -0.000 C 
BRANCH  14  15
ATOM     15  C   UNL     1     -22.227 -62.783   5.266  1.00  0.00    -0.000 C 
BRANCH  15  16
ATOM     16  C   UNL     1     -23.421 -63.702   5.574  1.00  0.00    -0.000 C 
BRANCH  16  17
ATOM     17  C   UNL     1     -23.971 -64.402   4.322  1.00  0.00    -0.003 C 
ATOM     18  C   UNL     1     -25.343 -63.851   3.943  1.00  0.00     0.004 C 
ENDBRANCH  16  17
ENDBRANCH  15  16
ENDBRANCH  14  15
ENDBRANCH  13  14
ENDBRANCH  12  13
ENDBRANCH  11  12
ENDBRANCH   1  11
TORSDOF 14
ENDMDL
MODEL 8
REMARK VINA RESULT:    -4.434      2.164      4.236
REMARK INTER + INTRA:         -10.113
REMARK INTER:                  -8.187
REMARK INTRA:                  -1.926
REMARK UNBOUND:                -2.051
REMARK SMILES CCCCCCCCCCCCCCCC(=O)[O-]
REMARK SMILES IDX 9 1 10 2 11 3 12 4 13 5 14 6 15 7 16 8 17 9 18 10 8 11 7 12
REMARK SMILES IDX 6 13 5 14 4 15 3 16 2 17 1 18
REMARK H PARENT
REMARK Flexibility Score: inf
ROOT
ATOM      1  C   UNL     1     -21.875 -61.054   0.011  1.00  0.00     0.000 C 
ENDROOT
BRANCH   1   2
ATOM      2  C   UNL     1     -21.972 -59.810   0.910  1.00  0.00     0.000 C 
BRANCH   2   3
ATOM      3  C   UNL     1     -22.437 -58.563   0.138  1.00  0.00     0.000 C 
BRANCH   3   4
ATOM      4  C   UNL     1     -23.309 -57.626   0.993  1.00  0.00     0.000 C 
BRANCH   4   5
ATOM      5  C   UNL     1     -24.637 -57.260   0.304  1.00  0.00     0.000 C 
BRANCH   5   6
ATOM      6  C   UNL     1     -24.858 -58.045  -1.000  1.00  0.00     0.006 C 
BRANCH   6   7
ATOM      7  C   UNL     1     -25.862 -57.363  -1.938  1.00  0.00     0.053 C 
BRANCH   7   8
ATOM      8  C   UNL     1     -26.016 -58.149  -3.201  1.00  0.00     0.041 C 
ATOM      9  O   UNL     1     -26.314 -57.566  -4.277  1.00  0.00    -0.550 OA
ATOM     10  O   UNL     1     -25.786 -59.520  -3.201  1.00  0.00    -0.550 OA
ENDBRANCH   7   8
ENDBRANCH   6   7
ENDBRANCH   5   6
ENDBRANCH   4   5
ENDBRANCH   3   4
ENDBRANCH   2   3
ENDBRANCH   1   2
BRANCH   1  11
ATOM     11  C   UNL     1     -22.178 -62.356   0.773  1.00  0.00     0.000 C 
BRANCH  11  12
ATOM     12  C   UNL     1     -22.730 -62.096   2.185  1.00  0.00    -0.000 C 
BRANCH  12  13
ATOM     13  C   UNL     1     -23.982 -62.935   2.497  1.00  0.00    -0.000 C 
BRANCH  13  14
ATOM     14  C   UNL     1     -25.154 -62.067   3.005  1.00  0.00    -0.000 C 
BRANCH  14  15
ATOM     15  C   UNL     1     -25.018 -60.572   2.652  1.00  0.00    -0.000 C 
BRANCH  15  16
ATOM     16  C   UNL     1     -24.980 -59.623   3.860  1.00  0.00    -0.000 C 
BRANCH  16  17
ATOM     17  C   UNL     1     -23.553 -59.190   4.232  1.00  0.00    -0.003 C 
ATOM     18  C   UNL     1     -22.998 -60.047   5.366  1.00  0.00     0.004 C 
ENDBRANCH  16  17
ENDBRANCH  15  16
ENDBRANCH  14  15
ENDBRANCH  13  14
ENDBRANCH  12  13
ENDBRANCH  11  12
ENDBRANCH   1  11
TORSDOF 14
ENDMDL
MODEL 9
REMARK VINA RESULT:    -4.410      3.226      6.068
REMARK INTER + INTRA:         -10.070
REMARK INTER:                  -7.725
REMARK INTRA:                  -2.346
REMARK UNBOUND:                -2.051
REMARK SMILES CCCCCCCCCCCCCCCC(=O)[O-]
REMARK SMILES IDX 9 1 10 2 11 3 12 4 13 5 14 6 15 7 16 8 17 9 18 10 8 11 7 12
REMARK SMILES IDX 6 13 5 14 4 15 3 16 2 17 1 18
REMARK H PARENT
REMARK Flexibility Score: inf
ROOT
ATOM      1  C   UNL     1     -25.366 -58.915  -0.738  1.00  0.00     0.000 C 
ENDROOT
BRANCH   1   2
ATOM      2  C   UNL     1     -26.008 -59.423   0.564  1.00  0.00     0.000 C 
BRANCH   2   3
ATOM      3  C   UNL     1     -25.599 -58.584   1.788  1.00  0.00     0.000 C 
BRANCH   3   4
ATOM      4  C   UNL     1     -25.131 -57.168   1.408  1.00  0.00     0.000 C 
BRANCH   4   5
ATOM      5  C   UNL     1     -23.832 -56.760   2.126  1.00  0.00     0.000 C 
BRANCH   5   6
ATOM      6  C   UNL     1     -23.543 -57.634   3.358  1.00  0.00     0.006 C 
BRANCH   6   7
ATOM      7  C   UNL     1     -22.349 -57.126   4.177  1.00  0.00     0.053 C 
BRANCH   7   8
ATOM      8  C   UNL     1     -22.821 -56.421   5.409  1.00  0.00     0.041 C 
ATOM      9  O   UNL     1     -21.988 -55.983   6.246  1.00  0.00    -0.550 OA
ATOM     10  O   UNL     1     -24.179 -56.205   5.611  1.00  0.00    -0.550 OA
ENDBRANCH   7   8
ENDBRANCH   6   7
ENDBRANCH   5   6
ENDBRANCH   4   5
ENDBRANCH   3   4
ENDBRANCH   2   3
ENDBRANCH   1   2
BRANCH   1  11
ATOM     11  C   UNL     1     -24.138 -59.745  -1.152  1.00  0.00     0.000 C 
BRANCH  11  12
ATOM     12  C   UNL     1     -22.822 -58.965  -0.998  1.00  0.00    -0.000 C 
BRANCH  12  13
ATOM     13  C   UNL     1     -22.035 -59.369   0.261  1.00  0.00    -0.000 C 
BRANCH  13  14
ATOM     14  C   UNL     1     -22.251 -60.853   0.633  1.00  0.00    -0.000 C 
BRANCH  14  15
ATOM     15  C   UNL     1     -22.934 -61.058   2.000  1.00  0.00    -0.000 C 
BRANCH  15  16
ATOM     16  C   UNL     1     -23.803 -62.322   2.105  1.00  0.00    -0.000 C 
BRANCH  16  17
ATOM     17  C   UNL     1     -25.056 -62.112   2.971  1.00  0.00    -0.003 C 
ATOM     18  C   UNL     1     -25.501 -63.421   3.617  1.00  0.00     0.004 C 
ENDBRANCH  16  17
ENDBRANCH  15  16
ENDBRANCH  14  15
ENDBRANCH  13  14
ENDBRANCH  12  13
ENDBRANCH  11  12
ENDBRANCH   1  11
TORSDOF 14
ENDMDL
