MODEL 1
REMARK VINA RESULT:    -2.826      0.000      0.000
REMARK INTER + INTRA:          -3.554
REMARK INTER:                  -3.487
REMARK INTRA:                  -0.067
REMARK UNBOUND:                -0.067
REMARK SMILES CCCCCC(=O)[O-]
REMARK SMILES IDX 4 1 5 2 6 3 7 4 8 5 3 6 2 7 1 8
REMARK H PARENT
REMARK Flexibility Score: inf
ROOT
ATOM      1  C   UNL     1      54.033  18.466  85.416  1.00  0.00     0.006 C 
ENDROOT
BRANCH   1   2
ATOM      2  C   UNL     1      52.880  19.300  84.842  1.00  0.00     0.053 C 
BRANCH   2   3
ATOM      3  C   UNL     1      51.617  19.033  85.598  1.00  0.00     0.041 C 
ATOM      4  O   UNL     1      50.868  18.077  85.264  1.00  0.00    -0.550 OA
ATOM      5  O   UNL     1      51.241  19.870  86.641  1.00  0.00    -0.550 OA
ENDBRANCH   2   3
ENDBRANCH   1   2
BRANCH   1   6
ATOM      6  C   UNL     1      55.297  18.507  84.538  1.00  0.00     0.000 C 
BRANCH   6   7
ATOM      7  C   UNL     1      56.117  17.204  84.526  1.00  0.00    -0.003 C 
ATOM      8  C   UNL     1      56.125  16.489  85.876  1.00  0.00     0.004 C 
ENDBRANCH   6   7
ENDBRANCH   1   6
TORSDOF 4
ENDMDL
MODEL 2
REMARK VINA RESULT:    -2.774     13.289     14.973
REMARK INTER + INTRA:          -3.489
REMARK INTER:                  -3.441
REMARK INTRA:                  -0.048
REMARK UNBOUND:                -0.067
REMARK SMILES CCCCCC(=O)[O-]
REMARK SMILES IDX 4 1 5 2 6 3 7 4 8 5 3 6 2 7 1 8
REMARK H PARENT
REMARK Flexibility Score: inf
ROOT
ATOM      1  C   UNL     1      39.839  19.640  79.450  1.00  0.00     0.006 C 
ENDROOT
BRANCH   1   2
ATOM      2  C   UNL     1      38.805  20.388  80.301  1.00  0.00     0.053 C 
BRANCH   2   3
ATOM      3  C   UNL     1      37.809  19.430  80.875  1.00  0.00     0.041 C 
ATOM      4  O   UNL     1      37.373  19.593  82.045  1.00  0.00    -0.550 OA
ATOM      5  O   UNL     1      37.398  18.329  80.134  1.00  0.00    -0.550 OA
ENDBRANCH   2   3
ENDBRANCH   1   2
BRANCH   1   6
ATOM      6  C   UNL     1      41.289  20.019  79.798  1.00  0.00     0.000 C 
BRANCH   6   7
ATOM      7  C   UNL     1      42.056  20.740  78.674  1.00  0.00    -0.003 C 
ATOM      8  C   UNL     1      43.551  20.428  78.674  1.00  0.00     0.004 C 
ENDBRANCH   6   7
ENDBRANCH   1   6
TORSDOF 4
ENDMDL
MODEL 3
REMARK VINA RESULT:    -2.758     14.479     15.950
REMARK INTER + INTRA:          -3.470
REMARK INTER:                  -3.247
REMARK INTRA:                  -0.223
REMARK UNBOUND:                -0.067
REMARK SMILES CCCCCC(=O)[O-]
REMARK SMILES IDX 4 1 5 2 6 3 7 4 8 5 3 6 2 7 1 8
REMARK H PARENT
REMARK Flexibility Score: inf
ROOT
ATOM      1  C   UNL     1      38.859  21.636  80.303  1.00  0.00     0.006 C 
ENDROOT
BRANCH   1   2
ATOM      2  C   UNL     1      37.468  20.999  80.175  1.00  0.00     0.053 C 
BRANCH   2   3
ATOM      3  C   UNL     1      37.441  19.666  80.855  1.00  0.00     0.041 C 
ATOM      4  O   UNL     1      37.359  19.597  82.110  1.00  0.00    -0.550 OA
ATOM      5  O   UNL     1      37.554  18.502  80.107  1.00  0.00    -0.550 OA
ENDBRANCH   2   3
ENDBRANCH   1   2
BRANCH   1   6
ATOM      6  C   UNL     1      39.573  21.792  78.948  1.00  0.00     0.000 C 
BRANCH   6   7
ATOM      7  C   UNL     1      40.480  20.611  78.557  1.00  0.00    -0.003 C 
ATOM      8  C   UNL     1      41.095  19.903  79.763  1.00  0.00     0.004 C 
ENDBRANCH   6   7
ENDBRANCH   1   6
TORSDOF 4
ENDMDL
MODEL 4
REMARK VINA RESULT:    -2.748     14.860     15.806
REMARK INTER + INTRA:          -3.458
REMARK INTER:                  -3.373
REMARK INTRA:                  -0.085
REMARK UNBOUND:                -0.067
REMARK SMILES CCCCCC(=O)[O-]
REMARK SMILES IDX 4 1 5 2 6 3 7 4 8 5 3 6 2 7 1 8
REMARK H PARENT
REMARK Flexibility Score: inf
ROOT
ATOM      1  C   UNL     1      39.954  19.579  79.596  1.00  0.00     0.006 C 
ENDROOT
BRANCH   1   2
ATOM      2  C   UNL     1      38.748  20.343  80.158  1.00  0.00     0.053 C 
BRANCH   2   3
ATOM      3  C   UNL     1      37.778  19.395  80.791  1.00  0.00     0.041 C 
ATOM      4  O   UNL     1      37.388  19.582  81.974  1.00  0.00    -0.550 OA
ATOM      5  O   UNL     1      37.342  18.278  80.090  1.00  0.00    -0.550 OA
ENDBRANCH   2   3
ENDBRANCH   1   2
BRANCH   1   6
ATOM      6  C   UNL     1      40.991  20.502  78.931  1.00  0.00     0.000 C 
BRANCH   6   7
ATOM      7  C   UNL     1      40.393  21.621  78.059  1.00  0.00    -0.003 C 
ATOM      8  C   UNL     1      40.828  21.538  76.597  1.00  0.00     0.004 C 
ENDBRANCH   6   7
ENDBRANCH   1   6
TORSDOF 4
ENDMDL
MODEL 5
REMARK VINA RESULT:    -2.714     15.041     16.065
REMARK INTER + INTRA:          -3.416
REMARK INTER:                  -3.316
REMARK INTRA:                  -0.100
REMARK UNBOUND:                -0.067
REMARK SMILES CCCCCC(=O)[O-]
REMARK SMILES IDX 4 1 5 2 6 3 7 4 8 5 3 6 2 7 1 8
REMARK H PARENT
REMARK Flexibility Score: inf
ROOT
ATOM      1  C   UNL     1      45.505  31.596  90.537  1.00  0.00     0.006 C 
ENDROOT
BRANCH   1   2
ATOM      2  C   UNL     1      45.151  30.382  91.406  1.00  0.00     0.053 C 
BRANCH   2   3
ATOM      3  C   UNL     1      43.976  30.691  92.280  1.00  0.00     0.041 C 
ATOM      4  O   UNL     1      44.025  31.655  93.090  1.00  0.00    -0.550 OA
ATOM      5  O   UNL     1      42.846  29.886  92.235  1.00  0.00    -0.550 OA
ENDBRANCH   2   3
ENDBRANCH   1   2
BRANCH   1   6
ATOM      6  C   UNL     1      46.934  31.530  89.968  1.00  0.00     0.000 C 
BRANCH   6   7
ATOM      7  C   UNL     1      47.864  30.528  90.676  1.00  0.00    -0.003 C 
ATOM      8  C   UNL     1      49.307  31.019  90.778  1.00  0.00     0.004 C 
ENDBRANCH   6   7
ENDBRANCH   1   6
TORSDOF 4
ENDMDL
MODEL 6
REMARK VINA RESULT:    -2.699      2.573      4.221
REMARK INTER + INTRA:          -3.397
REMARK INTER:                  -3.305
REMARK INTRA:                  -0.093
REMARK UNBOUND:                -0.067
REMARK SMILES CCCCCC(=O)[O-]
REMARK SMILES IDX 4 1 5 2 6 3 7 4 8 5 3 6 2 7 1 8
REMARK H PARENT
REMARK Flexibility Score: inf
ROOT
ATOM      1  C   UNL     1      54.351  18.932  84.896  1.00  0.00     0.006 C 
ENDROOT
BRANCH   1   2
ATOM      2  C   UNL     1      55.353  17.770  84.927  1.00  0.00     0.053 C 
BRANCH   2   3
ATOM      3  C   UNL     1      55.393  17.152  86.289  1.00  0.00     0.041 C 
ATOM      4  O   UNL     1      55.654  15.927  86.422  1.00  0.00    -0.550 OA
ATOM      5  O   UNL     1      55.095  17.918  87.409  1.00  0.00    -0.550 OA
ENDBRANCH   2   3
ENDBRANCH   1   2
BRANCH   1   6
ATOM      6  C   UNL     1      52.893  18.462  84.742  1.00  0.00     0.000 C 
BRANCH   6   7
ATOM      7  C   UNL     1      51.842  19.412  85.343  1.00  0.00    -0.003 C 
ATOM      8  C   UNL     1      50.462  18.770  85.480  1.00  0.00     0.004 C 
ENDBRANCH   6   7
ENDBRANCH   1   6
TORSDOF 4
ENDMDL
MODEL 7
REMARK VINA RESULT:    -2.692     13.242     15.180
REMARK INTER + INTRA:          -3.388
REMARK INTER:                  -3.275
REMARK INTRA:                  -0.114
REMARK UNBOUND:                -0.067
REMARK SMILES CCCCCC(=O)[O-]
REMARK SMILES IDX 4 1 5 2 6 3 7 4 8 5 3 6 2 7 1 8
REMARK H PARENT
REMARK Flexibility Score: inf
ROOT
ATOM      1  C   UNL     1      39.848  19.670  79.400  1.00  0.00     0.006 C 
ENDROOT
BRANCH   1   2
ATOM      2  C   UNL     1      41.218  20.021  79.996  1.00  0.00     0.053 C 
BRANCH   2   3
ATOM      3  C   UNL     1      42.115  20.590  78.941  1.00  0.00     0.041 C 
ATOM      4  O   UNL     1      41.628  21.044  77.872  1.00  0.00    -0.550 OA
ATOM      5  O   UNL     1      43.492  20.575  79.118  1.00  0.00    -0.550 OA
ENDBRANCH   2   3
ENDBRANCH   1   2
BRANCH   1   6
ATOM      6  C   UNL     1      38.685  20.388  80.108  1.00  0.00     0.000 C 
BRANCH   6   7
ATOM      7  C   UNL     1      37.679  19.453  80.805  1.00  0.00    -0.003 C 
ATOM      8  C   UNL     1      37.490  18.125  80.075  1.00  0.00     0.004 C 
ENDBRANCH   6   7
ENDBRANCH   1   6
TORSDOF 4
ENDMDL
MODEL 8
REMARK VINA RESULT:    -2.664     10.061     11.106
REMARK INTER + INTRA:          -3.354
REMARK INTER:                  -3.165
REMARK INTRA:                  -0.189
REMARK UNBOUND:                -0.067
REMARK SMILES CCCCCC(=O)[O-]
REMARK SMILES IDX 4 1 5 2 6 3 7 4 8 5 3 6 2 7 1 8
REMARK H PARENT
REMARK Flexibility Score: inf
ROOT
ATOM      1  C   UNL     1      45.356  19.491  78.026  1.00  0.00     0.006 C 
ENDROOT
BRANCH   1   2
ATOM      2  C   UNL     1      45.984  18.127  77.710  1.00  0.00     0.053 C 
BRANCH   2   3
ATOM      3  C   UNL     1      45.949  17.866  76.237  1.00  0.00     0.041 C 
ATOM      4  O   UNL     1      46.016  16.686  75.801  1.00  0.00    -0.550 OA
ATOM      5  O   UNL     1      45.893  18.928  75.344  1.00  0.00    -0.550 OA
ENDBRANCH   2   3
ENDBRANCH   1   2
BRANCH   1   6
ATOM      6  C   UNL     1      46.381  20.519  78.537  1.00  0.00     0.000 C 
BRANCH   6   7
ATOM      7  C   UNL     1      47.791  19.954  78.789  1.00  0.00    -0.003 C 
ATOM      8  C   UNL     1      48.856  20.579  77.890  1.00  0.00     0.004 C 
ENDBRANCH   6   7
ENDBRANCH   1   6
TORSDOF 4
ENDMDL
MODEL 9
REMARK VINA RESULT:    -2.614     15.370     16.433
REMARK INTER + INTRA:          -3.293
REMARK INTER:                  -3.201
REMARK INTRA:                  -0.091
REMARK UNBOUND:                -0.067
REMARK SMILES CCCCCC(=O)[O-]
REMARK SMILES IDX 4 1 5 2 6 3 7 4 8 5 3 6 2 7 1 8
REMARK H PARENT
REMARK Flexibility Score: inf
ROOT
ATOM      1  C   UNL     1      45.696  30.664  90.982  1.00  0.00     0.006 C 
ENDROOT
BRANCH   1   2
ATOM      2  C   UNL     1      46.956  31.396  90.499  1.00  0.00     0.053 C 
BRANCH   2   3
ATOM      3  C   UNL     1      46.881  31.646  89.025  1.00  0.00     0.041 C 
ATOM      4  O   UNL     1      47.594  32.540  88.498  1.00  0.00    -0.550 OA
ATOM      5  O   UNL     1      45.988  30.925  88.243  1.00  0.00    -0.550 OA
ENDBRANCH   2   3
ENDBRANCH   1   2
BRANCH   1   6
ATOM      6  C   UNL     1      44.703  31.593  91.702  1.00  0.00     0.000 C 
BRANCH   6   7
ATOM      7  C   UNL     1      44.036  30.982  92.948  1.00  0.00    -0.003 C 
ATOM      8  C   UNL     1      43.412  29.612  92.683  1.00  0.00     0.004 C 
ENDBRANCH   6   7
ENDBRANCH   1   6
TORSDOF 4
ENDMDL
