MODEL 1
REMARK VINA RESULT:    -5.659      0.000      0.000
REMARK INTER + INTRA:         -11.882
REMARK INTER:                  -9.959
REMARK INTRA:                  -1.923
REMARK UNBOUND:                -1.923
REMARK SMILES CCCCCCC=CCCCCCCCC(=O)[O-]
REMARK SMILES IDX 10 1 11 2 12 3 13 4 14 5 15 6 16 7 17 8 18 9 9 10 8 11 7 12
REMARK SMILES IDX 6 13 5 14 4 15 3 16 2 17 1 18
REMARK H PARENT
REMARK Flexibility Score: inf
ROOT
ATOM      1  C   UNL     1       8.880 -47.869  35.052  1.00  0.00     0.004 C 
ENDROOT
BRANCH   1   2
ATOM      2  C   UNL     1       8.291 -46.832  36.020  1.00  0.00     0.000 C 
BRANCH   2   3
ATOM      3  C   UNL     1       9.356 -46.173  36.914  1.00  0.00     0.000 C 
BRANCH   3   4
ATOM      4  C   UNL     1      10.767 -46.102  36.302  1.00  0.00     0.000 C 
BRANCH   4   5
ATOM      5  C   UNL     1      11.880 -46.099  37.361  1.00  0.00     0.006 C 
BRANCH   5   6
ATOM      6  C   UNL     1      11.368 -46.651  38.695  1.00  0.00     0.053 C 
BRANCH   6   7
ATOM      7  C   UNL     1      12.510 -47.111  39.545  1.00  0.00     0.041 C 
ATOM      8  O   UNL     1      12.410 -47.099  40.800  1.00  0.00    -0.550 OA
ATOM      9  O   UNL     1      13.668 -47.597  38.952  1.00  0.00    -0.550 OA
ENDBRANCH   6   7
ENDBRANCH   5   6
ENDBRANCH   4   5
ENDBRANCH   3   4
ENDBRANCH   2   3
ENDBRANCH   1   2
BRANCH   1  10
ATOM     10  C   UNL     1       8.242 -47.746  33.663  1.00  0.00     0.027 C 
BRANCH  10  11
ATOM     11  C   UNL     1       6.751 -47.551  33.775  1.00  0.00    -0.031 C 
ATOM     12  C   UNL     1       5.947 -47.201  32.753  1.00  0.00    -0.031 C 
BRANCH  12  13
ATOM     13  C   UNL     1       6.426 -46.868  31.364  1.00  0.00     0.027 C 
BRANCH  13  14
ATOM     14  C   UNL     1       6.457 -45.351  31.146  1.00  0.00     0.004 C 
BRANCH  14  15
ATOM     15  C   UNL     1       7.871 -44.795  31.365  1.00  0.00     0.000 C 
BRANCH  15  16
ATOM     16  C   UNL     1       7.944 -43.775  32.516  1.00  0.00    -0.000 C 
BRANCH  16  17
ATOM     17  C   UNL     1       9.070 -44.029  33.536  1.00  0.00    -0.003 C 
ATOM     18  C   UNL     1      10.281 -44.737  32.927  1.00  0.00     0.004 C 
ENDBRANCH  16  17
ENDBRANCH  15  16
ENDBRANCH  14  15
ENDBRANCH  13  14
ENDBRANCH  12  13
ENDBRANCH  10  11
ENDBRANCH   1  10
TORSDOF 13
ENDMDL
MODEL 2
REMARK VINA RESULT:    -5.635      1.563      3.241
REMARK INTER + INTRA:         -11.840
REMARK INTER:                 -10.359
REMARK INTRA:                  -1.481
REMARK UNBOUND:                -1.923
REMARK SMILES CCCCCCC=CCCCCCCCC(=O)[O-]
REMARK SMILES IDX 10 1 11 2 12 3 13 4 14 5 15 6 16 7 17 8 18 9 9 10 8 11 7 12
REMARK SMILES IDX 6 13 5 14 4 15 3 16 2 17 1 18
REMARK H PARENT
REMARK Flexibility Score: inf
ROOT
ATOM      1  C   UNL     1       8.970 -47.986  38.084  1.00  0.00     0.004 C 
ENDROOT
BRANCH   1   2
ATOM      2  C   UNL     1       9.898 -47.297  39.096  1.00  0.00     0.000 C 
BRANCH   2   3
ATOM      3  C   UNL     1      10.674 -46.114  38.490  1.00  0.00     0.000 C 
BRANCH   3   4
ATOM      4  C   UNL     1      12.200 -46.304  38.422  1.00  0.00     0.000 C 
BRANCH   4   5
ATOM      5  C   UNL     1      12.772 -46.058  37.018  1.00  0.00     0.006 C 
BRANCH   5   6
ATOM      6  C   UNL     1      14.295 -45.898  37.068  1.00  0.00     0.053 C 
BRANCH   6   7
ATOM      7  C   UNL     1      14.927 -47.094  37.709  1.00  0.00     0.041 C 
ATOM      8  O   UNL     1      15.096 -48.152  37.047  1.00  0.00    -0.550 OA
ATOM      9  O   UNL     1      15.373 -47.025  39.022  1.00  0.00    -0.550 OA
ENDBRANCH   6   7
ENDBRANCH   5   6
ENDBRANCH   4   5
ENDBRANCH   3   4
ENDBRANCH   2   3
ENDBRANCH   1   2
BRANCH   1  10
ATOM     10  C   UNL     1       8.395 -46.971  37.089  1.00  0.00     0.027 C 
BRANCH  10  11
ATOM     11  C   UNL     1       8.437 -47.518  35.684  1.00  0.00    -0.031 C 
ATOM     12  C   UNL     1       9.187 -47.009  34.687  1.00  0.00    -0.031 C 
BRANCH  12  13
ATOM     13  C   UNL     1      10.033 -45.768  34.802  1.00  0.00     0.027 C 
BRANCH  13  14
ATOM     14  C   UNL     1       9.639 -44.738  33.738  1.00  0.00     0.004 C 
BRANCH  14  15
ATOM     15  C   UNL     1       9.781 -45.326  32.327  1.00  0.00     0.000 C 
BRANCH  15  16
ATOM     16  C   UNL     1       8.634 -44.914  31.386  1.00  0.00    -0.000 C 
BRANCH  16  17
ATOM     17  C   UNL     1       7.232 -45.366  31.836  1.00  0.00    -0.003 C 
ATOM     18  C   UNL     1       7.002 -46.867  31.662  1.00  0.00     0.004 C 
ENDBRANCH  16  17
ENDBRANCH  15  16
ENDBRANCH  14  15
ENDBRANCH  13  14
ENDBRANCH  12  13
ENDBRANCH  10  11
ENDBRANCH   1  10
TORSDOF 13
ENDMDL
MODEL 3
REMARK VINA RESULT:    -5.505      1.439      2.975
REMARK INTER + INTRA:         -11.612
REMARK INTER:                 -10.132
REMARK INTRA:                  -1.480
REMARK UNBOUND:                -1.923
REMARK SMILES CCCCCCC=CCCCCCCCC(=O)[O-]
REMARK SMILES IDX 10 1 11 2 12 3 13 4 14 5 15 6 16 7 17 8 18 9 9 10 8 11 7 12
REMARK SMILES IDX 6 13 5 14 4 15 3 16 2 17 1 18
REMARK H PARENT
REMARK Flexibility Score: inf
ROOT
ATOM      1  C   UNL     1       8.156 -47.980  36.967  1.00  0.00     0.004 C 
ENDROOT
BRANCH   1   2
ATOM      2  C   UNL     1       8.312 -47.483  38.412  1.00  0.00     0.000 C 
BRANCH   2   3
ATOM      3  C   UNL     1       9.757 -47.592  38.932  1.00  0.00     0.000 C 
BRANCH   3   4
ATOM      4  C   UNL     1      10.574 -46.291  38.859  1.00  0.00     0.000 C 
BRANCH   4   5
ATOM      5  C   UNL     1      11.873 -46.442  38.052  1.00  0.00     0.006 C 
BRANCH   5   6
ATOM      6  C   UNL     1      12.978 -47.069  38.907  1.00  0.00     0.053 C 
BRANCH   6   7
ATOM      7  C   UNL     1      14.295 -46.989  38.202  1.00  0.00     0.041 C 
ATOM      8  O   UNL     1      15.368 -46.979  38.862  1.00  0.00    -0.550 OA
ATOM      9  O   UNL     1      14.341 -46.975  36.813  1.00  0.00    -0.550 OA
ENDBRANCH   6   7
ENDBRANCH   5   6
ENDBRANCH   4   5
ENDBRANCH   3   4
ENDBRANCH   2   3
ENDBRANCH   1   2
BRANCH   1  10
ATOM     10  C   UNL     1       8.190 -46.809  35.979  1.00  0.00     0.027 C 
BRANCH  10  11
ATOM     11  C   UNL     1       9.393 -46.908  35.074  1.00  0.00    -0.031 C 
ATOM     12  C   UNL     1       9.775 -45.955  34.203  1.00  0.00    -0.031 C 
BRANCH  12  13
ATOM     13  C   UNL     1       9.012 -44.682  33.939  1.00  0.00     0.027 C 
BRANCH  13  14
ATOM     14  C   UNL     1       9.020 -44.342  32.444  1.00  0.00     0.004 C 
BRANCH  14  15
ATOM     15  C   UNL     1       8.077 -45.269  31.666  1.00  0.00     0.000 C 
BRANCH  15  16
ATOM     16  C   UNL     1       6.602 -45.109  32.078  1.00  0.00    -0.000 C 
BRANCH  16  17
ATOM     17  C   UNL     1       5.752 -46.387  31.949  1.00  0.00    -0.003 C 
ATOM     18  C   UNL     1       5.967 -47.368  33.101  1.00  0.00     0.004 C 
ENDBRANCH  16  17
ENDBRANCH  15  16
ENDBRANCH  14  15
ENDBRANCH  13  14
ENDBRANCH  12  13
ENDBRANCH  10  11
ENDBRANCH   1  10
TORSDOF 13
ENDMDL
MODEL 4
REMARK VINA RESULT:    -5.477      2.049      3.573
REMARK INTER + INTRA:         -11.563
REMARK INTER:                 -10.145
REMARK INTRA:                  -1.418
REMARK UNBOUND:                -1.923
REMARK SMILES CCCCCCC=CCCCCCCCC(=O)[O-]
REMARK SMILES IDX 10 1 11 2 12 3 13 4 14 5 15 6 16 7 17 8 18 9 9 10 8 11 7 12
REMARK SMILES IDX 6 13 5 14 4 15 3 16 2 17 1 18
REMARK H PARENT
REMARK Flexibility Score: inf
ROOT
ATOM      1  C   UNL     1       7.963 -46.613  38.354  1.00  0.00     0.004 C 
ENDROOT
BRANCH   1   2
ATOM      2  C   UNL     1       9.005 -45.529  38.039  1.00  0.00     0.000 C 
BRANCH   2   3
ATOM      3  C   UNL     1      10.452 -46.049  38.107  1.00  0.00     0.000 C 
BRANCH   3   4
ATOM      4  C   UNL     1      11.243 -45.947  36.791  1.00  0.00     0.000 C 
BRANCH   4   5
ATOM      5  C   UNL     1      12.763 -45.906  37.007  1.00  0.00     0.006 C 
BRANCH   5   6
ATOM      6  C   UNL     1      13.177 -46.827  38.158  1.00  0.00     0.053 C 
BRANCH   6   7
ATOM      7  C   UNL     1      14.608 -47.238  38.012  1.00  0.00     0.041 C 
ATOM      8  O   UNL     1      15.444 -46.953  38.909  1.00  0.00    -0.550 OA
ATOM      9  O   UNL     1      15.010 -47.979  36.908  1.00  0.00    -0.550 OA
ENDBRANCH   6   7
ENDBRANCH   5   6
ENDBRANCH   4   5
ENDBRANCH   3   4
ENDBRANCH   2   3
ENDBRANCH   1   2
BRANCH   1  10
ATOM     10  C   UNL     1       8.570 -48.014  38.212  1.00  0.00     0.027 C 
BRANCH  10  11
ATOM     11  C   UNL     1       7.711 -48.881  37.327  1.00  0.00    -0.031 C 
ATOM     12  C   UNL     1       7.848 -48.984  35.991  1.00  0.00    -0.031 C 
BRANCH  12  13
ATOM     13  C   UNL     1       8.826 -48.185  35.168  1.00  0.00     0.027 C 
BRANCH  13  14
ATOM     14  C   UNL     1       8.151 -46.946  34.571  1.00  0.00     0.004 C 
BRANCH  14  15
ATOM     15  C   UNL     1       6.774 -47.298  33.990  1.00  0.00     0.000 C 
BRANCH  15  16
ATOM     16  C   UNL     1       6.717 -47.165  32.457  1.00  0.00    -0.000 C 
BRANCH  16  17
ATOM     17  C   UNL     1       5.503 -46.385  31.920  1.00  0.00    -0.003 C 
ATOM     18  C   UNL     1       5.181 -46.709  30.461  1.00  0.00     0.004 C 
ENDBRANCH  16  17
ENDBRANCH  15  16
ENDBRANCH  14  15
ENDBRANCH  13  14
ENDBRANCH  12  13
ENDBRANCH  10  11
ENDBRANCH   1  10
TORSDOF 13
ENDMDL
MODEL 5
REMARK VINA RESULT:    -5.472      3.227      6.505
REMARK INTER + INTRA:         -11.553
REMARK INTER:                  -9.894
REMARK INTRA:                  -1.659
REMARK UNBOUND:                -1.923
REMARK SMILES CCCCCCC=CCCCCCCCC(=O)[O-]
REMARK SMILES IDX 10 1 11 2 12 3 13 4 14 5 15 6 16 7 17 8 18 9 9 10 8 11 7 12
REMARK SMILES IDX 6 13 5 14 4 15 3 16 2 17 1 18
REMARK H PARENT
REMARK Flexibility Score: inf
ROOT
ATOM      1  C   UNL     1       7.551 -48.752  37.229  1.00  0.00     0.004 C 
ENDROOT
BRANCH   1   2
ATOM      2  C   UNL     1       8.088 -48.988  35.809  1.00  0.00     0.000 C 
BRANCH   2   3
ATOM      3  C   UNL     1       7.132 -48.481  34.715  1.00  0.00     0.000 C 
BRANCH   3   4
ATOM      4  C   UNL     1       7.616 -47.235  33.954  1.00  0.00     0.000 C 
BRANCH   4   5
ATOM      5  C   UNL     1       9.016 -46.775  34.385  1.00  0.00     0.006 C 
BRANCH   5   6
ATOM      6  C   UNL     1       9.105 -45.246  34.416  1.00  0.00     0.053 C 
BRANCH   6   7
ATOM      7  C   UNL     1       9.639 -44.726  33.119  1.00  0.00     0.041 C 
ATOM      8  O   UNL     1      10.856 -44.872  32.830  1.00  0.00    -0.550 OA
ATOM      9  O   UNL     1       8.783 -44.122  32.206  1.00  0.00    -0.550 OA
ENDBRANCH   6   7
ENDBRANCH   5   6
ENDBRANCH   4   5
ENDBRANCH   3   4
ENDBRANCH   2   3
ENDBRANCH   1   2
BRANCH   1  10
ATOM     10  C   UNL     1       8.585 -48.018  38.091  1.00  0.00     0.027 C 
BRANCH  10  11
ATOM     11  C   UNL     1       8.351 -46.529  38.053  1.00  0.00    -0.031 C 
ATOM     12  C   UNL     1       9.323 -45.600  38.130  1.00  0.00    -0.031 C 
BRANCH  12  13
ATOM     13  C   UNL     1      10.783 -45.906  38.348  1.00  0.00     0.027 C 
BRANCH  13  14
ATOM     14  C   UNL     1      11.511 -46.070  37.010  1.00  0.00     0.004 C 
BRANCH  14  15
ATOM     15  C   UNL     1      13.033 -46.005  37.203  1.00  0.00     0.000 C 
BRANCH  15  16
ATOM     16  C   UNL     1      13.536 -46.931  38.325  1.00  0.00    -0.000 C 
BRANCH  16  17
ATOM     17  C   UNL     1      14.986 -47.423  38.158  1.00  0.00    -0.003 C 
ATOM     18  C   UNL     1      15.395 -47.596  36.695  1.00  0.00     0.004 C 
ENDBRANCH  16  17
ENDBRANCH  15  16
ENDBRANCH  14  15
ENDBRANCH  13  14
ENDBRANCH  12  13
ENDBRANCH  10  11
ENDBRANCH   1  10
TORSDOF 13
ENDMDL
MODEL 6
REMARK VINA RESULT:    -5.461      2.272      3.892
REMARK INTER + INTRA:         -11.534
REMARK INTER:                  -9.823
REMARK INTRA:                  -1.711
REMARK UNBOUND:                -1.923
REMARK SMILES CCCCCCC=CCCCCCCCC(=O)[O-]
REMARK SMILES IDX 10 1 11 2 12 3 13 4 14 5 15 6 16 7 17 8 18 9 9 10 8 11 7 12
REMARK SMILES IDX 6 13 5 14 4 15 3 16 2 17 1 18
REMARK H PARENT
REMARK Flexibility Score: inf
ROOT
ATOM      1  C   UNL     1       7.887 -46.522  38.574  1.00  0.00     0.004 C 
ENDROOT
BRANCH   1   2
ATOM      2  C   UNL     1       9.291 -45.922  38.400  1.00  0.00     0.000 C 
BRANCH   2   3
ATOM      3  C   UNL     1      10.402 -46.986  38.396  1.00  0.00     0.000 C 
BRANCH   3   4
ATOM      4  C   UNL     1      11.835 -46.431  38.480  1.00  0.00     0.000 C 
BRANCH   4   5
ATOM      5  C   UNL     1      12.407 -46.038  37.109  1.00  0.00     0.006 C 
BRANCH   5   6
ATOM      6  C   UNL     1      13.887 -45.662  37.221  1.00  0.00     0.053 C 
BRANCH   6   7
ATOM      7  C   UNL     1      14.708 -46.862  37.574  1.00  0.00     0.041 C 
ATOM      8  O   UNL     1      14.914 -47.762  36.717  1.00  0.00    -0.550 OA
ATOM      9  O   UNL     1      15.285 -46.965  38.833  1.00  0.00    -0.550 OA
ENDBRANCH   6   7
ENDBRANCH   5   6
ENDBRANCH   4   5
ENDBRANCH   3   4
ENDBRANCH   2   3
ENDBRANCH   1   2
BRANCH   1  10
ATOM     10  C   UNL     1       7.933 -48.052  38.503  1.00  0.00     0.027 C 
BRANCH  10  11
ATOM     11  C   UNL     1       6.634 -48.602  37.970  1.00  0.00    -0.031 C 
ATOM     12  C   UNL     1       6.538 -49.599  37.069  1.00  0.00    -0.031 C 
BRANCH  12  13
ATOM     13  C   UNL     1       7.713 -50.258  36.395  1.00  0.00     0.027 C 
BRANCH  13  14
ATOM     14  C   UNL     1       8.134 -49.476  35.145  1.00  0.00     0.004 C 
BRANCH  14  15
ATOM     15  C   UNL     1       7.071 -48.435  34.768  1.00  0.00     0.000 C 
BRANCH  15  16
ATOM     16  C   UNL     1       7.678 -47.089  34.330  1.00  0.00    -0.000 C 
BRANCH  16  17
ATOM     17  C   UNL     1       9.165 -46.903  34.685  1.00  0.00    -0.003 C 
ATOM     18  C   UNL     1       9.587 -45.435  34.749  1.00  0.00     0.004 C 
ENDBRANCH  16  17
ENDBRANCH  15  16
ENDBRANCH  14  15
ENDBRANCH  13  14
ENDBRANCH  12  13
ENDBRANCH  10  11
ENDBRANCH   1  10
TORSDOF 13
ENDMDL
MODEL 7
REMARK VINA RESULT:    -5.442      1.549      3.373
REMARK INTER + INTRA:         -11.501
REMARK INTER:                  -9.875
REMARK INTRA:                  -1.626
REMARK UNBOUND:                -1.923
REMARK SMILES CCCCCCC=CCCCCCCCC(=O)[O-]
REMARK SMILES IDX 10 1 11 2 12 3 13 4 14 5 15 6 16 7 17 8 18 9 9 10 8 11 7 12
REMARK SMILES IDX 6 13 5 14 4 15 3 16 2 17 1 18
REMARK H PARENT
REMARK Flexibility Score: inf
ROOT
ATOM      1  C   UNL     1       8.987 -45.651  35.409  1.00  0.00     0.004 C 
ENDROOT
BRANCH   1   2
ATOM      2  C   UNL     1      10.373 -46.173  35.815  1.00  0.00     0.000 C 
BRANCH   2   3
ATOM      3  C   UNL     1      10.637 -46.062  37.327  1.00  0.00     0.000 C 
BRANCH   3   4
ATOM      4  C   UNL     1      12.114 -46.186  37.741  1.00  0.00     0.000 C 
BRANCH   4   5
ATOM      5  C   UNL     1      13.086 -45.799  36.617  1.00  0.00     0.006 C 
BRANCH   5   6
ATOM      6  C   UNL     1      14.523 -45.713  37.141  1.00  0.00     0.053 C 
BRANCH   6   7
ATOM      7  C   UNL     1      14.960 -47.034  37.692  1.00  0.00     0.041 C 
ATOM      8  O   UNL     1      15.050 -48.036  36.936  1.00  0.00    -0.550 OA
ATOM      9  O   UNL     1      15.315 -47.146  39.030  1.00  0.00    -0.550 OA
ENDBRANCH   6   7
ENDBRANCH   5   6
ENDBRANCH   4   5
ENDBRANCH   3   4
ENDBRANCH   2   3
ENDBRANCH   1   2
BRANCH   1  10
ATOM     10  C   UNL     1       9.090 -44.695  34.215  1.00  0.00     0.027 C 
BRANCH  10  11
ATOM     11  C   UNL     1       9.700 -45.389  33.024  1.00  0.00    -0.031 C 
ATOM     12  C   UNL     1       9.014 -45.786  31.935  1.00  0.00    -0.031 C 
BRANCH  12  13
ATOM     13  C   UNL     1       7.520 -45.671  31.778  1.00  0.00     0.027 C 
BRANCH  13  14
ATOM     14  C   UNL     1       6.863 -47.056  31.781  1.00  0.00     0.004 C 
BRANCH  14  15
ATOM     15  C   UNL     1       6.017 -47.258  33.046  1.00  0.00     0.000 C 
BRANCH  15  16
ATOM     16  C   UNL     1       6.376 -48.546  33.810  1.00  0.00    -0.000 C 
BRANCH  16  17
ATOM     17  C   UNL     1       7.884 -48.771  34.025  1.00  0.00    -0.003 C 
ATOM     18  C   UNL     1       8.201 -49.491  35.336  1.00  0.00     0.004 C 
ENDBRANCH  16  17
ENDBRANCH  15  16
ENDBRANCH  14  15
ENDBRANCH  13  14
ENDBRANCH  12  13
ENDBRANCH  10  11
ENDBRANCH   1  10
TORSDOF 13
ENDMDL
MODEL 8
REMARK VINA RESULT:    -5.426      3.922      7.324
REMARK INTER + INTRA:         -11.473
REMARK INTER:                 -10.158
REMARK INTRA:                  -1.315
REMARK UNBOUND:                -1.923
REMARK SMILES CCCCCCC=CCCCCCCCC(=O)[O-]
REMARK SMILES IDX 10 1 11 2 12 3 13 4 14 5 15 6 16 7 17 8 18 9 9 10 8 11 7 12
REMARK SMILES IDX 6 13 5 14 4 15 3 16 2 17 1 18
REMARK H PARENT
REMARK Flexibility Score: inf
ROOT
ATOM      1  C   UNL     1       9.014 -46.587  34.877  1.00  0.00     0.004 C 
ENDROOT
BRANCH   1   2
ATOM      2  C   UNL     1      10.210 -45.731  34.433  1.00  0.00     0.000 C 
BRANCH   2   3
ATOM      3  C   UNL     1       9.892 -44.840  33.218  1.00  0.00     0.000 C 
BRANCH   3   4
ATOM      4  C   UNL     1       8.782 -43.800  33.446  1.00  0.00     0.000 C 
BRANCH   4   5
ATOM      5  C   UNL     1       7.924 -43.555  32.196  1.00  0.00     0.006 C 
BRANCH   5   6
ATOM      6  C   UNL     1       7.576 -44.876  31.503  1.00  0.00     0.053 C 
BRANCH   6   7
ATOM      7  C   UNL     1       6.190 -45.308  31.864  1.00  0.00     0.041 C 
ATOM      8  O   UNL     1       5.220 -45.009  31.119  1.00  0.00    -0.550 OA
ATOM      9  O   UNL     1       5.974 -46.082  32.997  1.00  0.00    -0.550 OA
ENDBRANCH   6   7
ENDBRANCH   5   6
ENDBRANCH   4   5
ENDBRANCH   3   4
ENDBRANCH   2   3
ENDBRANCH   1   2
BRANCH   1  10
ATOM     10  C   UNL     1       8.604 -46.250  36.315  1.00  0.00     0.027 C 
BRANCH  10  11
ATOM     11  C   UNL     1       8.769 -47.451  37.213  1.00  0.00    -0.031 C 
ATOM     12  C   UNL     1       9.540 -47.479  38.317  1.00  0.00    -0.031 C 
BRANCH  12  13
ATOM     13  C   UNL     1      10.417 -46.344  38.777  1.00  0.00     0.027 C 
BRANCH  13  14
ATOM     14  C   UNL     1      11.893 -46.648  38.496  1.00  0.00     0.004 C 
BRANCH  14  15
ATOM     15  C   UNL     1      12.377 -45.904  37.243  1.00  0.00     0.000 C 
BRANCH  15  16
ATOM     16  C   UNL     1      13.906 -45.949  37.071  1.00  0.00    -0.000 C 
BRANCH  16  17
ATOM     17  C   UNL     1      14.625 -47.000  37.938  1.00  0.00    -0.003 C 
ATOM     18  C   UNL     1      15.397 -48.030  37.114  1.00  0.00     0.004 C 
ENDBRANCH  16  17
ENDBRANCH  15  16
ENDBRANCH  14  15
ENDBRANCH  13  14
ENDBRANCH  12  13
ENDBRANCH  10  11
ENDBRANCH   1  10
TORSDOF 13
ENDMDL
MODEL 9
REMARK VINA RESULT:    -5.404      3.860      6.389
REMARK INTER + INTRA:         -11.434
REMARK INTER:                  -9.755
REMARK INTRA:                  -1.679
REMARK UNBOUND:                -1.923
REMARK SMILES CCCCCCC=CCCCCCCCC(=O)[O-]
REMARK SMILES IDX 10 1 11 2 12 3 13 4 14 5 15 6 16 7 17 8 18 9 9 10 8 11 7 12
REMARK SMILES IDX 6 13 5 14 4 15 3 16 2 17 1 18
REMARK H PARENT
REMARK Flexibility Score: inf
ROOT
ATOM      1  C   UNL     1       7.642 -48.147  34.989  1.00  0.00     0.004 C 
ENDROOT
BRANCH   1   2
ATOM      2  C   UNL     1       9.000 -47.542  34.601  1.00  0.00     0.000 C 
BRANCH   2   3
ATOM      3  C   UNL     1       9.082 -46.029  34.869  1.00  0.00     0.000 C 
BRANCH   3   4
ATOM      4  C   UNL     1      10.307 -45.326  34.259  1.00  0.00     0.000 C 
BRANCH   4   5
ATOM      5  C   UNL     1       9.960 -44.477  33.027  1.00  0.00     0.006 C 
BRANCH   5   6
ATOM      6  C   UNL     1       8.676 -43.673  33.260  1.00  0.00     0.053 C 
BRANCH   6   7
ATOM      7  C   UNL     1       7.712 -43.888  32.137  1.00  0.00     0.041 C 
ATOM      8  O   UNL     1       6.558 -43.385  32.188  1.00  0.00    -0.550 OA
ATOM      9  O   UNL     1       8.102 -44.602  31.011  1.00  0.00    -0.550 OA
ENDBRANCH   6   7
ENDBRANCH   5   6
ENDBRANCH   4   5
ENDBRANCH   3   4
ENDBRANCH   2   3
ENDBRANCH   1   2
BRANCH   1  10
ATOM     10  C   UNL     1       7.828 -49.415  35.830  1.00  0.00     0.027 C 
BRANCH  10  11
ATOM     11  C   UNL     1       7.053 -49.319  37.120  1.00  0.00    -0.031 C 
ATOM     12  C   UNL     1       7.441 -48.607  38.195  1.00  0.00    -0.031 C 
BRANCH  12  13
ATOM     13  C   UNL     1       8.749 -47.866  38.302  1.00  0.00     0.027 C 
BRANCH  13  14
ATOM     14  C   UNL     1       8.510 -46.372  38.546  1.00  0.00     0.004 C 
BRANCH  14  15
ATOM     15  C   UNL     1       9.828 -45.588  38.476  1.00  0.00     0.000 C 
BRANCH  15  16
ATOM     16  C   UNL     1      11.048 -46.487  38.205  1.00  0.00    -0.000 C 
BRANCH  16  17
ATOM     17  C   UNL     1      12.136 -45.853  37.318  1.00  0.00    -0.003 C 
ATOM     18  C   UNL     1      13.518 -46.470  37.530  1.00  0.00     0.004 C 
ENDBRANCH  16  17
ENDBRANCH  15  16
ENDBRANCH  14  15
ENDBRANCH  13  14
ENDBRANCH  12  13
ENDBRANCH  10  11
ENDBRANCH   1  10
TORSDOF 13
ENDMDL
