MODEL 1
REMARK VINA RESULT:    -5.335      0.000      0.000
REMARK INTER + INTRA:          -7.796
REMARK INTER:                  -7.518
REMARK INTRA:                  -0.278
REMARK UNBOUND:                -0.278
REMARK SMILES CC(=O)OCC[C@H](C)CCC=C(C)C
REMARK SMILES IDX 8 1 7 2 9 3 10 4 11 5 12 6 13 7 14 8 6 9 5 10 4 11 2 12 3 13
REMARK SMILES IDX 1 14
REMARK H PARENT
REMARK Flexibility Score: inf
ROOT
ATOM      1  C   UNL     1      49.962  -8.447  -1.977  1.00  0.00     0.008 C 
ATOM      2  C   UNL     1      48.762  -7.577  -2.387  1.00  0.00    -0.011 C 
ENDROOT
BRANCH   2   3
ATOM      3  C   UNL     1      49.145  -6.636  -3.560  1.00  0.00     0.007 C 
BRANCH   3   4
ATOM      4  C   UNL     1      48.406  -6.955  -4.869  1.00  0.00     0.027 C 
BRANCH   4   5
ATOM      5  C   UNL     1      49.127  -6.371  -6.062  1.00  0.00    -0.028 C 
ATOM      6  C   UNL     1      48.933  -6.747  -7.346  1.00  0.00    -0.080 C 
ATOM      7  C   UNL     1      49.712  -6.041  -8.425  1.00  0.00     0.039 C 
ATOM      8  C   UNL     1      47.967  -7.845  -7.724  1.00  0.00     0.039 C 
ENDBRANCH   4   5
ENDBRANCH   3   4
ENDBRANCH   2   3
BRANCH   2   9
ATOM      9  C   UNL     1      48.262  -6.774  -1.162  1.00  0.00     0.045 C 
BRANCH   9  10
ATOM     10  C   UNL     1      47.321  -7.592  -0.264  1.00  0.00     0.233 C 
BRANCH  10  11
ATOM     11  O   UNL     1      46.327  -6.749   0.315  1.00  0.00    -0.466 OA
BRANCH  11  12
ATOM     12  C   UNL     1      44.953  -6.983   0.196  1.00  0.00     0.302 C 
ATOM     13  O   UNL     1      44.492  -7.646  -0.772  1.00  0.00    -0.253 OA
ATOM     14  C   UNL     1      44.019  -6.392   1.196  1.00  0.00     0.139 C 
ENDBRANCH  11  12
ENDBRANCH  10  11
ENDBRANCH   9  10
ENDBRANCH   2   9
TORSDOF 7
ENDMDL
MODEL 2
REMARK VINA RESULT:    -5.165     11.874     12.938
REMARK INTER + INTRA:          -7.556
REMARK INTER:                  -6.700
REMARK INTRA:                  -0.856
REMARK UNBOUND:                -0.278
REMARK SMILES CC(=O)OCC[C@H](C)CCC=C(C)C
REMARK SMILES IDX 8 1 7 2 9 3 10 4 11 5 12 6 13 7 14 8 6 9 5 10 4 11 2 12 3 13
REMARK SMILES IDX 1 14
REMARK H PARENT
REMARK Flexibility Score: inf
ROOT
ATOM      1  C   UNL     1      60.821  -1.146  -0.890  1.00  0.00     0.008 C 
ATOM      2  C   UNL     1      59.510  -1.210  -0.089  1.00  0.00    -0.011 C 
ENDROOT
BRANCH   2   3
ATOM      3  C   UNL     1      58.823   0.181  -0.053  1.00  0.00     0.007 C 
BRANCH   3   4
ATOM      4  C   UNL     1      57.766   0.372  -1.153  1.00  0.00     0.027 C 
BRANCH   4   5
ATOM      5  C   UNL     1      57.850   1.754  -1.760  1.00  0.00    -0.028 C 
ATOM      6  C   UNL     1      58.577   2.078  -2.852  1.00  0.00    -0.080 C 
ATOM      7  C   UNL     1      58.529   3.499  -3.350  1.00  0.00     0.039 C 
ATOM      8  C   UNL     1      59.428   1.064  -3.581  1.00  0.00     0.039 C 
ENDBRANCH   4   5
ENDBRANCH   3   4
ENDBRANCH   2   3
BRANCH   2   9
ATOM      9  C   UNL     1      59.801  -1.730   1.340  1.00  0.00     0.045 C 
BRANCH   9  10
ATOM     10  C   UNL     1      58.731  -2.712   1.839  1.00  0.00     0.233 C 
BRANCH  10  11
ATOM     11  O   UNL     1      57.607  -2.714   0.960  1.00  0.00    -0.466 OA
BRANCH  11  12
ATOM     12  C   UNL     1      56.293  -2.498   1.388  1.00  0.00     0.302 C 
ATOM     13  O   UNL     1      55.436  -3.421   1.334  1.00  0.00    -0.253 OA
ATOM     14  C   UNL     1      55.888  -1.143   1.858  1.00  0.00     0.139 C 
ENDBRANCH  11  12
ENDBRANCH  10  11
ENDBRANCH   9  10
ENDBRANCH   2   9
TORSDOF 7
ENDMDL
MODEL 3
REMARK VINA RESULT:    -5.129      3.621      6.923
REMARK INTER + INTRA:          -7.506
REMARK INTER:                  -6.746
REMARK INTRA:                  -0.760
REMARK UNBOUND:                -0.278
REMARK SMILES CC(=O)OCC[C@H](C)CCC=C(C)C
REMARK SMILES IDX 8 1 7 2 9 3 10 4 11 5 12 6 13 7 14 8 6 9 5 10 4 11 2 12 3 13
REMARK SMILES IDX 1 14
REMARK H PARENT
REMARK Flexibility Score: inf
ROOT
ATOM      1  C   UNL     1      48.360  -6.025  -5.937  1.00  0.00     0.008 C 
ATOM      2  C   UNL     1      48.809  -7.070  -4.903  1.00  0.00    -0.011 C 
ENDROOT
BRANCH   2   3
ATOM      3  C   UNL     1      49.028  -6.407  -3.516  1.00  0.00     0.007 C 
BRANCH   3   4
ATOM      4  C   UNL     1      49.106  -7.416  -2.360  1.00  0.00     0.027 C 
BRANCH   4   5
ATOM      5  C   UNL     1      48.332  -6.930  -1.156  1.00  0.00    -0.028 C 
ATOM      6  C   UNL     1      47.222  -7.518  -0.659  1.00  0.00    -0.080 C 
ATOM      7  C   UNL     1      46.585  -6.925   0.571  1.00  0.00     0.039 C 
ATOM      8  C   UNL     1      46.608  -8.743  -1.296  1.00  0.00     0.039 C 
ENDBRANCH   4   5
ENDBRANCH   3   4
ENDBRANCH   2   3
BRANCH   2   9
ATOM      9  C   UNL     1      50.097  -7.771  -5.400  1.00  0.00     0.045 C 
BRANCH   9  10
ATOM     10  C   UNL     1      50.930  -6.881  -6.334  1.00  0.00     0.233 C 
BRANCH  10  11
ATOM     11  O   UNL     1      52.186  -6.567  -5.735  1.00  0.00    -0.466 OA
BRANCH  11  12
ATOM     12  C   UNL     1      52.411  -5.414  -4.976  1.00  0.00     0.302 C 
ATOM     13  O   UNL     1      53.274  -5.404  -4.056  1.00  0.00    -0.253 OA
ATOM     14  C   UNL     1      51.579  -4.201  -5.218  1.00  0.00     0.139 C 
ENDBRANCH  11  12
ENDBRANCH  10  11
ENDBRANCH   9  10
ENDBRANCH   2   9
TORSDOF 7
ENDMDL
MODEL 4
REMARK VINA RESULT:    -5.109      3.242      6.731
REMARK INTER + INTRA:          -7.477
REMARK INTER:                  -6.957
REMARK INTRA:                  -0.521
REMARK UNBOUND:                -0.278
REMARK SMILES CC(=O)OCC[C@H](C)CCC=C(C)C
REMARK SMILES IDX 8 1 7 2 9 3 10 4 11 5 12 6 13 7 14 8 6 9 5 10 4 11 2 12 3 13
REMARK SMILES IDX 1 14
REMARK H PARENT
REMARK Flexibility Score: inf
ROOT
ATOM      1  C   UNL     1      50.552  -8.990  -2.023  1.00  0.00     0.008 C 
ATOM      2  C   UNL     1      50.034  -7.729  -2.734  1.00  0.00    -0.011 C 
ENDROOT
BRANCH   2   3
ATOM      3  C   UNL     1      48.520  -7.527  -2.457  1.00  0.00     0.007 C 
BRANCH   3   4
ATOM      4  C   UNL     1      47.933  -8.561  -1.483  1.00  0.00     0.027 C 
BRANCH   4   5
ATOM      5  C   UNL     1      46.669  -8.044  -0.833  1.00  0.00    -0.028 C 
ATOM      6  C   UNL     1      46.628  -7.141   0.172  1.00  0.00    -0.080 C 
ATOM      7  C   UNL     1      45.281  -6.705   0.688  1.00  0.00     0.039 C 
ATOM      8  C   UNL     1      47.881  -6.562   0.784  1.00  0.00     0.039 C 
ENDBRANCH   4   5
ENDBRANCH   3   4
ENDBRANCH   2   3
BRANCH   2   9
ATOM      9  C   UNL     1      50.318  -7.837  -4.252  1.00  0.00     0.045 C 
BRANCH   9  10
ATOM     10  C   UNL     1      49.188  -7.242  -5.107  1.00  0.00     0.233 C 
BRANCH  10  11
ATOM     11  O   UNL     1      49.465  -5.879  -5.420  1.00  0.00    -0.466 OA
BRANCH  11  12
ATOM     12  C   UNL     1      50.731  -5.415  -5.794  1.00  0.00     0.302 C 
ATOM     13  O   UNL     1      51.294  -5.843  -6.838  1.00  0.00    -0.253 OA
ATOM     14  C   UNL     1      51.448  -4.448  -4.914  1.00  0.00     0.139 C 
ENDBRANCH  11  12
ENDBRANCH  10  11
ENDBRANCH   9  10
ENDBRANCH   2   9
TORSDOF 7
ENDMDL
MODEL 5
REMARK VINA RESULT:    -5.018      2.947      6.586
REMARK INTER + INTRA:          -7.350
REMARK INTER:                  -6.768
REMARK INTRA:                  -0.581
REMARK UNBOUND:                -0.278
REMARK SMILES CC(=O)OCC[C@H](C)CCC=C(C)C
REMARK SMILES IDX 8 1 7 2 9 3 10 4 11 5 12 6 13 7 14 8 6 9 5 10 4 11 2 12 3 13
REMARK SMILES IDX 1 14
REMARK H PARENT
REMARK Flexibility Score: inf
ROOT
ATOM      1  C   UNL     1      50.732  -8.632  -2.052  1.00  0.00     0.008 C 
ATOM      2  C   UNL     1      50.041  -7.601  -2.959  1.00  0.00    -0.011 C 
ENDROOT
BRANCH   2   3
ATOM      3  C   UNL     1      48.530  -7.501  -2.620  1.00  0.00     0.007 C 
BRANCH   3   4
ATOM      4  C   UNL     1      48.072  -8.511  -1.556  1.00  0.00     0.027 C 
BRANCH   4   5
ATOM      5  C   UNL     1      46.812  -8.043  -0.862  1.00  0.00    -0.028 C 
ATOM      6  C   UNL     1      46.773  -7.165   0.164  1.00  0.00    -0.080 C 
ATOM      7  C   UNL     1      45.430  -6.777   0.724  1.00  0.00     0.039 C 
ATOM      8  C   UNL     1      48.027  -6.566   0.758  1.00  0.00     0.039 C 
ENDBRANCH   4   5
ENDBRANCH   3   4
ENDBRANCH   2   3
BRANCH   2   9
ATOM      9  C   UNL     1      50.260  -7.987  -4.442  1.00  0.00     0.045 C 
BRANCH   9  10
ATOM     10  C   UNL     1      50.591  -6.773  -5.324  1.00  0.00     0.233 C 
BRANCH  10  11
ATOM     11  O   UNL     1      49.984  -6.909  -6.608  1.00  0.00    -0.466 OA
BRANCH  11  12
ATOM     12  C   UNL     1      48.607  -7.072  -6.796  1.00  0.00     0.302 C 
ATOM     13  O   UNL     1      47.788  -6.236  -6.328  1.00  0.00    -0.253 OA
ATOM     14  C   UNL     1      48.102  -8.281  -7.507  1.00  0.00     0.139 C 
ENDBRANCH  11  12
ENDBRANCH  10  11
ENDBRANCH   9  10
ENDBRANCH   2   9
TORSDOF 7
ENDMDL
MODEL 6
REMARK VINA RESULT:    -5.010     11.502     12.621
REMARK INTER + INTRA:          -7.338
REMARK INTER:                  -6.584
REMARK INTRA:                  -0.754
REMARK UNBOUND:                -0.278
REMARK SMILES CC(=O)OCC[C@H](C)CCC=C(C)C
REMARK SMILES IDX 8 1 7 2 9 3 10 4 11 5 12 6 13 7 14 8 6 9 5 10 4 11 2 12 3 13
REMARK SMILES IDX 1 14
REMARK H PARENT
REMARK Flexibility Score: inf
ROOT
ATOM      1  C   UNL     1      60.008  -2.107  -1.207  1.00  0.00     0.008 C 
ATOM      2  C   UNL     1      59.078  -2.138  -2.431  1.00  0.00    -0.011 C 
ENDROOT
BRANCH   2   3
ATOM      3  C   UNL     1      59.544  -1.110  -3.497  1.00  0.00     0.007 C 
BRANCH   3   4
ATOM      4  C   UNL     1      60.257   0.113  -2.899  1.00  0.00     0.027 C 
BRANCH   4   5
ATOM      5  C   UNL     1      59.682   1.402  -3.441  1.00  0.00    -0.028 C 
ATOM      6  C   UNL     1      58.739   2.149  -2.825  1.00  0.00    -0.080 C 
ATOM      7  C   UNL     1      58.294   3.428  -3.485  1.00  0.00     0.039 C 
ATOM      8  C   UNL     1      58.127   1.742  -1.505  1.00  0.00     0.039 C 
ENDBRANCH   4   5
ENDBRANCH   3   4
ENDBRANCH   2   3
BRANCH   2   9
ATOM      9  C   UNL     1      57.622  -1.862  -1.982  1.00  0.00     0.045 C 
BRANCH   9  10
ATOM     10  C   UNL     1      57.501  -1.666  -0.463  1.00  0.00     0.233 C 
BRANCH  10  11
ATOM     11  O   UNL     1      56.699  -2.698   0.110  1.00  0.00    -0.466 OA
BRANCH  11  12
ATOM     12  C   UNL     1      55.917  -2.520   1.256  1.00  0.00     0.302 C 
ATOM     13  O   UNL     1      55.156  -3.437   1.668  1.00  0.00    -0.253 OA
ATOM     14  C   UNL     1      55.941  -1.209   1.964  1.00  0.00     0.139 C 
ENDBRANCH  11  12
ENDBRANCH  10  11
ENDBRANCH   9  10
ENDBRANCH   2   9
TORSDOF 7
ENDMDL
MODEL 7
REMARK VINA RESULT:    -4.973     12.506     13.862
REMARK INTER + INTRA:          -7.286
REMARK INTER:                  -6.466
REMARK INTRA:                  -0.820
REMARK UNBOUND:                -0.278
REMARK SMILES CC(=O)OCC[C@H](C)CCC=C(C)C
REMARK SMILES IDX 8 1 7 2 9 3 10 4 11 5 12 6 13 7 14 8 6 9 5 10 4 11 2 12 3 13
REMARK SMILES IDX 1 14
REMARK H PARENT
REMARK Flexibility Score: inf
ROOT
ATOM      1  C   UNL     1      58.551   3.618  -3.472  1.00  0.00     0.008 C 
ATOM      2  C   UNL     1      58.950   2.327  -2.738  1.00  0.00    -0.011 C 
ENDROOT
BRANCH   2   3
ATOM      3  C   UNL     1      59.401   1.240  -3.750  1.00  0.00     0.007 C 
BRANCH   3   4
ATOM      4  C   UNL     1      60.593   0.402  -3.259  1.00  0.00     0.027 C 
BRANCH   4   5
ATOM      5  C   UNL     1      60.202  -1.045  -3.068  1.00  0.00    -0.028 C 
ATOM      6  C   UNL     1      60.500  -1.791  -1.981  1.00  0.00    -0.080 C 
ATOM      7  C   UNL     1      60.008  -3.214  -1.932  1.00  0.00     0.039 C 
ATOM      8  C   UNL     1      61.303  -1.242  -0.825  1.00  0.00     0.039 C 
ENDBRANCH   4   5
ENDBRANCH   3   4
ENDBRANCH   2   3
BRANCH   2   9
ATOM      9  C   UNL     1      57.763   1.833  -1.875  1.00  0.00     0.045 C 
BRANCH   9  10
ATOM     10  C   UNL     1      58.220   1.022  -0.653  1.00  0.00     0.233 C 
BRANCH  10  11
ATOM     11  O   UNL     1      57.627  -0.276  -0.666  1.00  0.00    -0.466 OA
BRANCH  11  12
ATOM     12  C   UNL     1      57.400  -1.032   0.489  1.00  0.00     0.302 C 
ATOM     13  O   UNL     1      58.354  -1.593   1.092  1.00  0.00    -0.253 OA
ATOM     14  C   UNL     1      56.005  -1.223   0.977  1.00  0.00     0.139 C 
ENDBRANCH  11  12
ENDBRANCH  10  11
ENDBRANCH   9  10
ENDBRANCH   2   9
TORSDOF 7
ENDMDL
MODEL 8
REMARK VINA RESULT:    -4.947     10.640     11.670
REMARK INTER + INTRA:          -7.249
REMARK INTER:                  -6.891
REMARK INTRA:                  -0.359
REMARK UNBOUND:                -0.278
REMARK SMILES CC(=O)OCC[C@H](C)CCC=C(C)C
REMARK SMILES IDX 8 1 7 2 9 3 10 4 11 5 12 6 13 7 14 8 6 9 5 10 4 11 2 12 3 13
REMARK SMILES IDX 1 14
REMARK H PARENT
REMARK Flexibility Score: inf
ROOT
ATOM      1  C   UNL     1      57.125  -2.131  -1.022  1.00  0.00     0.008 C 
ATOM      2  C   UNL     1      56.666  -1.002  -0.085  1.00  0.00    -0.011 C 
ENDROOT
BRANCH   2   3
ATOM      3  C   UNL     1      57.843  -0.042   0.232  1.00  0.00     0.007 C 
BRANCH   3   4
ATOM      4  C   UNL     1      58.709   0.292  -0.993  1.00  0.00     0.027 C 
BRANCH   4   5
ATOM      5  C   UNL     1      58.243   1.566  -1.662  1.00  0.00    -0.028 C 
ATOM      6  C   UNL     1      58.707   2.037  -2.841  1.00  0.00    -0.080 C 
ATOM      7  C   UNL     1      58.114   3.309  -3.388  1.00  0.00     0.039 C 
ATOM      8  C   UNL     1      59.792   1.329  -3.618  1.00  0.00     0.039 C 
ENDBRANCH   4   5
ENDBRANCH   3   4
ENDBRANCH   2   3
BRANCH   2   9
ATOM      9  C   UNL     1      56.074  -1.611   1.210  1.00  0.00     0.045 C 
BRANCH   9  10
ATOM     10  C   UNL     1      56.249  -3.136   1.277  1.00  0.00     0.233 C 
BRANCH  10  11
ATOM     11  O   UNL     1      54.978  -3.781   1.341  1.00  0.00    -0.466 OA
BRANCH  11  12
ATOM     12  C   UNL     1      54.762  -4.993   2.005  1.00  0.00     0.302 C 
ATOM     13  O   UNL     1      55.721  -5.626   2.524  1.00  0.00    -0.253 OA
ATOM     14  C   UNL     1      53.389  -5.572   2.046  1.00  0.00     0.139 C 
ENDBRANCH  11  12
ENDBRANCH  10  11
ENDBRANCH   9  10
ENDBRANCH   2   9
TORSDOF 7
ENDMDL
MODEL 9
REMARK VINA RESULT:    -4.937     12.580     13.973
REMARK INTER + INTRA:          -7.235
REMARK INTER:                  -6.246
REMARK INTRA:                  -0.989
REMARK UNBOUND:                -0.278
REMARK SMILES CC(=O)OCC[C@H](C)CCC=C(C)C
REMARK SMILES IDX 8 1 7 2 9 3 10 4 11 5 12 6 13 7 14 8 6 9 5 10 4 11 2 12 3 13
REMARK SMILES IDX 1 14
REMARK H PARENT
REMARK Flexibility Score: inf
ROOT
ATOM      1  C   UNL     1      58.746  -2.197   0.658  1.00  0.00     0.008 C 
ATOM      2  C   UNL     1      59.431  -0.837   0.443  1.00  0.00    -0.011 C 
ENDROOT
BRANCH   2   3
ATOM      3  C   UNL     1      58.375   0.275   0.207  1.00  0.00     0.007 C 
BRANCH   3   4
ATOM      4  C   UNL     1      57.880   0.352  -1.246  1.00  0.00     0.027 C 
BRANCH   4   5
ATOM      5  C   UNL     1      57.977   1.762  -1.784  1.00  0.00    -0.028 C 
ATOM      6  C   UNL     1      58.706   2.132  -2.860  1.00  0.00    -0.080 C 
ATOM      7  C   UNL     1      58.671   3.576  -3.287  1.00  0.00     0.039 C 
ATOM      8  C   UNL     1      59.545   1.147  -3.640  1.00  0.00     0.039 C 
ENDBRANCH   4   5
ENDBRANCH   3   4
ENDBRANCH   2   3
BRANCH   2   9
ATOM      9  C   UNL     1      60.419  -0.936  -0.745  1.00  0.00     0.045 C 
BRANCH   9  10
ATOM     10  C   UNL     1      60.399  -2.319  -1.414  1.00  0.00     0.233 C 
BRANCH  10  11
ATOM     11  O   UNL     1      60.418  -2.186  -2.834  1.00  0.00    -0.466 OA
BRANCH  11  12
ATOM     12  C   UNL     1      59.423  -2.703  -3.670  1.00  0.00     0.302 C 
ATOM     13  O   UNL     1      59.721  -3.249  -4.767  1.00  0.00    -0.253 OA
ATOM     14  C   UNL     1      57.991  -2.554  -3.286  1.00  0.00     0.139 C 
ENDBRANCH  11  12
ENDBRANCH  10  11
ENDBRANCH   9  10
ENDBRANCH   2   9
TORSDOF 7
ENDMDL
