MODEL 1
REMARK VINA RESULT:    -4.565      0.000      0.000
REMARK INTER + INTRA:          -8.581
REMARK INTER:                  -7.767
REMARK INTRA:                  -0.813
REMARK UNBOUND:                -0.813
REMARK SMILES CCCCCCCCCCCCCC(=O)[O-]
REMARK SMILES IDX 8 1 9 2 10 3 11 4 12 5 13 6 14 7 15 8 16 9 7 10 6 11 5 12
REMARK SMILES IDX 4 13 3 14 2 15 1 16
REMARK H PARENT
REMARK Flexibility Score: inf
ROOT
ATOM      1  C   UNL     1      14.201  50.938  95.455  1.00  0.00     0.000 C 
ENDROOT
BRANCH   1   2
ATOM      2  C   UNL     1      14.174  50.879  96.996  1.00  0.00     0.000 C 
BRANCH   2   3
ATOM      3  C   UNL     1      13.265  49.770  97.552  1.00  0.00     0.000 C 
BRANCH   3   4
ATOM      4  C   UNL     1      12.428  49.082  96.464  1.00  0.00     0.000 C 
BRANCH   4   5
ATOM      5  C   UNL     1      11.134  48.502  97.049  1.00  0.00     0.006 C 
BRANCH   5   6
ATOM      6  C   UNL     1      10.566  49.418  98.137  1.00  0.00     0.053 C 
BRANCH   6   7
ATOM      7  C   UNL     1       9.133  49.741  97.853  1.00  0.00     0.041 C 
ATOM      8  O   UNL     1       8.433  48.956  97.160  1.00  0.00    -0.550 OA
ATOM      9  O   UNL     1       8.583  50.930  98.313  1.00  0.00    -0.550 OA
ENDBRANCH   6   7
ENDBRANCH   5   6
ENDBRANCH   4   5
ENDBRANCH   3   4
ENDBRANCH   2   3
ENDBRANCH   1   2
BRANCH   1  10
ATOM     10  C   UNL     1      15.602  50.639  94.888  1.00  0.00     0.000 C 
BRANCH  10  11
ATOM     11  C   UNL     1      15.899  49.133  94.817  1.00  0.00    -0.000 C 
BRANCH  11  12
ATOM     12  C   UNL     1      15.583  48.543  93.432  1.00  0.00    -0.000 C 
BRANCH  12  13
ATOM     13  C   UNL     1      16.694  47.614  92.915  1.00  0.00    -0.000 C 
BRANCH  13  14
ATOM     14  C   UNL     1      17.380  46.828  94.045  1.00  0.00    -0.000 C 
BRANCH  14  15
ATOM     15  C   UNL     1      18.524  45.937  93.531  1.00  0.00    -0.003 C 
ATOM     16  C   UNL     1      19.190  46.494  92.273  1.00  0.00     0.004 C 
ENDBRANCH  14  15
ENDBRANCH  13  14
ENDBRANCH  12  13
ENDBRANCH  11  12
ENDBRANCH  10  11
ENDBRANCH   1  10
TORSDOF 12
ENDMDL
MODEL 2
REMARK VINA RESULT:    -4.181      3.456      6.540
REMARK INTER + INTRA:          -7.928
REMARK INTER:                  -6.665
REMARK INTRA:                  -1.263
REMARK UNBOUND:                -0.813
REMARK SMILES CCCCCCCCCCCCCC(=O)[O-]
REMARK SMILES IDX 8 1 9 2 10 3 11 4 12 5 13 6 14 7 15 8 16 9 7 10 6 11 5 12
REMARK SMILES IDX 4 13 3 14 2 15 1 16
REMARK H PARENT
REMARK Flexibility Score: inf
ROOT
ATOM      1  C   UNL     1      11.152  48.850  97.704  1.00  0.00     0.000 C 
ENDROOT
BRANCH   1   2
ATOM      2  C   UNL     1      12.260  49.215  96.694  1.00  0.00     0.000 C 
BRANCH   2   3
ATOM      3  C   UNL     1      13.612  49.532  97.354  1.00  0.00     0.000 C 
BRANCH   3   4
ATOM      4  C   UNL     1      14.149  50.921  96.979  1.00  0.00     0.000 C 
BRANCH   4   5
ATOM      5  C   UNL     1      14.317  51.055  95.460  1.00  0.00     0.006 C 
BRANCH   5   6
ATOM      6  C   UNL     1      15.658  50.473  95.004  1.00  0.00     0.053 C 
BRANCH   6   7
ATOM      7  C   UNL     1      15.447  49.183  94.277  1.00  0.00     0.041 C 
ATOM      8  O   UNL     1      14.327  48.920  93.765  1.00  0.00    -0.550 OA
ATOM      9  O   UNL     1      16.472  48.248  94.207  1.00  0.00    -0.550 OA
ENDBRANCH   6   7
ENDBRANCH   5   6
ENDBRANCH   4   5
ENDBRANCH   3   4
ENDBRANCH   2   3
ENDBRANCH   1   2
BRANCH   1  10
ATOM     10  C   UNL     1       9.761  48.800  97.044  1.00  0.00     0.000 C 
BRANCH  10  11
ATOM     11  C   UNL     1       9.094  47.422  97.181  1.00  0.00    -0.000 C 
BRANCH  11  12
ATOM     12  C   UNL     1       8.546  46.905  95.839  1.00  0.00    -0.000 C 
BRANCH  12  13
ATOM     13  C   UNL     1       9.523  45.956  95.126  1.00  0.00    -0.000 C 
BRANCH  13  14
ATOM     14  C   UNL     1      10.671  46.704  94.427  1.00  0.00    -0.000 C 
BRANCH  14  15
ATOM     15  C   UNL     1      10.175  47.601  93.280  1.00  0.00    -0.003 C 
ATOM     16  C   UNL     1      10.737  49.020  93.351  1.00  0.00     0.004 C 
ENDBRANCH  14  15
ENDBRANCH  13  14
ENDBRANCH  12  13
ENDBRANCH  11  12
ENDBRANCH  10  11
ENDBRANCH   1  10
TORSDOF 12
ENDMDL
MODEL 3
REMARK VINA RESULT:    -4.169      4.793      7.239
REMARK INTER + INTRA:          -7.907
REMARK INTER:                  -7.578
REMARK INTRA:                  -0.329
REMARK UNBOUND:                -0.813
REMARK SMILES CCCCCCCCCCCCCC(=O)[O-]
REMARK SMILES IDX 8 1 9 2 10 3 11 4 12 5 13 6 14 7 15 8 16 9 7 10 6 11 5 12
REMARK SMILES IDX 4 13 3 14 2 15 1 16
REMARK H PARENT
REMARK Flexibility Score: inf
ROOT
ATOM      1  C   UNL     1       9.317  46.775  96.466  1.00  0.00     0.000 C 
ENDROOT
BRANCH   1   2
ATOM      2  C   UNL     1       9.519  45.921  95.197  1.00  0.00     0.000 C 
BRANCH   2   3
ATOM      3  C   UNL     1       9.860  44.451  95.494  1.00  0.00     0.000 C 
BRANCH   3   4
ATOM      4  C   UNL     1      11.140  43.981  94.789  1.00  0.00     0.000 C 
BRANCH   4   5
ATOM      5  C   UNL     1      11.438  42.511  95.111  1.00  0.00     0.006 C 
BRANCH   5   6
ATOM      6  C   UNL     1      12.740  42.376  95.906  1.00  0.00     0.053 C 
BRANCH   6   7
ATOM      7  C   UNL     1      13.894  42.147  94.984  1.00  0.00     0.041 C 
ATOM      8  O   UNL     1      14.957  41.628  95.417  1.00  0.00    -0.550 OA
ATOM      9  O   UNL     1      13.816  42.549  93.657  1.00  0.00    -0.550 OA
ENDBRANCH   6   7
ENDBRANCH   5   6
ENDBRANCH   4   5
ENDBRANCH   3   4
ENDBRANCH   2   3
ENDBRANCH   1   2
BRANCH   1  10
ATOM     10  C   UNL     1      10.164  48.062  96.439  1.00  0.00     0.000 C 
BRANCH  10  11
ATOM     11  C   UNL     1      10.642  48.482  97.837  1.00  0.00    -0.000 C 
BRANCH  11  12
ATOM     12  C   UNL     1      11.641  49.651  97.783  1.00  0.00    -0.000 C 
BRANCH  12  13
ATOM     13  C   UNL     1      13.018  49.231  97.241  1.00  0.00    -0.000 C 
BRANCH  13  14
ATOM     14  C   UNL     1      13.974  50.423  97.067  1.00  0.00    -0.000 C 
BRANCH  14  15
ATOM     15  C   UNL     1      14.128  50.842  95.595  1.00  0.00    -0.003 C 
ATOM     16  C   UNL     1      15.544  50.628  95.063  1.00  0.00     0.004 C 
ENDBRANCH  14  15
ENDBRANCH  13  14
ENDBRANCH  12  13
ENDBRANCH  11  12
ENDBRANCH  10  11
ENDBRANCH   1  10
TORSDOF 12
ENDMDL
MODEL 4
REMARK VINA RESULT:    -4.103      3.334      5.636
REMARK INTER + INTRA:          -7.795
REMARK INTER:                  -6.640
REMARK INTRA:                  -1.155
REMARK UNBOUND:                -0.813
REMARK SMILES CCCCCCCCCCCCCC(=O)[O-]
REMARK SMILES IDX 8 1 9 2 10 3 11 4 12 5 13 6 14 7 15 8 16 9 7 10 6 11 5 12
REMARK SMILES IDX 4 13 3 14 2 15 1 16
REMARK H PARENT
REMARK Flexibility Score: inf
ROOT
ATOM      1  C   UNL     1       9.037  49.496  98.095  1.00  0.00     0.000 C 
ENDROOT
BRANCH   1   2
ATOM      2  C   UNL     1       8.429  49.885  96.731  1.00  0.00     0.000 C 
BRANCH   2   3
ATOM      3  C   UNL     1       7.677  48.733  96.044  1.00  0.00     0.000 C 
BRANCH   3   4
ATOM      4  C   UNL     1       7.382  47.561  96.991  1.00  0.00     0.000 C 
BRANCH   4   5
ATOM      5  C   UNL     1       8.217  46.329  96.619  1.00  0.00     0.006 C 
BRANCH   5   6
ATOM      6  C   UNL     1       8.806  46.471  95.213  1.00  0.00     0.053 C 
BRANCH   6   7
ATOM      7  C   UNL     1       9.872  45.446  94.987  1.00  0.00     0.041 C 
ATOM      8  O   UNL     1      10.755  45.633  94.108  1.00  0.00    -0.550 OA
ATOM      9  O   UNL     1       9.862  44.261  95.712  1.00  0.00    -0.550 OA
ENDBRANCH   6   7
ENDBRANCH   5   6
ENDBRANCH   4   5
ENDBRANCH   3   4
ENDBRANCH   2   3
ENDBRANCH   1   2
BRANCH   1  10
ATOM     10  C   UNL     1      10.577  49.503  98.064  1.00  0.00     0.000 C 
BRANCH  10  11
ATOM     11  C   UNL     1      11.148  48.632  96.934  1.00  0.00    -0.000 C 
BRANCH  11  12
ATOM     12  C   UNL     1      12.590  49.025  96.568  1.00  0.00    -0.000 C 
BRANCH  12  13
ATOM     13  C   UNL     1      13.198  50.036  97.554  1.00  0.00    -0.000 C 
BRANCH  13  14
ATOM     14  C   UNL     1      14.413  50.776  96.969  1.00  0.00    -0.000 C 
BRANCH  14  15
ATOM     15  C   UNL     1      14.328  50.931  95.442  1.00  0.00    -0.003 C 
ATOM     16  C   UNL     1      15.583  50.438  94.724  1.00  0.00     0.004 C 
ENDBRANCH  14  15
ENDBRANCH  13  14
ENDBRANCH  12  13
ENDBRANCH  11  12
ENDBRANCH  10  11
ENDBRANCH   1  10
TORSDOF 12
ENDMDL
MODEL 5
REMARK VINA RESULT:    -4.083      1.388      2.096
REMARK INTER + INTRA:          -7.760
REMARK INTER:                  -7.112
REMARK INTRA:                  -0.648
REMARK UNBOUND:                -0.813
REMARK SMILES CCCCCCCCCCCCCC(=O)[O-]
REMARK SMILES IDX 8 1 9 2 10 3 11 4 12 5 13 6 14 7 15 8 16 9 7 10 6 11 5 12
REMARK SMILES IDX 4 13 3 14 2 15 1 16
REMARK H PARENT
REMARK Flexibility Score: inf
ROOT
ATOM      1  C   UNL     1      13.754  49.451  96.325  1.00  0.00     0.000 C 
ENDROOT
BRANCH   1   2
ATOM      2  C   UNL     1      12.876  49.672  97.574  1.00  0.00     0.000 C 
BRANCH   2   3
ATOM      3  C   UNL     1      11.481  49.032  97.465  1.00  0.00     0.000 C 
BRANCH   3   4
ATOM      4  C   UNL     1      10.479  49.607  98.477  1.00  0.00     0.000 C 
BRANCH   4   5
ATOM      5  C   UNL     1       9.092  49.774  97.844  1.00  0.00     0.006 C 
BRANCH   5   6
ATOM      6  C   UNL     1       8.491  48.416  97.473  1.00  0.00     0.053 C 
BRANCH   6   7
ATOM      7  C   UNL     1       8.210  48.351  96.005  1.00  0.00     0.041 C 
ATOM      8  O   UNL     1       8.457  47.298  95.359  1.00  0.00    -0.550 OA
ATOM      9  O   UNL     1       7.723  49.468  95.340  1.00  0.00    -0.550 OA
ENDBRANCH   6   7
ENDBRANCH   5   6
ENDBRANCH   4   5
ENDBRANCH   3   4
ENDBRANCH   2   3
ENDBRANCH   1   2
BRANCH   1  10
ATOM     10  C   UNL     1      14.600  50.692  95.985  1.00  0.00     0.000 C 
BRANCH  10  11
ATOM     11  C   UNL     1      15.643  50.414  94.892  1.00  0.00    -0.000 C 
BRANCH  11  12
ATOM     12  C   UNL     1      15.162  49.353  93.886  1.00  0.00    -0.000 C 
BRANCH  12  13
ATOM     13  C   UNL     1      16.212  48.258  93.632  1.00  0.00    -0.000 C 
BRANCH  13  14
ATOM     14  C   UNL     1      16.878  47.765  94.927  1.00  0.00    -0.000 C 
BRANCH  14  15
ATOM     15  C   UNL     1      17.856  46.605  94.681  1.00  0.00    -0.003 C 
ATOM     16  C   UNL     1      17.410  45.684  93.546  1.00  0.00     0.004 C 
ENDBRANCH  14  15
ENDBRANCH  13  14
ENDBRANCH  12  13
ENDBRANCH  11  12
ENDBRANCH  10  11
ENDBRANCH   1  10
TORSDOF 12
ENDMDL
MODEL 6
REMARK VINA RESULT:    -4.025      4.203      6.320
REMARK INTER + INTRA:          -7.661
REMARK INTER:                  -6.819
REMARK INTRA:                  -0.842
REMARK UNBOUND:                -0.813
REMARK SMILES CCCCCCCCCCCCCC(=O)[O-]
REMARK SMILES IDX 8 1 9 2 10 3 11 4 12 5 13 6 14 7 15 8 16 9 7 10 6 11 5 12
REMARK SMILES IDX 4 13 3 14 2 15 1 16
REMARK H PARENT
REMARK Flexibility Score: inf
ROOT
ATOM      1  C   UNL     1       9.132  46.930  96.754  1.00  0.00     0.000 C 
ENDROOT
BRANCH   1   2
ATOM      2  C   UNL     1      10.240  48.003  96.695  1.00  0.00     0.000 C 
BRANCH   2   3
ATOM      3  C   UNL     1      10.198  48.994  97.870  1.00  0.00     0.000 C 
BRANCH   3   4
ATOM      4  C   UNL     1      11.538  49.709  98.098  1.00  0.00     0.000 C 
BRANCH   4   5
ATOM      5  C   UNL     1      12.580  49.269  97.062  1.00  0.00     0.006 C 
BRANCH   5   6
ATOM      6  C   UNL     1      13.812  50.177  97.104  1.00  0.00     0.053 C 
BRANCH   6   7
ATOM      7  C   UNL     1      14.330  50.419  95.722  1.00  0.00     0.041 C 
ATOM      8  O   UNL     1      15.570  50.498  95.515  1.00  0.00    -0.550 OA
ATOM      9  O   UNL     1      13.444  50.608  94.670  1.00  0.00    -0.550 OA
ENDBRANCH   6   7
ENDBRANCH   5   6
ENDBRANCH   4   5
ENDBRANCH   3   4
ENDBRANCH   2   3
ENDBRANCH   1   2
BRANCH   1  10
ATOM     10  C   UNL     1       8.331  46.853  95.442  1.00  0.00     0.000 C 
BRANCH  10  11
ATOM     11  C   UNL     1       8.628  45.574  94.643  1.00  0.00    -0.000 C 
BRANCH  11  12
ATOM     12  C   UNL     1       9.990  45.638  93.929  1.00  0.00    -0.000 C 
BRANCH  12  13
ATOM     13  C   UNL     1      10.972  44.566  94.428  1.00  0.00    -0.000 C 
BRANCH  13  14
ATOM     14  C   UNL     1      10.384  43.705  95.559  1.00  0.00    -0.000 C 
BRANCH  14  15
ATOM     15  C   UNL     1      11.203  42.429  95.815  1.00  0.00    -0.003 C 
ATOM     16  C   UNL     1      12.562  42.446  95.117  1.00  0.00     0.004 C 
ENDBRANCH  14  15
ENDBRANCH  13  14
ENDBRANCH  12  13
ENDBRANCH  11  12
ENDBRANCH  10  11
ENDBRANCH   1  10
TORSDOF 12
ENDMDL
MODEL 7
REMARK VINA RESULT:    -3.925      3.838      6.724
REMARK INTER + INTRA:          -7.492
REMARK INTER:                  -6.191
REMARK INTRA:                  -1.301
REMARK UNBOUND:                -0.813
REMARK SMILES CCCCCCCCCCCCCC(=O)[O-]
REMARK SMILES IDX 8 1 9 2 10 3 11 4 12 5 13 6 14 7 15 8 16 9 7 10 6 11 5 12
REMARK SMILES IDX 4 13 3 14 2 15 1 16
REMARK H PARENT
REMARK Flexibility Score: inf
ROOT
ATOM      1  C   UNL     1       8.820  49.559  97.031  1.00  0.00     0.000 C 
ENDROOT
BRANCH   1   2
ATOM      2  C   UNL     1       9.878  48.609  97.631  1.00  0.00     0.000 C 
BRANCH   2   3
ATOM      3  C   UNL     1      11.175  49.321  98.050  1.00  0.00     0.000 C 
BRANCH   3   4
ATOM      4  C   UNL     1      12.300  49.173  97.015  1.00  0.00     0.000 C 
BRANCH   4   5
ATOM      5  C   UNL     1      13.584  49.862  97.495  1.00  0.00     0.006 C 
BRANCH   5   6
ATOM      6  C   UNL     1      14.111  50.834  96.436  1.00  0.00     0.053 C 
BRANCH   6   7
ATOM      7  C   UNL     1      15.204  50.196  95.638  1.00  0.00     0.041 C 
ATOM      8  O   UNL     1      15.800  50.851  94.743  1.00  0.00    -0.550 OA
ATOM      9  O   UNL     1      15.531  48.863  95.848  1.00  0.00    -0.550 OA
ENDBRANCH   6   7
ENDBRANCH   5   6
ENDBRANCH   4   5
ENDBRANCH   3   4
ENDBRANCH   2   3
ENDBRANCH   1   2
BRANCH   1  10
ATOM     10  C   UNL     1       7.891  48.837  96.037  1.00  0.00     0.000 C 
BRANCH  10  11
ATOM     11  C   UNL     1       7.041  49.813  95.210  1.00  0.00    -0.000 C 
BRANCH  11  12
ATOM     12  C   UNL     1       7.797  50.345  93.979  1.00  0.00    -0.000 C 
BRANCH  12  13
ATOM     13  C   UNL     1       8.793  49.322  93.408  1.00  0.00    -0.000 C 
BRANCH  13  14
ATOM     14  C   UNL     1      10.192  49.919  93.186  1.00  0.00    -0.000 C 
BRANCH  14  15
ATOM     15  C   UNL     1      11.314  48.986  93.670  1.00  0.00    -0.003 C 
ATOM     16  C   UNL     1      10.800  47.613  94.100  1.00  0.00     0.004 C 
ENDBRANCH  14  15
ENDBRANCH  13  14
ENDBRANCH  12  13
ENDBRANCH  11  12
ENDBRANCH  10  11
ENDBRANCH   1  10
TORSDOF 12
ENDMDL
MODEL 8
REMARK VINA RESULT:    -3.924      2.514      5.472
REMARK INTER + INTRA:          -7.490
REMARK INTER:                  -6.728
REMARK INTRA:                  -0.762
REMARK UNBOUND:                -0.813
REMARK SMILES CCCCCCCCCCCCCC(=O)[O-]
REMARK SMILES IDX 8 1 9 2 10 3 11 4 12 5 13 6 14 7 15 8 16 9 7 10 6 11 5 12
REMARK SMILES IDX 4 13 3 14 2 15 1 16
REMARK H PARENT
REMARK Flexibility Score: inf
ROOT
ATOM      1  C   UNL     1       8.858  49.588  97.950  1.00  0.00     0.000 C 
ENDROOT
BRANCH   1   2
ATOM      2  C   UNL     1       8.198  50.979  98.039  1.00  0.00     0.000 C 
BRANCH   2   3
ATOM      3  C   UNL     1       6.662  50.937  97.962  1.00  0.00     0.000 C 
BRANCH   3   4
ATOM      4  C   UNL     1       6.103  51.705  96.756  1.00  0.00     0.000 C 
BRANCH   4   5
ATOM      5  C   UNL     1       7.234  52.318  95.921  1.00  0.00     0.006 C 
BRANCH   5   6
ATOM      6  C   UNL     1       7.105  51.920  94.448  1.00  0.00     0.053 C 
BRANCH   6   7
ATOM      7  C   UNL     1       7.385  50.460  94.274  1.00  0.00     0.041 C 
ATOM      8  O   UNL     1       6.455  49.670  93.962  1.00  0.00    -0.550 OA
ATOM      9  O   UNL     1       8.661  49.965  94.504  1.00  0.00    -0.550 OA
ENDBRANCH   6   7
ENDBRANCH   5   6
ENDBRANCH   4   5
ENDBRANCH   3   4
ENDBRANCH   2   3
ENDBRANCH   1   2
BRANCH   1  10
ATOM     10  C   UNL     1      10.344  49.626  98.355  1.00  0.00     0.000 C 
BRANCH  10  11
ATOM     11  C   UNL     1      11.253  48.940  97.323  1.00  0.00    -0.000 C 
BRANCH  11  12
ATOM     12  C   UNL     1      12.721  49.381  97.457  1.00  0.00    -0.000 C 
BRANCH  12  13
ATOM     13  C   UNL     1      13.381  49.668  96.099  1.00  0.00    -0.000 C 
BRANCH  13  14
ATOM     14  C   UNL     1      14.528  50.687  96.202  1.00  0.00    -0.000 C 
BRANCH  14  15
ATOM     15  C   UNL     1      15.499  50.603  95.012  1.00  0.00    -0.003 C 
ATOM     16  C   UNL     1      15.707  49.172  94.516  1.00  0.00     0.004 C 
ENDBRANCH  14  15
ENDBRANCH  13  14
ENDBRANCH  12  13
ENDBRANCH  11  12
ENDBRANCH  10  11
ENDBRANCH   1  10
TORSDOF 12
ENDMDL
MODEL 9
REMARK VINA RESULT:    -3.843      3.115      5.739
REMARK INTER + INTRA:          -7.352
REMARK INTER:                  -5.938
REMARK INTRA:                  -1.414
REMARK UNBOUND:                -0.813
REMARK SMILES CCCCCCCCCCCCCC(=O)[O-]
REMARK SMILES IDX 8 1 9 2 10 3 11 4 12 5 13 6 14 7 15 8 16 9 7 10 6 11 5 12
REMARK SMILES IDX 4 13 3 14 2 15 1 16
REMARK H PARENT
REMARK Flexibility Score: inf
ROOT
ATOM      1  C   UNL     1       8.970  47.251  95.863  1.00  0.00     0.000 C 
ENDROOT
BRANCH   1   2
ATOM      2  C   UNL     1      10.063  46.500  95.074  1.00  0.00     0.000 C 
BRANCH   2   3
ATOM      3  C   UNL     1      10.447  47.187  93.752  1.00  0.00     0.000 C 
BRANCH   3   4
ATOM      4  C   UNL     1      11.539  48.252  93.927  1.00  0.00     0.000 C 
BRANCH   4   5
ATOM      5  C   UNL     1      11.055  49.622  93.432  1.00  0.00     0.006 C 
BRANCH   5   6
ATOM      6  C   UNL     1       9.620  49.538  92.904  1.00  0.00     0.053 C 
BRANCH   6   7
ATOM      7  C   UNL     1       8.795  50.658  93.454  1.00  0.00     0.041 C 
ATOM      8  O   UNL     1       8.795  51.783  92.886  1.00  0.00    -0.550 OA
ATOM      9  O   UNL     1       8.064  50.476  94.620  1.00  0.00    -0.550 OA
ENDBRANCH   6   7
ENDBRANCH   5   6
ENDBRANCH   4   5
ENDBRANCH   3   4
ENDBRANCH   2   3
ENDBRANCH   1   2
BRANCH   1  10
ATOM     10  C   UNL     1       9.438  47.634  97.279  1.00  0.00     0.000 C 
BRANCH  10  11
ATOM     11  C   UNL     1       9.786  49.126  97.401  1.00  0.00    -0.000 C 
BRANCH  11  12
ATOM     12  C   UNL     1      11.175  49.350  98.023  1.00  0.00    -0.000 C 
BRANCH  12  13
ATOM     13  C   UNL     1      12.320  49.065  97.036  1.00  0.00    -0.000 C 
BRANCH  13  14
ATOM     14  C   UNL     1      13.613  49.814  97.399  1.00  0.00    -0.000 C 
BRANCH  14  15
ATOM     15  C   UNL     1      13.997  50.869  96.348  1.00  0.00    -0.003 C 
ATOM     16  C   UNL     1      15.253  50.494  95.563  1.00  0.00     0.004 C 
ENDBRANCH  14  15
ENDBRANCH  13  14
ENDBRANCH  12  13
ENDBRANCH  11  12
ENDBRANCH  10  11
ENDBRANCH   1  10
TORSDOF 12
ENDMDL
