MODEL 1
REMARK VINA RESULT:    -6.108      0.000      0.000
REMARK INTER + INTRA:          -6.716
REMARK INTER:                  -6.644
REMARK INTRA:                  -0.072
REMARK UNBOUND:                -0.072
REMARK SMILES C[C@H]1[C@H]2C3=CC[C@H]4[C@@]5(C)CC[C@@H](O)C(C)(C)[C@H]5CC[C@@]4(C)[C@]3(C)CC[C@]2(C(=O)[O-])CC[C@@H]1C
REMARK SMILES IDX 26 1 30 2 25 3 3 4 31 5 24 6 4 7 2 8 32 9 22 10 5 11 1 12
REMARK SMILES IDX 33 13 23 14 20 15 6 16 7 17 19 18 21 19 8 20 18 21 17 22
REMARK SMILES IDX 10 23 9 24 14 25 11 26 12 27 15 28 16 29 27 30 28 31 29 32
REMARK SMILES IDX 13 33
REMARK H PARENT 13 34
REMARK Flexibility Score: inf
ROOT
ATOM      1  C   UNL     1     -15.262  55.534  11.673  1.00  0.00     0.017 C 
ATOM      2  C   UNL     1     -15.429  57.080  11.915  1.00  0.00     0.014 C 
ATOM      3  C   UNL     1     -16.032  54.755  12.793  1.00  0.00     0.014 C 
ATOM      4  C   UNL     1     -15.822  55.246  10.232  1.00  0.00     0.030 C 
ATOM      5  C   UNL     1     -15.289  57.958  10.644  1.00  0.00     0.004 C 
ATOM      6  C   UNL     1     -17.348  54.137  12.311  1.00  0.00     0.013 C 
ATOM      7  C   UNL     1     -16.343  53.814  10.012  1.00  0.00    -0.063 C 
ATOM      8  C   UNL     1     -14.914  55.899   9.123  1.00  0.00    -0.003 C 
ATOM      9  C   UNL     1     -14.401  57.318   9.559  1.00  0.00    -0.011 C 
ATOM     10  C   UNL     1     -17.157  53.128  11.123  1.00  0.00    -0.006 C 
ATOM     11  C   UNL     1     -16.405  53.281   8.774  1.00  0.00    -0.027 C 
ATOM     12  C   UNL     1     -13.715  55.031   8.657  1.00  0.00     0.008 C 
ATOM     13  C   UNL     1     -14.280  58.257   8.351  1.00  0.00     0.008 C 
ATOM     14  C   UNL     1     -16.318  51.932  11.666  1.00  0.00     0.017 C 
ATOM     15  C   UNL     1     -18.582  52.649  10.521  1.00  0.00    -0.020 C 
ATOM     16  C   UNL     1     -17.018  51.938   8.521  1.00  0.00     0.032 C 
ATOM     17  C   UNL     1     -18.429  51.804   9.170  1.00  0.00     0.006 C 
ATOM     18  C   UNL     1     -19.371  51.847  11.582  1.00  0.00     0.008 C 
ATOM     19  C   UNL     1     -19.455  53.910  10.181  1.00  0.00     0.012 C 
ATOM     20  C   UNL     1     -19.051  50.327   9.129  1.00  0.00    -0.025 C 
ATOM     21  C   UNL     1     -20.648  51.203  11.046  1.00  0.00     0.005 C 
ATOM     22  C   UNL     1     -20.521  50.337   9.740  1.00  0.00     0.003 C 
ATOM     23  C   UNL     1     -18.173  49.266   9.866  1.00  0.00     0.010 C 
ATOM     24  C   UNL     1     -19.097  49.927   7.616  1.00  0.00     0.012 C 
ATOM     25  C   UNL     1     -21.205  48.896   9.895  1.00  0.00    -0.006 C 
ATOM     26  C   UNL     1     -18.827  47.879   9.969  1.00  0.00     0.033 C 
ATOM     27  C   UNL     1     -20.225  47.921  10.623  1.00  0.00     0.120 C 
ATOM     28  C   UNL     1     -22.545  48.968  10.700  1.00  0.00     0.014 C 
ATOM     29  C   UNL     1     -21.626  48.302   8.506  1.00  0.00     0.014 C 
ENDROOT
BRANCH   1  30
ATOM     30  C   UNL     1     -13.795  55.120  11.783  1.00  0.00     0.048 C 
ATOM     31  O   UNL     1     -12.889  55.961  12.036  1.00  0.00    -0.550 OA
ATOM     32  O   UNL     1     -13.445  53.778  11.683  1.00  0.00    -0.550 OA
ENDBRANCH   1  30
BRANCH  27  33
ATOM     33  O   UNL     1     -20.086  48.280  11.975  1.00  0.00    -0.393 OA
ATOM     34  H   UNL     1     -19.941  49.261  12.006  1.00  0.00     0.210 HD
ENDBRANCH  27  33
TORSDOF 2
ENDMDL
MODEL 2
REMARK VINA RESULT:    -6.093      1.709      8.121
REMARK INTER + INTRA:          -6.699
REMARK INTER:                  -6.646
REMARK INTRA:                  -0.053
REMARK UNBOUND:                -0.072
REMARK SMILES C[C@H]1[C@H]2C3=CC[C@H]4[C@@]5(C)CC[C@@H](O)C(C)(C)[C@H]5CC[C@@]4(C)[C@]3(C)CC[C@]2(C(=O)[O-])CC[C@@H]1C
REMARK SMILES IDX 26 1 30 2 25 3 3 4 31 5 24 6 4 7 2 8 32 9 22 10 5 11 1 12
REMARK SMILES IDX 33 13 23 14 20 15 6 16 7 17 19 18 21 19 8 20 18 21 17 22
REMARK SMILES IDX 10 23 9 24 14 25 11 26 12 27 15 28 16 29 27 30 28 31 29 32
REMARK SMILES IDX 13 33
REMARK H PARENT 13 34
REMARK Flexibility Score: inf
ROOT
ATOM      1  C   UNL     1     -20.316  50.120   9.383  1.00  0.00     0.017 C 
ATOM      2  C   UNL     1     -21.880  49.973   9.490  1.00  0.00     0.014 C 
ATOM      3  C   UNL     1     -19.979  51.262   8.365  1.00  0.00     0.014 C 
ATOM      4  C   UNL     1     -19.796  50.422  10.836  1.00  0.00     0.030 C 
ATOM      5  C   UNL     1     -22.388  49.377  10.828  1.00  0.00     0.004 C 
ATOM      6  C   UNL     1     -19.509  52.557   9.035  1.00  0.00     0.013 C 
ATOM      7  C   UNL     1     -18.470  51.201  10.901  1.00  0.00    -0.063 C 
ATOM      8  C   UNL     1     -19.992  49.179  11.784  1.00  0.00    -0.003 C 
ATOM      9  C   UNL     1     -21.358  48.455  11.512  1.00  0.00    -0.011 C 
ATOM     10  C   UNL     1     -18.227  52.362   9.922  1.00  0.00    -0.006 C 
ATOM     11  C   UNL     1     -17.676  51.127  11.990  1.00  0.00    -0.027 C 
ATOM     12  C   UNL     1     -18.837  48.143  11.758  1.00  0.00     0.008 C 
ATOM     13  C   UNL     1     -21.944  47.875  12.808  1.00  0.00     0.008 C 
ATOM     14  C   UNL     1     -17.066  51.950   8.967  1.00  0.00     0.017 C 
ATOM     15  C   UNL     1     -17.881  53.703  10.759  1.00  0.00    -0.020 C 
ATOM     16  C   UNL     1     -16.443  51.967  12.128  1.00  0.00     0.032 C 
ATOM     17  C   UNL     1     -16.723  53.474  11.842  1.00  0.00     0.006 C 
ATOM     18  C   UNL     1     -17.510  54.857   9.798  1.00  0.00     0.008 C 
ATOM     19  C   UNL     1     -19.158  54.173  11.543  1.00  0.00     0.012 C 
ATOM     20  C   UNL     1     -15.415  54.396  11.755  1.00  0.00    -0.025 C 
ATOM     21  C   UNL     1     -16.995  56.109  10.506  1.00  0.00     0.005 C 
ATOM     22  C   UNL     1     -15.834  55.918  11.547  1.00  0.00     0.003 C 
ATOM     23  C   UNL     1     -14.422  53.957  10.631  1.00  0.00     0.010 C 
ATOM     24  C   UNL     1     -14.679  54.220  13.125  1.00  0.00     0.012 C 
ATOM     25  C   UNL     1     -14.617  56.932  11.296  1.00  0.00    -0.006 C 
ATOM     26  C   UNL     1     -13.240  54.919  10.434  1.00  0.00     0.033 C 
ATOM     27  C   UNL     1     -13.686  56.373  10.173  1.00  0.00     0.120 C 
ATOM     28  C   UNL     1     -15.118  58.356  10.884  1.00  0.00     0.014 C 
ATOM     29  C   UNL     1     -13.793  57.182  12.606  1.00  0.00     0.014 C 
ENDROOT
BRANCH   1  30
ATOM     30  C   UNL     1     -19.685  48.842   8.830  1.00  0.00     0.048 C 
ATOM     31  O   UNL     1     -20.393  47.875   8.433  1.00  0.00    -0.550 OA
ATOM     32  O   UNL     1     -18.306  48.760   8.680  1.00  0.00    -0.550 OA
ENDBRANCH   1  30
BRANCH  27  33
ATOM     33  O   UNL     1     -14.328  56.437   8.923  1.00  0.00    -0.393 OA
ATOM     34  H   UNL     1     -14.529  55.505   8.649  1.00  0.00     0.210 HD
ENDBRANCH  27  33
TORSDOF 2
ENDMDL
MODEL 3
REMARK VINA RESULT:    -5.544      3.221      5.324
REMARK INTER + INTRA:          -6.103
REMARK INTER:                  -6.093
REMARK INTRA:                  -0.010
REMARK UNBOUND:                -0.072
REMARK SMILES C[C@H]1[C@H]2C3=CC[C@H]4[C@@]5(C)CC[C@@H](O)C(C)(C)[C@H]5CC[C@@]4(C)[C@]3(C)CC[C@]2(C(=O)[O-])CC[C@@H]1C
REMARK SMILES IDX 26 1 30 2 25 3 3 4 31 5 24 6 4 7 2 8 32 9 22 10 5 11 1 12
REMARK SMILES IDX 33 13 23 14 20 15 6 16 7 17 19 18 21 19 8 20 18 21 17 22
REMARK SMILES IDX 10 23 9 24 14 25 11 26 12 27 15 28 16 29 27 30 28 31 29 32
REMARK SMILES IDX 13 33
REMARK H PARENT 13 34
REMARK Flexibility Score: inf
ROOT
ATOM      1  C   UNL     1     -18.225  57.451  10.711  1.00  0.00     0.017 C 
ATOM      2  C   UNL     1     -18.586  58.342  11.957  1.00  0.00     0.014 C 
ATOM      3  C   UNL     1     -16.673  57.244  10.662  1.00  0.00     0.014 C 
ATOM      4  C   UNL     1     -19.017  56.103  10.881  1.00  0.00     0.030 C 
ATOM      5  C   UNL     1     -20.023  58.143  12.506  1.00  0.00     0.004 C 
ATOM      6  C   UNL     1     -16.230  55.847  11.106  1.00  0.00     0.013 C 
ATOM      7  C   UNL     1     -18.382  54.885  10.186  1.00  0.00    -0.063 C 
ATOM      8  C   UNL     1     -20.570  56.329  10.743  1.00  0.00    -0.003 C 
ATOM      9  C   UNL     1     -21.023  57.666  11.433  1.00  0.00    -0.011 C 
ATOM     10  C   UNL     1     -16.856  54.697  10.238  1.00  0.00    -0.006 C 
ATOM     11  C   UNL     1     -19.131  53.817   9.839  1.00  0.00    -0.027 C 
ATOM     12  C   UNL     1     -21.116  56.281   9.292  1.00  0.00     0.008 C 
ATOM     13  C   UNL     1     -22.426  57.527  12.040  1.00  0.00     0.008 C 
ATOM     14  C   UNL     1     -16.303  54.862   8.789  1.00  0.00     0.017 C 
ATOM     15  C   UNL     1     -16.519  53.240  10.856  1.00  0.00    -0.020 C 
ATOM     16  C   UNL     1     -18.519  52.573   9.273  1.00  0.00     0.032 C 
ATOM     17  C   UNL     1     -17.325  52.060  10.134  1.00  0.00     0.006 C 
ATOM     18  C   UNL     1     -14.996  52.973  10.804  1.00  0.00     0.008 C 
ATOM     19  C   UNL     1     -16.921  53.212  12.375  1.00  0.00     0.012 C 
ATOM     20  C   UNL     1     -16.485  50.865   9.475  1.00  0.00    -0.025 C 
ATOM     21  C   UNL     1     -14.604  51.552  11.202  1.00  0.00     0.005 C 
ATOM     22  C   UNL     1     -15.353  50.373  10.483  1.00  0.00     0.003 C 
ATOM     23  C   UNL     1     -15.847  51.242   8.100  1.00  0.00     0.010 C 
ATOM     24  C   UNL     1     -17.514  49.715   9.215  1.00  0.00     0.012 C 
ATOM     25  C   UNL     1     -14.343  49.278   9.892  1.00  0.00    -0.006 C 
ATOM     26  C   UNL     1     -14.914  50.163   7.528  1.00  0.00     0.033 C 
ATOM     27  C   UNL     1     -13.794  49.756   8.509  1.00  0.00     0.120 C 
ATOM     28  C   UNL     1     -13.140  49.012  10.856  1.00  0.00     0.014 C 
ATOM     29  C   UNL     1     -15.030  47.876   9.744  1.00  0.00     0.014 C 
ENDROOT
BRANCH   1  30
ATOM     30  C   UNL     1     -18.613  58.152   9.408  1.00  0.00     0.048 C 
ATOM     31  O   UNL     1     -19.277  59.225   9.409  1.00  0.00    -0.550 OA
ATOM     32  O   UNL     1     -18.163  57.651   8.192  1.00  0.00    -0.550 OA
ENDBRANCH   1  30
BRANCH  27  33
ATOM     33  O   UNL     1     -12.917  50.843   8.676  1.00  0.00    -0.393 OA
ATOM     34  H   UNL     1     -12.933  51.088   9.638  1.00  0.00     0.210 HD
ENDBRANCH  27  33
TORSDOF 2
ENDMDL
MODEL 4
REMARK VINA RESULT:    -5.537      1.290      8.009
REMARK INTER + INTRA:          -6.095
REMARK INTER:                  -6.021
REMARK INTRA:                  -0.074
REMARK UNBOUND:                -0.072
REMARK SMILES C[C@H]1[C@H]2C3=CC[C@H]4[C@@]5(C)CC[C@@H](O)C(C)(C)[C@H]5CC[C@@]4(C)[C@]3(C)CC[C@]2(C(=O)[O-])CC[C@@H]1C
REMARK SMILES IDX 26 1 30 2 25 3 3 4 31 5 24 6 4 7 2 8 32 9 22 10 5 11 1 12
REMARK SMILES IDX 33 13 23 14 20 15 6 16 7 17 19 18 21 19 8 20 18 21 17 22
REMARK SMILES IDX 10 23 9 24 14 25 11 26 12 27 15 28 16 29 27 30 28 31 29 32
REMARK SMILES IDX 13 33
REMARK H PARENT 13 34
REMARK Flexibility Score: inf
ROOT
ATOM      1  C   UNL     1     -18.442  49.266  10.713  1.00  0.00     0.017 C 
ATOM      2  C   UNL     1     -18.410  47.965   9.828  1.00  0.00     0.014 C 
ATOM      3  C   UNL     1     -16.999  49.557  11.248  1.00  0.00     0.014 C 
ATOM      4  C   UNL     1     -18.999  50.416   9.796  1.00  0.00     0.030 C 
ATOM      5  C   UNL     1     -19.531  47.875   8.760  1.00  0.00     0.004 C 
ATOM      6  C   UNL     1     -16.305  50.719  10.529  1.00  0.00     0.013 C 
ATOM      7  C   UNL     1     -18.551  51.835  10.190  1.00  0.00    -0.063 C 
ATOM      8  C   UNL     1     -20.512  50.174   9.428  1.00  0.00    -0.003 C 
ATOM      9  C   UNL     1     -20.802  48.657   9.147  1.00  0.00    -0.011 C 
ATOM     10  C   UNL     1     -17.098  52.071  10.636  1.00  0.00    -0.006 C 
ATOM     11  C   UNL     1     -19.277  52.915   9.834  1.00  0.00    -0.027 C 
ATOM     12  C   UNL     1     -21.535  50.719  10.459  1.00  0.00     0.008 C 
ATOM     13  C   UNL     1     -21.877  48.491   8.063  1.00  0.00     0.008 C 
ATOM     14  C   UNL     1     -17.117  52.474  12.142  1.00  0.00     0.017 C 
ATOM     15  C   UNL     1     -16.434  53.218   9.708  1.00  0.00    -0.020 C 
ATOM     16  C   UNL     1     -18.802  54.310  10.100  1.00  0.00     0.032 C 
ATOM     17  C   UNL     1     -17.338  54.536   9.612  1.00  0.00     0.006 C 
ATOM     18  C   UNL     1     -15.014  53.565  10.213  1.00  0.00     0.008 C 
ATOM     19  C   UNL     1     -16.261  52.670   8.245  1.00  0.00     0.012 C 
ATOM     20  C   UNL     1     -16.688  55.931  10.059  1.00  0.00    -0.025 C 
ATOM     21  C   UNL     1     -14.382  54.762   9.507  1.00  0.00     0.005 C 
ATOM     22  C   UNL     1     -15.233  56.081   9.431  1.00  0.00     0.003 C 
ATOM     23  C   UNL     1     -16.622  56.115  11.609  1.00  0.00     0.010 C 
ATOM     24  C   UNL     1     -17.638  57.042   9.497  1.00  0.00     0.012 C 
ATOM     25  C   UNL     1     -14.410  57.367   9.917  1.00  0.00    -0.006 C 
ATOM     26  C   UNL     1     -15.865  57.375  12.056  1.00  0.00     0.033 C 
ATOM     27  C   UNL     1     -14.437  57.455  11.476  1.00  0.00     0.120 C 
ATOM     28  C   UNL     1     -12.922  57.327   9.432  1.00  0.00     0.014 C 
ATOM     29  C   UNL     1     -14.978  58.689   9.292  1.00  0.00     0.014 C 
ENDROOT
BRANCH   1  30
ATOM     30  C   UNL     1     -19.331  49.068  11.942  1.00  0.00     0.048 C 
ATOM     31  O   UNL     1     -19.930  47.977  12.154  1.00  0.00    -0.550 OA
ATOM     32  O   UNL     1     -19.427  50.074  12.896  1.00  0.00    -0.550 OA
ENDBRANCH   1  30
BRANCH  27  33
ATOM     33  O   UNL     1     -13.657  56.429  12.041  1.00  0.00    -0.393 OA
ATOM     34  H   UNL     1     -14.261  55.876  12.601  1.00  0.00     0.210 HD
ENDBRANCH  27  33
TORSDOF 2
ENDMDL
MODEL 5
REMARK VINA RESULT:    -5.489      3.236      5.000
REMARK INTER + INTRA:          -6.042
REMARK INTER:                  -6.029
REMARK INTRA:                  -0.014
REMARK UNBOUND:                -0.072
REMARK SMILES C[C@H]1[C@H]2C3=CC[C@H]4[C@@]5(C)CC[C@@H](O)C(C)(C)[C@H]5CC[C@@]4(C)[C@]3(C)CC[C@]2(C(=O)[O-])CC[C@@H]1C
REMARK SMILES IDX 26 1 30 2 25 3 3 4 31 5 24 6 4 7 2 8 32 9 22 10 5 11 1 12
REMARK SMILES IDX 33 13 23 14 20 15 6 16 7 17 19 18 21 19 8 20 18 21 17 22
REMARK SMILES IDX 10 23 9 24 14 25 11 26 12 27 15 28 16 29 27 30 28 31 29 32
REMARK SMILES IDX 13 33
REMARK H PARENT 13 34
REMARK Flexibility Score: inf
ROOT
ATOM      1  C   UNL     1     -19.567  56.501  11.460  1.00  0.00     0.017 C 
ATOM      2  C   UNL     1     -21.117  56.759  11.369  1.00  0.00     0.014 C 
ATOM      3  C   UNL     1     -19.299  55.360  12.500  1.00  0.00     0.014 C 
ATOM      4  C   UNL     1     -19.090  56.129  10.008  1.00  0.00     0.030 C 
ATOM      5  C   UNL     1     -21.599  57.362  10.023  1.00  0.00     0.004 C 
ATOM      6  C   UNL     1     -18.935  54.020  11.854  1.00  0.00     0.013 C 
ATOM      7  C   UNL     1     -17.826  55.254   9.944  1.00  0.00    -0.063 C 
ATOM      8  C   UNL     1     -19.209  57.362   9.033  1.00  0.00    -0.003 C 
ATOM      9  C   UNL     1     -20.515  58.190   9.305  1.00  0.00    -0.011 C 
ATOM     10  C   UNL     1     -17.655  54.101  10.947  1.00  0.00    -0.006 C 
ATOM     11  C   UNL     1     -17.044  55.245   8.844  1.00  0.00    -0.027 C 
ATOM     12  C   UNL     1     -17.981  58.312   9.021  1.00  0.00     0.008 C 
ATOM     13  C   UNL     1     -21.074  58.783   8.004  1.00  0.00     0.008 C 
ATOM     14  C   UNL     1     -16.453  54.447  11.878  1.00  0.00     0.017 C 
ATOM     15  C   UNL     1     -17.419  52.720  10.136  1.00  0.00    -0.020 C 
ATOM     16  C   UNL     1     -15.878  54.315   8.710  1.00  0.00     0.032 C 
ATOM     17  C   UNL     1     -16.263  52.840   9.035  1.00  0.00     0.006 C 
ATOM     18  C   UNL     1     -17.120  51.563  11.119  1.00  0.00     0.008 C 
ATOM     19  C   UNL     1     -18.738  52.327   9.380  1.00  0.00     0.012 C 
ATOM     20  C   UNL     1     -15.025  51.826   9.127  1.00  0.00    -0.025 C 
ATOM     21  C   UNL     1     -16.708  50.262  10.435  1.00  0.00     0.005 C 
ATOM     22  C   UNL     1     -15.550  50.343   9.375  1.00  0.00     0.003 C 
ATOM     23  C   UNL     1     -13.987  52.216  10.227  1.00  0.00     0.010 C 
ATOM     24  C   UNL     1     -14.297  51.917   7.744  1.00  0.00     0.012 C 
ATOM     25  C   UNL     1     -14.408  49.250   9.634  1.00  0.00    -0.006 C 
ATOM     26  C   UNL     1     -12.875  51.175  10.433  1.00  0.00     0.033 C 
ATOM     27  C   UNL     1     -13.423  49.763  10.732  1.00  0.00     0.120 C 
ATOM     28  C   UNL     1     -15.005  47.875  10.085  1.00  0.00     0.014 C 
ATOM     29  C   UNL     1     -13.622  48.910   8.320  1.00  0.00     0.014 C 
ENDROOT
BRANCH   1  30
ATOM     30  C   UNL     1     -18.836  57.741  11.975  1.00  0.00     0.048 C 
ATOM     31  O   UNL     1     -19.466  58.739  12.423  1.00  0.00    -0.550 OA
ATOM     32  O   UNL     1     -17.448  57.753  12.032  1.00  0.00    -0.550 OA
ENDBRANCH   1  30
BRANCH  27  33
ATOM     33  O   UNL     1     -14.049  49.774  11.991  1.00  0.00    -0.393 OA
ATOM     34  H   UNL     1     -14.161  50.724  12.255  1.00  0.00     0.210 HD
ENDBRANCH  27  33
TORSDOF 2
ENDMDL
MODEL 6
REMARK VINA RESULT:    -5.261      7.752     12.838
REMARK INTER + INTRA:          -5.794
REMARK INTER:                  -5.724
REMARK INTRA:                  -0.070
REMARK UNBOUND:                -0.072
REMARK SMILES C[C@H]1[C@H]2C3=CC[C@H]4[C@@]5(C)CC[C@@H](O)C(C)(C)[C@H]5CC[C@@]4(C)[C@]3(C)CC[C@]2(C(=O)[O-])CC[C@@H]1C
REMARK SMILES IDX 26 1 30 2 25 3 3 4 31 5 24 6 4 7 2 8 32 9 22 10 5 11 1 12
REMARK SMILES IDX 33 13 23 14 20 15 6 16 7 17 19 18 21 19 8 20 18 21 17 22
REMARK SMILES IDX 10 23 9 24 14 25 11 26 12 27 15 28 16 29 27 30 28 31 29 32
REMARK SMILES IDX 13 33
REMARK H PARENT 13 34
REMARK Flexibility Score: inf
ROOT
ATOM      1  C   UNL     1     -14.388  62.089   7.471  1.00  0.00     0.017 C 
ATOM      2  C   UNL     1     -13.358  61.609   8.560  1.00  0.00     0.014 C 
ATOM      3  C   UNL     1     -13.722  63.200   6.590  1.00  0.00     0.014 C 
ATOM      4  C   UNL     1     -14.791  60.813   6.644  1.00  0.00     0.030 C 
ATOM      5  C   UNL     1     -13.586  60.167   9.082  1.00  0.00     0.004 C 
ATOM      6  C   UNL     1     -13.308  62.710   5.199  1.00  0.00     0.013 C 
ATOM      7  C   UNL     1     -15.255  61.092   5.204  1.00  0.00    -0.063 C 
ATOM      8  C   UNL     1     -15.617  59.799   7.523  1.00  0.00    -0.003 C 
ATOM      9  C   UNL     1     -15.057  59.712   8.987  1.00  0.00    -0.011 C 
ATOM     10  C   UNL     1     -14.511  62.144   4.362  1.00  0.00    -0.006 C 
ATOM     11  C   UNL     1     -16.051  60.221   4.550  1.00  0.00    -0.027 C 
ATOM     12  C   UNL     1     -17.147  60.059   7.564  1.00  0.00     0.008 C 
ATOM     13  C   UNL     1     -15.211  58.294   9.555  1.00  0.00     0.008 C 
ATOM     14  C   UNL     1     -15.489  63.331   4.104  1.00  0.00     0.017 C 
ATOM     15  C   UNL     1     -14.003  61.464   2.985  1.00  0.00    -0.020 C 
ATOM     16  C   UNL     1     -16.417  60.410   3.110  1.00  0.00     0.032 C 
ATOM     17  C   UNL     1     -15.168  60.678   2.217  1.00  0.00     0.006 C 
ATOM     18  C   UNL     1     -13.361  62.528   2.064  1.00  0.00     0.008 C 
ATOM     19  C   UNL     1     -12.875  60.418   3.305  1.00  0.00     0.012 C 
ATOM     20  C   UNL     1     -15.500  61.107   0.708  1.00  0.00    -0.025 C 
ATOM     21  C   UNL     1     -13.015  62.010   0.669  1.00  0.00     0.005 C 
ATOM     22  C   UNL     1     -14.151  61.267  -0.123  1.00  0.00     0.003 C 
ATOM     23  C   UNL     1     -16.346  62.416   0.609  1.00  0.00     0.010 C 
ATOM     24  C   UNL     1     -16.365  59.944   0.117  1.00  0.00     0.012 C 
ATOM     25  C   UNL     1     -14.330  61.836  -1.610  1.00  0.00    -0.006 C 
ATOM     26  C   UNL     1     -16.543  62.924  -0.828  1.00  0.00     0.033 C 
ATOM     27  C   UNL     1     -15.211  63.126  -1.581  1.00  0.00     0.120 C 
ATOM     28  C   UNL     1     -12.955  62.171  -2.278  1.00  0.00     0.014 C 
ATOM     29  C   UNL     1     -14.968  60.769  -2.566  1.00  0.00     0.014 C 
ENDROOT
BRANCH   1  30
ATOM     30  C   UNL     1     -15.615  62.727   8.124  1.00  0.00     0.048 C 
ATOM     31  O   UNL     1     -15.707  62.846   9.377  1.00  0.00    -0.550 OA
ATOM     32  O   UNL     1     -16.621  63.265   7.331  1.00  0.00    -0.550 OA
ENDBRANCH   1  30
BRANCH  27  33
ATOM     33  O   UNL     1     -14.508  64.190  -0.988  1.00  0.00    -0.393 OA
ATOM     34  H   UNL     1     -15.170  64.899  -0.778  1.00  0.00     0.210 HD
ENDBRANCH  27  33
TORSDOF 2
ENDMDL
MODEL 7
REMARK VINA RESULT:    -5.010      8.918     13.421
REMARK INTER + INTRA:          -5.521
REMARK INTER:                  -5.662
REMARK INTRA:                   0.141
REMARK UNBOUND:                -0.072
REMARK SMILES C[C@H]1[C@H]2C3=CC[C@H]4[C@@]5(C)CC[C@@H](O)C(C)(C)[C@H]5CC[C@@]4(C)[C@]3(C)CC[C@]2(C(=O)[O-])CC[C@@H]1C
REMARK SMILES IDX 26 1 30 2 25 3 3 4 31 5 24 6 4 7 2 8 32 9 22 10 5 11 1 12
REMARK SMILES IDX 33 13 23 14 20 15 6 16 7 17 19 18 21 19 8 20 18 21 17 22
REMARK SMILES IDX 10 23 9 24 14 25 11 26 12 27 15 28 16 29 27 30 28 31 29 32
REMARK SMILES IDX 13 33
REMARK H PARENT 13 34
REMARK Flexibility Score: inf
ROOT
ATOM      1  C   UNL     1     -15.057  60.436   6.130  1.00  0.00     0.017 C 
ATOM      2  C   UNL     1     -16.114  59.809   7.113  1.00  0.00     0.014 C 
ATOM      3  C   UNL     1     -14.648  59.362   5.066  1.00  0.00     0.014 C 
ATOM      4  C   UNL     1     -15.736  61.703   5.492  1.00  0.00     0.030 C 
ATOM      5  C   UNL     1     -17.055  60.835   7.798  1.00  0.00     0.004 C 
ATOM      6  C   UNL     1     -15.267  59.604   3.686  1.00  0.00     0.013 C 
ATOM      7  C   UNL     1     -15.197  62.099   4.105  1.00  0.00    -0.063 C 
ATOM      8  C   UNL     1     -15.966  62.832   6.566  1.00  0.00    -0.003 C 
ATOM      9  C   UNL     1     -16.425  62.235   7.943  1.00  0.00    -0.011 C 
ATOM     10  C   UNL     1     -14.884  61.000   3.075  1.00  0.00    -0.006 C 
ATOM     11  C   UNL     1     -15.316  63.364   3.651  1.00  0.00    -0.027 C 
ATOM     12  C   UNL     1     -14.762  63.787   6.786  1.00  0.00     0.008 C 
ATOM     13  C   UNL     1     -17.397  63.182   8.661  1.00  0.00     0.008 C 
ATOM     14  C   UNL     1     -13.344  60.990   2.837  1.00  0.00     0.017 C 
ATOM     15  C   UNL     1     -15.709  61.294   1.714  1.00  0.00    -0.020 C 
ATOM     16  C   UNL     1     -14.909  63.746   2.261  1.00  0.00     0.032 C 
ATOM     17  C   UNL     1     -15.518  62.794   1.187  1.00  0.00     0.006 C 
ATOM     18  C   UNL     1     -15.319  60.275   0.617  1.00  0.00     0.008 C 
ATOM     19  C   UNL     1     -17.244  61.091   1.980  1.00  0.00     0.012 C 
ATOM     20  C   UNL     1     -14.953  63.006  -0.298  1.00  0.00    -0.025 C 
ATOM     21  C   UNL     1     -15.914  60.586  -0.754  1.00  0.00     0.005 C 
ATOM     22  C   UNL     1     -15.710  62.040  -1.312  1.00  0.00     0.003 C 
ATOM     23  C   UNL     1     -13.409  62.793  -0.408  1.00  0.00     0.010 C 
ATOM     24  C   UNL     1     -15.246  64.502  -0.654  1.00  0.00     0.012 C 
ATOM     25  C   UNL     1     -15.140  62.044  -2.811  1.00  0.00    -0.006 C 
ATOM     26  C   UNL     1     -12.875  62.842  -1.848  1.00  0.00     0.033 C 
ATOM     27  C   UNL     1     -13.591  61.848  -2.788  1.00  0.00     0.120 C 
ATOM     28  C   UNL     1     -15.786  60.918  -3.685  1.00  0.00     0.014 C 
ATOM     29  C   UNL     1     -15.506  63.369  -3.566  1.00  0.00     0.014 C 
ENDROOT
BRANCH   1  30
ATOM     30  C   UNL     1     -13.778  60.819   6.877  1.00  0.00     0.048 C 
ATOM     31  O   UNL     1     -12.875  61.508   6.327  1.00  0.00    -0.550 OA
ATOM     32  O   UNL     1     -13.629  60.476   8.215  1.00  0.00    -0.550 OA
ENDBRANCH   1  30
BRANCH  27  33
ATOM     33  O   UNL     1     -13.265  60.536  -2.400  1.00  0.00    -0.393 OA
ATOM     34  H   UNL     1     -12.594  60.197  -3.047  1.00  0.00     0.210 HD
ENDBRANCH  27  33
TORSDOF 2
ENDMDL
MODEL 8
REMARK VINA RESULT:    -4.987      8.225     13.928
REMARK INTER + INTRA:          -5.496
REMARK INTER:                  -5.437
REMARK INTRA:                  -0.059
REMARK UNBOUND:                -0.072
REMARK SMILES C[C@H]1[C@H]2C3=CC[C@H]4[C@@]5(C)CC[C@@H](O)C(C)(C)[C@H]5CC[C@@]4(C)[C@]3(C)CC[C@]2(C(=O)[O-])CC[C@@H]1C
REMARK SMILES IDX 26 1 30 2 25 3 3 4 31 5 24 6 4 7 2 8 32 9 22 10 5 11 1 12
REMARK SMILES IDX 33 13 23 14 20 15 6 16 7 17 19 18 21 19 8 20 18 21 17 22
REMARK SMILES IDX 10 23 9 24 14 25 11 26 12 27 15 28 16 29 27 30 28 31 29 32
REMARK SMILES IDX 13 33
REMARK H PARENT 13 34
REMARK Flexibility Score: inf
ROOT
ATOM      1  C   UNL     1     -14.291  61.060   6.567  1.00  0.00     0.017 C 
ATOM      2  C   UNL     1     -13.224  60.181   7.320  1.00  0.00     0.014 C 
ATOM      3  C   UNL     1     -13.663  62.458   6.241  1.00  0.00     0.014 C 
ATOM      4  C   UNL     1     -14.701  60.257   5.278  1.00  0.00     0.030 C 
ATOM      5  C   UNL     1     -13.420  58.649   7.171  1.00  0.00     0.004 C 
ATOM      6  C   UNL     1     -13.283  62.626   4.766  1.00  0.00     0.013 C 
ATOM      7  C   UNL     1     -15.208  61.122   4.109  1.00  0.00    -0.063 C 
ATOM      8  C   UNL     1     -15.490  58.945   5.647  1.00  0.00    -0.003 C 
ATOM      9  C   UNL     1     -14.887  58.246   6.918  1.00  0.00    -0.011 C 
ATOM     10  C   UNL     1     -14.502  62.451   3.792  1.00  0.00    -0.006 C 
ATOM     11  C   UNL     1     -16.012  60.600   3.159  1.00  0.00    -0.027 C 
ATOM     12  C   UNL     1     -17.020  59.125   5.827  1.00  0.00     0.008 C 
ATOM     13  C   UNL     1     -15.008  56.719   6.819  1.00  0.00     0.008 C 
ATOM     14  C   UNL     1     -15.501  63.609   4.092  1.00  0.00     0.017 C 
ATOM     15  C   UNL     1     -14.024  62.445   2.245  1.00  0.00    -0.020 C 
ATOM     16  C   UNL     1     -16.421  61.385   1.950  1.00  0.00     0.032 C 
ATOM     17  C   UNL     1     -15.201  62.042   1.236  1.00  0.00     0.006 C 
ATOM     18  C   UNL     1     -13.422  63.818   1.863  1.00  0.00     0.008 C 
ATOM     19  C   UNL     1     -12.875  61.390   2.059  1.00  0.00     0.012 C 
ATOM     20  C   UNL     1     -15.580  63.073   0.069  1.00  0.00    -0.025 C 
ATOM     21  C   UNL     1     -13.109  63.962   0.375  1.00  0.00     0.005 C 
ATOM     22  C   UNL     1     -14.257  63.608  -0.637  1.00  0.00     0.003 C 
ATOM     23  C   UNL     1     -16.445  64.276   0.564  1.00  0.00     0.010 C 
ATOM     24  C   UNL     1     -16.447  62.261  -0.950  1.00  0.00     0.012 C 
ATOM     25  C   UNL     1     -14.485  64.760  -1.728  1.00  0.00    -0.006 C 
ATOM     26  C   UNL     1     -16.689  65.351  -0.507  1.00  0.00     0.033 C 
ATOM     27  C   UNL     1     -15.381  65.890  -1.125  1.00  0.00     0.120 C 
ATOM     28  C   UNL     1     -13.134  65.383  -2.212  1.00  0.00     0.014 C 
ATOM     29  C   UNL     1     -15.136  64.197  -3.039  1.00  0.00     0.014 C 
ENDROOT
BRANCH   1  30
ATOM     30  C   UNL     1     -15.506  61.324   7.456  1.00  0.00     0.048 C 
ATOM     31  O   UNL     1     -15.601  60.820   8.610  1.00  0.00    -0.550 OA
ATOM     32  O   UNL     1     -16.498  62.200   7.032  1.00  0.00    -0.550 OA
ENDBRANCH   1  30
BRANCH  27  33
ATOM     33  O   UNL     1     -14.674  66.609  -0.145  1.00  0.00    -0.393 OA
ATOM     34  H   UNL     1     -15.173  66.510   0.708  1.00  0.00     0.210 HD
ENDBRANCH  27  33
TORSDOF 2
ENDMDL
MODEL 9
REMARK VINA RESULT:    -4.821      3.801      6.341
REMARK INTER + INTRA:          -5.316
REMARK INTER:                  -5.243
REMARK INTRA:                  -0.073
REMARK UNBOUND:                -0.072
REMARK SMILES C[C@H]1[C@H]2C3=CC[C@H]4[C@@]5(C)CC[C@@H](O)C(C)(C)[C@H]5CC[C@@]4(C)[C@]3(C)CC[C@]2(C(=O)[O-])CC[C@@H]1C
REMARK SMILES IDX 26 1 30 2 25 3 3 4 31 5 24 6 4 7 2 8 32 9 22 10 5 11 1 12
REMARK SMILES IDX 33 13 23 14 20 15 6 16 7 17 19 18 21 19 8 20 18 21 17 22
REMARK SMILES IDX 10 23 9 24 14 25 11 26 12 27 15 28 16 29 27 30 28 31 29 32
REMARK SMILES IDX 13 33
REMARK H PARENT 13 34
REMARK Flexibility Score: inf
ROOT
ATOM      1  C   UNL     1     -14.054  59.114   6.331  1.00  0.00     0.017 C 
ATOM      2  C   UNL     1     -13.216  60.397   6.690  1.00  0.00     0.014 C 
ATOM      3  C   UNL     1     -13.077  57.976   5.878  1.00  0.00     0.014 C 
ATOM      4  C   UNL     1     -14.872  58.740   7.621  1.00  0.00     0.030 C 
ATOM      5  C   UNL     1     -13.897  61.358   7.700  1.00  0.00     0.004 C 
ATOM      6  C   UNL     1     -12.878  56.886   6.935  1.00  0.00     0.013 C 
ATOM      7  C   UNL     1     -15.248  57.252   7.743  1.00  0.00    -0.063 C 
ATOM      8  C   UNL     1     -15.968  59.826   7.940  1.00  0.00    -0.003 C 
ATOM      9  C   UNL     1     -15.436  61.279   7.671  1.00  0.00    -0.011 C 
ATOM     10  C   UNL     1     -14.217  56.179   7.352  1.00  0.00    -0.006 C 
ATOM     11  C   UNL     1     -16.300  56.862   8.492  1.00  0.00    -0.027 C 
ATOM     12  C   UNL     1     -17.325  59.624   7.215  1.00  0.00     0.008 C 
ATOM     13  C   UNL     1     -16.037  62.281   8.667  1.00  0.00     0.008 C 
ATOM     14  C   UNL     1     -14.754  55.434   6.092  1.00  0.00     0.017 C 
ATOM     15  C   UNL     1     -13.990  55.176   8.601  1.00  0.00    -0.020 C 
ATOM     16  C   UNL     1     -16.613  55.415   8.723  1.00  0.00     0.032 C 
ATOM     17  C   UNL     1     -15.365  54.612   9.199  1.00  0.00     0.006 C 
ATOM     18  C   UNL     1     -13.053  54.014   8.196  1.00  0.00     0.008 C 
ATOM     19  C   UNL     1     -13.264  55.945   9.763  1.00  0.00     0.012 C 
ATOM     20  C   UNL     1     -15.569  53.024   9.255  1.00  0.00    -0.025 C 
ATOM     21  C   UNL     1     -12.926  52.924   9.258  1.00  0.00     0.005 C 
ATOM     22  C   UNL     1     -14.260  52.326   9.835  1.00  0.00     0.003 C 
ATOM     23  C   UNL     1     -15.938  52.398   7.872  1.00  0.00     0.010 C 
ATOM     24  C   UNL     1     -16.781  52.784  10.216  1.00  0.00     0.012 C 
ATOM     25  C   UNL     1     -14.273  50.724   9.809  1.00  0.00    -0.006 C 
ATOM     26  C   UNL     1     -15.987  50.862   7.875  1.00  0.00     0.033 C 
ATOM     27  C   UNL     1     -14.679  50.221   8.386  1.00  0.00     0.120 C 
ATOM     28  C   UNL     1     -12.878  50.121  10.185  1.00  0.00     0.014 C 
ATOM     29  C   UNL     1     -15.246  50.134  10.887  1.00  0.00     0.014 C 
ENDROOT
BRANCH   1  30
ATOM     30  C   UNL     1     -14.987  59.384   5.150  1.00  0.00     0.048 C 
ATOM     31  O   UNL     1     -15.024  60.510   4.583  1.00  0.00    -0.550 OA
ATOM     32  O   UNL     1     -15.759  58.353   4.628  1.00  0.00    -0.550 OA
ENDBRANCH   1  30
BRANCH  27  33
ATOM     33  O   UNL     1     -13.652  50.480   7.460  1.00  0.00    -0.393 OA
ATOM     34  H   UNL     1     -13.840  51.365   7.053  1.00  0.00     0.210 HD
ENDBRANCH  27  33
TORSDOF 2
ENDMDL
