MODEL 1
REMARK VINA RESULT:    -5.349      0.000      0.000
REMARK INTER + INTRA:          -6.550
REMARK INTER:                  -6.287
REMARK INTRA:                  -0.262
REMARK UNBOUND:                -0.262
REMARK SMILES CCC=Cc1oc(O)c2ccc(O)cc12
REMARK SMILES IDX 7 1 6 2 5 3 15 4 14 5 12 6 11 7 10 8 9 9 8 10 4 12 3 13 2 14
REMARK SMILES IDX 1 15 13 16
REMARK H PARENT 8 11 13 17
REMARK Flexibility Score: inf
ROOT
ATOM      1  C   UNL     1      19.859  15.032  20.736  1.00  0.00     0.290 A 
ATOM      2  O   UNL     1      20.337  14.908  19.515  1.00  0.00    -0.425 OA
ATOM      3  C   UNL     1      21.410  14.137  19.556  1.00  0.00     0.138 A 
ATOM      4  C   UNL     1      21.646  13.762  20.874  1.00  0.00     0.035 A 
ATOM      5  C   UNL     1      22.676  13.037  21.481  1.00  0.00     0.059 A 
ATOM      6  C   UNL     1      22.631  12.867  22.881  1.00  0.00     0.116 A 
ATOM      7  C   UNL     1      21.577  13.434  23.633  1.00  0.00     0.047 A 
ATOM      8  C   UNL     1      20.571  14.186  23.001  1.00  0.00     0.020 A 
ATOM      9  C   UNL     1      20.645  14.331  21.618  1.00  0.00     0.067 A 
ENDROOT
BRANCH   1  10
ATOM     10  O   UNL     1      18.730  15.775  21.066  1.00  0.00    -0.480 OA
ATOM     11  H   UNL     1      18.429  16.540  20.475  1.00  0.00     0.297 HD
ENDBRANCH   1  10
BRANCH   3  12
ATOM     12  C   UNL     1      22.186  13.794  18.351  1.00  0.00     0.043 C 
ATOM     13  C   UNL     1      22.032  12.639  17.695  1.00  0.00    -0.023 C 
BRANCH  13  14
ATOM     14  C   UNL     1      22.823  12.329  16.457  1.00  0.00     0.024 C 
ATOM     15  C   UNL     1      24.305  12.152  16.772  1.00  0.00     0.008 C 
ENDBRANCH  13  14
ENDBRANCH   3  12
BRANCH   6  16
ATOM     16  O   UNL     1      23.626  12.146  23.537  1.00  0.00    -0.508 OA
ATOM     17  H   UNL     1      24.567  12.084  23.165  1.00  0.00     0.293 HD
ENDBRANCH   6  16
TORSDOF 4
ENDMDL
MODEL 2
REMARK VINA RESULT:    -5.282      1.787      1.970
REMARK INTER + INTRA:          -6.470
REMARK INTER:                  -6.224
REMARK INTRA:                  -0.246
REMARK UNBOUND:                -0.262
REMARK SMILES CCC=Cc1oc(O)c2ccc(O)cc12
REMARK SMILES IDX 7 1 6 2 5 3 15 4 14 5 12 6 11 7 10 8 9 9 8 10 4 12 3 13 2 14
REMARK SMILES IDX 1 15 13 16
REMARK H PARENT 8 11 13 17
REMARK Flexibility Score: inf
ROOT
ATOM      1  C   UNL     1      18.665  13.074  20.244  1.00  0.00     0.290 A 
ATOM      2  O   UNL     1      19.434  12.521  19.328  1.00  0.00    -0.425 OA
ATOM      3  C   UNL     1      20.698  12.745  19.642  1.00  0.00     0.138 A 
ATOM      4  C   UNL     1      20.744  13.499  20.811  1.00  0.00     0.035 A 
ATOM      5  C   UNL     1      21.801  14.075  21.522  1.00  0.00     0.059 A 
ATOM      6  C   UNL     1      21.491  14.829  22.674  1.00  0.00     0.116 A 
ATOM      7  C   UNL     1      20.145  15.000  23.072  1.00  0.00     0.047 A 
ATOM      8  C   UNL     1      19.099  14.435  22.320  1.00  0.00     0.020 A 
ATOM      9  C   UNL     1      19.442  13.695  21.191  1.00  0.00     0.067 A 
ENDROOT
BRANCH   1  10
ATOM     10  O   UNL     1      17.275  13.033  20.231  1.00  0.00    -0.480 OA
ATOM     11  H   UNL     1      16.743  13.806  19.852  1.00  0.00     0.297 HD
ENDBRANCH   1  10
BRANCH   3  12
ATOM     12  C   UNL     1      21.818  12.254  18.821  1.00  0.00     0.043 C 
ATOM     13  C   UNL     1      22.103  12.750  17.613  1.00  0.00    -0.023 C 
BRANCH  13  14
ATOM     14  C   UNL     1      23.266  12.243  16.811  1.00  0.00     0.024 C 
ATOM     15  C   UNL     1      24.499  12.037  17.685  1.00  0.00     0.008 C 
ENDBRANCH  13  14
ENDBRANCH   3  12
BRANCH   6  16
ATOM     16  O   UNL     1      22.505  15.418  23.426  1.00  0.00    -0.508 OA
ATOM     17  H   UNL     1      22.335  16.245  23.986  1.00  0.00     0.293 HD
ENDBRANCH   6  16
TORSDOF 4
ENDMDL
MODEL 3
REMARK VINA RESULT:    -5.232      1.772      3.133
REMARK INTER + INTRA:          -6.412
REMARK INTER:                  -6.258
REMARK INTRA:                  -0.155
REMARK UNBOUND:                -0.262
REMARK SMILES CCC=Cc1oc(O)c2ccc(O)cc12
REMARK SMILES IDX 7 1 6 2 5 3 15 4 14 5 12 6 11 7 10 8 9 9 8 10 4 12 3 13 2 14
REMARK SMILES IDX 1 15 13 16
REMARK H PARENT 8 11 13 17
REMARK Flexibility Score: inf
ROOT
ATOM      1  C   UNL     1      22.185  14.269  22.195  1.00  0.00     0.290 A 
ATOM      2  O   UNL     1      22.958  13.828  21.224  1.00  0.00    -0.425 OA
ATOM      3  C   UNL     1      22.194  13.390  20.238  1.00  0.00     0.138 A 
ATOM      4  C   UNL     1      20.860  13.540  20.602  1.00  0.00     0.035 A 
ATOM      5  C   UNL     1      19.663  13.169  19.982  1.00  0.00     0.059 A 
ATOM      6  C   UNL     1      18.454  13.439  20.658  1.00  0.00     0.116 A 
ATOM      7  C   UNL     1      18.473  14.054  21.930  1.00  0.00     0.047 A 
ATOM      8  C   UNL     1      19.692  14.389  22.546  1.00  0.00     0.020 A 
ATOM      9  C   UNL     1      20.865  14.110  21.849  1.00  0.00     0.067 A 
ENDROOT
BRANCH   1  10
ATOM     10  O   UNL     1      22.655  14.803  23.391  1.00  0.00    -0.480 OA
ATOM     11  H   UNL     1      23.069  14.204  24.093  1.00  0.00     0.297 HD
ENDBRANCH   1  10
BRANCH   3  12
ATOM     12  C   UNL     1      22.748  12.832  18.993  1.00  0.00     0.043 C 
ATOM     13  C   UNL     1      22.325  13.203  17.780  1.00  0.00    -0.023 C 
BRANCH  13  14
ATOM     14  C   UNL     1      22.926  12.631  16.529  1.00  0.00     0.024 C 
ATOM     15  C   UNL     1      24.327  12.083  16.784  1.00  0.00     0.008 C 
ENDBRANCH  13  14
ENDBRANCH   3  12
BRANCH   6  16
ATOM     16  O   UNL     1      17.233  13.099  20.082  1.00  0.00    -0.508 OA
ATOM     17  H   UNL     1      16.516  12.615  20.610  1.00  0.00     0.293 HD
ENDBRANCH   6  16
TORSDOF 4
ENDMDL
MODEL 4
REMARK VINA RESULT:    -5.089      1.818      5.197
REMARK INTER + INTRA:          -6.244
REMARK INTER:                  -6.062
REMARK INTRA:                  -0.182
REMARK UNBOUND:                -0.262
REMARK SMILES CCC=Cc1oc(O)c2ccc(O)cc12
REMARK SMILES IDX 7 1 6 2 5 3 15 4 14 5 12 6 11 7 10 8 9 9 8 10 4 12 3 13 2 14
REMARK SMILES IDX 1 15 13 16
REMARK H PARENT 8 11 13 17
REMARK Flexibility Score: inf
ROOT
ATOM      1  C   UNL     1      19.743  15.194  20.059  1.00  0.00     0.290 A 
ATOM      2  O   UNL     1      19.360  15.301  21.315  1.00  0.00    -0.425 OA
ATOM      3  C   UNL     1      20.246  14.690  22.083  1.00  0.00     0.138 A 
ATOM      4  C   UNL     1      21.240  14.145  21.277  1.00  0.00     0.035 A 
ATOM      5  C   UNL     1      22.349  13.340  21.557  1.00  0.00     0.059 A 
ATOM      6  C   UNL     1      23.152  12.919  20.477  1.00  0.00     0.116 A 
ATOM      7  C   UNL     1      22.822  13.296  19.155  1.00  0.00     0.047 A 
ATOM      8  C   UNL     1      21.683  14.081  18.898  1.00  0.00     0.020 A 
ATOM      9  C   UNL     1      20.915  14.481  19.988  1.00  0.00     0.067 A 
ENDROOT
BRANCH   1  10
ATOM     10  O   UNL     1      19.046  15.723  18.978  1.00  0.00    -0.480 OA
ATOM     11  H   UNL     1      18.381  16.473  19.114  1.00  0.00     0.297 HD
ENDBRANCH   1  10
BRANCH   3  12
ATOM     12  C   UNL     1      20.116  14.628  23.549  1.00  0.00     0.043 C 
ATOM     13  C   UNL     1      19.213  15.343  24.228  1.00  0.00    -0.023 C 
BRANCH  13  14
ATOM     14  C   UNL     1      19.091  15.240  25.720  1.00  0.00     0.024 C 
ATOM     15  C   UNL     1      17.985  14.270  26.124  1.00  0.00     0.008 C 
ENDBRANCH  13  14
ENDBRANCH   3  12
BRANCH   6  16
ATOM     16  O   UNL     1      24.273  12.124  20.699  1.00  0.00    -0.508 OA
ATOM     17  H   UNL     1      25.049  12.109  20.047  1.00  0.00     0.293 HD
ENDBRANCH   6  16
TORSDOF 4
ENDMDL
MODEL 5
REMARK VINA RESULT:    -4.975     14.579     16.202
REMARK INTER + INTRA:          -6.110
REMARK INTER:                  -5.923
REMARK INTRA:                  -0.186
REMARK UNBOUND:                -0.262
REMARK SMILES CCC=Cc1oc(O)c2ccc(O)cc12
REMARK SMILES IDX 7 1 6 2 5 3 15 4 14 5 12 6 11 7 10 8 9 9 8 10 4 12 3 13 2 14
REMARK SMILES IDX 1 15 13 16
REMARK H PARENT 8 11 13 17
REMARK Flexibility Score: inf
ROOT
ATOM      1  C   UNL     1      19.602  19.356   6.067  1.00  0.00     0.290 A 
ATOM      2  O   UNL     1      18.878  18.257   6.018  1.00  0.00    -0.425 OA
ATOM      3  C   UNL     1      17.613  18.570   6.243  1.00  0.00     0.138 A 
ATOM      4  C   UNL     1      17.523  19.940   6.469  1.00  0.00     0.035 A 
ATOM      5  C   UNL     1      16.458  20.770   6.832  1.00  0.00     0.059 A 
ATOM      6  C   UNL     1      16.723  22.143   7.024  1.00  0.00     0.116 A 
ATOM      7  C   UNL     1      18.035  22.643   6.865  1.00  0.00     0.047 A 
ATOM      8  C   UNL     1      19.095  21.781   6.530  1.00  0.00     0.020 A 
ATOM      9  C   UNL     1      18.796  20.433   6.345  1.00  0.00     0.067 A 
ENDROOT
BRANCH   1  10
ATOM     10  O   UNL     1      20.979  19.398   5.875  1.00  0.00    -0.480 OA
ATOM     11  H   UNL     1      21.556  20.017   6.430  1.00  0.00     0.297 HD
ENDBRANCH   1  10
BRANCH   3  12
ATOM     12  C   UNL     1      16.536  17.566   6.253  1.00  0.00     0.043 C 
ATOM     13  C   UNL     1      16.730  16.298   6.630  1.00  0.00    -0.023 C 
BRANCH  13  14
ATOM     14  C   UNL     1      15.606  15.303   6.649  1.00  0.00     0.024 C 
ATOM     15  C   UNL     1      15.513  14.595   7.998  1.00  0.00     0.008 C 
ENDBRANCH  13  14
ENDBRANCH   3  12
BRANCH   6  16
ATOM     16  O   UNL     1      15.698  23.016   7.378  1.00  0.00    -0.508 OA
ATOM     17  H   UNL     1      15.341  23.705   6.725  1.00  0.00     0.293 HD
ENDBRANCH   6  16
TORSDOF 4
ENDMDL
MODEL 6
REMARK VINA RESULT:    -4.974      2.753      3.814
REMARK INTER + INTRA:          -6.108
REMARK INTER:                  -5.873
REMARK INTRA:                  -0.235
REMARK UNBOUND:                -0.262
REMARK SMILES CCC=Cc1oc(O)c2ccc(O)cc12
REMARK SMILES IDX 7 1 6 2 5 3 15 4 14 5 12 6 11 7 10 8 9 9 8 10 4 12 3 13 2 14
REMARK SMILES IDX 1 15 13 16
REMARK H PARENT 8 11 13 17
REMARK Flexibility Score: inf
ROOT
ATOM      1  C   UNL     1      17.107  13.509  22.885  1.00  0.00     0.290 A 
ATOM      2  O   UNL     1      17.626  13.584  21.677  1.00  0.00    -0.425 OA
ATOM      3  C   UNL     1      18.795  14.196  21.753  1.00  0.00     0.138 A 
ATOM      4  C   UNL     1      19.032  14.550  23.078  1.00  0.00     0.035 A 
ATOM      5  C   UNL     1      20.055  15.277  23.694  1.00  0.00     0.059 A 
ATOM      6  C   UNL     1      19.968  15.495  25.085  1.00  0.00     0.116 A 
ATOM      7  C   UNL     1      18.864  14.999  25.816  1.00  0.00     0.047 A 
ATOM      8  C   UNL     1      17.833  14.298  25.166  1.00  0.00     0.020 A 
ATOM      9  C   UNL     1      17.953  14.099  23.793  1.00  0.00     0.067 A 
ENDROOT
BRANCH   1  10
ATOM     10  O   UNL     1      15.879  12.924  23.177  1.00  0.00    -0.480 OA
ATOM     11  H   UNL     1      15.283  12.584  22.433  1.00  0.00     0.297 HD
ENDBRANCH   1  10
BRANCH   3  12
ATOM     12  C   UNL     1      19.643  14.439  20.573  1.00  0.00     0.043 C 
ATOM     13  C   UNL     1      20.782  13.776  20.350  1.00  0.00    -0.023 C 
BRANCH  13  14
ATOM     14  C   UNL     1      21.612  14.032  19.126  1.00  0.00     0.024 C 
ATOM     15  C   UNL     1      21.783  12.764  18.294  1.00  0.00     0.008 C 
ENDBRANCH  13  14
ENDBRANCH   3  12
BRANCH   6  16
ATOM     16  O   UNL     1      20.964  16.205  25.751  1.00  0.00    -0.508 OA
ATOM     17  H   UNL     1      21.714  15.731  26.241  1.00  0.00     0.293 HD
ENDBRANCH   6  16
TORSDOF 4
ENDMDL
MODEL 7
REMARK VINA RESULT:    -4.931      2.536      5.161
REMARK INTER + INTRA:          -6.058
REMARK INTER:                  -5.851
REMARK INTRA:                  -0.207
REMARK UNBOUND:                -0.262
REMARK SMILES CCC=Cc1oc(O)c2ccc(O)cc12
REMARK SMILES IDX 7 1 6 2 5 3 15 4 14 5 12 6 11 7 10 8 9 9 8 10 4 12 3 13 2 14
REMARK SMILES IDX 1 15 13 16
REMARK H PARENT 8 11 13 17
REMARK Flexibility Score: inf
ROOT
ATOM      1  C   UNL     1      21.191  13.759  19.912  1.00  0.00     0.290 A 
ATOM      2  O   UNL     1      22.062  14.100  20.839  1.00  0.00    -0.425 OA
ATOM      3  C   UNL     1      21.495  13.966  22.026  1.00  0.00     0.138 A 
ATOM      4  C   UNL     1      20.183  13.535  21.851  1.00  0.00     0.035 A 
ATOM      5  C   UNL     1      19.132  13.320  22.747  1.00  0.00     0.059 A 
ATOM      6  C   UNL     1      17.887  12.912  22.223  1.00  0.00     0.116 A 
ATOM      7  C   UNL     1      17.723  12.745  20.829  1.00  0.00     0.047 A 
ATOM      8  C   UNL     1      18.789  12.999  19.947  1.00  0.00     0.020 A 
ATOM      9  C   UNL     1      20.003  13.397  20.499  1.00  0.00     0.067 A 
ENDROOT
BRANCH   1  10
ATOM     10  O   UNL     1      21.451  13.779  18.546  1.00  0.00    -0.480 OA
ATOM     11  H   UNL     1      22.307  14.186  18.192  1.00  0.00     0.297 HD
ENDBRANCH   1  10
BRANCH   3  12
ATOM     12  C   UNL     1      22.203  14.264  23.282  1.00  0.00     0.043 C 
ATOM     13  C   UNL     1      22.608  15.494  23.613  1.00  0.00    -0.023 C 
BRANCH  13  14
ATOM     14  C   UNL     1      23.308  15.769  24.912  1.00  0.00     0.024 C 
ATOM     15  C   UNL     1      24.245  16.967  24.797  1.00  0.00     0.008 C 
ENDBRANCH  13  14
ENDBRANCH   3  12
BRANCH   6  16
ATOM     16  O   UNL     1      16.808  12.675  23.070  1.00  0.00    -0.508 OA
ATOM     17  H   UNL     1      16.274  11.816  23.018  1.00  0.00     0.293 HD
ENDBRANCH   6  16
TORSDOF 4
ENDMDL
MODEL 8
REMARK VINA RESULT:    -4.884      2.464      5.661
REMARK INTER + INTRA:          -6.003
REMARK INTER:                  -5.823
REMARK INTRA:                  -0.180
REMARK UNBOUND:                -0.262
REMARK SMILES CCC=Cc1oc(O)c2ccc(O)cc12
REMARK SMILES IDX 7 1 6 2 5 3 15 4 14 5 12 6 11 7 10 8 9 9 8 10 4 12 3 13 2 14
REMARK SMILES IDX 1 15 13 16
REMARK H PARENT 8 11 13 17
REMARK Flexibility Score: inf
ROOT
ATOM      1  C   UNL     1      23.124  11.985  21.112  1.00  0.00     0.290 A 
ATOM      2  O   UNL     1      21.856  12.124  21.443  1.00  0.00    -0.425 OA
ATOM      3  C   UNL     1      21.134  12.197  20.338  1.00  0.00     0.138 A 
ATOM      4  C   UNL     1      21.984  12.122  19.239  1.00  0.00     0.035 A 
ATOM      5  C   UNL     1      21.762  12.233  17.863  1.00  0.00     0.059 A 
ATOM      6  C   UNL     1      22.877  12.146  17.003  1.00  0.00     0.116 A 
ATOM      7  C   UNL     1      24.174  11.968  17.535  1.00  0.00     0.047 A 
ATOM      8  C   UNL     1      24.373  11.890  18.925  1.00  0.00     0.020 A 
ATOM      9  C   UNL     1      23.250  11.977  19.744  1.00  0.00     0.067 A 
ENDROOT
BRANCH   1  10
ATOM     10  O   UNL     1      24.166  11.875  22.026  1.00  0.00    -0.480 OA
ATOM     11  H   UNL     1      24.095  11.242  22.812  1.00  0.00     0.297 HD
ENDBRANCH   1  10
BRANCH   3  12
ATOM     12  C   UNL     1      19.669  12.352  20.357  1.00  0.00     0.043 C 
ATOM     13  C   UNL     1      19.005  12.838  21.410  1.00  0.00    -0.023 C 
BRANCH  13  14
ATOM     14  C   UNL     1      17.513  13.004  21.389  1.00  0.00     0.024 C 
ATOM     15  C   UNL     1      16.944  13.102  22.801  1.00  0.00     0.008 C 
ENDBRANCH  13  14
ENDBRANCH   3  12
BRANCH   6  16
ATOM     16  O   UNL     1      22.713  12.241  15.624  1.00  0.00    -0.508 OA
ATOM     17  H   UNL     1      22.228  11.523  15.098  1.00  0.00     0.293 HD
ENDBRANCH   6  16
TORSDOF 4
ENDMDL
MODEL 9
REMARK VINA RESULT:    -4.810      3.104      5.635
REMARK INTER + INTRA:          -5.916
REMARK INTER:                  -5.668
REMARK INTRA:                  -0.248
REMARK UNBOUND:                -0.262
REMARK SMILES CCC=Cc1oc(O)c2ccc(O)cc12
REMARK SMILES IDX 7 1 6 2 5 3 15 4 14 5 12 6 11 7 10 8 9 9 8 10 4 12 3 13 2 14
REMARK SMILES IDX 1 15 13 16
REMARK H PARENT 8 11 13 17
REMARK Flexibility Score: inf
ROOT
ATOM      1  C   UNL     1      17.891  12.841  23.279  1.00  0.00     0.290 A 
ATOM      2  O   UNL     1      18.462  13.550  24.232  1.00  0.00    -0.425 OA
ATOM      3  C   UNL     1      19.378  14.332  23.688  1.00  0.00     0.138 A 
ATOM      4  C   UNL     1      19.412  14.101  22.316  1.00  0.00     0.035 A 
ATOM      5  C   UNL     1      20.235  14.586  21.296  1.00  0.00     0.059 A 
ATOM      6  C   UNL     1      20.021  14.105  19.987  1.00  0.00     0.116 A 
ATOM      7  C   UNL     1      19.009  13.150  19.736  1.00  0.00     0.047 A 
ATOM      8  C   UNL     1      18.215  12.655  20.787  1.00  0.00     0.020 A 
ATOM      9  C   UNL     1      18.453  13.154  22.065  1.00  0.00     0.067 A 
ENDROOT
BRANCH   1  10
ATOM     10  O   UNL     1      16.880  11.910  23.492  1.00  0.00    -0.480 OA
ATOM     11  H   UNL     1      16.059  12.159  24.029  1.00  0.00     0.297 HD
ENDBRANCH   1  10
BRANCH   3  12
ATOM     12  C   UNL     1      20.201  15.261  24.482  1.00  0.00     0.043 C 
ATOM     13  C   UNL     1      21.493  15.041  24.745  1.00  0.00    -0.023 C 
BRANCH  13  14
ATOM     14  C   UNL     1      22.310  16.019  25.539  1.00  0.00     0.024 C 
ATOM     15  C   UNL     1      23.376  16.686  24.675  1.00  0.00     0.008 C 
ENDBRANCH  13  14
ENDBRANCH   3  12
BRANCH   6  16
ATOM     16  O   UNL     1      20.806  14.560  18.931  1.00  0.00    -0.508 OA
ATOM     17  H   UNL     1      20.901  15.548  18.730  1.00  0.00     0.293 HD
ENDBRANCH   6  16
TORSDOF 4
ENDMDL
