MODEL 1
REMARK VINA RESULT:    -3.328      0.000      0.000
REMARK INTER + INTRA:          -4.251
REMARK INTER:                  -4.106
REMARK INTRA:                  -0.144
REMARK UNBOUND:                -0.144
REMARK SMILES CCCCCC(=O)[O-]
REMARK SMILES IDX 4 1 5 2 6 3 7 4 8 5 3 6 2 7 1 8
REMARK H PARENT
REMARK Flexibility Score: inf
ROOT
ATOM      1  C   UNL     1       5.605  -0.207  -0.600  1.00  0.00     0.006 C 
ENDROOT
BRANCH   1   2
ATOM      2  C   UNL     1       6.505   0.347   0.509  1.00  0.00     0.053 C 
BRANCH   2   3
ATOM      3  C   UNL     1       5.707   0.616   1.745  1.00  0.00     0.041 C 
ATOM      4  O   UNL     1       5.327  -0.337   2.475  1.00  0.00    -0.550 OA
ATOM      5  O   UNL     1       5.423   1.924   2.119  1.00  0.00    -0.550 OA
ENDBRANCH   2   3
ENDBRANCH   1   2
BRANCH   1   6
ATOM      6  C   UNL     1       6.305  -1.335  -1.365  1.00  0.00     0.000 C 
BRANCH   6   7
ATOM      7  C   UNL     1       7.221  -2.143  -0.438  1.00  0.00    -0.003 C 
ATOM      8  C   UNL     1       7.827  -3.339  -1.166  1.00  0.00     0.004 C 
ENDBRANCH   6   7
ENDBRANCH   1   6
TORSDOF 4
ENDMDL
MODEL 2
REMARK VINA RESULT:    -3.307      0.173      1.146
REMARK INTER + INTRA:          -4.225
REMARK INTER:                  -4.085
REMARK INTRA:                  -0.140
REMARK UNBOUND:                -0.144
REMARK SMILES CCCCCC(=O)[O-]
REMARK SMILES IDX 4 1 5 2 6 3 7 4 8 5 3 6 2 7 1 8
REMARK H PARENT
REMARK Flexibility Score: inf
ROOT
ATOM      1  C   UNL     1       5.780  -0.048  -0.702  1.00  0.00     0.006 C 
ENDROOT
BRANCH   1   2
ATOM      2  C   UNL     1       6.617   0.267   0.540  1.00  0.00     0.053 C 
BRANCH   2   3
ATOM      3  C   UNL     1       5.731   0.612   1.696  1.00  0.00     0.041 C 
ATOM      4  O   UNL     1       5.284   1.782   1.824  1.00  0.00    -0.550 OA
ATOM      5  O   UNL     1       5.359  -0.371   2.604  1.00  0.00    -0.550 OA
ENDBRANCH   2   3
ENDBRANCH   1   2
BRANCH   1   6
ATOM      6  C   UNL     1       6.284  -1.318  -1.397  1.00  0.00     0.000 C 
BRANCH   6   7
ATOM      7  C   UNL     1       7.193  -2.131  -0.467  1.00  0.00    -0.003 C 
ATOM      8  C   UNL     1       7.828  -3.306  -1.205  1.00  0.00     0.004 C 
ENDBRANCH   6   7
ENDBRANCH   1   6
TORSDOF 4
ENDMDL
MODEL 3
REMARK VINA RESULT:    -3.173      1.060      1.439
REMARK INTER + INTRA:          -4.059
REMARK INTER:                  -3.900
REMARK INTRA:                  -0.159
REMARK UNBOUND:                -0.144
REMARK SMILES CCCCCC(=O)[O-]
REMARK SMILES IDX 4 1 5 2 6 3 7 4 8 5 3 6 2 7 1 8
REMARK H PARENT
REMARK Flexibility Score: inf
ROOT
ATOM      1  C   UNL     1       6.585  -1.024  -0.005  1.00  0.00     0.006 C 
ENDROOT
BRANCH   1   2
ATOM      2  C   UNL     1       7.053   0.004   1.028  1.00  0.00     0.053 C 
BRANCH   2   3
ATOM      3  C   UNL     1       5.906   0.449   1.881  1.00  0.00     0.041 C 
ATOM      4  O   UNL     1       5.338  -0.366   2.653  1.00  0.00    -0.550 OA
ATOM      5  O   UNL     1       5.497   1.776   1.858  1.00  0.00    -0.550 OA
ENDBRANCH   2   3
ENDBRANCH   1   2
BRANCH   1   6
ATOM      6  C   UNL     1       5.516  -0.429  -0.928  1.00  0.00     0.000 C 
BRANCH   6   7
ATOM      7  C   UNL     1       5.675  -0.950  -2.362  1.00  0.00    -0.003 C 
ATOM      8  C   UNL     1       6.777  -2.002  -2.448  1.00  0.00     0.004 C 
ENDBRANCH   6   7
ENDBRANCH   1   6
TORSDOF 4
ENDMDL
MODEL 4
REMARK VINA RESULT:    -2.881      6.938      7.622
REMARK INTER + INTRA:          -3.699
REMARK INTER:                  -3.641
REMARK INTRA:                  -0.058
REMARK UNBOUND:                -0.144
REMARK SMILES CCCCCC(=O)[O-]
REMARK SMILES IDX 4 1 5 2 6 3 7 4 8 5 3 6 2 7 1 8
REMARK H PARENT
REMARK Flexibility Score: inf
ROOT
ATOM      1  C   UNL     1       1.488  -3.935  -4.041  1.00  0.00     0.006 C 
ENDROOT
BRANCH   1   2
ATOM      2  C   UNL     1       2.193  -2.607  -3.750  1.00  0.00     0.053 C 
BRANCH   2   3
ATOM      3  C   UNL     1       2.475  -1.874  -5.023  1.00  0.00     0.041 C 
ATOM      4  O   UNL     1       2.100  -0.681  -5.163  1.00  0.00    -0.550 OA
ATOM      5  O   UNL     1       3.196  -2.493  -6.037  1.00  0.00    -0.550 OA
ENDBRANCH   2   3
ENDBRANCH   1   2
BRANCH   1   6
ATOM      6  C   UNL     1       0.721  -4.432  -2.810  1.00  0.00     0.000 C 
BRANCH   6   7
ATOM      7  C   UNL     1       0.963  -5.928  -2.578  1.00  0.00    -0.003 C 
ATOM      8  C   UNL     1       1.121  -6.237  -1.092  1.00  0.00     0.004 C 
ENDBRANCH   6   7
ENDBRANCH   1   6
TORSDOF 4
ENDMDL
MODEL 5
REMARK VINA RESULT:    -2.871      6.989      7.895
REMARK INTER + INTRA:          -3.687
REMARK INTER:                  -3.589
REMARK INTRA:                  -0.097
REMARK UNBOUND:                -0.144
REMARK SMILES CCCCCC(=O)[O-]
REMARK SMILES IDX 4 1 5 2 6 3 7 4 8 5 3 6 2 7 1 8
REMARK H PARENT
REMARK Flexibility Score: inf
ROOT
ATOM      1  C   UNL     1       1.853  -3.699  -4.148  1.00  0.00     0.006 C 
ENDROOT
BRANCH   1   2
ATOM      2  C   UNL     1       0.900  -4.196  -3.058  1.00  0.00     0.053 C 
BRANCH   2   3
ATOM      3  C   UNL     1       1.122  -5.652  -2.791  1.00  0.00     0.041 C 
ATOM      4  O   UNL     1       1.703  -6.371  -3.646  1.00  0.00    -0.550 OA
ATOM      5  O   UNL     1       0.733  -6.204  -1.578  1.00  0.00    -0.550 OA
ENDBRANCH   2   3
ENDBRANCH   1   2
BRANCH   1   6
ATOM      6  C   UNL     1       2.329  -2.272  -3.855  1.00  0.00     0.000 C 
BRANCH   6   7
ATOM      7  C   UNL     1       2.517  -1.477  -5.152  1.00  0.00    -0.003 C 
ATOM      8  C   UNL     1       2.381  -2.378  -6.376  1.00  0.00     0.004 C 
ENDBRANCH   6   7
ENDBRANCH   1   6
TORSDOF 4
ENDMDL
MODEL 6
REMARK VINA RESULT:    -2.811      6.211      7.016
REMARK INTER + INTRA:          -3.612
REMARK INTER:                  -3.472
REMARK INTRA:                  -0.140
REMARK UNBOUND:                -0.144
REMARK SMILES CCCCCC(=O)[O-]
REMARK SMILES IDX 4 1 5 2 6 3 7 4 8 5 3 6 2 7 1 8
REMARK H PARENT
REMARK Flexibility Score: inf
ROOT
ATOM      1  C   UNL     1       2.154  -2.592  -3.795  1.00  0.00     0.006 C 
ENDROOT
BRANCH   1   2
ATOM      2  C   UNL     1       2.596  -1.424  -4.679  1.00  0.00     0.053 C 
BRANCH   2   3
ATOM      3  C   UNL     1       4.086  -1.406  -4.817  1.00  0.00     0.041 C 
ATOM      4  O   UNL     1       4.813  -1.207  -3.809  1.00  0.00    -0.550 OA
ATOM      5  O   UNL     1       4.674  -1.658  -6.050  1.00  0.00    -0.550 OA
ENDBRANCH   2   3
ENDBRANCH   1   2
BRANCH   1   6
ATOM      6  C   UNL     1       2.160  -3.909  -4.580  1.00  0.00     0.000 C 
BRANCH   6   7
ATOM      7  C   UNL     1       1.002  -4.815  -4.145  1.00  0.00    -0.003 C 
ATOM      8  C   UNL     1       0.560  -4.500  -2.719  1.00  0.00     0.004 C 
ENDBRANCH   6   7
ENDBRANCH   1   6
TORSDOF 4
ENDMDL
MODEL 7
REMARK VINA RESULT:    -2.716      7.453      8.171
REMARK INTER + INTRA:          -3.495
REMARK INTER:                  -3.309
REMARK INTRA:                  -0.186
REMARK UNBOUND:                -0.144
REMARK SMILES CCCCCC(=O)[O-]
REMARK SMILES IDX 4 1 5 2 6 3 7 4 8 5 3 6 2 7 1 8
REMARK H PARENT
REMARK Flexibility Score: inf
ROOT
ATOM      1  C   UNL     1       0.335  -5.972  -2.281  1.00  0.00     0.006 C 
ENDROOT
BRANCH   1   2
ATOM      2  C   UNL     1       0.298  -4.462  -2.530  1.00  0.00     0.053 C 
BRANCH   2   3
ATOM      3  C   UNL     1       1.247  -4.089  -3.625  1.00  0.00     0.041 C 
ATOM      4  O   UNL     1       1.752  -2.937  -3.660  1.00  0.00    -0.550 OA
ATOM      5  O   UNL     1       1.611  -5.030  -4.580  1.00  0.00    -0.550 OA
ENDBRANCH   2   3
ENDBRANCH   1   2
BRANCH   1   6
ATOM      6  C   UNL     1       1.188  -6.306  -1.051  1.00  0.00     0.000 C 
BRANCH   6   7
ATOM      7  C   UNL     1       1.832  -7.691  -1.188  1.00  0.00    -0.003 C 
ATOM      8  C   UNL     1       2.402  -7.899  -2.588  1.00  0.00     0.004 C 
ENDBRANCH   6   7
ENDBRANCH   1   6
TORSDOF 4
ENDMDL
MODEL 8
REMARK VINA RESULT:    -2.703      6.599      7.378
REMARK INTER + INTRA:          -3.479
REMARK INTER:                  -3.378
REMARK INTRA:                  -0.101
REMARK UNBOUND:                -0.144
REMARK SMILES CCCCCC(=O)[O-]
REMARK SMILES IDX 4 1 5 2 6 3 7 4 8 5 3 6 2 7 1 8
REMARK H PARENT
REMARK Flexibility Score: inf
ROOT
ATOM      1  C   UNL     1       2.255  -2.425  -3.868  1.00  0.00     0.006 C 
ENDROOT
BRANCH   1   2
ATOM      2  C   UNL     1       1.860  -3.746  -4.534  1.00  0.00     0.053 C 
BRANCH   2   3
ATOM      3  C   UNL     1       1.228  -4.666  -3.538  1.00  0.00     0.041 C 
ATOM      4  O   UNL     1       0.302  -4.253  -2.792  1.00  0.00    -0.550 OA
ATOM      5  O   UNL     1       1.628  -5.995  -3.468  1.00  0.00    -0.550 OA
ENDBRANCH   2   3
ENDBRANCH   1   2
BRANCH   1   6
ATOM      6  C   UNL     1       2.633  -1.372  -4.915  1.00  0.00     0.000 C 
BRANCH   6   7
ATOM      7  C   UNL     1       4.151  -1.164  -4.964  1.00  0.00    -0.003 C 
ATOM      8  C   UNL     1       4.784  -1.976  -6.091  1.00  0.00     0.004 C 
ENDBRANCH   6   7
ENDBRANCH   1   6
TORSDOF 4
ENDMDL
MODEL 9
REMARK VINA RESULT:    -2.691     11.936     12.501
REMARK INTER + INTRA:          -3.465
REMARK INTER:                  -3.348
REMARK INTRA:                  -0.117
REMARK UNBOUND:                -0.144
REMARK SMILES CCCCCC(=O)[O-]
REMARK SMILES IDX 4 1 5 2 6 3 7 4 8 5 3 6 2 7 1 8
REMARK H PARENT
REMARK Flexibility Score: inf
ROOT
ATOM      1  C   UNL     1      -3.631  -6.186   4.490  1.00  0.00     0.006 C 
ENDROOT
BRANCH   1   2
ATOM      2  C   UNL     1      -4.210  -4.794   4.761  1.00  0.00     0.053 C 
BRANCH   2   3
ATOM      3  C   UNL     1      -5.067  -4.813   5.987  1.00  0.00     0.041 C 
ATOM      4  O   UNL     1      -4.732  -4.152   7.004  1.00  0.00    -0.550 OA
ATOM      5  O   UNL     1      -6.262  -5.522   5.989  1.00  0.00    -0.550 OA
ENDBRANCH   2   3
ENDBRANCH   1   2
BRANCH   1   6
ATOM      6  C   UNL     1      -2.123  -6.217   4.763  1.00  0.00     0.000 C 
BRANCH   6   7
ATOM      7  C   UNL     1      -1.834  -6.623   6.213  1.00  0.00    -0.003 C 
ATOM      8  C   UNL     1      -1.187  -8.003   6.281  1.00  0.00     0.004 C 
ENDBRANCH   6   7
ENDBRANCH   1   6
TORSDOF 4
ENDMDL
