MODEL 1
REMARK VINA RESULT:    -3.203      0.000      0.000
REMARK INTER + INTRA:          -3.498
REMARK INTER:                  -3.484
REMARK INTRA:                  -0.015
REMARK UNBOUND:                -0.015
REMARK SMILES OCc1ccco1
REMARK SMILES IDX 2 1 3 2 5 3 6 4 4 5 7 6 1 7
REMARK H PARENT 1 8
REMARK Flexibility Score: inf
ROOT
ATOM      1  C   UNL     1      47.436 -28.180 -32.139  1.00  0.00     0.231 C 
ENDROOT
BRANCH   1   2
ATOM      2  C   UNL     1      48.924 -28.305 -32.052  1.00  0.00     0.129 A 
ATOM      3  C   UNL     1      51.068 -28.214 -32.513  1.00  0.00     0.042 A 
ATOM      4  C   UNL     1      50.845 -28.852 -31.309  1.00  0.00     0.195 A 
ATOM      5  C   UNL     1      49.827 -27.862 -32.997  1.00  0.00     0.048 A 
ATOM      6  O   UNL     1      49.555 -28.892 -31.063  1.00  0.00    -0.467 OA
ENDBRANCH   1   2
BRANCH   1   7
ATOM      7  O   UNL     1      47.090 -26.996 -32.804  1.00  0.00    -0.388 OA
ATOM      8  H   UNL     1      46.965 -26.304 -32.103  1.00  0.00     0.211 HD
ENDBRANCH   1   7
TORSDOF 2
ENDMDL
MODEL 2
REMARK VINA RESULT:    -3.157      1.214      1.618
REMARK INTER + INTRA:          -3.448
REMARK INTER:                  -3.427
REMARK INTRA:                  -0.021
REMARK UNBOUND:                -0.015
REMARK SMILES OCc1ccco1
REMARK SMILES IDX 2 1 3 2 5 3 6 4 4 5 7 6 1 7
REMARK H PARENT 1 8
REMARK Flexibility Score: inf
ROOT
ATOM      1  C   UNL     1      46.897 -28.541 -31.757  1.00  0.00     0.231 C 
ENDROOT
BRANCH   1   2
ATOM      2  C   UNL     1      48.342 -28.383 -32.108  1.00  0.00     0.129 A 
ATOM      3  C   UNL     1      50.535 -28.345 -32.007  1.00  0.00     0.042 A 
ATOM      4  C   UNL     1      50.085 -27.879 -33.227  1.00  0.00     0.195 A 
ATOM      5  C   UNL     1      49.410 -28.669 -31.281  1.00  0.00     0.048 A 
ATOM      6  O   UNL     1      48.773 -27.912 -33.255  1.00  0.00    -0.467 OA
ENDBRANCH   1   2
BRANCH   1   7
ATOM      7  O   UNL     1      46.113 -27.694 -32.551  1.00  0.00    -0.388 OA
ATOM      8  H   UNL     1      46.741 -27.180 -33.122  1.00  0.00     0.211 HD
ENDBRANCH   1   7
TORSDOF 2
ENDMDL
MODEL 3
REMARK VINA RESULT:    -3.132      1.617      3.091
REMARK INTER + INTRA:          -3.421
REMARK INTER:                  -3.406
REMARK INTRA:                  -0.015
REMARK UNBOUND:                -0.015
REMARK SMILES OCc1ccco1
REMARK SMILES IDX 2 1 3 2 5 3 6 4 4 5 7 6 1 7
REMARK H PARENT 1 8
REMARK Flexibility Score: inf
ROOT
ATOM      1  C   UNL     1      50.336 -27.942 -32.705  1.00  0.00     0.231 C 
ENDROOT
BRANCH   1   2
ATOM      2  C   UNL     1      48.952 -27.824 -32.150  1.00  0.00     0.129 A 
ATOM      3  C   UNL     1      46.820 -28.152 -31.737  1.00  0.00     0.042 A 
ATOM      4  C   UNL     1      47.296 -27.050 -31.054  1.00  0.00     0.195 A 
ATOM      5  C   UNL     1      47.889 -28.652 -32.449  1.00  0.00     0.048 A 
ATOM      6  O   UNL     1      48.570 -26.879 -31.323  1.00  0.00    -0.467 OA
ENDBRANCH   1   2
BRANCH   1   7
ATOM      7  O   UNL     1      50.283 -28.327 -34.051  1.00  0.00    -0.388 OA
ATOM      8  H   UNL     1      49.729 -27.649 -34.518  1.00  0.00     0.211 HD
ENDBRANCH   1   7
TORSDOF 2
ENDMDL
MODEL 4
REMARK VINA RESULT:    -3.080     15.695     16.385
REMARK INTER + INTRA:          -3.365
REMARK INTER:                  -3.344
REMARK INTRA:                  -0.021
REMARK UNBOUND:                -0.015
REMARK SMILES OCc1ccco1
REMARK SMILES IDX 2 1 3 2 5 3 6 4 4 5 7 6 1 7
REMARK H PARENT 1 8
REMARK Flexibility Score: inf
ROOT
ATOM      1  C   UNL     1      38.540 -41.706 -30.506  1.00  0.00     0.231 C 
ENDROOT
BRANCH   1   2
ATOM      2  C   UNL     1      38.987 -40.776 -29.423  1.00  0.00     0.129 A 
ATOM      3  C   UNL     1      39.130 -39.071 -28.047  1.00  0.00     0.042 A 
ATOM      4  C   UNL     1      40.186 -39.944 -27.869  1.00  0.00     0.195 A 
ATOM      5  C   UNL     1      38.356 -39.606 -29.053  1.00  0.00     0.048 A 
ATOM      6  O   UNL     1      40.073 -40.949 -28.707  1.00  0.00    -0.467 OA
ENDBRANCH   1   2
BRANCH   1   7
ATOM      7  O   UNL     1      39.622 -42.474 -30.957  1.00  0.00    -0.388 OA
ATOM      8  H   UNL     1      39.623 -42.407 -31.948  1.00  0.00     0.211 HD
ENDBRANCH   1   7
TORSDOF 2
ENDMDL
MODEL 5
REMARK VINA RESULT:    -3.028     13.296     13.795
REMARK INTER + INTRA:          -3.308
REMARK INTER:                  -3.293
REMARK INTRA:                  -0.016
REMARK UNBOUND:                -0.015
REMARK SMILES OCc1ccco1
REMARK SMILES IDX 2 1 3 2 5 3 6 4 4 5 7 6 1 7
REMARK H PARENT 1 8
REMARK Flexibility Score: inf
ROOT
ATOM      1  C   UNL     1      55.293 -40.404 -33.862  1.00  0.00     0.231 C 
ENDROOT
BRANCH   1   2
ATOM      2  C   UNL     1      54.567 -40.799 -32.616  1.00  0.00     0.129 A 
ATOM      3  C   UNL     1      52.989 -41.186 -31.139  1.00  0.00     0.042 A 
ATOM      4  C   UNL     1      54.239 -41.440 -30.610  1.00  0.00     0.195 A 
ATOM      5  C   UNL     1      53.199 -40.769 -32.435  1.00  0.00     0.048 A 
ATOM      6  O   UNL     1      55.160 -41.198 -31.515  1.00  0.00    -0.467 OA
ENDBRANCH   1   2
BRANCH   1   7
ATOM      7  O   UNL     1      54.389 -39.908 -34.810  1.00  0.00    -0.388 OA
ATOM      8  H   UNL     1      54.564 -40.400 -35.655  1.00  0.00     0.211 HD
ENDBRANCH   1   7
TORSDOF 2
ENDMDL
MODEL 6
REMARK VINA RESULT:    -3.024     13.051     13.882
REMARK INTER + INTRA:          -3.304
REMARK INTER:                  -3.288
REMARK INTRA:                  -0.016
REMARK UNBOUND:                -0.015
REMARK SMILES OCc1ccco1
REMARK SMILES IDX 2 1 3 2 5 3 6 4 4 5 7 6 1 7
REMARK H PARENT 1 8
REMARK Flexibility Score: inf
ROOT
ATOM      1  C   UNL     1      55.094 -40.313 -32.779  1.00  0.00     0.231 C 
ENDROOT
BRANCH   1   2
ATOM      2  C   UNL     1      54.193 -41.029 -31.824  1.00  0.00     0.129 A 
ATOM      3  C   UNL     1      52.423 -41.707 -30.716  1.00  0.00     0.042 A 
ATOM      4  C   UNL     1      53.573 -42.296 -30.226  1.00  0.00     0.195 A 
ATOM      5  C   UNL     1      52.822 -40.886 -31.747  1.00  0.00     0.048 A 
ATOM      6  O   UNL     1      54.612 -41.869 -30.907  1.00  0.00    -0.467 OA
ENDBRANCH   1   2
BRANCH   1   7
ATOM      7  O   UNL     1      54.477 -39.143 -33.239  1.00  0.00    -0.388 OA
ATOM      8  H   UNL     1      54.886 -38.934 -34.120  1.00  0.00     0.211 HD
ENDBRANCH   1   7
TORSDOF 2
ENDMDL
MODEL 7
REMARK VINA RESULT:    -2.971     16.503     17.445
REMARK INTER + INTRA:          -3.246
REMARK INTER:                  -3.233
REMARK INTRA:                  -0.013
REMARK UNBOUND:                -0.015
REMARK SMILES OCc1ccco1
REMARK SMILES IDX 2 1 3 2 5 3 6 4 4 5 7 6 1 7
REMARK H PARENT 1 8
REMARK Flexibility Score: inf
ROOT
ATOM      1  C   UNL     1      38.508 -39.760 -29.203  1.00  0.00     0.231 C 
ENDROOT
BRANCH   1   2
ATOM      2  C   UNL     1      38.504 -41.253 -29.277  1.00  0.00     0.129 A 
ATOM      3  C   UNL     1      38.653 -43.319 -30.005  1.00  0.00     0.042 A 
ATOM      4  C   UNL     1      38.239 -43.285 -28.688  1.00  0.00     0.195 A 
ATOM      5  C   UNL     1      38.822 -42.007 -30.388  1.00  0.00     0.048 A 
ATOM      6  O   UNL     1      38.158 -42.038 -28.283  1.00  0.00    -0.467 OA
ENDBRANCH   1   2
BRANCH   1   7
ATOM      7  O   UNL     1      39.725 -39.308 -28.676  1.00  0.00    -0.388 OA
ATOM      8  H   UNL     1      39.758 -38.328 -28.838  1.00  0.00     0.211 HD
ENDBRANCH   1   7
TORSDOF 2
ENDMDL
MODEL 8
REMARK VINA RESULT:    -2.964     13.222     13.953
REMARK INTER + INTRA:          -3.239
REMARK INTER:                  -3.221
REMARK INTRA:                  -0.018
REMARK UNBOUND:                -0.015
REMARK SMILES OCc1ccco1
REMARK SMILES IDX 2 1 3 2 5 3 6 4 4 5 7 6 1 7
REMARK H PARENT 1 8
REMARK Flexibility Score: inf
ROOT
ATOM      1  C   UNL     1      54.940 -40.395 -33.197  1.00  0.00     0.231 C 
ENDROOT
BRANCH   1   2
ATOM      2  C   UNL     1      55.497 -40.626 -31.829  1.00  0.00     0.129 A 
ATOM      3  C   UNL     1      55.918 -41.479 -29.850  1.00  0.00     0.042 A 
ATOM      4  C   UNL     1      56.589 -40.285 -30.030  1.00  0.00     0.195 A 
ATOM      5  C   UNL     1      55.210 -41.699 -31.011  1.00  0.00     0.048 A 
ATOM      6  O   UNL     1      56.315 -39.800 -31.220  1.00  0.00    -0.467 OA
ENDBRANCH   1   2
BRANCH   1   7
ATOM      7  O   UNL     1      54.359 -39.123 -33.273  1.00  0.00    -0.388 OA
ATOM      8  H   UNL     1      53.983 -38.929 -32.374  1.00  0.00     0.211 HD
ENDBRANCH   1   7
TORSDOF 2
ENDMDL
MODEL 9
REMARK VINA RESULT:    -2.950      2.027      2.687
REMARK INTER + INTRA:          -3.223
REMARK INTER:                  -3.209
REMARK INTRA:                  -0.014
REMARK UNBOUND:                -0.015
REMARK SMILES OCc1ccco1
REMARK SMILES IDX 2 1 3 2 5 3 6 4 4 5 7 6 1 7
REMARK H PARENT 1 8
REMARK Flexibility Score: inf
ROOT
ATOM      1  C   UNL     1      50.120 -27.882 -32.716  1.00  0.00     0.231 C 
ENDROOT
BRANCH   1   2
ATOM      2  C   UNL     1      51.377 -28.282 -32.011  1.00  0.00     0.129 A 
ATOM      3  C   UNL     1      53.437 -28.321 -31.253  1.00  0.00     0.042 A 
ATOM      4  C   UNL     1      52.745 -29.453 -30.871  1.00  0.00     0.195 A 
ATOM      5  C   UNL     1      52.555 -27.564 -31.992  1.00  0.00     0.048 A 
ATOM      6  O   UNL     1      51.519 -29.401 -31.340  1.00  0.00    -0.467 OA
ENDBRANCH   1   2
BRANCH   1   7
ATOM      7  O   UNL     1      50.207 -28.208 -34.076  1.00  0.00    -0.388 OA
ATOM      8  H   UNL     1      49.537 -27.645 -34.546  1.00  0.00     0.211 HD
ENDBRANCH   1   7
TORSDOF 2
ENDMDL
