MODEL 1
REMARK VINA RESULT:    -5.059      0.000      0.000
REMARK INTER + INTRA:          -5.599
REMARK INTER:                  -5.355
REMARK INTRA:                  -0.244
REMARK UNBOUND:                -0.244
REMARK SMILES C=C1CC[C@@]2(C(C)C)C[C@@H]12
REMARK SMILES IDX 5 1 4 2 3 3 2 4 1 5 10 6 9 7 6 8 7 9 8 10
REMARK H PARENT
REMARK Flexibility Score: inf
ROOT
ATOM      1  C   UNL     1      -1.043   1.577  13.165  1.00  0.00    -0.020 C 
ATOM      2  C   UNL     1      -1.068   0.843  11.812  1.00  0.00     0.012 C 
ATOM      3  C   UNL     1      -1.364   1.887  10.735  1.00  0.00     0.031 C 
ATOM      4  C   UNL     1      -1.412   3.189  11.461  1.00  0.00    -0.074 C 
ATOM      5  C   UNL     1      -1.596   4.361  10.849  1.00  0.00     0.008 C 
ATOM      6  C   UNL     1      -1.229   3.067  12.931  1.00  0.00     0.021 C 
ATOM      7  C   UNL     1       0.123   2.536  13.397  1.00  0.00     0.016 C 
ENDROOT
BRANCH   1   8
ATOM      8  C   UNL     1      -1.723   0.986  14.425  1.00  0.00    -0.011 C 
ATOM      9  C   UNL     1      -2.125  -0.471  14.177  1.00  0.00     0.008 C 
ATOM     10  C   UNL     1      -2.938   1.818  14.854  1.00  0.00     0.008 C 
ENDBRANCH   1   8
TORSDOF 1
ENDMDL
MODEL 2
REMARK VINA RESULT:    -4.652      0.819      3.878
REMARK INTER + INTRA:          -5.168
REMARK INTER:                  -4.960
REMARK INTRA:                  -0.207
REMARK UNBOUND:                -0.244
REMARK SMILES C=C1CC[C@@]2(C(C)C)C[C@@H]12
REMARK SMILES IDX 5 1 4 2 3 3 2 4 1 5 10 6 9 7 6 8 7 9 8 10
REMARK H PARENT
REMARK Flexibility Score: inf
ROOT
ATOM      1  C   UNL     1      -1.344   2.809  13.319  1.00  0.00    -0.020 C 
ATOM      2  C   UNL     1      -2.442   2.866  14.396  1.00  0.00     0.012 C 
ATOM      3  C   UNL     1      -2.762   1.426  14.796  1.00  0.00     0.031 C 
ATOM      4  C   UNL     1      -1.799   0.588  14.025  1.00  0.00    -0.074 C 
ATOM      5  C   UNL     1      -1.725  -0.740  14.144  1.00  0.00     0.008 C 
ATOM      6  C   UNL     1      -0.919   1.364  13.113  1.00  0.00     0.021 C 
ATOM      7  C   UNL     1       0.037   2.348  13.781  1.00  0.00     0.016 C 
ENDROOT
BRANCH   1   8
ATOM      8  C   UNL     1      -1.397   3.701  12.055  1.00  0.00    -0.011 C 
ATOM      9  C   UNL     1      -2.569   4.682  12.144  1.00  0.00     0.008 C 
ATOM     10  C   UNL     1      -1.491   2.860  10.774  1.00  0.00     0.008 C 
ENDBRANCH   1   8
TORSDOF 1
ENDMDL
MODEL 3
REMARK VINA RESULT:    -4.338      1.732      2.872
REMARK INTER + INTRA:          -4.835
REMARK INTER:                  -4.559
REMARK INTRA:                  -0.276
REMARK UNBOUND:                -0.244
REMARK SMILES C=C1CC[C@@]2(C(C)C)C[C@@H]12
REMARK SMILES IDX 5 1 4 2 3 3 2 4 1 5 10 6 9 7 6 8 7 9 8 10
REMARK H PARENT
REMARK Flexibility Score: inf
ROOT
ATOM      1  C   UNL     1      -1.810   1.601  14.440  1.00  0.00    -0.020 C 
ATOM      2  C   UNL     1      -0.503   1.915  15.189  1.00  0.00     0.012 C 
ATOM      3  C   UNL     1      -0.190   3.394  14.959  1.00  0.00     0.031 C 
ATOM      4  C   UNL     1      -1.346   3.915  14.174  1.00  0.00    -0.074 C 
ATOM      5  C   UNL     1      -1.472   5.196  13.819  1.00  0.00     0.008 C 
ATOM      6  C   UNL     1      -2.356   2.881  13.827  1.00  0.00     0.021 C 
ATOM      7  C   UNL     1      -3.083   2.232  15.001  1.00  0.00     0.016 C 
ENDROOT
BRANCH   1   8
ATOM      8  C   UNL     1      -1.980   0.308  13.606  1.00  0.00    -0.011 C 
ATOM      9  C   UNL     1      -1.518  -0.910  14.412  1.00  0.00     0.008 C 
ATOM     10  C   UNL     1      -1.226   0.393  12.272  1.00  0.00     0.008 C 
ENDBRANCH   1   8
TORSDOF 1
ENDMDL
MODEL 4
REMARK VINA RESULT:    -4.286      1.467      3.671
REMARK INTER + INTRA:          -4.780
REMARK INTER:                  -4.541
REMARK INTRA:                  -0.239
REMARK UNBOUND:                -0.244
REMARK SMILES C=C1CC[C@@]2(C(C)C)C[C@@H]12
REMARK SMILES IDX 5 1 4 2 3 3 2 4 1 5 10 6 9 7 6 8 7 9 8 10
REMARK H PARENT
REMARK Flexibility Score: inf
ROOT
ATOM      1  C   UNL     1      -1.617   2.039  13.904  1.00  0.00    -0.020 C 
ATOM      2  C   UNL     1      -1.430   1.769  12.400  1.00  0.00     0.012 C 
ATOM      3  C   UNL     1      -1.239   0.261  12.230  1.00  0.00     0.031 C 
ATOM      4  C   UNL     1      -1.407  -0.307  13.598  1.00  0.00    -0.074 C 
ATOM      5  C   UNL     1      -1.365  -1.616  13.858  1.00  0.00     0.008 C 
ATOM      6  C   UNL     1      -1.634   0.716  14.653  1.00  0.00     0.021 C 
ATOM      7  C   UNL     1      -2.916   1.534  14.529  1.00  0.00     0.016 C 
ENDROOT
BRANCH   1   8
ATOM      8  C   UNL     1      -0.916   3.224  14.611  1.00  0.00    -0.011 C 
ATOM      9  C   UNL     1      -1.242   4.539  13.896  1.00  0.00     0.008 C 
ATOM     10  C   UNL     1       0.602   3.014  14.694  1.00  0.00     0.008 C 
ENDBRANCH   1   8
TORSDOF 1
ENDMDL
MODEL 5
REMARK VINA RESULT:    -4.145      1.678      2.252
REMARK INTER + INTRA:          -4.631
REMARK INTER:                  -4.320
REMARK INTRA:                  -0.310
REMARK UNBOUND:                -0.244
REMARK SMILES C=C1CC[C@@]2(C(C)C)C[C@@H]12
REMARK SMILES IDX 5 1 4 2 3 3 2 4 1 5 10 6 9 7 6 8 7 9 8 10
REMARK H PARENT
REMARK Flexibility Score: inf
ROOT
ATOM      1  C   UNL     1      -1.387   3.864  13.380  1.00  0.00    -0.020 C 
ATOM      2  C   UNL     1      -0.590   3.066  12.332  1.00  0.00     0.012 C 
ATOM      3  C   UNL     1      -1.310   3.228  10.993  1.00  0.00     0.031 C 
ATOM      4  C   UNL     1      -2.432   4.171  11.270  1.00  0.00    -0.074 C 
ATOM      5  C   UNL     1      -3.269   4.609  10.326  1.00  0.00     0.008 C 
ATOM      6  C   UNL     1      -2.533   4.588  12.693  1.00  0.00     0.021 C 
ATOM      7  C   UNL     1      -1.355   5.384  13.244  1.00  0.00     0.016 C 
ENDROOT
BRANCH   1   8
ATOM      8  C   UNL     1      -1.676   3.294  14.790  1.00  0.00    -0.011 C 
ATOM      9  C   UNL     1      -0.483   2.469  15.285  1.00  0.00     0.008 C 
ATOM     10  C   UNL     1      -2.960   2.454  14.808  1.00  0.00     0.008 C 
ENDBRANCH   1   8
TORSDOF 1
ENDMDL
MODEL 6
REMARK VINA RESULT:    -3.996      1.688      4.282
REMARK INTER + INTRA:          -4.474
REMARK INTER:                  -4.161
REMARK INTRA:                  -0.312
REMARK UNBOUND:                -0.244
REMARK SMILES C=C1CC[C@@]2(C(C)C)C[C@@H]12
REMARK SMILES IDX 5 1 4 2 3 3 2 4 1 5 10 6 9 7 6 8 7 9 8 10
REMARK H PARENT
REMARK Flexibility Score: inf
ROOT
ATOM      1  C   UNL     1      -0.760   3.927  12.182  1.00  0.00    -0.020 C 
ATOM      2  C   UNL     1      -0.478   5.043  13.204  1.00  0.00     0.012 C 
ATOM      3  C   UNL     1      -1.116   4.618  14.528  1.00  0.00     0.031 C 
ATOM      4  C   UNL     1      -1.662   3.255  14.273  1.00  0.00    -0.074 C 
ATOM      5  C   UNL     1      -2.255   2.517  15.215  1.00  0.00     0.008 C 
ATOM      6  C   UNL     1      -1.482   2.783  12.876  1.00  0.00     0.021 C 
ATOM      7  C   UNL     1      -0.041   2.599  12.410  1.00  0.00     0.016 C 
ENDROOT
BRANCH   1   8
ATOM      8  C   UNL     1      -1.200   4.243  10.732  1.00  0.00    -0.011 C 
ATOM      9  C   UNL     1      -0.555   5.548  10.254  1.00  0.00     0.008 C 
ATOM     10  C   UNL     1      -2.728   4.317  10.608  1.00  0.00     0.008 C 
ENDBRANCH   1   8
TORSDOF 1
ENDMDL
MODEL 7
REMARK VINA RESULT:    -3.950      1.163      2.659
REMARK INTER + INTRA:          -4.425
REMARK INTER:                  -4.177
REMARK INTRA:                  -0.248
REMARK UNBOUND:                -0.244
REMARK SMILES C=C1CC[C@@]2(C(C)C)C[C@@H]12
REMARK SMILES IDX 5 1 4 2 3 3 2 4 1 5 10 6 9 7 6 8 7 9 8 10
REMARK H PARENT
REMARK Flexibility Score: inf
ROOT
ATOM      1  C   UNL     1      -1.355   3.027  12.238  1.00  0.00    -0.020 C 
ATOM      2  C   UNL     1      -2.419   4.065  12.636  1.00  0.00     0.012 C 
ATOM      3  C   UNL     1      -2.155   5.325  11.811  1.00  0.00     0.031 C 
ATOM      4  C   UNL     1      -1.025   4.965  10.907  1.00  0.00    -0.074 C 
ATOM      5  C   UNL     1      -0.533   5.795   9.984  1.00  0.00     0.008 C 
ATOM      6  C   UNL     1      -0.496   3.592  11.119  1.00  0.00     0.021 C 
ATOM      7  C   UNL     1      -1.463   2.449  10.829  1.00  0.00     0.016 C 
ENDROOT
BRANCH   1   8
ATOM      8  C   UNL     1      -0.628   2.159  13.295  1.00  0.00    -0.011 C 
ATOM      9  C   UNL     1      -1.648   1.447  14.190  1.00  0.00     0.008 C 
ATOM     10  C   UNL     1       0.344   2.994  14.140  1.00  0.00     0.008 C 
ENDBRANCH   1   8
TORSDOF 1
ENDMDL
MODEL 8
REMARK VINA RESULT:    -3.884      1.683      3.548
REMARK INTER + INTRA:          -4.355
REMARK INTER:                  -4.049
REMARK INTRA:                  -0.306
REMARK UNBOUND:                -0.244
REMARK SMILES C=C1CC[C@@]2(C(C)C)C[C@@H]12
REMARK SMILES IDX 5 1 4 2 3 3 2 4 1 5 10 6 9 7 6 8 7 9 8 10
REMARK H PARENT
REMARK Flexibility Score: inf
ROOT
ATOM      1  C   UNL     1      -1.465   3.799  13.505  1.00  0.00    -0.020 C 
ATOM      2  C   UNL     1      -1.718   4.225  12.048  1.00  0.00     0.012 C 
ATOM      3  C   UNL     1      -1.477   2.999  11.167  1.00  0.00     0.031 C 
ATOM      4  C   UNL     1      -1.185   1.890  12.120  1.00  0.00    -0.074 C 
ATOM      5  C   UNL     1      -0.972   0.630  11.733  1.00  0.00     0.008 C 
ATOM      6  C   UNL     1      -1.160   2.310  13.545  1.00  0.00     0.021 C 
ATOM      7  C   UNL     1      -2.476   2.830  14.115  1.00  0.00     0.016 C 
ENDROOT
BRANCH   1   8
ATOM      8  C   UNL     1      -0.672   4.693  14.489  1.00  0.00    -0.011 C 
ATOM      9  C   UNL     1      -1.031   6.167  14.275  1.00  0.00     0.008 C 
ATOM     10  C   UNL     1       0.841   4.479  14.353  1.00  0.00     0.008 C 
ENDBRANCH   1   8
TORSDOF 1
ENDMDL
MODEL 9
REMARK VINA RESULT:    -3.690      2.020      3.236
REMARK INTER + INTRA:          -4.150
REMARK INTER:                  -3.861
REMARK INTRA:                  -0.289
REMARK UNBOUND:                -0.244
REMARK SMILES C=C1CC[C@@]2(C(C)C)C[C@@H]12
REMARK SMILES IDX 5 1 4 2 3 3 2 4 1 5 10 6 9 7 6 8 7 9 8 10
REMARK H PARENT
REMARK Flexibility Score: inf
ROOT
ATOM      1  C   UNL     1      -1.567   3.475  13.827  1.00  0.00    -0.020 C 
ATOM      2  C   UNL     1      -1.010   3.997  15.163  1.00  0.00     0.012 C 
ATOM      3  C   UNL     1      -0.097   5.181  14.843  1.00  0.00     0.031 C 
ATOM      4  C   UNL     1      -0.216   5.372  13.369  1.00  0.00    -0.074 C 
ATOM      5  C   UNL     1       0.398   6.357  12.707  1.00  0.00     0.008 C 
ATOM      6  C   UNL     1      -1.086   4.371  12.698  1.00  0.00     0.021 C 
ATOM      7  C   UNL     1      -2.557   4.384  13.102  1.00  0.00     0.016 C 
ENDROOT
BRANCH   1   8
ATOM      8  C   UNL     1      -1.653   1.960  13.518  1.00  0.00    -0.011 C 
ATOM      9  C   UNL     1      -1.608   1.148  14.816  1.00  0.00     0.008 C 
ATOM     10  C   UNL     1      -0.539   1.514  12.561  1.00  0.00     0.008 C 
ENDBRANCH   1   8
TORSDOF 1
ENDMDL
