MODEL 1
REMARK VINA RESULT:    -3.858      0.000      0.000
REMARK INTER + INTRA:          -4.614
REMARK INTER:                  -4.760
REMARK INTRA:                   0.146
REMARK UNBOUND:                 0.146
REMARK SMILES Oc1cc(O)c2cc(O)c(-c3cc(O)c(O)c(O)c3)[o+]c2c1
REMARK SMILES IDX 10 1 20 2 21 3 22 4 2 5 3 6 4 7 6 8 7 9 8 10 11 11 12 12
REMARK SMILES IDX 13 13 19 14 15 15 17 16 14 17 16 19 18 21 9 23 1 25 5 27
REMARK H PARENT 14 18 16 20 18 22 9 24 1 26 5 28
REMARK Flexibility Score: inf
ROOT
ATOM      1  C   UNL     1       0.756   2.850  23.713  1.00  0.00     0.402 A 
ATOM      2  O   UNL     1       0.594   4.010  23.081  1.00  0.00    -0.202 OA
ATOM      3  C   UNL     1       0.977   5.176  23.589  1.00  0.00     0.368 A 
ATOM      4  C   UNL     1       0.761   6.343  22.849  1.00  0.00     0.162 A 
ATOM      5  C   UNL     1       1.150   7.582  23.358  1.00  0.00     0.128 A 
ATOM      6  C   UNL     1       1.761   7.659  24.615  1.00  0.00     0.093 A 
ATOM      7  C   UNL     1       1.989   6.505  25.375  1.00  0.00     0.136 A 
ATOM      8  C   UNL     1       1.596   5.242  24.860  1.00  0.00     0.125 A 
ATOM      9  C   UNL     1       1.796   4.033  25.545  1.00  0.00     0.078 A 
ATOM     10  C   UNL     1       1.387   2.825  24.971  1.00  0.00     0.223 A 
ENDROOT
BRANCH   1  11
ATOM     11  C   UNL     1       0.278   1.616  23.048  1.00  0.00     0.091 A 
ATOM     12  C   UNL     1      -0.197   0.523  23.790  1.00  0.00     0.068 A 
ATOM     13  C   UNL     1      -0.670  -0.629  23.150  1.00  0.00     0.162 A 
ATOM     14  C   UNL     1       0.241   1.557  21.649  1.00  0.00     0.068 A 
ATOM     15  C   UNL     1      -0.678  -0.692  21.736  1.00  0.00     0.200 A 
ATOM     16  C   UNL     1      -0.223   0.414  20.994  1.00  0.00     0.162 A 
BRANCH  13  17
ATOM     17  O   UNL     1      -1.125  -1.677  23.955  1.00  0.00    -0.504 OA
ATOM     18  H   UNL     1      -2.093  -1.825  24.199  1.00  0.00     0.293 HD
ENDBRANCH  13  17
BRANCH  15  19
ATOM     19  O   UNL     1      -1.125  -1.820  21.042  1.00  0.00    -0.502 OA
ATOM     20  H   UNL     1      -1.022  -1.952  20.046  1.00  0.00     0.293 HD
ENDBRANCH  15  19
BRANCH  16  21
ATOM     21  O   UNL     1      -0.225   0.395  19.599  1.00  0.00    -0.504 OA
ATOM     22  H   UNL     1      -0.436  -0.442  19.069  1.00  0.00     0.293 HD
ENDBRANCH  16  21
ENDBRANCH   1  11
BRANCH  10  23
ATOM     23  O   UNL     1       1.630   1.620  25.629  1.00  0.00    -0.500 OA
ATOM     24  H   UNL     1       2.200   1.575  26.464  1.00  0.00     0.294 HD
ENDBRANCH  10  23
BRANCH   5  25
ATOM     25  O   UNL     1       0.927   8.733  22.607  1.00  0.00    -0.507 OA
ATOM     26  H   UNL     1       0.587   8.687  21.653  1.00  0.00     0.293 HD
ENDBRANCH   5  25
BRANCH   7  27
ATOM     27  O   UNL     1       2.600   6.666  26.622  1.00  0.00    -0.507 OA
ATOM     28  H   UNL     1       2.590   7.523  27.155  1.00  0.00     0.293 HD
ENDBRANCH   7  27
TORSDOF 7
ENDMDL
MODEL 2
REMARK VINA RESULT:    -3.823      0.172      1.813
REMARK INTER + INTRA:          -4.571
REMARK INTER:                  -4.784
REMARK INTRA:                   0.212
REMARK UNBOUND:                 0.146
REMARK SMILES Oc1cc(O)c2cc(O)c(-c3cc(O)c(O)c(O)c3)[o+]c2c1
REMARK SMILES IDX 10 1 20 2 21 3 22 4 2 5 3 6 4 7 6 8 7 9 8 10 11 11 12 12
REMARK SMILES IDX 13 13 19 14 15 15 17 16 14 17 16 19 18 21 9 23 1 25 5 27
REMARK H PARENT 14 18 16 20 18 22 9 24 1 26 5 28
REMARK Flexibility Score: inf
ROOT
ATOM      1  C   UNL     1       0.790   2.910  23.744  1.00  0.00     0.402 A 
ATOM      2  O   UNL     1       0.656   4.099  23.162  1.00  0.00    -0.202 OA
ATOM      3  C   UNL     1       1.066   5.234  23.718  1.00  0.00     0.368 A 
ATOM      4  C   UNL     1       0.879   6.435  23.028  1.00  0.00     0.162 A 
ATOM      5  C   UNL     1       1.296   7.643  23.589  1.00  0.00     0.128 A 
ATOM      6  C   UNL     1       1.906   7.652  24.849  1.00  0.00     0.093 A 
ATOM      7  C   UNL     1       2.105   6.462  25.560  1.00  0.00     0.136 A 
ATOM      8  C   UNL     1       1.684   5.232  24.992  1.00  0.00     0.125 A 
ATOM      9  C   UNL     1       1.854   3.991  25.626  1.00  0.00     0.078 A 
ATOM     10  C   UNL     1       1.418   2.818  25.001  1.00  0.00     0.223 A 
ENDROOT
BRANCH   1  11
ATOM     11  C   UNL     1       0.284   1.717  23.028  1.00  0.00     0.091 A 
ATOM     12  C   UNL     1       0.317   1.637  21.626  1.00  0.00     0.068 A 
ATOM     13  C   UNL     1      -0.141   0.495  20.960  1.00  0.00     0.162 A 
ATOM     14  C   UNL     1      -0.183   0.620  23.761  1.00  0.00     0.068 A 
ATOM     15  C   UNL     1      -0.638  -0.600  21.708  1.00  0.00     0.200 A 
ATOM     16  C   UNL     1      -0.649  -0.527  23.113  1.00  0.00     0.162 A 
BRANCH  13  17
ATOM     17  O   UNL     1      -0.078   0.489  19.565  1.00  0.00    -0.504 OA
ATOM     18  H   UNL     1       0.068   1.313  19.000  1.00  0.00     0.293 HD
ENDBRANCH  13  17
BRANCH  15  19
ATOM     19  O   UNL     1      -1.122  -1.761  21.098  1.00  0.00    -0.502 OA
ATOM     20  H   UNL     1      -1.738  -2.423  21.547  1.00  0.00     0.293 HD
ENDBRANCH  15  19
BRANCH  16  21
ATOM     21  O   UNL     1      -1.120  -1.589  23.885  1.00  0.00    -0.504 OA
ATOM     22  H   UNL     1      -0.679  -1.865  24.754  1.00  0.00     0.293 HD
ENDBRANCH  16  21
ENDBRANCH   1  11
BRANCH  10  23
ATOM     23  O   UNL     1       1.632   1.581  25.608  1.00  0.00    -0.500 OA
ATOM     24  H   UNL     1       2.282   0.906  25.226  1.00  0.00     0.294 HD
ENDBRANCH  10  23
BRANCH   5  25
ATOM     25  O   UNL     1       1.101   8.829  22.886  1.00  0.00    -0.507 OA
ATOM     26  H   UNL     1       1.612   9.673  23.118  1.00  0.00     0.293 HD
ENDBRANCH   5  25
BRANCH   7  27
ATOM     27  O   UNL     1       2.718   6.557  26.813  1.00  0.00    -0.507 OA
ATOM     28  H   UNL     1       2.860   7.422  27.313  1.00  0.00     0.293 HD
ENDBRANCH   7  27
TORSDOF 7
ENDMDL
MODEL 3
REMARK VINA RESULT:    -3.707      5.662      7.986
REMARK INTER + INTRA:          -4.428
REMARK INTER:                  -4.821
REMARK INTRA:                   0.393
REMARK UNBOUND:                 0.146
REMARK SMILES Oc1cc(O)c2cc(O)c(-c3cc(O)c(O)c(O)c3)[o+]c2c1
REMARK SMILES IDX 10 1 20 2 21 3 22 4 2 5 3 6 4 7 6 8 7 9 8 10 11 11 12 12
REMARK SMILES IDX 13 13 19 14 15 15 17 16 14 17 16 19 18 21 9 23 1 25 5 27
REMARK H PARENT 14 18 16 20 18 22 9 24 1 26 5 28
REMARK Flexibility Score: inf
ROOT
ATOM      1  C   UNL     1      -0.989   2.928  17.139  1.00  0.00     0.402 A 
ATOM      2  O   UNL     1      -1.011   4.254  17.032  1.00  0.00    -0.202 OA
ATOM      3  C   UNL     1      -0.959   4.893  15.869  1.00  0.00     0.368 A 
ATOM      4  C   UNL     1      -0.986   6.290  15.859  1.00  0.00     0.162 A 
ATOM      5  C   UNL     1      -0.929   6.988  14.652  1.00  0.00     0.128 A 
ATOM      6  C   UNL     1      -0.846   6.286  13.444  1.00  0.00     0.093 A 
ATOM      7  C   UNL     1      -0.818   4.886  13.427  1.00  0.00     0.136 A 
ATOM      8  C   UNL     1      -0.877   4.172  14.653  1.00  0.00     0.125 A 
ATOM      9  C   UNL     1      -0.868   2.771  14.731  1.00  0.00     0.078 A 
ATOM     10  C   UNL     1      -0.934   2.137  15.975  1.00  0.00     0.223 A 
ENDROOT
BRANCH   1  11
ATOM     11  C   UNL     1      -1.042   2.332  18.494  1.00  0.00     0.091 A 
ATOM     12  C   UNL     1      -1.068   0.941  18.681  1.00  0.00     0.068 A 
ATOM     13  C   UNL     1      -1.094   0.388  19.966  1.00  0.00     0.162 A 
ATOM     14  C   UNL     1      -1.007   3.169  19.616  1.00  0.00     0.068 A 
ATOM     15  C   UNL     1      -1.087   1.241  21.096  1.00  0.00     0.200 A 
ATOM     16  C   UNL     1      -1.037   2.635  20.907  1.00  0.00     0.162 A 
BRANCH  13  17
ATOM     17  O   UNL     1      -1.120  -1.005  20.073  1.00  0.00    -0.504 OA
ATOM     18  H   UNL     1      -0.478  -1.622  19.598  1.00  0.00     0.293 HD
ENDBRANCH  13  17
BRANCH  15  19
ATOM     19  O   UNL     1      -1.125   0.749  22.403  1.00  0.00    -0.502 OA
ATOM     20  H   UNL     1      -0.311   0.451  22.922  1.00  0.00     0.293 HD
ENDBRANCH  15  19
BRANCH  16  21
ATOM     21  O   UNL     1      -1.017   3.508  21.995  1.00  0.00    -0.504 OA
ATOM     22  H   UNL     1      -0.675   3.231  22.906  1.00  0.00     0.293 HD
ENDBRANCH  16  21
ENDBRANCH   1  11
BRANCH  10  23
ATOM     23  O   UNL     1      -0.975   0.745  16.051  1.00  0.00    -0.500 OA
ATOM     24  H   UNL     1      -1.849   0.235  16.006  1.00  0.00     0.294 HD
ENDBRANCH  10  23
BRANCH   5  25
ATOM     25  O   UNL     1      -0.957   8.381  14.663  1.00  0.00    -0.507 OA
ATOM     26  H   UNL     1      -0.915   8.905  15.528  1.00  0.00     0.293 HD
ENDBRANCH   5  25
BRANCH   7  27
ATOM     27  O   UNL     1      -0.730   4.260  12.181  1.00  0.00    -0.507 OA
ATOM     28  H   UNL     1      -1.045   3.319  11.992  1.00  0.00     0.293 HD
ENDBRANCH   7  27
TORSDOF 7
ENDMDL
MODEL 4
REMARK VINA RESULT:    -3.688      1.095      3.140
REMARK INTER + INTRA:          -4.405
REMARK INTER:                  -4.320
REMARK INTRA:                  -0.086
REMARK UNBOUND:                 0.146
REMARK SMILES Oc1cc(O)c2cc(O)c(-c3cc(O)c(O)c(O)c3)[o+]c2c1
REMARK SMILES IDX 10 1 20 2 21 3 22 4 2 5 3 6 4 7 6 8 7 9 8 10 11 11 12 12
REMARK SMILES IDX 13 13 19 14 15 15 17 16 14 17 16 19 18 21 9 23 1 25 5 27
REMARK H PARENT 14 18 16 20 18 22 9 24 1 26 5 28
REMARK Flexibility Score: inf
ROOT
ATOM      1  C   UNL     1       0.351   3.538  22.901  1.00  0.00     0.402 A 
ATOM      2  O   UNL     1       1.214   3.669  23.906  1.00  0.00    -0.202 OA
ATOM      3  C   UNL     1       1.643   4.845  24.351  1.00  0.00     0.368 A 
ATOM      4  C   UNL     1       2.553   4.880  25.411  1.00  0.00     0.162 A 
ATOM      5  C   UNL     1       3.023   6.100  25.897  1.00  0.00     0.128 A 
ATOM      6  C   UNL     1       2.581   7.296  25.321  1.00  0.00     0.093 A 
ATOM      7  C   UNL     1       1.669   7.288  24.258  1.00  0.00     0.136 A 
ATOM      8  C   UNL     1       1.187   6.049  23.762  1.00  0.00     0.125 A 
ATOM      9  C   UNL     1       0.263   5.945  22.710  1.00  0.00     0.078 A 
ATOM     10  C   UNL     1      -0.170   4.688  22.278  1.00  0.00     0.223 A 
ENDROOT
BRANCH   1  11
ATOM     11  C   UNL     1      -0.044   2.171  22.489  1.00  0.00     0.091 A 
ATOM     12  C   UNL     1      -0.011   1.776  21.142  1.00  0.00     0.068 A 
ATOM     13  C   UNL     1      -0.362   0.474  20.766  1.00  0.00     0.162 A 
ATOM     14  C   UNL     1      -0.401   1.234  23.466  1.00  0.00     0.068 A 
ATOM     15  C   UNL     1      -0.750  -0.460  21.757  1.00  0.00     0.200 A 
ATOM     16  C   UNL     1      -0.760  -0.069  23.108  1.00  0.00     0.162 A 
BRANCH  13  17
ATOM     17  O   UNL     1      -0.306   0.155  19.408  1.00  0.00    -0.504 OA
ATOM     18  H   UNL     1       0.180  -0.646  19.033  1.00  0.00     0.293 HD
ENDBRANCH  13  17
BRANCH  15  19
ATOM     19  O   UNL     1      -1.125  -1.769  21.441  1.00  0.00    -0.502 OA
ATOM     20  H   UNL     1      -0.594  -2.382  20.839  1.00  0.00     0.293 HD
ENDBRANCH  15  19
BRANCH  16  21
ATOM     21  O   UNL     1      -1.125  -0.964  24.114  1.00  0.00    -0.504 OA
ATOM     22  H   UNL     1      -1.567  -1.852  23.914  1.00  0.00     0.293 HD
ENDBRANCH  16  21
ENDBRANCH   1  11
BRANCH  10  23
ATOM     23  O   UNL     1      -1.125   4.586  21.267  1.00  0.00    -0.500 OA
ATOM     24  H   UNL     1      -1.538   5.406  20.841  1.00  0.00     0.294 HD
ENDBRANCH  10  23
BRANCH   5  25
ATOM     25  O   UNL     1       3.929   6.115  26.955  1.00  0.00    -0.507 OA
ATOM     26  H   UNL     1       3.652   6.398  27.887  1.00  0.00     0.293 HD
ENDBRANCH   5  25
BRANCH   7  27
ATOM     27  O   UNL     1       1.279   8.525  23.736  1.00  0.00    -0.507 OA
ATOM     28  H   UNL     1       0.361   8.929  23.851  1.00  0.00     0.293 HD
ENDBRANCH   7  27
TORSDOF 7
ENDMDL
MODEL 5
REMARK VINA RESULT:    -3.512      4.758      7.956
REMARK INTER + INTRA:          -4.188
REMARK INTER:                  -4.658
REMARK INTRA:                   0.470
REMARK UNBOUND:                 0.146
REMARK SMILES Oc1cc(O)c2cc(O)c(-c3cc(O)c(O)c(O)c3)[o+]c2c1
REMARK SMILES IDX 10 1 20 2 21 3 22 4 2 5 3 6 4 7 6 8 7 9 8 10 11 11 12 12
REMARK SMILES IDX 13 13 19 14 15 15 17 16 14 17 16 19 18 21 9 23 1 25 5 27
REMARK H PARENT 14 18 16 20 18 22 9 24 1 26 5 28
REMARK Flexibility Score: inf
ROOT
ATOM      1  C   UNL     1      -1.086   2.583  18.012  1.00  0.00     0.402 A 
ATOM      2  O   UNL     1      -1.094   2.969  19.286  1.00  0.00    -0.202 OA
ATOM      3  C   UNL     1      -1.083   2.117  20.306  1.00  0.00     0.368 A 
ATOM      4  C   UNL     1      -1.095   2.619  21.611  1.00  0.00     0.162 A 
ATOM      5  C   UNL     1      -1.088   1.749  22.701  1.00  0.00     0.128 A 
ATOM      6  C   UNL     1      -1.068   0.366  22.489  1.00  0.00     0.093 A 
ATOM      7  C   UNL     1      -1.055  -0.162  21.192  1.00  0.00     0.136 A 
ATOM      8  C   UNL     1      -1.061   0.720  20.080  1.00  0.00     0.125 A 
ATOM      9  C   UNL     1      -1.036   0.281  18.746  1.00  0.00     0.078 A 
ATOM     10  C   UNL     1      -1.038   1.211  17.702  1.00  0.00     0.223 A 
ENDROOT
BRANCH   1  11
ATOM     11  C   UNL     1      -1.110   3.628  16.963  1.00  0.00     0.091 A 
ATOM     12  C   UNL     1      -1.117   4.993  17.291  1.00  0.00     0.068 A 
ATOM     13  C   UNL     1      -1.115   5.972  16.291  1.00  0.00     0.162 A 
ATOM     14  C   UNL     1      -1.065   3.251  15.615  1.00  0.00     0.068 A 
ATOM     15  C   UNL     1      -1.097   5.584  14.930  1.00  0.00     0.200 A 
ATOM     16  C   UNL     1      -1.067   4.216  14.604  1.00  0.00     0.162 A 
BRANCH  13  17
ATOM     17  O   UNL     1      -1.123   7.310  16.694  1.00  0.00    -0.504 OA
ATOM     18  H   UNL     1      -1.588   8.051  16.190  1.00  0.00     0.293 HD
ENDBRANCH  13  17
BRANCH  15  19
ATOM     19  O   UNL     1      -1.108   6.515  13.888  1.00  0.00    -0.502 OA
ATOM     20  H   UNL     1      -1.260   6.281  12.918  1.00  0.00     0.293 HD
ENDBRANCH  15  19
BRANCH  16  21
ATOM     21  O   UNL     1      -1.038   3.793  13.274  1.00  0.00    -0.504 OA
ATOM     22  H   UNL     1      -0.189   3.468  12.828  1.00  0.00     0.293 HD
ENDBRANCH  16  21
ENDBRANCH   1  11
BRANCH  10  23
ATOM     23  O   UNL     1      -0.962   0.777  16.379  1.00  0.00    -0.500 OA
ATOM     24  H   UNL     1      -0.350   1.221  15.706  1.00  0.00     0.294 HD
ENDBRANCH  10  23
BRANCH   5  25
ATOM     25  O   UNL     1      -1.100   2.269  23.993  1.00  0.00    -0.507 OA
ATOM     26  H   UNL     1      -0.371   2.046  24.661  1.00  0.00     0.293 HD
ENDBRANCH   5  25
BRANCH   7  27
ATOM     27  O   UNL     1      -1.038  -1.554  21.064  1.00  0.00    -0.507 OA
ATOM     28  H   UNL     1      -1.198  -2.049  20.199  1.00  0.00     0.293 HD
ENDBRANCH   7  27
TORSDOF 7
ENDMDL
MODEL 6
REMARK VINA RESULT:    -3.116      4.473      7.357
REMARK INTER + INTRA:          -3.700
REMARK INTER:                  -4.093
REMARK INTRA:                   0.393
REMARK UNBOUND:                 0.146
REMARK SMILES Oc1cc(O)c2cc(O)c(-c3cc(O)c(O)c(O)c3)[o+]c2c1
REMARK SMILES IDX 10 1 20 2 21 3 22 4 2 5 3 6 4 7 6 8 7 9 8 10 11 11 12 12
REMARK SMILES IDX 13 13 19 14 15 15 17 16 14 17 16 19 18 21 9 23 1 25 5 27
REMARK H PARENT 14 18 16 20 18 22 9 24 1 26 5 28
REMARK Flexibility Score: inf
ROOT
ATOM      1  C   UNL     1      -0.912   2.130  18.756  1.00  0.00     0.402 A 
ATOM      2  O   UNL     1      -0.859   3.335  18.192  1.00  0.00    -0.202 OA
ATOM      3  C   UNL     1      -0.839   3.524  16.878  1.00  0.00     0.368 A 
ATOM      4  C   UNL     1      -0.780   4.830  16.380  1.00  0.00     0.162 A 
ATOM      5  C   UNL     1      -0.754   5.059  15.004  1.00  0.00     0.128 A 
ATOM      6  C   UNL     1      -0.787   3.978  14.117  1.00  0.00     0.093 A 
ATOM      7  C   UNL     1      -0.847   2.661  14.590  1.00  0.00     0.136 A 
ATOM      8  C   UNL     1      -0.875   2.423  15.988  1.00  0.00     0.125 A 
ATOM      9  C   UNL     1      -0.947   1.140  16.552  1.00  0.00     0.078 A 
ATOM     10  C   UNL     1      -0.977   0.984  17.941  1.00  0.00     0.223 A 
ENDROOT
BRANCH   1  11
ATOM     11  C   UNL     1      -0.920   2.047  20.234  1.00  0.00     0.091 A 
ATOM     12  C   UNL     1      -1.028   0.814  20.897  1.00  0.00     0.068 A 
ATOM     13  C   UNL     1      -1.009   0.745  22.295  1.00  0.00     0.162 A 
ATOM     14  C   UNL     1      -0.757   3.215  20.990  1.00  0.00     0.068 A 
ATOM     15  C   UNL     1      -0.872   1.932  23.053  1.00  0.00     0.200 A 
ATOM     16  C   UNL     1      -0.741   3.164  22.387  1.00  0.00     0.162 A 
BRANCH  13  17
ATOM     17  O   UNL     1      -1.122  -0.517  22.883  1.00  0.00    -0.504 OA
ATOM     18  H   UNL     1      -1.969  -1.066  22.889  1.00  0.00     0.293 HD
ENDBRANCH  13  17
BRANCH  15  19
ATOM     19  O   UNL     1      -0.861   1.927  24.450  1.00  0.00    -0.502 OA
ATOM     20  H   UNL     1      -0.137   2.349  25.014  1.00  0.00     0.293 HD
ENDBRANCH  15  19
BRANCH  16  21
ATOM     21  O   UNL     1      -0.593   4.356  23.099  1.00  0.00    -0.504 OA
ATOM     22  H   UNL     1      -0.829   5.257  22.701  1.00  0.00     0.293 HD
ENDBRANCH  16  21
ENDBRANCH   1  11
BRANCH  10  23
ATOM     23  O   UNL     1      -1.099  -0.288  18.500  1.00  0.00    -0.500 OA
ATOM     24  H   UNL     1      -1.404  -0.422  19.456  1.00  0.00     0.294 HD
ENDBRANCH  10  23
BRANCH   5  25
ATOM     25  O   UNL     1      -0.696   6.367  14.528  1.00  0.00    -0.507 OA
ATOM     26  H   UNL     1      -0.487   6.569  13.557  1.00  0.00     0.293 HD
ENDBRANCH   5  25
BRANCH   7  27
ATOM     27  O   UNL     1      -0.874   1.637  13.639  1.00  0.00    -0.507 OA
ATOM     28  H   UNL     1      -1.069   0.669  13.849  1.00  0.00     0.293 HD
ENDBRANCH   7  27
TORSDOF 7
ENDMDL
MODEL 7
REMARK VINA RESULT:    -2.947      5.880      8.663
REMARK INTER + INTRA:          -3.491
REMARK INTER:                  -3.961
REMARK INTRA:                   0.470
REMARK UNBOUND:                 0.146
REMARK SMILES Oc1cc(O)c2cc(O)c(-c3cc(O)c(O)c(O)c3)[o+]c2c1
REMARK SMILES IDX 10 1 20 2 21 3 22 4 2 5 3 6 4 7 6 8 7 9 8 10 11 11 12 12
REMARK SMILES IDX 13 13 19 14 15 15 17 16 14 17 16 19 18 21 9 23 1 25 5 27
REMARK H PARENT 14 18 16 20 18 22 9 24 1 26 5 28
REMARK Flexibility Score: inf
ROOT
ATOM      1  C   UNL     1      -0.999   3.393  17.179  1.00  0.00     0.402 A 
ATOM      2  O   UNL     1      -0.898   2.596  16.118  1.00  0.00    -0.202 OA
ATOM      3  C   UNL     1      -0.897   3.044  14.867  1.00  0.00     0.368 A 
ATOM      4  C   UNL     1      -0.788   2.127  13.817  1.00  0.00     0.162 A 
ATOM      5  C   UNL     1      -0.787   2.568  12.493  1.00  0.00     0.128 A 
ATOM      6  C   UNL     1      -0.895   3.935  12.214  1.00  0.00     0.093 A 
ATOM      7  C   UNL     1      -1.004   4.874  13.248  1.00  0.00     0.136 A 
ATOM      8  C   UNL     1      -1.003   4.429  14.596  1.00  0.00     0.125 A 
ATOM      9  C   UNL     1      -1.095   5.298  15.695  1.00  0.00     0.078 A 
ATOM     10  C   UNL     1      -1.083   4.787  16.996  1.00  0.00     0.223 A 
ENDROOT
BRANCH   1  11
ATOM     11  C   UNL     1      -0.999   2.774  18.524  1.00  0.00     0.091 A 
ATOM     12  C   UNL     1      -0.895   1.383  18.688  1.00  0.00     0.068 A 
ATOM     13  C   UNL     1      -0.872   0.810  19.965  1.00  0.00     0.162 A 
ATOM     14  C   UNL     1      -1.044   3.592  19.659  1.00  0.00     0.068 A 
ATOM     15  C   UNL     1      -0.946   1.642  21.108  1.00  0.00     0.200 A 
ATOM     16  C   UNL     1      -1.026   3.036  20.941  1.00  0.00     0.162 A 
BRANCH  13  17
ATOM     17  O   UNL     1      -0.768  -0.581  20.049  1.00  0.00    -0.504 OA
ATOM     18  H   UNL     1       0.058  -1.104  19.801  1.00  0.00     0.293 HD
ENDBRANCH  13  17
BRANCH  15  19
ATOM     19  O   UNL     1      -0.941   1.126  22.407  1.00  0.00    -0.502 OA
ATOM     20  H   UNL     1      -1.657   0.521  22.780  1.00  0.00     0.293 HD
ENDBRANCH  15  19
BRANCH  16  21
ATOM     21  O   UNL     1      -1.090   3.891  22.043  1.00  0.00    -0.504 OA
ATOM     22  H   UNL     1      -0.678   4.815  22.035  1.00  0.00     0.293 HD
ENDBRANCH  16  21
ENDBRANCH   1  11
BRANCH  10  23
ATOM     23  O   UNL     1      -1.124   5.652  18.089  1.00  0.00    -0.500 OA
ATOM     24  H   UNL     1      -1.875   6.321  18.211  1.00  0.00     0.294 HD
ENDBRANCH  10  23
BRANCH   5  25
ATOM     25  O   UNL     1      -0.678   1.639  11.461  1.00  0.00    -0.507 OA
ATOM     26  H   UNL     1      -0.485   0.662  11.645  1.00  0.00     0.293 HD
ENDBRANCH   5  25
BRANCH   7  27
ATOM     27  O   UNL     1      -1.110   6.220  12.886  1.00  0.00    -0.507 OA
ATOM     28  H   UNL     1      -0.565   6.964  13.294  1.00  0.00     0.293 HD
ENDBRANCH   7  27
TORSDOF 7
ENDMDL
MODEL 8
REMARK VINA RESULT:    -2.864      4.718      7.799
REMARK INTER + INTRA:          -3.389
REMARK INTER:                  -3.772
REMARK INTRA:                   0.383
REMARK UNBOUND:                 0.146
REMARK SMILES Oc1cc(O)c2cc(O)c(-c3cc(O)c(O)c(O)c3)[o+]c2c1
REMARK SMILES IDX 10 1 20 2 21 3 22 4 2 5 3 6 4 7 6 8 7 9 8 10 11 11 12 12
REMARK SMILES IDX 13 13 19 14 15 15 17 16 14 17 16 19 18 21 9 23 1 25 5 27
REMARK H PARENT 14 18 16 20 18 22 9 24 1 26 5 28
REMARK Flexibility Score: inf
ROOT
ATOM      1  C   UNL     1      -1.009   2.955  18.326  1.00  0.00     0.402 A 
ATOM      2  O   UNL     1      -1.017   1.654  18.607  1.00  0.00    -0.202 OA
ATOM      3  C   UNL     1      -1.047   1.177  19.846  1.00  0.00     0.368 A 
ATOM      4  C   UNL     1      -1.050  -0.208  20.041  1.00  0.00     0.162 A 
ATOM      5  C   UNL     1      -1.078  -0.739  21.331  1.00  0.00     0.128 A 
ATOM      6  C   UNL     1      -1.103   0.119  22.437  1.00  0.00     0.093 A 
ATOM      7  C   UNL     1      -1.101   1.509  22.268  1.00  0.00     0.136 A 
ATOM      8  C   UNL     1      -1.074   2.053  20.958  1.00  0.00     0.125 A 
ATOM      9  C   UNL     1      -1.083   3.432  20.694  1.00  0.00     0.078 A 
ATOM     10  C   UNL     1      -1.061   3.893  19.374  1.00  0.00     0.223 A 
ENDROOT
BRANCH   1  11
ATOM     11  C   UNL     1      -0.964   3.365  16.904  1.00  0.00     0.091 A 
ATOM     12  C   UNL     1      -0.882   4.717  16.535  1.00  0.00     0.068 A 
ATOM     13  C   UNL     1      -0.815   5.092  15.188  1.00  0.00     0.162 A 
ATOM     14  C   UNL     1      -0.944   2.384  15.905  1.00  0.00     0.068 A 
ATOM     15  C   UNL     1      -0.824   4.096  14.182  1.00  0.00     0.200 A 
ATOM     16  C   UNL     1      -0.883   2.741  14.555  1.00  0.00     0.162 A 
BRANCH  13  17
ATOM     17  O   UNL     1      -0.735   6.456  14.898  1.00  0.00    -0.504 OA
ATOM     18  H   UNL     1      -0.174   6.847  14.156  1.00  0.00     0.293 HD
ENDBRANCH  13  17
BRANCH  15  19
ATOM     19  O   UNL     1      -0.773   4.410  12.821  1.00  0.00    -0.502 OA
ATOM     20  H   UNL     1       0.032   4.255  12.232  1.00  0.00     0.293 HD
ENDBRANCH  15  19
BRANCH  16  21
ATOM     21  O   UNL     1      -0.883   1.729  13.594  1.00  0.00    -0.504 OA
ATOM     22  H   UNL     1      -1.410   1.800  12.732  1.00  0.00     0.293 HD
ENDBRANCH  16  21
ENDBRANCH   1  11
BRANCH  10  23
ATOM     23  O   UNL     1      -1.120   5.261  19.110  1.00  0.00    -0.500 OA
ATOM     24  H   UNL     1      -1.389   5.618  18.202  1.00  0.00     0.294 HD
ENDBRANCH  10  23
BRANCH   5  25
ATOM     25  O   UNL     1      -1.081  -2.121  21.504  1.00  0.00    -0.507 OA
ATOM     26  H   UNL     1      -0.534  -2.731  20.909  1.00  0.00     0.293 HD
ENDBRANCH   5  25
BRANCH   7  27
ATOM     27  O   UNL     1      -1.124   2.297  23.423  1.00  0.00    -0.507 OA
ATOM     28  H   UNL     1      -0.416   2.275  24.142  1.00  0.00     0.293 HD
ENDBRANCH   7  27
TORSDOF 7
ENDMDL
