MODEL 1
REMARK VINA RESULT:    -5.241      0.000      0.000
REMARK INTER + INTRA:          -8.513
REMARK INTER:                  -7.693
REMARK INTRA:                  -0.820
REMARK UNBOUND:                -0.820
REMARK SMILES O=C([O-])CCCCCCCC(=O)[O-]
REMARK SMILES IDX 7 1 6 2 5 3 4 4 2 5 1 6 3 7 8 8 9 9 10 10 11 11 12 12 13 13
REMARK H PARENT
REMARK Flexibility Score: inf
ROOT
ATOM      1  C   UNL     1      -0.962  31.374  41.748  1.00  0.00     0.000 C 
ENDROOT
BRANCH   1   2
ATOM      2  C   UNL     1      -2.371  30.942  42.178  1.00  0.00     0.000 C 
BRANCH   2   3
ATOM      3  C   UNL     1      -2.409  29.532  42.794  1.00  0.00     0.006 C 
BRANCH   3   4
ATOM      4  C   UNL     1      -2.648  29.519  44.315  1.00  0.00     0.053 C 
BRANCH   4   5
ATOM      5  C   UNL     1      -1.379  29.376  45.098  1.00  0.00     0.041 C 
ATOM      6  O   UNL     1      -1.164  28.340  45.779  1.00  0.00    -0.550 OA
ATOM      7  O   UNL     1      -0.444  30.405  45.102  1.00  0.00    -0.550 OA
ENDBRANCH   4   5
ENDBRANCH   3   4
ENDBRANCH   2   3
ENDBRANCH   1   2
BRANCH   1   8
ATOM      8  C   UNL     1      -0.469  30.540  40.561  1.00  0.00     0.000 C 
BRANCH   8   9
ATOM      9  C   UNL     1       0.874  29.867  40.880  1.00  0.00     0.006 C 
BRANCH   9  10
ATOM     10  C   UNL     1       0.731  28.353  41.083  1.00  0.00     0.053 C 
BRANCH  10  11
ATOM     11  C   UNL     1       0.953  27.961  42.512  1.00  0.00     0.041 C 
ATOM     12  O   UNL     1       1.825  28.550  43.203  1.00  0.00    -0.550 OA
ATOM     13  O   UNL     1       0.218  26.922  43.069  1.00  0.00    -0.550 OA
ENDBRANCH  10  11
ENDBRANCH   9  10
ENDBRANCH   8   9
ENDBRANCH   1   8
TORSDOF 8
ENDMDL
MODEL 2
REMARK VINA RESULT:    -5.232      1.677      3.762
REMARK INTER + INTRA:          -8.499
REMARK INTER:                  -7.626
REMARK INTRA:                  -0.873
REMARK UNBOUND:                -0.820
REMARK SMILES O=C([O-])CCCCCCCC(=O)[O-]
REMARK SMILES IDX 7 1 6 2 5 3 4 4 2 5 1 6 3 7 8 8 9 9 10 10 11 11 12 12 13 13
REMARK H PARENT
REMARK Flexibility Score: inf
ROOT
ATOM      1  C   UNL     1      -2.701  29.539  43.282  1.00  0.00     0.000 C 
ENDROOT
BRANCH   1   2
ATOM      2  C   UNL     1      -2.301  30.980  42.931  1.00  0.00     0.000 C 
BRANCH   2   3
ATOM      3  C   UNL     1      -1.754  31.123  41.499  1.00  0.00     0.006 C 
BRANCH   3   4
ATOM      4  C   UNL     1      -0.319  30.595  41.322  1.00  0.00     0.053 C 
BRANCH   4   5
ATOM      5  C   UNL     1      -0.241  29.436  40.376  1.00  0.00     0.041 C 
ATOM      6  O   UNL     1      -1.279  28.789  40.076  1.00  0.00    -0.550 OA
ATOM      7  O   UNL     1       0.985  29.050  39.848  1.00  0.00    -0.550 OA
ENDBRANCH   4   5
ENDBRANCH   3   4
ENDBRANCH   2   3
ENDBRANCH   1   2
BRANCH   1   8
ATOM      8  C   UNL     1      -2.163  29.140  44.661  1.00  0.00     0.000 C 
BRANCH   8   9
ATOM      9  C   UNL     1      -0.698  29.573  44.828  1.00  0.00     0.006 C 
BRANCH   9  10
ATOM     10  C   UNL     1       0.251  28.374  44.950  1.00  0.00     0.053 C 
BRANCH  10  11
ATOM     11  C   UNL     1       0.706  27.887  43.608  1.00  0.00     0.041 C 
ATOM     12  O   UNL     1       0.053  26.997  43.002  1.00  0.00    -0.550 OA
ATOM     13  O   UNL     1       1.869  28.393  43.042  1.00  0.00    -0.550 OA
ENDBRANCH  10  11
ENDBRANCH   9  10
ENDBRANCH   8   9
ENDBRANCH   1   8
TORSDOF 8
ENDMDL
MODEL 3
REMARK VINA RESULT:    -5.220      0.443      3.656
REMARK INTER + INTRA:          -8.481
REMARK INTER:                  -7.669
REMARK INTRA:                  -0.812
REMARK UNBOUND:                -0.820
REMARK SMILES O=C([O-])CCCCCCCC(=O)[O-]
REMARK SMILES IDX 7 1 6 2 5 3 4 4 2 5 1 6 3 7 8 8 9 9 10 10 11 11 12 12 13 13
REMARK H PARENT
REMARK Flexibility Score: inf
ROOT
ATOM      1  C   UNL     1      -0.918  31.018  41.403  1.00  0.00     0.000 C 
ENDROOT
BRANCH   1   2
ATOM      2  C   UNL     1      -0.225  30.257  40.263  1.00  0.00     0.000 C 
BRANCH   2   3
ATOM      3  C   UNL     1       0.990  29.439  40.733  1.00  0.00     0.006 C 
BRANCH   3   4
ATOM      4  C   UNL     1       0.645  28.006  41.180  1.00  0.00     0.053 C 
BRANCH   4   5
ATOM      5  C   UNL     1       0.811  27.805  42.655  1.00  0.00     0.041 C 
ATOM      6  O   UNL     1       1.509  28.605  43.332  1.00  0.00    -0.550 OA
ATOM      7  O   UNL     1       0.221  26.712  43.279  1.00  0.00    -0.550 OA
ENDBRANCH   4   5
ENDBRANCH   3   4
ENDBRANCH   2   3
ENDBRANCH   1   2
BRANCH   1   8
ATOM      8  C   UNL     1      -2.377  30.574  41.554  1.00  0.00     0.000 C 
BRANCH   8   9
ATOM      9  C   UNL     1      -2.498  29.405  42.544  1.00  0.00     0.006 C 
BRANCH   9  10
ATOM     10  C   UNL     1      -2.790  29.883  43.972  1.00  0.00     0.053 C 
BRANCH  10  11
ATOM     11  C   UNL     1      -1.680  29.527  44.914  1.00  0.00     0.041 C 
ATOM     12  O   UNL     1      -0.754  30.348  45.142  1.00  0.00    -0.550 OA
ATOM     13  O   UNL     1      -1.654  28.274  45.514  1.00  0.00    -0.550 OA
ENDBRANCH  10  11
ENDBRANCH   9  10
ENDBRANCH   8   9
ENDBRANCH   1   8
TORSDOF 8
ENDMDL
MODEL 4
REMARK VINA RESULT:    -5.210      1.702      3.303
REMARK INTER + INTRA:          -8.467
REMARK INTER:                  -7.587
REMARK INTRA:                  -0.880
REMARK UNBOUND:                -0.820
REMARK SMILES O=C([O-])CCCCCCCC(=O)[O-]
REMARK SMILES IDX 7 1 6 2 5 3 4 4 2 5 1 6 3 7 8 8 9 9 10 10 11 11 12 12 13 13
REMARK H PARENT
REMARK Flexibility Score: inf
ROOT
ATOM      1  C   UNL     1      -2.735  29.483  43.299  1.00  0.00     0.000 C 
ENDROOT
BRANCH   1   2
ATOM      2  C   UNL     1      -2.120  29.066  44.643  1.00  0.00     0.000 C 
BRANCH   2   3
ATOM      3  C   UNL     1      -0.668  29.546  44.818  1.00  0.00     0.006 C 
BRANCH   3   4
ATOM      4  C   UNL     1       0.365  28.405  44.866  1.00  0.00     0.053 C 
BRANCH   4   5
ATOM      5  C   UNL     1       0.812  27.973  43.503  1.00  0.00     0.041 C 
ATOM      6  O   UNL     1       0.145  27.124  42.854  1.00  0.00    -0.550 OA
ATOM      7  O   UNL     1       1.986  28.483  42.961  1.00  0.00    -0.550 OA
ENDBRANCH   4   5
ENDBRANCH   3   4
ENDBRANCH   2   3
ENDBRANCH   1   2
BRANCH   1   8
ATOM      8  C   UNL     1      -2.288  30.895  42.904  1.00  0.00     0.000 C 
BRANCH   8   9
ATOM      9  C   UNL     1      -1.924  30.961  41.413  1.00  0.00     0.006 C 
BRANCH   9  10
ATOM     10  C   UNL     1      -0.439  30.669  41.164  1.00  0.00     0.053 C 
BRANCH  10  11
ATOM     11  C   UNL     1      -0.248  29.488  40.262  1.00  0.00     0.041 C 
ATOM     12  O   UNL     1      -1.241  28.809  39.889  1.00  0.00    -0.550 OA
ATOM     13  O   UNL     1       1.029  29.119  39.861  1.00  0.00    -0.550 OA
ENDBRANCH  10  11
ENDBRANCH   9  10
ENDBRANCH   8   9
ENDBRANCH   1   8
TORSDOF 8
ENDMDL
MODEL 5
REMARK VINA RESULT:    -5.189     18.495     20.749
REMARK INTER + INTRA:          -8.435
REMARK INTER:                  -7.558
REMARK INTRA:                  -0.877
REMARK UNBOUND:                -0.820
REMARK SMILES O=C([O-])CCCCCCCC(=O)[O-]
REMARK SMILES IDX 7 1 6 2 5 3 4 4 2 5 1 6 3 7 8 8 9 9 10 10 11 11 12 12 13 13
REMARK H PARENT
REMARK Flexibility Score: inf
ROOT
ATOM      1  C   UNL     1      14.618  13.377  44.969  1.00  0.00     0.000 C 
ENDROOT
BRANCH   1   2
ATOM      2  C   UNL     1      14.414  14.100  43.630  1.00  0.00     0.000 C 
BRANCH   2   3
ATOM      3  C   UNL     1      14.648  15.618  43.722  1.00  0.00     0.006 C 
BRANCH   3   4
ATOM      4  C   UNL     1      13.366  16.458  43.575  1.00  0.00     0.053 C 
BRANCH   4   5
ATOM      5  C   UNL     1      12.677  16.694  44.884  1.00  0.00     0.041 C 
ATOM      6  O   UNL     1      11.739  15.940  45.255  1.00  0.00    -0.550 OA
ATOM      7  O   UNL     1      13.048  17.770  45.683  1.00  0.00    -0.550 OA
ENDBRANCH   4   5
ENDBRANCH   3   4
ENDBRANCH   2   3
ENDBRANCH   1   2
BRANCH   1   8
ATOM      8  C   UNL     1      15.908  13.841  45.655  1.00  0.00     0.000 C 
BRANCH   8   9
ATOM      9  C   UNL     1      15.679  14.077  47.156  1.00  0.00     0.006 C 
BRANCH   9  10
ATOM     10  C   UNL     1      15.024  15.436  47.436  1.00  0.00     0.053 C 
BRANCH  10  11
ATOM     11  C   UNL     1      13.720  15.285  48.158  1.00  0.00     0.041 C 
ATOM     12  O   UNL     1      13.057  14.220  48.055  1.00  0.00    -0.550 OA
ATOM     13  O   UNL     1      13.222  16.335  48.919  1.00  0.00    -0.550 OA
ENDBRANCH  10  11
ENDBRANCH   9  10
ENDBRANCH   8   9
ENDBRANCH   1   8
TORSDOF 8
ENDMDL
MODEL 6
REMARK VINA RESULT:    -5.181     18.594     20.759
REMARK INTER + INTRA:          -8.424
REMARK INTER:                  -7.556
REMARK INTRA:                  -0.868
REMARK UNBOUND:                -0.820
REMARK SMILES O=C([O-])CCCCCCCC(=O)[O-]
REMARK SMILES IDX 7 1 6 2 5 3 4 4 2 5 1 6 3 7 8 8 9 9 10 10 11 11 12 12 13 13
REMARK H PARENT
REMARK Flexibility Score: inf
ROOT
ATOM      1  C   UNL     1      14.662  13.315  44.803  1.00  0.00     0.000 C 
ENDROOT
BRANCH   1   2
ATOM      2  C   UNL     1      15.888  13.789  45.597  1.00  0.00     0.000 C 
BRANCH   2   3
ATOM      3  C   UNL     1      15.629  13.884  47.111  1.00  0.00     0.006 C 
BRANCH   3   4
ATOM      4  C   UNL     1      15.178  15.279  47.582  1.00  0.00     0.053 C 
BRANCH   4   5
ATOM      5  C   UNL     1      13.811  15.268  48.194  1.00  0.00     0.041 C 
ATOM      6  O   UNL     1      13.404  16.254  48.862  1.00  0.00    -0.550 OA
ATOM      7  O   UNL     1      12.995  14.151  48.054  1.00  0.00    -0.550 OA
ENDBRANCH   4   5
ENDBRANCH   3   4
ENDBRANCH   2   3
ENDBRANCH   1   2
BRANCH   1   8
ATOM      8  C   UNL     1      14.440  14.184  43.561  1.00  0.00     0.000 C 
BRANCH   8   9
ATOM      9  C   UNL     1      14.786  15.653  43.848  1.00  0.00     0.006 C 
BRANCH   9  10
ATOM     10  C   UNL     1      13.568  16.575  43.703  1.00  0.00     0.053 C 
BRANCH  10  11
ATOM     11  C   UNL     1      12.868  16.781  45.011  1.00  0.00     0.041 C 
ATOM     12  O   UNL     1      13.223  17.712  45.781  1.00  0.00    -0.550 OA
ATOM     13  O   UNL     1      11.846  15.922  45.395  1.00  0.00    -0.550 OA
ENDBRANCH  10  11
ENDBRANCH   9  10
ENDBRANCH   8   9
ENDBRANCH   1   8
TORSDOF 8
ENDMDL
MODEL 7
REMARK VINA RESULT:    -5.148     18.475     20.591
REMARK INTER + INTRA:          -8.376
REMARK INTER:                  -7.551
REMARK INTRA:                  -0.825
REMARK UNBOUND:                -0.820
REMARK SMILES O=C([O-])CCCCCCCC(=O)[O-]
REMARK SMILES IDX 7 1 6 2 5 3 4 4 2 5 1 6 3 7 8 8 9 9 10 10 11 11 12 12 13 13
REMARK H PARENT
REMARK Flexibility Score: inf
ROOT
ATOM      1  C   UNL     1      15.694  15.021  47.219  1.00  0.00     0.000 C 
ENDROOT
BRANCH   1   2
ATOM      2  C   UNL     1      14.535  15.031  48.227  1.00  0.00     0.000 C 
BRANCH   2   3
ATOM      3  C   UNL     1      13.734  16.345  48.213  1.00  0.00     0.006 C 
BRANCH   3   4
ATOM      4  C   UNL     1      12.389  16.250  47.471  1.00  0.00     0.053 C 
BRANCH   4   5
ATOM      5  C   UNL     1      12.470  16.749  46.061  1.00  0.00     0.041 C 
ATOM      6  O   UNL     1      13.288  17.654  45.752  1.00  0.00    -0.550 OA
ATOM      7  O   UNL     1      11.616  16.236  45.091  1.00  0.00    -0.550 OA
ENDBRANCH   4   5
ENDBRANCH   3   4
ENDBRANCH   2   3
ENDBRANCH   1   2
BRANCH   1   8
ATOM      8  C   UNL     1      15.663  13.753  46.358  1.00  0.00     0.000 C 
BRANCH   8   9
ATOM      9  C   UNL     1      14.391  13.703  45.497  1.00  0.00     0.006 C 
BRANCH   9  10
ATOM     10  C   UNL     1      14.706  13.699  43.996  1.00  0.00     0.053 C 
BRANCH  10  11
ATOM     11  C   UNL     1      14.550  15.061  43.392  1.00  0.00     0.041 C 
ATOM     12  O   UNL     1      15.339  15.989  43.709  1.00  0.00    -0.550 OA
ATOM     13  O   UNL     1      13.511  15.312  42.505  1.00  0.00    -0.550 OA
ENDBRANCH  10  11
ENDBRANCH   9  10
ENDBRANCH   8   9
ENDBRANCH   1   8
TORSDOF 8
ENDMDL
MODEL 8
REMARK VINA RESULT:    -5.005      9.467     10.873
REMARK INTER + INTRA:          -8.166
REMARK INTER:                  -7.218
REMARK INTRA:                  -0.949
REMARK UNBOUND:                -0.820
REMARK SMILES O=C([O-])CCCCCCCC(=O)[O-]
REMARK SMILES IDX 7 1 6 2 5 3 4 4 2 5 1 6 3 7 8 8 9 9 10 10 11 11 12 12 13 13
REMARK H PARENT
REMARK Flexibility Score: inf
ROOT
ATOM      1  C   UNL     1       8.041  23.838  42.546  1.00  0.00     0.000 C 
ENDROOT
BRANCH   1   2
ATOM      2  C   UNL     1       7.780  22.382  42.135  1.00  0.00     0.000 C 
BRANCH   2   3
ATOM      3  C   UNL     1       6.287  22.071  41.929  1.00  0.00     0.006 C 
BRANCH   3   4
ATOM      4  C   UNL     1       5.771  20.893  42.777  1.00  0.00     0.053 C 
BRANCH   4   5
ATOM      5  C   UNL     1       4.864  21.333  43.885  1.00  0.00     0.041 C 
ATOM      6  O   UNL     1       4.731  20.625  44.917  1.00  0.00    -0.550 OA
ATOM      7  O   UNL     1       4.137  22.512  43.763  1.00  0.00    -0.550 OA
ENDBRANCH   4   5
ENDBRANCH   3   4
ENDBRANCH   2   3
ENDBRANCH   1   2
BRANCH   1   8
ATOM      8  C   UNL     1       7.320  24.178  43.856  1.00  0.00     0.000 C 
BRANCH   8   9
ATOM      9  C   UNL     1       8.215  23.882  45.069  1.00  0.00     0.006 C 
BRANCH   9  10
ATOM     10  C   UNL     1       7.688  22.709  45.907  1.00  0.00     0.053 C 
BRANCH  10  11
ATOM     11  C   UNL     1       8.458  21.451  45.646  1.00  0.00     0.041 C 
ATOM     12  O   UNL     1       9.617  21.507  45.157  1.00  0.00    -0.550 OA
ATOM     13  O   UNL     1       7.881  20.216  45.913  1.00  0.00    -0.550 OA
ENDBRANCH  10  11
ENDBRANCH   9  10
ENDBRANCH   8   9
ENDBRANCH   1   8
TORSDOF 8
ENDMDL
MODEL 9
REMARK VINA RESULT:    -4.999      8.536     10.745
REMARK INTER + INTRA:          -8.157
REMARK INTER:                  -7.201
REMARK INTRA:                  -0.957
REMARK UNBOUND:                -0.820
REMARK SMILES O=C([O-])CCCCCCCC(=O)[O-]
REMARK SMILES IDX 7 1 6 2 5 3 4 4 2 5 1 6 3 7 8 8 9 9 10 10 11 11 12 12 13 13
REMARK H PARENT
REMARK Flexibility Score: inf
ROOT
ATOM      1  C   UNL     1       6.108  21.072  42.146  1.00  0.00     0.000 C 
ENDROOT
BRANCH   1   2
ATOM      2  C   UNL     1       6.978  22.337  42.135  1.00  0.00     0.000 C 
BRANCH   2   3
ATOM      3  C   UNL     1       8.206  22.234  43.057  1.00  0.00     0.006 C 
BRANCH   3   4
ATOM      4  C   UNL     1       8.266  23.326  44.141  1.00  0.00     0.053 C 
BRANCH   4   5
ATOM      5  C   UNL     1       8.398  22.762  45.523  1.00  0.00     0.041 C 
ATOM      6  O   UNL     1       8.809  21.584  45.693  1.00  0.00    -0.550 OA
ATOM      7  O   UNL     1       8.036  23.529  46.625  1.00  0.00    -0.550 OA
ENDBRANCH   4   5
ENDBRANCH   3   4
ENDBRANCH   2   3
ENDBRANCH   1   2
BRANCH   1   8
ATOM      8  C   UNL     1       6.146  20.390  43.518  1.00  0.00     0.000 C 
BRANCH   8   9
ATOM      9  C   UNL     1       4.804  20.548  44.250  1.00  0.00     0.006 C 
BRANCH   9  10
ATOM     10  C   UNL     1       4.867  21.611  45.354  1.00  0.00     0.053 C 
BRANCH  10  11
ATOM     11  C   UNL     1       4.428  22.954  44.858  1.00  0.00     0.041 C 
ATOM     12  O   UNL     1       4.964  24.002  45.306  1.00  0.00    -0.550 OA
ATOM     13  O   UNL     1       3.404  23.049  43.925  1.00  0.00    -0.550 OA
ENDBRANCH  10  11
ENDBRANCH   9  10
ENDBRANCH   8   9
ENDBRANCH   1   8
TORSDOF 8
ENDMDL
