MODEL 1
REMARK VINA RESULT:    -8.971      0.000      0.000
REMARK INTER + INTRA:         -13.233
REMARK INTER:                 -12.380
REMARK INTRA:                  -0.853
REMARK UNBOUND:                -0.853
REMARK SMILES O=C([O-])[C@@H]1O[C@@H](Oc2cc3oc(-c4ccccc4)cc(=O)c3c(O)c2O)[C@H](O)[C@@H](O)[C@@H]1O
REMARK SMILES IDX 7 1 6 2 4 3 31 4 5 5 29 6 27 7 2 8 1 9 3 10 32 11 30 13
REMARK SMILES IDX 28 15 8 17 25 18 9 19 23 20 10 21 22 22 11 23 20 24 12 25
REMARK SMILES IDX 19 26 21 27 26 28 24 30 13 32 14 33 18 34 15 35 17 36 16 37
REMARK H PARENT 32 12 30 14 28 16 26 29 24 31
REMARK Flexibility Score: inf
ROOT
ATOM      1  O   UNL     1       1.141 -46.990 -39.084  1.00  0.00    -0.458 OA
ENDROOT
BRANCH   1   2
ATOM      2  C   UNL     1       2.504 -46.798 -39.483  1.00  0.00     0.339 C 
ATOM      3  C   UNL     1       2.046 -44.692 -40.417  1.00  0.00     0.199 C 
ATOM      4  C   UNL     1       2.328 -45.156 -41.863  1.00  0.00     0.180 C 
ATOM      5  O   UNL     1       2.843 -45.416 -39.484  1.00  0.00    -0.328 OA
ATOM      6  C   UNL     1       2.025 -46.666 -41.980  1.00  0.00     0.181 C 
ATOM      7  C   UNL     1       2.744 -47.448 -40.863  1.00  0.00     0.214 C 
BRANCH   3   8
ATOM      8  C   UNL     1       2.321 -43.221 -40.284  1.00  0.00     0.073 C 
ATOM      9  O   UNL     1       2.664 -42.728 -39.175  1.00  0.00    -0.547 OA
ATOM     10  O   UNL     1       2.236 -42.397 -41.402  1.00  0.00    -0.547 OA
ENDBRANCH   3   8
BRANCH   4  11
ATOM     11  O   UNL     1       3.669 -44.895 -42.190  1.00  0.00    -0.387 OA
ATOM     12  H   UNL     1       4.227 -45.490 -41.625  1.00  0.00     0.211 HD
ENDBRANCH   4  11
BRANCH   6  13
ATOM     13  O   UNL     1       0.641 -46.890 -41.894  1.00  0.00    -0.387 OA
ATOM     14  H   UNL     1       0.216 -46.004 -41.742  1.00  0.00     0.211 HD
ENDBRANCH   6  13
BRANCH   7  15
ATOM     15  O   UNL     1       4.125 -47.500 -41.117  1.00  0.00    -0.384 OA
ATOM     16  H   UNL     1       4.487 -48.267 -40.594  1.00  0.00     0.211 HD
ENDBRANCH   7  15
ENDBRANCH   1   2
BRANCH   1  17
ATOM     17  C   UNL     1       0.622 -46.903 -37.780  1.00  0.00     0.172 A 
ATOM     18  C   UNL     1       1.182 -47.735 -36.802  1.00  0.00     0.201 A 
ATOM     19  C   UNL     1      -0.386 -45.991 -37.423  1.00  0.00     0.098 A 
ATOM     20  C   UNL     1       0.810 -47.592 -35.440  1.00  0.00     0.176 A 
ATOM     21  C   UNL     1      -0.743 -45.819 -36.089  1.00  0.00     0.146 A 
ATOM     22  C   UNL     1      -0.135 -46.603 -35.079  1.00  0.00     0.111 A 
ATOM     23  O   UNL     1      -1.646 -44.893 -35.777  1.00  0.00    -0.456 OA
ATOM     24  C   UNL     1      -0.515 -46.347 -33.743  1.00  0.00     0.197 A 
ATOM     25  C   UNL     1      -2.022 -44.625 -34.528  1.00  0.00     0.138 A 
ATOM     26  C   UNL     1      -1.458 -45.351 -33.467  1.00  0.00     0.100 A 
ATOM     27  O   UNL     1      -0.026 -47.003 -32.782  1.00  0.00    -0.289 OA
BRANCH  18  28
ATOM     28  O   UNL     1       2.109 -48.690 -37.232  1.00  0.00    -0.502 OA
ATOM     29  H   UNL     1       2.961 -48.918 -36.748  1.00  0.00     0.293 HD
ENDBRANCH  18  28
BRANCH  20  30
ATOM     30  O   UNL     1       1.373 -48.394 -34.443  1.00  0.00    -0.504 OA
ATOM     31  H   UNL     1       1.939 -49.211 -34.616  1.00  0.00     0.293 HD
ENDBRANCH  20  30
BRANCH  25  32
ATOM     32  C   UNL     1      -3.038 -43.568 -34.304  1.00  0.00     0.017 A 
ATOM     33  C   UNL     1      -2.852 -42.297 -34.874  1.00  0.00     0.012 A 
ATOM     34  C   UNL     1      -4.174 -43.788 -33.491  1.00  0.00     0.012 A 
ATOM     35  C   UNL     1      -3.796 -41.286 -34.679  1.00  0.00     0.001 A 
ATOM     36  C   UNL     1      -5.120 -42.775 -33.313  1.00  0.00     0.001 A 
ATOM     37  C   UNL     1      -4.940 -41.530 -33.923  1.00  0.00     0.000 A 
ENDBRANCH  25  32
ENDBRANCH   1  17
TORSDOF 9
ENDMDL
MODEL 2
REMARK VINA RESULT:    -8.784      2.345      8.030
REMARK INTER + INTRA:         -12.974
REMARK INTER:                 -11.873
REMARK INTRA:                  -1.102
REMARK UNBOUND:                -0.853
REMARK SMILES O=C([O-])[C@@H]1O[C@@H](Oc2cc3oc(-c4ccccc4)cc(=O)c3c(O)c2O)[C@H](O)[C@@H](O)[C@@H]1O
REMARK SMILES IDX 7 1 6 2 4 3 31 4 5 5 29 6 27 7 2 8 1 9 3 10 32 11 30 13
REMARK SMILES IDX 28 15 8 17 25 18 9 19 23 20 10 21 22 22 11 23 20 24 12 25
REMARK SMILES IDX 19 26 21 27 26 28 24 30 13 32 14 33 18 34 15 35 17 36 16 37
REMARK H PARENT 32 12 30 14 28 16 26 29 24 31
REMARK Flexibility Score: inf
ROOT
ATOM      1  O   UNL     1      -2.269 -44.518 -33.997  1.00  0.00    -0.458 OA
ENDROOT
BRANCH   1   2
ATOM      2  C   UNL     1      -3.402 -43.863 -34.582  1.00  0.00     0.339 C 
ATOM      3  C   UNL     1      -2.679 -41.744 -33.870  1.00  0.00     0.199 C 
ATOM      4  C   UNL     1      -3.852 -41.562 -32.882  1.00  0.00     0.180 C 
ATOM      5  O   UNL     1      -3.070 -42.540 -34.985  1.00  0.00    -0.328 OA
ATOM      6  C   UNL     1      -4.326 -42.947 -32.394  1.00  0.00     0.181 C 
ATOM      7  C   UNL     1      -4.587 -43.881 -33.591  1.00  0.00     0.214 C 
BRANCH   3   8
ATOM      8  C   UNL     1      -2.191 -40.406 -34.347  1.00  0.00     0.073 C 
ATOM      9  O   UNL     1      -1.701 -40.274 -35.502  1.00  0.00    -0.547 OA
ATOM     10  O   UNL     1      -2.316 -39.291 -33.525  1.00  0.00    -0.547 OA
ENDBRANCH   3   8
BRANCH   4  11
ATOM     11  O   UNL     1      -4.901 -40.876 -33.517  1.00  0.00    -0.387 OA
ATOM     12  H   UNL     1      -4.489 -40.280 -34.195  1.00  0.00     0.211 HD
ENDBRANCH   4  11
BRANCH   6  13
ATOM     13  O   UNL     1      -3.358 -43.522 -31.553  1.00  0.00    -0.387 OA
ATOM     14  H   UNL     1      -3.180 -42.864 -30.829  1.00  0.00     0.211 HD
ENDBRANCH   6  13
BRANCH   7  15
ATOM     15  O   UNL     1      -5.758 -43.493 -34.265  1.00  0.00    -0.384 OA
ATOM     16  H   UNL     1      -6.038 -42.620 -33.878  1.00  0.00     0.211 HD
ENDBRANCH   7  15
ENDBRANCH   1   2
BRANCH   1  17
ATOM     17  C   UNL     1      -1.292 -45.277 -34.667  1.00  0.00     0.172 A 
ATOM     18  C   UNL     1      -0.858 -46.460 -34.057  1.00  0.00     0.201 A 
ATOM     19  C   UNL     1      -0.785 -44.918 -35.929  1.00  0.00     0.098 A 
ATOM     20  C   UNL     1       0.010 -47.346 -34.745  1.00  0.00     0.176 A 
ATOM     21  C   UNL     1       0.045 -45.788 -36.629  1.00  0.00     0.146 A 
ATOM     22  C   UNL     1       0.437 -47.021 -36.055  1.00  0.00     0.111 A 
ATOM     23  O   UNL     1       0.446 -45.452 -37.852  1.00  0.00    -0.456 OA
ATOM     24  C   UNL     1       1.247 -47.873 -36.838  1.00  0.00     0.197 A 
ATOM     25  C   UNL     1       1.205 -46.234 -38.617  1.00  0.00     0.138 A 
ATOM     26  C   UNL     1       1.628 -47.480 -38.125  1.00  0.00     0.100 A 
ATOM     27  O   UNL     1       1.645 -48.987 -36.401  1.00  0.00    -0.289 OA
BRANCH  18  28
ATOM     28  O   UNL     1      -1.321 -46.715 -32.761  1.00  0.00    -0.502 OA
ATOM     29  H   UNL     1      -1.192 -46.099 -31.976  1.00  0.00     0.293 HD
ENDBRANCH  18  28
BRANCH  20  30
ATOM     30  O   UNL     1       0.438 -48.545 -34.165  1.00  0.00    -0.504 OA
ATOM     31  H   UNL     1       0.272 -49.460 -34.555  1.00  0.00     0.293 HD
ENDBRANCH  20  30
BRANCH  25  32
ATOM     32  C   UNL     1       1.589 -45.752 -39.966  1.00  0.00     0.017 A 
ATOM     33  C   UNL     1       2.070 -44.439 -40.121  1.00  0.00     0.012 A 
ATOM     34  C   UNL     1       1.442 -46.560 -41.116  1.00  0.00     0.012 A 
ATOM     35  C   UNL     1       2.440 -43.962 -41.380  1.00  0.00     0.001 A 
ATOM     36  C   UNL     1       1.827 -46.079 -42.370  1.00  0.00     0.001 A 
ATOM     37  C   UNL     1       2.344 -44.787 -42.499  1.00  0.00     0.000 A 
ENDBRANCH  25  32
ENDBRANCH   1  17
TORSDOF 9
ENDMDL
MODEL 3
REMARK VINA RESULT:    -8.547      2.389      7.992
REMARK INTER + INTRA:         -12.647
REMARK INTER:                 -11.574
REMARK INTRA:                  -1.073
REMARK UNBOUND:                -0.853
REMARK SMILES O=C([O-])[C@@H]1O[C@@H](Oc2cc3oc(-c4ccccc4)cc(=O)c3c(O)c2O)[C@H](O)[C@@H](O)[C@@H]1O
REMARK SMILES IDX 7 1 6 2 4 3 31 4 5 5 29 6 27 7 2 8 1 9 3 10 32 11 30 13
REMARK SMILES IDX 28 15 8 17 25 18 9 19 23 20 10 21 22 22 11 23 20 24 12 25
REMARK SMILES IDX 19 26 21 27 26 28 24 30 13 32 14 33 18 34 15 35 17 36 16 37
REMARK H PARENT 32 12 30 14 28 16 26 29 24 31
REMARK Flexibility Score: inf
ROOT
ATOM      1  O   UNL     1      -2.250 -44.885 -34.105  1.00  0.00    -0.458 OA
ENDROOT
BRANCH   1   2
ATOM      2  C   UNL     1      -2.807 -43.619 -34.477  1.00  0.00     0.339 C 
ATOM      3  C   UNL     1      -1.448 -42.454 -32.954  1.00  0.00     0.199 C 
ATOM      4  C   UNL     1      -2.634 -42.026 -32.063  1.00  0.00     0.180 C 
ATOM      5  O   UNL     1      -1.851 -42.577 -34.316  1.00  0.00    -0.328 OA
ATOM      6  C   UNL     1      -3.763 -43.074 -32.181  1.00  0.00     0.181 C 
ATOM      7  C   UNL     1      -4.090 -43.349 -33.661  1.00  0.00     0.214 C 
BRANCH   3   8
ATOM      8  C   UNL     1      -0.331 -41.455 -32.844  1.00  0.00     0.073 C 
ATOM      9  O   UNL     1      -0.301 -40.626 -31.895  1.00  0.00    -0.547 OA
ATOM     10  O   UNL     1       0.703 -41.468 -33.775  1.00  0.00    -0.547 OA
ENDBRANCH   3   8
BRANCH   4  11
ATOM     11  O   UNL     1      -3.092 -40.760 -32.464  1.00  0.00    -0.387 OA
ATOM     12  H   UNL     1      -2.539 -40.087 -31.987  1.00  0.00     0.211 HD
ENDBRANCH   4  11
BRANCH   6  13
ATOM     13  O   UNL     1      -3.379 -44.271 -31.554  1.00  0.00    -0.387 OA
ATOM     14  H   UNL     1      -4.214 -44.718 -31.253  1.00  0.00     0.211 HD
ENDBRANCH   6  13
BRANCH   7  15
ATOM     15  O   UNL     1      -4.773 -42.255 -34.220  1.00  0.00    -0.384 OA
ATOM     16  H   UNL     1      -4.604 -42.279 -35.201  1.00  0.00     0.211 HD
ENDBRANCH   7  15
ENDBRANCH   1   2
BRANCH   1  17
ATOM     17  C   UNL     1      -1.214 -45.577 -34.757  1.00  0.00     0.172 A 
ATOM     18  C   UNL     1      -0.622 -46.650 -34.077  1.00  0.00     0.201 A 
ATOM     19  C   UNL     1      -0.796 -45.265 -36.062  1.00  0.00     0.098 A 
ATOM     20  C   UNL     1       0.321 -47.482 -34.733  1.00  0.00     0.176 A 
ATOM     21  C   UNL     1       0.108 -46.087 -36.729  1.00  0.00     0.146 A 
ATOM     22  C   UNL     1       0.663 -47.216 -36.081  1.00  0.00     0.111 A 
ATOM     23  O   UNL     1       0.425 -45.806 -37.990  1.00  0.00    -0.456 OA
ATOM     24  C   UNL     1       1.541 -48.028 -36.831  1.00  0.00     0.197 A 
ATOM     25  C   UNL     1       1.245 -46.554 -38.725  1.00  0.00     0.138 A 
ATOM     26  C   UNL     1       1.829 -47.699 -38.160  1.00  0.00     0.100 A 
ATOM     27  O   UNL     1       2.083 -49.051 -36.329  1.00  0.00    -0.289 OA
BRANCH  18  28
ATOM     28  O   UNL     1      -1.007 -46.852 -32.747  1.00  0.00    -0.502 OA
ATOM     29  H   UNL     1      -1.448 -47.687 -32.401  1.00  0.00     0.293 HD
ENDBRANCH  18  28
BRANCH  20  30
ATOM     30  O   UNL     1       0.908 -48.573 -34.083  1.00  0.00    -0.504 OA
ATOM     31  H   UNL     1       0.417 -49.204 -33.467  1.00  0.00     0.293 HD
ENDBRANCH  20  30
BRANCH  25  32
ATOM     32  C   UNL     1       1.523 -46.140 -40.123  1.00  0.00     0.017 A 
ATOM     33  C   UNL     1       2.243 -44.956 -40.363  1.00  0.00     0.012 A 
ATOM     34  C   UNL     1       1.044 -46.880 -41.228  1.00  0.00     0.012 A 
ATOM     35  C   UNL     1       2.520 -44.546 -41.669  1.00  0.00     0.001 A 
ATOM     36  C   UNL     1       1.337 -46.469 -42.531  1.00  0.00     0.001 A 
ATOM     37  C   UNL     1       2.091 -45.313 -42.752  1.00  0.00     0.000 A 
ENDBRANCH  25  32
ENDBRANCH   1  17
TORSDOF 9
ENDMDL
MODEL 4
REMARK VINA RESULT:    -8.379      2.369      8.296
REMARK INTER + INTRA:         -12.415
REMARK INTER:                 -11.588
REMARK INTRA:                  -0.828
REMARK UNBOUND:                -0.853
REMARK SMILES O=C([O-])[C@@H]1O[C@@H](Oc2cc3oc(-c4ccccc4)cc(=O)c3c(O)c2O)[C@H](O)[C@@H](O)[C@@H]1O
REMARK SMILES IDX 7 1 6 2 4 3 31 4 5 5 29 6 27 7 2 8 1 9 3 10 32 11 30 13
REMARK SMILES IDX 28 15 8 17 25 18 9 19 23 20 10 21 22 22 11 23 20 24 12 25
REMARK SMILES IDX 19 26 21 27 26 28 24 30 13 32 14 33 18 34 15 35 17 36 16 37
REMARK H PARENT 32 12 30 14 28 16 26 29 24 31
REMARK Flexibility Score: inf
ROOT
ATOM      1  O   UNL     1      -2.172 -44.781 -34.289  1.00  0.00    -0.458 OA
ENDROOT
BRANCH   1   2
ATOM      2  C   UNL     1      -2.070 -43.892 -33.170  1.00  0.00     0.339 C 
ATOM      3  C   UNL     1      -4.265 -43.105 -33.460  1.00  0.00     0.199 C 
ATOM      4  C   UNL     1      -3.814 -41.682 -33.852  1.00  0.00     0.180 C 
ATOM      5  O   UNL     1      -3.339 -43.703 -32.556  1.00  0.00    -0.328 OA
ATOM      6  C   UNL     1      -2.417 -41.753 -34.507  1.00  0.00     0.181 C 
ATOM      7  C   UNL     1      -1.445 -42.553 -33.618  1.00  0.00     0.214 C 
BRANCH   3   8
ATOM      8  C   UNL     1      -5.630 -43.061 -32.832  1.00  0.00     0.073 C 
ATOM      9  O   UNL     1      -5.840 -42.373 -31.796  1.00  0.00    -0.547 OA
ATOM     10  O   UNL     1      -6.684 -43.751 -33.421  1.00  0.00    -0.547 OA
ENDBRANCH   3   8
BRANCH   4  11
ATOM     11  O   UNL     1      -3.782 -40.864 -32.710  1.00  0.00    -0.387 OA
ATOM     12  H   UNL     1      -4.087 -39.963 -32.990  1.00  0.00     0.211 HD
ENDBRANCH   4  11
BRANCH   6  13
ATOM     13  O   UNL     1      -2.506 -42.362 -35.770  1.00  0.00    -0.387 OA
ATOM     14  H   UNL     1      -2.438 -43.343 -35.622  1.00  0.00     0.211 HD
ENDBRANCH   6  13
BRANCH   7  15
ATOM     15  O   UNL     1      -1.096 -41.802 -32.483  1.00  0.00    -0.384 OA
ATOM     16  H   UNL     1      -1.159 -42.415 -31.700  1.00  0.00     0.211 HD
ENDBRANCH   7  15
ENDBRANCH   1   2
BRANCH   1  17
ATOM     17  C   UNL     1      -1.152 -45.590 -34.822  1.00  0.00     0.172 A 
ATOM     18  C   UNL     1      -0.715 -46.674 -34.050  1.00  0.00     0.201 A 
ATOM     19  C   UNL     1      -0.603 -45.379 -36.099  1.00  0.00     0.098 A 
ATOM     20  C   UNL     1       0.201 -47.615 -34.588  1.00  0.00     0.176 A 
ATOM     21  C   UNL     1       0.275 -46.307 -36.652  1.00  0.00     0.146 A 
ATOM     22  C   UNL     1       0.672 -47.446 -35.912  1.00  0.00     0.111 A 
ATOM     23  O   UNL     1       0.716 -46.116 -37.892  1.00  0.00    -0.456 OA
ATOM     24  C   UNL     1       1.533 -48.366 -36.550  1.00  0.00     0.197 A 
ATOM     25  C   UNL     1       1.523 -46.966 -38.523  1.00  0.00     0.138 A 
ATOM     26  C   UNL     1       1.955 -48.128 -37.862  1.00  0.00     0.100 A 
ATOM     27  O   UNL     1       1.939 -49.405 -35.961  1.00  0.00    -0.289 OA
BRANCH  18  28
ATOM     28  O   UNL     1      -1.223 -46.777 -32.750  1.00  0.00    -0.502 OA
ATOM     29  H   UNL     1      -0.683 -46.635 -31.913  1.00  0.00     0.293 HD
ENDBRANCH  18  28
BRANCH  20  30
ATOM     30  O   UNL     1       0.633 -48.718 -33.845  1.00  0.00    -0.504 OA
ATOM     31  H   UNL     1       1.546 -48.803 -33.425  1.00  0.00     0.293 HD
ENDBRANCH  20  30
BRANCH  25  32
ATOM     32  C   UNL     1       1.949 -46.647 -39.908  1.00  0.00     0.017 A 
ATOM     33  C   UNL     1       1.013 -46.725 -40.954  1.00  0.00     0.012 A 
ATOM     34  C   UNL     1       3.286 -46.309 -40.217  1.00  0.00     0.012 A 
ATOM     35  C   UNL     1       1.388 -46.428 -42.266  1.00  0.00     0.001 A 
ATOM     36  C   UNL     1       3.650 -46.000 -41.530  1.00  0.00     0.001 A 
ATOM     37  C   UNL     1       2.697 -46.040 -42.552  1.00  0.00     0.000 A 
ENDBRANCH  25  32
ENDBRANCH   1  17
TORSDOF 9
ENDMDL
MODEL 5
REMARK VINA RESULT:    -8.282      2.162      4.327
REMARK INTER + INTRA:         -12.281
REMARK INTER:                 -11.170
REMARK INTRA:                  -1.111
REMARK UNBOUND:                -0.853
REMARK SMILES O=C([O-])[C@@H]1O[C@@H](Oc2cc3oc(-c4ccccc4)cc(=O)c3c(O)c2O)[C@H](O)[C@@H](O)[C@@H]1O
REMARK SMILES IDX 7 1 6 2 4 3 31 4 5 5 29 6 27 7 2 8 1 9 3 10 32 11 30 13
REMARK SMILES IDX 28 15 8 17 25 18 9 19 23 20 10 21 22 22 11 23 20 24 12 25
REMARK SMILES IDX 19 26 21 27 26 28 24 30 13 32 14 33 18 34 15 35 17 36 16 37
REMARK H PARENT 32 12 30 14 28 16 26 29 24 31
REMARK Flexibility Score: inf
ROOT
ATOM      1  O   UNL     1       1.695 -44.785 -39.288  1.00  0.00    -0.458 OA
ENDROOT
BRANCH   1   2
ATOM      2  C   UNL     1       1.036 -46.029 -39.553  1.00  0.00     0.339 C 
ATOM      3  C   UNL     1       2.688 -47.265 -38.427  1.00  0.00     0.199 C 
ATOM      4  C   UNL     1       3.192 -47.958 -39.711  1.00  0.00     0.180 C 
ATOM      5  O   UNL     1       1.297 -46.971 -38.518  1.00  0.00    -0.328 OA
ATOM      6  C   UNL     1       2.932 -47.037 -40.923  1.00  0.00     0.181 C 
ATOM      7  C   UNL     1       1.464 -46.566 -40.937  1.00  0.00     0.214 C 
BRANCH   3   8
ATOM      8  C   UNL     1       2.945 -48.139 -37.232  1.00  0.00     0.073 C 
ATOM      9  O   UNL     1       2.117 -49.029 -36.896  1.00  0.00    -0.547 OA
ATOM     10  O   UNL     1       4.125 -47.995 -36.511  1.00  0.00    -0.547 OA
ENDBRANCH   3   8
BRANCH   4  11
ATOM     11  O   UNL     1       2.531 -49.187 -39.875  1.00  0.00    -0.387 OA
ATOM     12  H   UNL     1       2.934 -49.822 -39.227  1.00  0.00     0.211 HD
ENDBRANCH   4  11
BRANCH   6  13
ATOM     13  O   UNL     1       3.782 -45.920 -40.873  1.00  0.00    -0.387 OA
ATOM     14  H   UNL     1       3.880 -45.676 -39.913  1.00  0.00     0.211 HD
ENDBRANCH   6  13
BRANCH   7  15
ATOM     15  O   UNL     1       0.617 -47.625 -41.304  1.00  0.00    -0.384 OA
ATOM     16  H   UNL     1       0.795 -48.371 -40.669  1.00  0.00     0.211 HD
ENDBRANCH   7  15
ENDBRANCH   1   2
BRANCH   1  17
ATOM     17  C   UNL     1       1.393 -43.870 -38.263  1.00  0.00     0.172 A 
ATOM     18  C   UNL     1       2.327 -42.860 -37.999  1.00  0.00     0.201 A 
ATOM     19  C   UNL     1       0.186 -43.907 -37.544  1.00  0.00     0.098 A 
ATOM     20  C   UNL     1       2.020 -41.820 -37.085  1.00  0.00     0.176 A 
ATOM     21  C   UNL     1      -0.143 -42.879 -36.664  1.00  0.00     0.146 A 
ATOM     22  C   UNL     1       0.760 -41.813 -36.439  1.00  0.00     0.111 A 
ATOM     23  O   UNL     1      -1.326 -42.905 -36.057  1.00  0.00    -0.456 OA
ATOM     24  C   UNL     1       0.344 -40.784 -35.565  1.00  0.00     0.197 A 
ATOM     25  C   UNL     1      -1.749 -41.949 -35.232  1.00  0.00     0.138 A 
ATOM     26  C   UNL     1      -0.917 -40.850 -34.965  1.00  0.00     0.100 A 
ATOM     27  O   UNL     1       1.090 -39.800 -35.306  1.00  0.00    -0.289 OA
BRANCH  18  28
ATOM     28  O   UNL     1       3.551 -42.931 -38.674  1.00  0.00    -0.502 OA
ATOM     29  H   UNL     1       3.649 -42.982 -39.674  1.00  0.00     0.293 HD
ENDBRANCH  18  28
BRANCH  20  30
ATOM     30  O   UNL     1       2.926 -40.787 -36.823  1.00  0.00    -0.504 OA
ATOM     31  H   UNL     1       2.997 -39.937 -37.361  1.00  0.00     0.293 HD
ENDBRANCH  20  30
BRANCH  25  32
ATOM     32  C   UNL     1      -3.090 -42.087 -34.614  1.00  0.00     0.017 A 
ATOM     33  C   UNL     1      -3.714 -43.347 -34.588  1.00  0.00     0.012 A 
ATOM     34  C   UNL     1      -3.786 -40.975 -34.086  1.00  0.00     0.012 A 
ATOM     35  C   UNL     1      -4.976 -43.503 -34.010  1.00  0.00     0.001 A 
ATOM     36  C   UNL     1      -5.041 -41.143 -33.497  1.00  0.00     0.001 A 
ATOM     37  C   UNL     1      -5.628 -42.410 -33.442  1.00  0.00     0.000 A 
ENDBRANCH  25  32
ENDBRANCH   1  17
TORSDOF 9
ENDMDL
MODEL 6
REMARK VINA RESULT:    -8.255      2.629      8.398
REMARK INTER + INTRA:         -12.245
REMARK INTER:                 -11.188
REMARK INTRA:                  -1.057
REMARK UNBOUND:                -0.853
REMARK SMILES O=C([O-])[C@@H]1O[C@@H](Oc2cc3oc(-c4ccccc4)cc(=O)c3c(O)c2O)[C@H](O)[C@@H](O)[C@@H]1O
REMARK SMILES IDX 7 1 6 2 4 3 31 4 5 5 29 6 27 7 2 8 1 9 3 10 32 11 30 13
REMARK SMILES IDX 28 15 8 17 25 18 9 19 23 20 10 21 22 22 11 23 20 24 12 25
REMARK SMILES IDX 19 26 21 27 26 28 24 30 13 32 14 33 18 34 15 35 17 36 16 37
REMARK H PARENT 32 12 30 14 28 16 26 29 24 31
REMARK Flexibility Score: inf
ROOT
ATOM      1  O   UNL     1      -2.987 -44.272 -34.691  1.00  0.00    -0.458 OA
ENDROOT
BRANCH   1   2
ATOM      2  C   UNL     1      -2.990 -42.839 -34.717  1.00  0.00     0.339 C 
ATOM      3  C   UNL     1      -2.377 -42.691 -32.454  1.00  0.00     0.199 C 
ATOM      4  C   UNL     1      -3.727 -42.077 -32.021  1.00  0.00     0.180 C 
ATOM      5  O   UNL     1      -2.049 -42.313 -33.788  1.00  0.00    -0.328 OA
ATOM      6  C   UNL     1      -4.835 -42.554 -32.986  1.00  0.00     0.181 C 
ATOM      7  C   UNL     1      -4.417 -42.312 -34.449  1.00  0.00     0.214 C 
BRANCH   3   8
ATOM      8  C   UNL     1      -1.286 -42.251 -31.519  1.00  0.00     0.073 C 
ATOM      9  O   UNL     1      -1.534 -42.017 -30.305  1.00  0.00    -0.547 OA
ATOM     10  O   UNL     1       0.020 -42.140 -31.985  1.00  0.00    -0.547 OA
ENDBRANCH   3   8
BRANCH   4  11
ATOM     11  O   UNL     1      -3.633 -40.675 -32.031  1.00  0.00    -0.387 OA
ATOM     12  H   UNL     1      -4.393 -40.338 -32.572  1.00  0.00     0.211 HD
ENDBRANCH   4  11
BRANCH   6  13
ATOM     13  O   UNL     1      -5.090 -43.921 -32.791  1.00  0.00    -0.387 OA
ATOM     14  H   UNL     1      -4.863 -44.124 -31.844  1.00  0.00     0.211 HD
ENDBRANCH   6  13
BRANCH   7  15
ATOM     15  O   UNL     1      -4.467 -40.940 -34.748  1.00  0.00    -0.384 OA
ATOM     16  H   UNL     1      -3.896 -40.798 -35.552  1.00  0.00     0.211 HD
ENDBRANCH   7  15
ENDBRANCH   1   2
BRANCH   1  17
ATOM     17  C   UNL     1      -1.862 -45.115 -34.695  1.00  0.00     0.172 A 
ATOM     18  C   UNL     1      -1.668 -45.943 -33.582  1.00  0.00     0.201 A 
ATOM     19  C   UNL     1      -0.971 -45.188 -35.779  1.00  0.00     0.098 A 
ATOM     20  C   UNL     1      -0.642 -46.923 -33.586  1.00  0.00     0.176 A 
ATOM     21  C   UNL     1       0.024 -46.161 -35.811  1.00  0.00     0.146 A 
ATOM     22  C   UNL     1       0.189 -47.053 -34.725  1.00  0.00     0.111 A 
ATOM     23  O   UNL     1       0.802 -46.251 -36.887  1.00  0.00    -0.456 OA
ATOM     24  C   UNL     1       1.191 -48.041 -34.843  1.00  0.00     0.197 A 
ATOM     25  C   UNL     1       1.752 -47.174 -37.030  1.00  0.00     0.138 A 
ATOM     26  C   UNL     1       1.971 -48.104 -36.002  1.00  0.00     0.100 A 
ATOM     27  O   UNL     1       1.407 -48.872 -33.919  1.00  0.00    -0.289 OA
BRANCH  18  28
ATOM     28  O   UNL     1      -2.527 -45.758 -32.492  1.00  0.00    -0.502 OA
ATOM     29  H   UNL     1      -2.850 -46.495 -31.888  1.00  0.00     0.293 HD
ENDBRANCH  18  28
BRANCH  20  30
ATOM     30  O   UNL     1      -0.445 -47.777 -32.497  1.00  0.00    -0.504 OA
ATOM     31  H   UNL     1      -1.147 -47.995 -31.805  1.00  0.00     0.293 HD
ENDBRANCH  20  30
BRANCH  25  32
ATOM     32  C   UNL     1       2.557 -47.177 -38.276  1.00  0.00     0.017 A 
ATOM     33  C   UNL     1       3.358 -48.292 -38.579  1.00  0.00     0.012 A 
ATOM     34  C   UNL     1       2.579 -46.067 -39.152  1.00  0.00     0.012 A 
ATOM     35  C   UNL     1       4.123 -48.320 -39.747  1.00  0.00     0.001 A 
ATOM     36  C   UNL     1       3.337 -46.110 -40.325  1.00  0.00     0.001 A 
ATOM     37  C   UNL     1       4.094 -47.243 -40.632  1.00  0.00     0.000 A 
ENDBRANCH  25  32
ENDBRANCH   1  17
TORSDOF 9
ENDMDL
MODEL 7
REMARK VINA RESULT:    -7.808      2.927      8.729
REMARK INTER + INTRA:         -11.628
REMARK INTER:                 -10.495
REMARK INTRA:                  -1.133
REMARK UNBOUND:                -0.853
REMARK SMILES O=C([O-])[C@@H]1O[C@@H](Oc2cc3oc(-c4ccccc4)cc(=O)c3c(O)c2O)[C@H](O)[C@@H](O)[C@@H]1O
REMARK SMILES IDX 7 1 6 2 4 3 31 4 5 5 29 6 27 7 2 8 1 9 3 10 32 11 30 13
REMARK SMILES IDX 28 15 8 17 25 18 9 19 23 20 10 21 22 22 11 23 20 24 12 25
REMARK SMILES IDX 19 26 21 27 26 28 24 30 13 32 14 33 18 34 15 35 17 36 16 37
REMARK H PARENT 32 12 30 14 28 16 26 29 24 31
REMARK Flexibility Score: inf
ROOT
ATOM      1  O   UNL     1      -2.614 -43.215 -34.312  1.00  0.00    -0.458 OA
ENDROOT
BRANCH   1   2
ATOM      2  C   UNL     1      -2.252 -41.917 -33.826  1.00  0.00     0.339 C 
ATOM      3  C   UNL     1      -3.635 -42.121 -31.938  1.00  0.00     0.199 C 
ATOM      4  C   UNL     1      -4.602 -41.007 -32.398  1.00  0.00     0.180 C 
ATOM      5  O   UNL     1      -2.312 -41.872 -32.406  1.00  0.00    -0.328 OA
ATOM      6  C   UNL     1      -4.598 -40.935 -33.940  1.00  0.00     0.181 C 
ATOM      7  C   UNL     1      -3.155 -40.843 -34.472  1.00  0.00     0.214 C 
BRANCH   3   8
ATOM      8  C   UNL     1      -3.633 -42.218 -30.439  1.00  0.00     0.073 C 
ATOM      9  O   UNL     1      -2.595 -42.574 -29.818  1.00  0.00    -0.547 OA
ATOM     10  O   UNL     1      -4.775 -41.875 -29.722  1.00  0.00    -0.547 OA
ENDBRANCH   3   8
BRANCH   4  11
ATOM     11  O   UNL     1      -4.204 -39.779 -31.845  1.00  0.00    -0.387 OA
ATOM     12  H   UNL     1      -3.321 -39.556 -32.239  1.00  0.00     0.211 HD
ENDBRANCH   4  11
BRANCH   6  13
ATOM     13  O   UNL     1      -5.225 -42.071 -34.479  1.00  0.00    -0.387 OA
ATOM     14  H   UNL     1      -5.875 -42.391 -33.797  1.00  0.00     0.211 HD
ENDBRANCH   6  13
BRANCH   7  15
ATOM     15  O   UNL     1      -2.621 -39.570 -34.211  1.00  0.00    -0.384 OA
ATOM     16  H   UNL     1      -2.200 -39.254 -35.056  1.00  0.00     0.211 HD
ENDBRANCH   7  15
ENDBRANCH   1   2
BRANCH   1  17
ATOM     17  C   UNL     1      -1.768 -44.328 -34.462  1.00  0.00     0.172 A 
ATOM     18  C   UNL     1      -1.816 -45.318 -33.472  1.00  0.00     0.201 A 
ATOM     19  C   UNL     1      -0.928 -44.499 -35.577  1.00  0.00     0.098 A 
ATOM     20  C   UNL     1      -1.102 -46.533 -33.637  1.00  0.00     0.176 A 
ATOM     21  C   UNL     1      -0.243 -45.696 -35.767  1.00  0.00     0.146 A 
ATOM     22  C   UNL     1      -0.337 -46.734 -34.810  1.00  0.00     0.111 A 
ATOM     23  O   UNL     1       0.482 -45.854 -36.871  1.00  0.00    -0.456 OA
ATOM     24  C   UNL     1       0.352 -47.936 -35.088  1.00  0.00     0.197 A 
ATOM     25  C   UNL     1       1.139 -46.975 -37.163  1.00  0.00     0.138 A 
ATOM     26  C   UNL     1       1.087 -48.058 -36.271  1.00  0.00     0.100 A 
ATOM     27  O   UNL     1       0.325 -48.910 -34.286  1.00  0.00    -0.289 OA
BRANCH  18  28
ATOM     28  O   UNL     1      -2.592 -45.049 -32.340  1.00  0.00    -0.502 OA
ATOM     29  H   UNL     1      -3.474 -45.487 -32.134  1.00  0.00     0.293 HD
ENDBRANCH  18  28
BRANCH  20  30
ATOM     30  O   UNL     1      -1.154 -47.545 -32.674  1.00  0.00    -0.504 OA
ATOM     31  H   UNL     1      -1.945 -47.726 -32.075  1.00  0.00     0.293 HD
ENDBRANCH  20  30
BRANCH  25  32
ATOM     32  C   UNL     1       1.915 -47.035 -38.426  1.00  0.00     0.017 A 
ATOM     33  C   UNL     1       3.315 -46.907 -38.384  1.00  0.00     0.012 A 
ATOM     34  C   UNL     1       1.284 -47.173 -39.684  1.00  0.00     0.012 A 
ATOM     35  C   UNL     1       4.068 -46.961 -39.559  1.00  0.00     0.001 A 
ATOM     36  C   UNL     1       2.046 -47.240 -40.852  1.00  0.00     0.001 A 
ATOM     37  C   UNL     1       3.440 -47.154 -40.788  1.00  0.00     0.000 A 
ENDBRANCH  25  32
ENDBRANCH   1  17
TORSDOF 9
ENDMDL
MODEL 8
REMARK VINA RESULT:    -7.466      4.544     10.228
REMARK INTER + INTRA:         -11.156
REMARK INTER:                  -9.990
REMARK INTRA:                  -1.167
REMARK UNBOUND:                -0.853
REMARK SMILES O=C([O-])[C@@H]1O[C@@H](Oc2cc3oc(-c4ccccc4)cc(=O)c3c(O)c2O)[C@H](O)[C@@H](O)[C@@H]1O
REMARK SMILES IDX 7 1 6 2 4 3 31 4 5 5 29 6 27 7 2 8 1 9 3 10 32 11 30 13
REMARK SMILES IDX 28 15 8 17 25 18 9 19 23 20 10 21 22 22 11 23 20 24 12 25
REMARK SMILES IDX 19 26 21 27 26 28 24 30 13 32 14 33 18 34 15 35 17 36 16 37
REMARK H PARENT 32 12 30 14 28 16 26 29 24 31
REMARK Flexibility Score: inf
ROOT
ATOM      1  O   UNL     1      -3.617 -41.589 -31.974  1.00  0.00    -0.458 OA
ENDROOT
BRANCH   1   2
ATOM      2  C   UNL     1      -4.984 -41.715 -31.565  1.00  0.00     0.339 C 
ATOM      3  C   UNL     1      -5.225 -39.395 -31.287  1.00  0.00     0.199 C 
ATOM      4  C   UNL     1      -5.394 -39.491 -29.755  1.00  0.00     0.180 C 
ATOM      5  O   UNL     1      -5.731 -40.561 -31.930  1.00  0.00    -0.328 OA
ATOM      6  C   UNL     1      -4.646 -40.739 -29.238  1.00  0.00     0.181 C 
ATOM      7  C   UNL     1      -5.054 -41.986 -30.046  1.00  0.00     0.214 C 
BRANCH   3   8
ATOM      8  C   UNL     1      -5.934 -38.178 -31.810  1.00  0.00     0.073 C 
ATOM      9  O   UNL     1      -7.175 -38.203 -32.034  1.00  0.00    -0.547 OA
ATOM     10  O   UNL     1      -5.226 -36.998 -32.013  1.00  0.00    -0.547 OA
ENDBRANCH   3   8
BRANCH   4  11
ATOM     11  O   UNL     1      -6.761 -39.566 -29.435  1.00  0.00    -0.387 OA
ATOM     12  H   UNL     1      -7.004 -38.709 -28.998  1.00  0.00     0.211 HD
ENDBRANCH   4  11
BRANCH   6  13
ATOM     13  O   UNL     1      -3.258 -40.547 -29.340  1.00  0.00    -0.387 OA
ATOM     14  H   UNL     1      -2.957 -40.165 -28.472  1.00  0.00     0.211 HD
ENDBRANCH   6  13
BRANCH   7  15
ATOM     15  O   UNL     1      -6.360 -42.379 -29.706  1.00  0.00    -0.384 OA
ATOM     16  H   UNL     1      -6.290 -42.932 -28.880  1.00  0.00     0.211 HD
ENDBRANCH   7  15
ENDBRANCH   1   2
BRANCH   1  17
ATOM     17  C   UNL     1      -2.994 -42.244 -33.052  1.00  0.00     0.172 A 
ATOM     18  C   UNL     1      -2.655 -41.473 -34.171  1.00  0.00     0.201 A 
ATOM     19  C   UNL     1      -2.662 -43.610 -33.021  1.00  0.00     0.098 A 
ATOM     20  C   UNL     1      -1.893 -42.037 -35.226  1.00  0.00     0.176 A 
ATOM     21  C   UNL     1      -1.891 -44.171 -34.035  1.00  0.00     0.146 A 
ATOM     22  C   UNL     1      -1.480 -43.388 -35.140  1.00  0.00     0.111 A 
ATOM     23  O   UNL     1      -1.530 -45.448 -33.938  1.00  0.00    -0.456 OA
ATOM     24  C   UNL     1      -0.665 -44.012 -36.110  1.00  0.00     0.197 A 
ATOM     25  C   UNL     1      -0.760 -46.064 -34.833  1.00  0.00     0.138 A 
ATOM     26  C   UNL     1      -0.300 -45.353 -35.953  1.00  0.00     0.100 A 
ATOM     27  O   UNL     1      -0.259 -43.387 -37.129  1.00  0.00    -0.289 OA
BRANCH  18  28
ATOM     28  O   UNL     1      -3.097 -40.146 -34.188  1.00  0.00    -0.502 OA
ATOM     29  H   UNL     1      -2.945 -39.483 -33.446  1.00  0.00     0.293 HD
ENDBRANCH  18  28
BRANCH  20  30
ATOM     30  O   UNL     1      -1.522 -41.280 -36.343  1.00  0.00    -0.504 OA
ATOM     31  H   UNL     1      -1.219 -41.669 -37.223  1.00  0.00     0.293 HD
ENDBRANCH  20  30
BRANCH  25  32
ATOM     32  C   UNL     1      -0.422 -47.492 -34.617  1.00  0.00     0.017 A 
ATOM     33  C   UNL     1      -0.729 -48.097 -33.385  1.00  0.00     0.012 A 
ATOM     34  C   UNL     1       0.244 -48.257 -35.601  1.00  0.00     0.012 A 
ATOM     35  C   UNL     1      -0.423 -49.440 -33.158  1.00  0.00     0.001 A 
ATOM     36  C   UNL     1       0.534 -49.604 -35.370  1.00  0.00     0.001 A 
ATOM     37  C   UNL     1       0.183 -50.201 -34.156  1.00  0.00     0.000 A 
ENDBRANCH  25  32
ENDBRANCH   1  17
TORSDOF 9
ENDMDL
MODEL 9
REMARK VINA RESULT:    -7.269      3.381      8.697
REMARK INTER + INTRA:         -10.884
REMARK INTER:                  -9.562
REMARK INTRA:                  -1.322
REMARK UNBOUND:                -0.853
REMARK SMILES O=C([O-])[C@@H]1O[C@@H](Oc2cc3oc(-c4ccccc4)cc(=O)c3c(O)c2O)[C@H](O)[C@@H](O)[C@@H]1O
REMARK SMILES IDX 7 1 6 2 4 3 31 4 5 5 29 6 27 7 2 8 1 9 3 10 32 11 30 13
REMARK SMILES IDX 28 15 8 17 25 18 9 19 23 20 10 21 22 22 11 23 20 24 12 25
REMARK SMILES IDX 19 26 21 27 26 28 24 30 13 32 14 33 18 34 15 35 17 36 16 37
REMARK H PARENT 32 12 30 14 28 16 26 29 24 31
REMARK Flexibility Score: inf
ROOT
ATOM      1  O   UNL     1      -2.032 -42.135 -33.653  1.00  0.00    -0.458 OA
ENDROOT
BRANCH   1   2
ATOM      2  C   UNL     1      -3.221 -41.502 -34.140  1.00  0.00     0.339 C 
ATOM      3  C   UNL     1      -2.984 -39.686 -32.669  1.00  0.00     0.199 C 
ATOM      4  C   UNL     1      -4.244 -40.049 -31.852  1.00  0.00     0.180 C 
ATOM      5  O   UNL     1      -3.125 -40.087 -34.029  1.00  0.00    -0.328 OA
ATOM      6  C   UNL     1      -4.475 -41.573 -31.925  1.00  0.00     0.181 C 
ATOM      7  C   UNL     1      -4.454 -42.053 -33.389  1.00  0.00     0.214 C 
BRANCH   3   8
ATOM      8  C   UNL     1      -2.732 -38.206 -32.601  1.00  0.00     0.073 C 
ATOM      9  O   UNL     1      -3.501 -37.452 -31.946  1.00  0.00    -0.547 OA
ATOM     10  O   UNL     1      -1.616 -37.665 -33.231  1.00  0.00    -0.547 OA
ENDBRANCH   3   8
BRANCH   4  11
ATOM     11  O   UNL     1      -5.354 -39.356 -32.364  1.00  0.00    -0.387 OA
ATOM     12  H   UNL     1      -5.540 -39.731 -33.264  1.00  0.00     0.211 HD
ENDBRANCH   4  11
BRANCH   6  13
ATOM     13  O   UNL     1      -3.482 -42.249 -31.196  1.00  0.00    -0.387 OA
ATOM     14  H   UNL     1      -3.728 -43.212 -31.200  1.00  0.00     0.211 HD
ENDBRANCH   6  13
BRANCH   7  15
ATOM     15  O   UNL     1      -5.622 -41.641 -34.053  1.00  0.00    -0.384 OA
ATOM     16  H   UNL     1      -5.615 -42.076 -34.948  1.00  0.00     0.211 HD
ENDBRANCH   7  15
ENDBRANCH   1   2
BRANCH   1  17
ATOM     17  C   UNL     1      -1.425 -43.298 -34.161  1.00  0.00     0.172 A 
ATOM     18  C   UNL     1      -1.505 -44.463 -33.388  1.00  0.00     0.201 A 
ATOM     19  C   UNL     1      -0.796 -43.339 -35.418  1.00  0.00     0.098 A 
ATOM     20  C   UNL     1      -1.047 -45.701 -33.907  1.00  0.00     0.176 A 
ATOM     21  C   UNL     1      -0.367 -44.550 -35.953  1.00  0.00     0.146 A 
ATOM     22  C   UNL     1      -0.504 -45.749 -35.213  1.00  0.00     0.111 A 
ATOM     23  O   UNL     1       0.155 -44.565 -37.177  1.00  0.00    -0.456 OA
ATOM     24  C   UNL     1      -0.085 -46.946 -35.834  1.00  0.00     0.197 A 
ATOM     25  C   UNL     1       0.555 -45.677 -37.791  1.00  0.00     0.138 A 
ATOM     26  C   UNL     1       0.442 -46.910 -37.129  1.00  0.00     0.100 A 
ATOM     27  O   UNL     1      -0.168 -48.058 -35.243  1.00  0.00    -0.289 OA
BRANCH  18  28
ATOM     28  O   UNL     1      -2.052 -44.340 -32.106  1.00  0.00    -0.502 OA
ATOM     29  H   UNL     1      -2.708 -44.987 -31.701  1.00  0.00     0.293 HD
ENDBRANCH  18  28
BRANCH  20  30
ATOM     30  O   UNL     1      -1.138 -46.882 -33.163  1.00  0.00    -0.504 OA
ATOM     31  H   UNL     1      -1.077 -47.811 -33.552  1.00  0.00     0.293 HD
ENDBRANCH  20  30
BRANCH  25  32
ATOM     32  C   UNL     1       1.120 -45.569 -39.158  1.00  0.00     0.017 A 
ATOM     33  C   UNL     1       1.740 -44.371 -39.558  1.00  0.00     0.012 A 
ATOM     34  C   UNL     1       1.016 -46.623 -40.094  1.00  0.00     0.012 A 
ATOM     35  C   UNL     1       2.282 -44.245 -40.839  1.00  0.00     0.001 A 
ATOM     36  C   UNL     1       1.572 -46.493 -41.368  1.00  0.00     0.001 A 
ATOM     37  C   UNL     1       2.223 -45.311 -41.734  1.00  0.00     0.000 A 
ENDBRANCH  25  32
ENDBRANCH   1  17
TORSDOF 9
ENDMDL
