MODEL 1
REMARK VINA RESULT:    -5.611      0.000      0.000
REMARK INTER + INTRA:          -8.774
REMARK INTER:                  -7.579
REMARK INTRA:                  -1.195
REMARK UNBOUND:                -1.195
REMARK SMILES O=c1c(-c2ccc(O)cc2)coc2c([C@H]3O[C@@H](CO)[C@@H](O)[C@@H](O)[C@H]3O)c(O)ccc12
REMARK SMILES IDX 3 1 11 2 12 3 13 4 30 5 2 6 1 7 29 8 28 9 26 10 14 11 4 12
REMARK SMILES IDX 5 13 6 14 7 15 10 16 9 17 8 18 15 20 24 21 16 22 22 23 17 24
REMARK SMILES IDX 20 25 25 26 23 28 18 30 19 31 21 33 27 35
REMARK H PARENT 8 19 25 27 23 29 19 32 21 34 27 36
REMARK Flexibility Score: inf
ROOT
ATOM      1  C   UNL     1      19.739  -3.847  28.573  1.00  0.00     0.065 A 
ATOM      2  C   UNL     1      20.090  -5.167  28.235  1.00  0.00     0.208 A 
ATOM      3  O   UNL     1      19.153  -6.080  27.884  1.00  0.00    -0.463 OA
ATOM      4  C   UNL     1      17.807  -5.866  27.851  1.00  0.00     0.147 A 
ATOM      5  C   UNL     1      17.390  -4.538  28.176  1.00  0.00     0.066 A 
ATOM      6  C   UNL     1      18.342  -3.595  28.666  1.00  0.00     0.200 A 
ATOM      7  O   UNL     1      17.930  -2.594  29.318  1.00  0.00    -0.288 OA
ATOM      8  C   UNL     1      16.031  -4.342  28.381  1.00  0.00     0.020 A 
ATOM      9  C   UNL     1      15.496  -5.338  29.227  1.00  0.00     0.047 A 
ATOM     10  C   UNL     1      15.622  -6.647  28.767  1.00  0.00     0.125 A 
ATOM     11  C   UNL     1      16.796  -6.964  27.933  1.00  0.00     0.069 A 
ENDROOT
BRANCH   1  12
ATOM     12  C   UNL     1      20.634  -3.030  29.440  1.00  0.00    -0.011 A 
ATOM     13  C   UNL     1      21.409  -1.919  28.949  1.00  0.00     0.013 A 
ATOM     14  C   UNL     1      22.574  -1.558  29.628  1.00  0.00     0.047 A 
ATOM     15  C   UNL     1      22.715  -1.854  30.998  1.00  0.00     0.115 A 
ATOM     16  C   UNL     1      20.762  -3.289  30.848  1.00  0.00     0.013 A 
ATOM     17  C   UNL     1      21.732  -2.642  31.604  1.00  0.00     0.047 A 
BRANCH  15  18
ATOM     18  O   UNL     1      23.808  -1.384  31.715  1.00  0.00    -0.508 OA
ATOM     19  H   UNL     1      23.953  -0.375  31.761  1.00  0.00     0.293 HD
ENDBRANCH  15  18
ENDBRANCH   1  12
BRANCH  11  20
ATOM     20  C   UNL     1      16.424  -8.032  26.758  1.00  0.00     0.188 C 
ATOM     21  C   UNL     1      16.300  -7.550  25.169  1.00  0.00     0.179 C 
ATOM     22  O   UNL     1      15.523  -9.089  27.114  1.00  0.00    -0.362 OA
ATOM     23  C   UNL     1      16.264  -8.730  24.107  1.00  0.00     0.177 C 
ATOM     24  C   UNL     1      15.368 -10.115  26.112  1.00  0.00     0.176 C 
ATOM     25  C   UNL     1      16.389 -10.025  24.897  1.00  0.00     0.177 C 
BRANCH  21  26
ATOM     26  O   UNL     1      15.409  -6.501  24.879  1.00  0.00    -0.387 OA
ATOM     27  H   UNL     1      15.277  -6.486  23.890  1.00  0.00     0.211 HD
ENDBRANCH  21  26
BRANCH  23  28
ATOM     28  O   UNL     1      14.995  -8.759  23.484  1.00  0.00    -0.387 OA
ATOM     29  H   UNL     1      14.537  -7.916  23.745  1.00  0.00     0.211 HD
ENDBRANCH  23  28
BRANCH  24  30
ATOM     30  C   UNL     1      13.840 -10.195  25.614  1.00  0.00     0.191 C 
BRANCH  30  31
ATOM     31  O   UNL     1      13.060  -9.014  25.684  1.00  0.00    -0.394 OA
ATOM     32  H   UNL     1      12.947  -8.888  26.717  1.00  0.00     0.210 HD
ENDBRANCH  30  31
ENDBRANCH  24  30
BRANCH  25  33
ATOM     33  O   UNL     1      16.227 -11.166  24.081  1.00  0.00    -0.388 OA
ATOM     34  H   UNL     1      15.258 -11.316  23.994  1.00  0.00     0.211 HD
ENDBRANCH  25  33
ENDBRANCH  11  20
BRANCH  10  35
ATOM     35  O   UNL     1      14.691  -7.605  29.174  1.00  0.00    -0.507 OA
ATOM     36  H   UNL     1      14.711  -7.993  30.127  1.00  0.00     0.293 HD
ENDBRANCH  10  35
TORSDOF 9
ENDMDL
MODEL 2
REMARK VINA RESULT:    -5.495      2.841      5.552
REMARK INTER + INTRA:          -8.617
REMARK INTER:                  -7.546
REMARK INTRA:                  -1.071
REMARK UNBOUND:                -1.195
REMARK SMILES O=c1c(-c2ccc(O)cc2)coc2c([C@H]3O[C@@H](CO)[C@@H](O)[C@@H](O)[C@H]3O)c(O)ccc12
REMARK SMILES IDX 3 1 11 2 12 3 13 4 30 5 2 6 1 7 29 8 28 9 26 10 14 11 4 12
REMARK SMILES IDX 5 13 6 14 7 15 10 16 9 17 8 18 15 20 24 21 16 22 22 23 17 24
REMARK SMILES IDX 20 25 25 26 23 28 18 30 19 31 21 33 27 35
REMARK H PARENT 8 19 25 27 23 29 19 32 21 34 27 36
REMARK Flexibility Score: inf
ROOT
ATOM      1  C   UNL     1      16.737  -7.342  26.887  1.00  0.00     0.065 A 
ATOM      2  C   UNL     1      16.536  -6.919  25.561  1.00  0.00     0.208 A 
ATOM      3  O   UNL     1      16.347  -7.808  24.556  1.00  0.00    -0.463 OA
ATOM      4  C   UNL     1      16.366  -9.166  24.681  1.00  0.00     0.147 A 
ATOM      5  C   UNL     1      16.558  -9.656  26.010  1.00  0.00     0.066 A 
ATOM      6  C   UNL     1      16.880  -8.748  27.062  1.00  0.00     0.200 A 
ATOM      7  O   UNL     1      17.434  -9.194  28.106  1.00  0.00    -0.288 OA
ATOM      8  C   UNL     1      16.816 -11.013  26.144  1.00  0.00     0.020 A 
ATOM      9  C   UNL     1      17.801 -11.437  25.225  1.00  0.00     0.047 A 
ATOM     10  C   UNL     1      17.489 -11.244  23.881  1.00  0.00     0.125 A 
ATOM     11  C   UNL     1      16.632 -10.094  23.540  1.00  0.00     0.069 A 
ENDROOT
BRANCH   1  12
ATOM     12  C   UNL     1      17.451  -6.464  27.856  1.00  0.00    -0.011 A 
ATOM     13  C   UNL     1      18.562  -5.623  27.487  1.00  0.00     0.013 A 
ATOM     14  C   UNL     1      19.490  -5.264  28.467  1.00  0.00     0.047 A 
ATOM     15  C   UNL     1      19.108  -5.228  29.823  1.00  0.00     0.115 A 
ATOM     16  C   UNL     1      17.053  -6.381  29.234  1.00  0.00     0.013 A 
ATOM     17  C   UNL     1      17.837  -5.703  30.161  1.00  0.00     0.047 A 
BRANCH  15  18
ATOM     18  O   UNL     1      19.980  -4.746  30.791  1.00  0.00    -0.508 OA
ATOM     19  H   UNL     1      20.457  -5.423  31.386  1.00  0.00     0.293 HD
ENDBRANCH  15  18
ENDBRANCH   1  12
BRANCH  11  20
ATOM     20  C   UNL     1      15.612 -10.450  22.318  1.00  0.00     0.188 C 
ATOM     21  C   UNL     1      14.153  -9.663  22.163  1.00  0.00     0.179 C 
ATOM     22  O   UNL     1      15.581 -11.817  21.886  1.00  0.00    -0.362 OA
ATOM     23  C   UNL     1      13.423  -9.866  20.768  1.00  0.00     0.177 C 
ATOM     24  C   UNL     1      14.816 -12.055  20.687  1.00  0.00     0.176 C 
ATOM     25  C   UNL     1      14.337 -10.745  19.926  1.00  0.00     0.177 C 
BRANCH  21  26
ATOM     26  O   UNL     1      13.282  -9.693  23.267  1.00  0.00    -0.387 OA
ATOM     27  H   UNL     1      13.819  -9.958  24.065  1.00  0.00     0.211 HD
ENDBRANCH  21  26
BRANCH  23  28
ATOM     28  O   UNL     1      12.230 -10.598  20.966  1.00  0.00    -0.387 OA
ATOM     29  H   UNL     1      11.956 -10.434  21.907  1.00  0.00     0.211 HD
ENDBRANCH  23  28
BRANCH  24  30
ATOM     30  C   UNL     1      13.595 -13.062  20.985  1.00  0.00     0.191 C 
BRANCH  30  31
ATOM     31  O   UNL     1      13.046 -13.065  22.291  1.00  0.00    -0.394 OA
ATOM     32  H   UNL     1      12.206 -12.449  22.177  1.00  0.00     0.210 HD
ENDBRANCH  30  31
ENDBRANCH  24  30
BRANCH  25  33
ATOM     33  O   UNL     1      13.738 -11.121  18.703  1.00  0.00    -0.388 OA
ATOM     34  H   UNL     1      14.022 -12.047  18.524  1.00  0.00     0.211 HD
ENDBRANCH  25  33
ENDBRANCH  11  20
BRANCH  10  35
ATOM     35  O   UNL     1      18.058 -12.086  22.923  1.00  0.00    -0.507 OA
ATOM     36  H   UNL     1      18.829 -12.722  23.165  1.00  0.00     0.293 HD
ENDBRANCH  10  35
TORSDOF 9
ENDMDL
MODEL 3
REMARK VINA RESULT:    -5.226      2.110      8.895
REMARK INTER + INTRA:          -8.254
REMARK INTER:                  -7.134
REMARK INTRA:                  -1.120
REMARK UNBOUND:                -1.195
REMARK SMILES O=c1c(-c2ccc(O)cc2)coc2c([C@H]3O[C@@H](CO)[C@@H](O)[C@@H](O)[C@H]3O)c(O)ccc12
REMARK SMILES IDX 3 1 11 2 12 3 13 4 30 5 2 6 1 7 29 8 28 9 26 10 14 11 4 12
REMARK SMILES IDX 5 13 6 14 7 15 10 16 9 17 8 18 15 20 24 21 16 22 22 23 17 24
REMARK SMILES IDX 20 25 25 26 23 28 18 30 19 31 21 33 27 35
REMARK H PARENT 8 19 25 27 23 29 19 32 21 34 27 36
REMARK Flexibility Score: inf
ROOT
ATOM      1  C   UNL     1      16.470  -8.857  24.975  1.00  0.00     0.065 A 
ATOM      2  C   UNL     1      16.341  -7.457  24.958  1.00  0.00     0.208 A 
ATOM      3  O   UNL     1      16.668  -6.702  26.035  1.00  0.00    -0.463 OA
ATOM      4  C   UNL     1      17.105  -7.178  27.235  1.00  0.00     0.147 A 
ATOM      5  C   UNL     1      17.265  -8.596  27.311  1.00  0.00     0.066 A 
ATOM      6  C   UNL     1      16.814  -9.420  26.237  1.00  0.00     0.200 A 
ATOM      7  O   UNL     1      16.582 -10.642  26.459  1.00  0.00    -0.288 OA
ATOM      8  C   UNL     1      17.480  -9.135  28.572  1.00  0.00     0.020 A 
ATOM      9  C   UNL     1      16.569  -8.606  29.513  1.00  0.00     0.047 A 
ATOM     10  C   UNL     1      16.615  -7.224  29.681  1.00  0.00     0.125 A 
ATOM     11  C   UNL     1      17.000  -6.410  28.514  1.00  0.00     0.069 A 
ENDROOT
BRANCH   1  12
ATOM     12  C   UNL     1      15.650  -9.699  24.060  1.00  0.00    -0.011 A 
ATOM     13  C   UNL     1      16.216 -10.488  22.995  1.00  0.00     0.013 A 
ATOM     14  C   UNL     1      15.420 -10.800  21.891  1.00  0.00     0.047 A 
ATOM     15  C   UNL     1      14.017 -10.851  22.022  1.00  0.00     0.115 A 
ATOM     16  C   UNL     1      14.223  -9.796  24.200  1.00  0.00     0.013 A 
ATOM     17  C   UNL     1      13.455 -10.435  23.233  1.00  0.00     0.047 A 
BRANCH  15  18
ATOM     18  O   UNL     1      13.224 -11.289  20.970  1.00  0.00    -0.508 OA
ATOM     19  H   UNL     1      12.395 -11.841  21.192  1.00  0.00     0.293 HD
ENDBRANCH  15  18
ENDBRANCH   1  12
BRANCH  11  20
ATOM     20  C   UNL     1      17.903  -5.125  28.952  1.00  0.00     0.188 C 
ATOM     21  C   UNL     1      19.262  -4.698  28.091  1.00  0.00     0.179 C 
ATOM     22  O   UNL     1      18.003  -4.862  30.358  1.00  0.00    -0.362 OA
ATOM     23  C   UNL     1      19.845  -3.259  28.421  1.00  0.00     0.177 C 
ATOM     24  C   UNL     1      18.646  -3.616  30.696  1.00  0.00     0.176 C 
ATOM     25  C   UNL     1      18.922  -2.648  29.465  1.00  0.00     0.177 C 
BRANCH  21  26
ATOM     26  O   UNL     1      20.251  -5.682  27.913  1.00  0.00    -0.387 OA
ATOM     27  H   UNL     1      19.887  -6.361  27.280  1.00  0.00     0.211 HD
ENDBRANCH  21  26
BRANCH  23  28
ATOM     28  O   UNL     1      21.111  -3.397  29.034  1.00  0.00    -0.387 OA
ATOM     29  H   UNL     1      21.085  -2.840  29.857  1.00  0.00     0.211 HD
ENDBRANCH  23  28
BRANCH  24  30
ATOM     30  C   UNL     1      19.975  -3.882  31.565  1.00  0.00     0.191 C 
BRANCH  30  31
ATOM     31  O   UNL     1      20.588  -5.156  31.461  1.00  0.00    -0.394 OA
ATOM     32  H   UNL     1      20.759  -5.233  30.431  1.00  0.00     0.210 HD
ENDBRANCH  30  31
ENDBRANCH  24  30
BRANCH  25  33
ATOM     33  O   UNL     1      19.410  -1.416  29.955  1.00  0.00    -0.388 OA
ATOM     34  H   UNL     1      19.194  -0.738  29.276  1.00  0.00     0.211 HD
ENDBRANCH  25  33
ENDBRANCH  11  20
BRANCH  10  35
ATOM     35  O   UNL     1      16.224  -6.674  30.903  1.00  0.00    -0.507 OA
ATOM     36  H   UNL     1      16.917  -6.444  31.628  1.00  0.00     0.293 HD
ENDBRANCH  10  35
TORSDOF 9
ENDMDL
MODEL 4
REMARK VINA RESULT:    -5.224      7.228     11.514
REMARK INTER + INTRA:          -8.252
REMARK INTER:                  -7.075
REMARK INTRA:                  -1.177
REMARK UNBOUND:                -1.195
REMARK SMILES O=c1c(-c2ccc(O)cc2)coc2c([C@H]3O[C@@H](CO)[C@@H](O)[C@@H](O)[C@H]3O)c(O)ccc12
REMARK SMILES IDX 3 1 11 2 12 3 13 4 30 5 2 6 1 7 29 8 28 9 26 10 14 11 4 12
REMARK SMILES IDX 5 13 6 14 7 15 10 16 9 17 8 18 15 20 24 21 16 22 22 23 17 24
REMARK SMILES IDX 20 25 25 26 23 28 18 30 19 31 21 33 27 35
REMARK H PARENT 8 19 25 27 23 29 19 32 21 34 27 36
REMARK Flexibility Score: inf
ROOT
ATOM      1  C   UNL     1      23.951   3.688  24.821  1.00  0.00     0.065 A 
ATOM      2  C   UNL     1      24.701   2.904  25.715  1.00  0.00     0.208 A 
ATOM      3  O   UNL     1      24.195   2.514  26.910  1.00  0.00    -0.463 OA
ATOM      4  C   UNL     1      22.967   2.847  27.401  1.00  0.00     0.147 A 
ATOM      5  C   UNL     1      22.154   3.637  26.531  1.00  0.00     0.066 A 
ATOM      6  C   UNL     1      22.706   4.161  25.324  1.00  0.00     0.200 A 
ATOM      7  O   UNL     1      22.150   5.156  24.779  1.00  0.00    -0.288 OA
ATOM      8  C   UNL     1      21.005   4.189  27.079  1.00  0.00     0.020 A 
ATOM      9  C   UNL     1      21.277   4.796  28.325  1.00  0.00     0.047 A 
ATOM     10  C   UNL     1      21.794   3.951  29.305  1.00  0.00     0.125 A 
ATOM     11  C   UNL     1      22.627   2.821  28.856  1.00  0.00     0.069 A 
ENDROOT
BRANCH   1  12
ATOM     12  C   UNL     1      24.638   4.537  23.807  1.00  0.00    -0.011 A 
ATOM     13  C   UNL     1      24.946   4.082  22.475  1.00  0.00     0.013 A 
ATOM     14  C   UNL     1      26.009   4.673  21.791  1.00  0.00     0.047 A 
ATOM     15  C   UNL     1      26.410   5.987  22.105  1.00  0.00     0.115 A 
ATOM     16  C   UNL     1      25.019   5.893  24.094  1.00  0.00     0.013 A 
ATOM     17  C   UNL     1      25.817   6.608  23.209  1.00  0.00     0.047 A 
BRANCH  15  18
ATOM     18  O   UNL     1      27.376   6.633  21.343  1.00  0.00    -0.508 OA
ATOM     19  H   UNL     1      27.228   6.697  20.336  1.00  0.00     0.293 HD
ENDBRANCH  15  18
ENDBRANCH   1  12
BRANCH  11  20
ATOM     20  C   UNL     1      22.381   1.495  29.773  1.00  0.00     0.188 C 
ATOM     21  C   UNL     1      23.440   0.212  29.727  1.00  0.00     0.179 C 
ATOM     22  O   UNL     1      21.016   1.112  29.992  1.00  0.00    -0.362 OA
ATOM     23  C   UNL     1      23.265  -0.850  30.894  1.00  0.00     0.177 C 
ATOM     24  C   UNL     1      20.832   0.056  30.957  1.00  0.00     0.176 C 
ATOM     25  C   UNL     1      22.136  -0.338  31.777  1.00  0.00     0.177 C 
BRANCH  21  26
ATOM     26  O   UNL     1      23.701  -0.367  28.471  1.00  0.00    -0.387 OA
ATOM     27  H   UNL     1      23.039  -1.101  28.337  1.00  0.00     0.211 HD
ENDBRANCH  21  26
BRANCH  23  28
ATOM     28  O   UNL     1      22.824  -2.077  30.348  1.00  0.00    -0.387 OA
ATOM     29  H   UNL     1      22.498  -2.622  31.113  1.00  0.00     0.211 HD
ENDBRANCH  23  28
BRANCH  24  30
ATOM     30  C   UNL     1      20.140  -1.225  30.270  1.00  0.00     0.191 C 
BRANCH  30  31
ATOM     31  O   UNL     1      19.952  -2.382  31.067  1.00  0.00    -0.394 OA
ATOM     32  H   UNL     1      18.947  -2.613  30.883  1.00  0.00     0.210 HD
ENDBRANCH  30  31
ENDBRANCH  24  30
BRANCH  25  33
ATOM     33  O   UNL     1      21.779  -1.266  32.781  1.00  0.00    -0.388 OA
ATOM     34  H   UNL     1      22.322  -2.072  32.625  1.00  0.00     0.211 HD
ENDBRANCH  25  33
ENDBRANCH  11  20
BRANCH  10  35
ATOM     35  O   UNL     1      21.570   4.251  30.650  1.00  0.00    -0.507 OA
ATOM     36  H   UNL     1      20.661   4.060  31.092  1.00  0.00     0.293 HD
ENDBRANCH  10  35
TORSDOF 9
ENDMDL
MODEL 5
REMARK VINA RESULT:    -5.131      6.658     11.458
REMARK INTER + INTRA:          -8.125
REMARK INTER:                  -6.713
REMARK INTRA:                  -1.412
REMARK UNBOUND:                -1.195
REMARK SMILES O=c1c(-c2ccc(O)cc2)coc2c([C@H]3O[C@@H](CO)[C@@H](O)[C@@H](O)[C@H]3O)c(O)ccc12
REMARK SMILES IDX 3 1 11 2 12 3 13 4 30 5 2 6 1 7 29 8 28 9 26 10 14 11 4 12
REMARK SMILES IDX 5 13 6 14 7 15 10 16 9 17 8 18 15 20 24 21 16 22 22 23 17 24
REMARK SMILES IDX 20 25 25 26 23 28 18 30 19 31 21 33 27 35
REMARK H PARENT 8 19 25 27 23 29 19 32 21 34 27 36
REMARK Flexibility Score: inf
ROOT
ATOM      1  C   UNL     1      22.084  -0.932  30.758  1.00  0.00     0.065 A 
ATOM      2  C   UNL     1      22.203  -0.957  29.356  1.00  0.00     0.208 A 
ATOM      3  O   UNL     1      22.287   0.185  28.632  1.00  0.00    -0.463 OA
ATOM      4  C   UNL     1      22.231   1.451  29.135  1.00  0.00     0.147 A 
ATOM      5  C   UNL     1      22.119   1.540  30.557  1.00  0.00     0.066 A 
ATOM      6  C   UNL     1      21.906   0.360  31.328  1.00  0.00     0.200 A 
ATOM      7  O   UNL     1      21.414   0.468  32.488  1.00  0.00    -0.288 OA
ATOM      8  C   UNL     1      21.825   2.791  31.084  1.00  0.00     0.020 A 
ATOM      9  C   UNL     1      20.762   3.401  30.381  1.00  0.00     0.047 A 
ATOM     10  C   UNL     1      20.981   3.607  29.021  1.00  0.00     0.125 A 
ATOM     11  C   UNL     1      21.851   2.645  28.319  1.00  0.00     0.069 A 
ENDROOT
BRANCH   1  12
ATOM     12  C   UNL     1      21.472  -2.082  31.481  1.00  0.00    -0.011 A 
ATOM     13  C   UNL     1      22.165  -2.832  32.498  1.00  0.00     0.013 A 
ATOM     14  C   UNL     1      21.783  -4.153  32.738  1.00  0.00     0.047 A 
ATOM     15  C   UNL     1      20.472  -4.576  32.440  1.00  0.00     0.115 A 
ATOM     16  C   UNL     1      20.123  -2.505  31.221  1.00  0.00     0.013 A 
ATOM     17  C   UNL     1      19.631  -3.685  31.767  1.00  0.00     0.047 A 
BRANCH  15  18
ATOM     18  O   UNL     1      20.041  -5.848  32.796  1.00  0.00    -0.508 OA
ATOM     19  H   UNL     1      20.554  -6.649  32.426  1.00  0.00     0.293 HD
ENDBRANCH  15  18
ENDBRANCH   1  12
BRANCH  11  20
ATOM     20  C   UNL     1      22.767   3.380  27.188  1.00  0.00     0.188 C 
ATOM     21  C   UNL     1      23.564   2.498  26.024  1.00  0.00     0.179 C 
ATOM     22  O   UNL     1      23.468   4.561  27.600  1.00  0.00    -0.362 OA
ATOM     23  C   UNL     1      24.136   3.345  24.809  1.00  0.00     0.177 C 
ATOM     24  C   UNL     1      24.110   5.287  26.532  1.00  0.00     0.176 C 
ATOM     25  C   UNL     1      23.739   4.791  25.068  1.00  0.00     0.177 C 
BRANCH  21  26
ATOM     26  O   UNL     1      24.432   1.482  26.463  1.00  0.00    -0.387 OA
ATOM     27  H   UNL     1      24.823   1.052  25.652  1.00  0.00     0.211 HD
ENDBRANCH  21  26
BRANCH  23  28
ATOM     28  O   UNL     1      25.548   3.304  24.834  1.00  0.00    -0.387 OA
ATOM     29  H   UNL     1      25.795   2.428  25.235  1.00  0.00     0.211 HD
ENDBRANCH  23  28
BRANCH  24  30
ATOM     30  C   UNL     1      25.701   5.349  26.765  1.00  0.00     0.191 C 
BRANCH  30  31
ATOM     31  O   UNL     1      26.488   6.002  25.784  1.00  0.00    -0.394 OA
ATOM     32  H   UNL     1      25.805   6.118  24.998  1.00  0.00     0.210 HD
ENDBRANCH  30  31
ENDBRANCH  24  30
BRANCH  25  33
ATOM     33  O   UNL     1      24.311   5.678  24.128  1.00  0.00    -0.388 OA
ATOM     34  H   UNL     1      23.724   5.670  23.339  1.00  0.00     0.211 HD
ENDBRANCH  25  33
ENDBRANCH  11  20
BRANCH  10  35
ATOM     35  O   UNL     1      20.317   4.651  28.375  1.00  0.00    -0.507 OA
ATOM     36  H   UNL     1      20.830   5.329  27.796  1.00  0.00     0.293 HD
ENDBRANCH  10  35
TORSDOF 9
ENDMDL
MODEL 6
REMARK VINA RESULT:    -4.799      2.506      9.225
REMARK INTER + INTRA:          -7.677
REMARK INTER:                  -6.642
REMARK INTRA:                  -1.035
REMARK UNBOUND:                -1.195
REMARK SMILES O=c1c(-c2ccc(O)cc2)coc2c([C@H]3O[C@@H](CO)[C@@H](O)[C@@H](O)[C@H]3O)c(O)ccc12
REMARK SMILES IDX 3 1 11 2 12 3 13 4 30 5 2 6 1 7 29 8 28 9 26 10 14 11 4 12
REMARK SMILES IDX 5 13 6 14 7 15 10 16 9 17 8 18 15 20 24 21 16 22 22 23 17 24
REMARK SMILES IDX 20 25 25 26 23 28 18 30 19 31 21 33 27 35
REMARK H PARENT 8 19 25 27 23 29 19 32 21 34 27 36
REMARK Flexibility Score: inf
ROOT
ATOM      1  C   UNL     1      15.964  -9.632  23.841  1.00  0.00     0.065 A 
ATOM      2  C   UNL     1      15.940  -8.250  24.104  1.00  0.00     0.208 A 
ATOM      3  O   UNL     1      16.234  -7.758  25.332  1.00  0.00    -0.463 OA
ATOM      4  C   UNL     1      16.539  -8.501  26.434  1.00  0.00     0.147 A 
ATOM      5  C   UNL     1      16.587  -9.915  26.226  1.00  0.00     0.066 A 
ATOM      6  C   UNL     1      16.163 -10.463  24.979  1.00  0.00     0.200 A 
ATOM      7  O   UNL     1      15.825 -11.680  24.931  1.00  0.00    -0.288 OA
ATOM      8  C   UNL     1      16.660 -10.711  27.360  1.00  0.00     0.020 A 
ATOM      9  C   UNL     1      15.718 -10.303  28.330  1.00  0.00     0.047 A 
ATOM     10  C   UNL     1      15.852  -8.991  28.782  1.00  0.00     0.125 A 
ATOM     11  C   UNL     1      16.388  -7.998  27.834  1.00  0.00     0.069 A 
ENDROOT
BRANCH   1  12
ATOM     12  C   UNL     1      15.159 -10.197  22.722  1.00  0.00    -0.011 A 
ATOM     13  C   UNL     1      15.686 -11.145  21.773  1.00  0.00     0.013 A 
ATOM     14  C   UNL     1      15.109 -11.219  20.504  1.00  0.00     0.047 A 
ATOM     15  C   UNL     1      13.768 -10.830  20.313  1.00  0.00     0.115 A 
ATOM     16  C   UNL     1      13.779  -9.845  22.533  1.00  0.00     0.013 A 
ATOM     17  C   UNL     1      13.097 -10.235  21.386  1.00  0.00     0.047 A 
BRANCH  15  18
ATOM     18  O   UNL     1      13.143 -11.023  19.087  1.00  0.00    -0.508 OA
ATOM     19  H   UNL     1      13.530 -11.726  18.457  1.00  0.00     0.293 HD
ENDBRANCH  15  18
ENDBRANCH   1  12
BRANCH  11  20
ATOM     20  C   UNL     1      17.346  -6.912  28.584  1.00  0.00     0.188 C 
ATOM     21  C   UNL     1      16.710  -5.531  29.262  1.00  0.00     0.179 C 
ATOM     22  O   UNL     1      18.662  -6.737  28.042  1.00  0.00    -0.362 OA
ATOM     23  C   UNL     1      17.689  -4.743  30.232  1.00  0.00     0.177 C 
ATOM     24  C   UNL     1      19.540  -5.916  28.840  1.00  0.00     0.176 C 
ATOM     25  C   UNL     1      18.983  -5.543  30.281  1.00  0.00     0.177 C 
BRANCH  21  26
ATOM     26  O   UNL     1      15.945  -4.695  28.429  1.00  0.00    -0.387 OA
ATOM     27  H   UNL     1      15.020  -4.665  28.802  1.00  0.00     0.211 HD
ENDBRANCH  21  26
BRANCH  23  28
ATOM     28  O   UNL     1      18.009  -3.492  29.657  1.00  0.00    -0.387 OA
ATOM     29  H   UNL     1      18.050  -3.639  28.675  1.00  0.00     0.211 HD
ENDBRANCH  23  28
BRANCH  24  30
ATOM     30  C   UNL     1      20.004  -4.614  28.015  1.00  0.00     0.191 C 
BRANCH  30  31
ATOM     31  O   UNL     1      20.910  -3.723  28.641  1.00  0.00    -0.394 OA
ATOM     32  H   UNL     1      21.648  -4.376  28.997  1.00  0.00     0.210 HD
ENDBRANCH  30  31
ENDBRANCH  24  30
BRANCH  25  33
ATOM     33  O   UNL     1      19.997  -4.874  31.002  1.00  0.00    -0.388 OA
ATOM     34  H   UNL     1      19.710  -3.936  31.088  1.00  0.00     0.211 HD
ENDBRANCH  25  33
ENDBRANCH  11  20
BRANCH  10  35
ATOM     35  O   UNL     1      15.407  -8.664  30.064  1.00  0.00    -0.507 OA
ATOM     36  H   UNL     1      14.766  -9.284  30.578  1.00  0.00     0.293 HD
ENDBRANCH  10  35
TORSDOF 9
ENDMDL
MODEL 7
REMARK VINA RESULT:    -4.764      1.007      1.930
REMARK INTER + INTRA:          -7.629
REMARK INTER:                  -6.468
REMARK INTRA:                  -1.162
REMARK UNBOUND:                -1.195
REMARK SMILES O=c1c(-c2ccc(O)cc2)coc2c([C@H]3O[C@@H](CO)[C@@H](O)[C@@H](O)[C@H]3O)c(O)ccc12
REMARK SMILES IDX 3 1 11 2 12 3 13 4 30 5 2 6 1 7 29 8 28 9 26 10 14 11 4 12
REMARK SMILES IDX 5 13 6 14 7 15 10 16 9 17 8 18 15 20 24 21 16 22 22 23 17 24
REMARK SMILES IDX 20 25 25 26 23 28 18 30 19 31 21 33 27 35
REMARK H PARENT 8 19 25 27 23 29 19 32 21 34 27 36
REMARK Flexibility Score: inf
ROOT
ATOM      1  C   UNL     1      19.571  -4.139  28.691  1.00  0.00     0.065 A 
ATOM      2  C   UNL     1      19.867  -5.507  28.556  1.00  0.00     0.208 A 
ATOM      3  O   UNL     1      18.905  -6.413  28.256  1.00  0.00    -0.463 OA
ATOM      4  C   UNL     1      17.580  -6.140  28.090  1.00  0.00     0.147 A 
ATOM      5  C   UNL     1      17.219  -4.761  28.206  1.00  0.00     0.066 A 
ATOM      6  C   UNL     1      18.188  -3.809  28.642  1.00  0.00     0.200 A 
ATOM      7  O   UNL     1      17.790  -2.710  29.123  1.00  0.00    -0.288 OA
ATOM      8  C   UNL     1      15.863  -4.474  28.278  1.00  0.00     0.020 A 
ATOM      9  C   UNL     1      15.212  -5.320  29.203  1.00  0.00     0.047 A 
ATOM     10  C   UNL     1      15.294  -6.684  28.929  1.00  0.00     0.125 A 
ATOM     11  C   UNL     1      16.503  -7.167  28.236  1.00  0.00     0.069 A 
ENDROOT
BRANCH   1  12
ATOM     12  C   UNL     1      20.449  -3.257  29.511  1.00  0.00    -0.011 A 
ATOM     13  C   UNL     1      21.245  -2.195  28.950  1.00  0.00     0.013 A 
ATOM     14  C   UNL     1      22.394  -1.785  29.628  1.00  0.00     0.047 A 
ATOM     15  C   UNL     1      22.497  -1.966  31.021  1.00  0.00     0.115 A 
ATOM     16  C   UNL     1      20.538  -3.399  30.938  1.00  0.00     0.013 A 
ATOM     17  C   UNL     1      21.492  -2.697  31.664  1.00  0.00     0.047 A 
BRANCH  15  18
ATOM     18  O   UNL     1      23.574  -1.444  31.726  1.00  0.00    -0.508 OA
ATOM     19  H   UNL     1      24.451  -1.965  31.715  1.00  0.00     0.293 HD
ENDBRANCH  15  18
ENDBRANCH   1  12
BRANCH  11  20
ATOM     20  C   UNL     1      16.153  -8.363  27.185  1.00  0.00     0.188 C 
ATOM     21  C   UNL     1      16.754  -9.900  27.404  1.00  0.00     0.179 C 
ATOM     22  O   UNL     1      16.014  -7.986  25.808  1.00  0.00    -0.362 OA
ATOM     23  C   UNL     1      16.076 -11.023  26.510  1.00  0.00     0.177 C 
ATOM     24  C   UNL     1      15.519  -9.029  24.943  1.00  0.00     0.176 C 
ATOM     25  C   UNL     1      14.995 -10.329  25.692  1.00  0.00     0.177 C 
BRANCH  21  26
ATOM     26  O   UNL     1      18.149 -10.037  27.522  1.00  0.00    -0.387 OA
ATOM     27  H   UNL     1      18.554  -9.722  26.667  1.00  0.00     0.211 HD
ENDBRANCH  21  26
BRANCH  23  28
ATOM     28  O   UNL     1      17.023 -11.521  25.586  1.00  0.00    -0.387 OA
ATOM     29  H   UNL     1      16.556 -12.223  25.059  1.00  0.00     0.211 HD
ENDBRANCH  23  28
BRANCH  24  30
ATOM     30  C   UNL     1      16.601  -9.381  23.804  1.00  0.00     0.191 C 
BRANCH  30  31
ATOM     31  O   UNL     1      16.334 -10.487  22.959  1.00  0.00    -0.394 OA
ATOM     32  H   UNL     1      17.295 -10.861  22.778  1.00  0.00     0.210 HD
ENDBRANCH  30  31
ENDBRANCH  24  30
BRANCH  25  33
ATOM     33  O   UNL     1      14.405 -11.194  24.744  1.00  0.00    -0.388 OA
ATOM     34  H   UNL     1      13.641 -11.624  25.191  1.00  0.00     0.211 HD
ENDBRANCH  25  33
ENDBRANCH  11  20
BRANCH  10  35
ATOM     35  O   UNL     1      14.282  -7.531  29.384  1.00  0.00    -0.507 OA
ATOM     36  H   UNL     1      13.396  -7.154  29.745  1.00  0.00     0.293 HD
ENDBRANCH  10  35
TORSDOF 9
ENDMDL
MODEL 8
REMARK VINA RESULT:    -4.618      3.318     10.014
REMARK INTER + INTRA:          -7.433
REMARK INTER:                  -6.153
REMARK INTRA:                  -1.280
REMARK UNBOUND:                -1.195
REMARK SMILES O=c1c(-c2ccc(O)cc2)coc2c([C@H]3O[C@@H](CO)[C@@H](O)[C@@H](O)[C@H]3O)c(O)ccc12
REMARK SMILES IDX 3 1 11 2 12 3 13 4 30 5 2 6 1 7 29 8 28 9 26 10 14 11 4 12
REMARK SMILES IDX 5 13 6 14 7 15 10 16 9 17 8 18 15 20 24 21 16 22 22 23 17 24
REMARK SMILES IDX 20 25 25 26 23 28 18 30 19 31 21 33 27 35
REMARK H PARENT 8 19 25 27 23 29 19 32 21 34 27 36
REMARK Flexibility Score: inf
ROOT
ATOM      1  C   UNL     1      15.425 -10.578  22.221  1.00  0.00     0.065 A 
ATOM      2  C   UNL     1      14.587  -9.707  22.940  1.00  0.00     0.208 A 
ATOM      3  O   UNL     1      14.887  -9.317  24.203  1.00  0.00    -0.463 OA
ATOM      4  C   UNL     1      15.966  -9.729  24.926  1.00  0.00     0.147 A 
ATOM      5  C   UNL     1      16.861 -10.610  24.244  1.00  0.00     0.066 A 
ATOM      6  C   UNL     1      16.507 -11.130  22.963  1.00  0.00     0.200 A 
ATOM      7  O   UNL     1      17.072 -12.184  22.554  1.00  0.00    -0.288 OA
ATOM      8  C   UNL     1      17.835 -11.231  25.014  1.00  0.00     0.020 A 
ATOM      9  C   UNL     1      17.281 -11.772  26.195  1.00  0.00     0.047 A 
ATOM     10  C   UNL     1      16.660 -10.856  27.041  1.00  0.00     0.125 A 
ATOM     11  C   UNL     1      16.024  -9.680  26.419  1.00  0.00     0.069 A 
ENDROOT
BRANCH   1  12
ATOM     12  C   UNL     1      14.874 -11.405  21.111  1.00  0.00    -0.011 A 
ATOM     13  C   UNL     1      15.248 -11.221  19.731  1.00  0.00     0.013 A 
ATOM     14  C   UNL     1      14.355 -11.617  18.733  1.00  0.00     0.047 A 
ATOM     15  C   UNL     1      13.410 -12.630  18.990  1.00  0.00     0.115 A 
ATOM     16  C   UNL     1      13.941 -12.470  21.355  1.00  0.00     0.013 A 
ATOM     17  C   UNL     1      13.300 -13.108  20.300  1.00  0.00     0.047 A 
BRANCH  15  18
ATOM     18  O   UNL     1      12.608 -13.125  17.970  1.00  0.00    -0.508 OA
ATOM     19  H   UNL     1      11.604 -12.949  18.022  1.00  0.00     0.293 HD
ENDBRANCH  15  18
ENDBRANCH   1  12
BRANCH  11  20
ATOM     20  C   UNL     1      16.202  -8.346  27.341  1.00  0.00     0.188 C 
ATOM     21  C   UNL     1      15.113  -7.091  27.253  1.00  0.00     0.179 C 
ATOM     22  O   UNL     1      17.547  -7.927  27.609  1.00  0.00    -0.362 OA
ATOM     23  C   UNL     1      15.217  -6.024  28.424  1.00  0.00     0.177 C 
ATOM     24  C   UNL     1      17.668  -6.866  28.578  1.00  0.00     0.176 C 
ATOM     25  C   UNL     1      16.326  -6.505  29.349  1.00  0.00     0.177 C 
BRANCH  21  26
ATOM     26  O   UNL     1      14.883  -6.522  25.988  1.00  0.00    -0.387 OA
ATOM     27  H   UNL     1      14.499  -5.613  26.134  1.00  0.00     0.211 HD
ENDBRANCH  21  26
BRANCH  23  28
ATOM     28  O   UNL     1      15.646  -4.786  27.891  1.00  0.00    -0.387 OA
ATOM     29  H   UNL     1      15.078  -4.089  28.314  1.00  0.00     0.211 HD
ENDBRANCH  23  28
BRANCH  24  30
ATOM     30  C   UNL     1      18.351  -5.568  27.914  1.00  0.00     0.191 C 
BRANCH  30  31
ATOM     31  O   UNL     1      18.651  -4.473  28.762  1.00  0.00    -0.394 OA
ATOM     32  H   UNL     1      18.552  -3.659  28.111  1.00  0.00     0.210 HD
ENDBRANCH  30  31
ENDBRANCH  24  30
BRANCH  25  33
ATOM     33  O   UNL     1      16.620  -5.567  30.363  1.00  0.00    -0.388 OA
ATOM     34  H   UNL     1      17.485  -5.159  30.127  1.00  0.00     0.211 HD
ENDBRANCH  25  33
ENDBRANCH  11  20
BRANCH  10  35
ATOM     35  O   UNL     1      16.598 -11.126  28.409  1.00  0.00    -0.507 OA
ATOM     36  H   UNL     1      15.696 -11.278  28.880  1.00  0.00     0.293 HD
ENDBRANCH  10  35
TORSDOF 9
ENDMDL
MODEL 9
REMARK VINA RESULT:    -4.601      1.941      2.739
REMARK INTER + INTRA:          -7.410
REMARK INTER:                  -6.015
REMARK INTRA:                  -1.395
REMARK UNBOUND:                -1.195
REMARK SMILES O=c1c(-c2ccc(O)cc2)coc2c([C@H]3O[C@@H](CO)[C@@H](O)[C@@H](O)[C@H]3O)c(O)ccc12
REMARK SMILES IDX 3 1 11 2 12 3 13 4 30 5 2 6 1 7 29 8 28 9 26 10 14 11 4 12
REMARK SMILES IDX 5 13 6 14 7 15 10 16 9 17 8 18 15 20 24 21 16 22 22 23 17 24
REMARK SMILES IDX 20 25 25 26 23 28 18 30 19 31 21 33 27 35
REMARK H PARENT 8 19 25 27 23 29 19 32 21 34 27 36
REMARK Flexibility Score: inf
ROOT
ATOM      1  C   UNL     1      20.380  -2.471  29.960  1.00  0.00     0.065 A 
ATOM      2  C   UNL     1      20.511  -3.052  28.686  1.00  0.00     0.208 A 
ATOM      3  O   UNL     1      19.782  -4.136  28.324  1.00  0.00    -0.463 OA
ATOM      4  C   UNL     1      18.898  -4.801  29.121  1.00  0.00     0.147 A 
ATOM      5  C   UNL     1      18.717  -4.251  30.427  1.00  0.00     0.066 A 
ATOM      6  C   UNL     1      19.558  -3.189  30.873  1.00  0.00     0.200 A 
ATOM      7  O   UNL     1      19.676  -2.983  32.115  1.00  0.00    -0.288 OA
ATOM      8  C   UNL     1      18.012  -5.025  31.339  1.00  0.00     0.020 A 
ATOM      9  C   UNL     1      18.472  -6.361  31.335  1.00  0.00     0.047 A 
ATOM     10  C   UNL     1      18.367  -7.027  30.115  1.00  0.00     0.125 A 
ATOM     11  C   UNL     1      18.485  -6.219  28.887  1.00  0.00     0.069 A 
ENDROOT
BRANCH   1  12
ATOM     12  C   UNL     1      21.496  -1.671  30.539  1.00  0.00    -0.011 A 
ATOM     13  C   UNL     1      22.779  -2.234  30.876  1.00  0.00     0.013 A 
ATOM     14  C   UNL     1      23.549  -1.613  31.861  1.00  0.00     0.047 A 
ATOM     15  C   UNL     1      23.388  -0.238  32.122  1.00  0.00     0.115 A 
ATOM     16  C   UNL     1      21.367  -0.259  30.776  1.00  0.00     0.013 A 
ATOM     17  C   UNL     1      22.343   0.435  31.481  1.00  0.00     0.047 A 
BRANCH  15  18
ATOM     18  O   UNL     1      24.239   0.419  33.003  1.00  0.00    -0.508 OA
ATOM     19  H   UNL     1      25.226   0.165  32.994  1.00  0.00     0.293 HD
ENDBRANCH  15  18
ENDBRANCH   1  12
BRANCH  11  20
ATOM     20  C   UNL     1      17.487  -6.760  27.717  1.00  0.00     0.188 C 
ATOM     21  C   UNL     1      15.987  -6.076  27.487  1.00  0.00     0.179 C 
ATOM     22  O   UNL     1      17.532  -8.165  27.435  1.00  0.00    -0.362 OA
ATOM     23  C   UNL     1      15.269  -6.467  26.125  1.00  0.00     0.177 C 
ATOM     24  C   UNL     1      16.781  -8.573  26.273  1.00  0.00     0.176 C 
ATOM     25  C   UNL     1      16.230  -7.381  25.378  1.00  0.00     0.177 C 
BRANCH  21  26
ATOM     26  O   UNL     1      15.118  -6.035  28.592  1.00  0.00    -0.387 OA
ATOM     27  H   UNL     1      15.620  -5.628  29.352  1.00  0.00     0.211 HD
ENDBRANCH  21  26
BRANCH  23  28
ATOM     28  O   UNL     1      14.119  -7.239  26.408  1.00  0.00    -0.387 OA
ATOM     29  H   UNL     1      13.426  -6.600  26.725  1.00  0.00     0.211 HD
ENDBRANCH  23  28
BRANCH  24  30
ATOM     30  C   UNL     1      15.618  -9.607  26.684  1.00  0.00     0.191 C 
BRANCH  30  31
ATOM     31  O   UNL     1      14.787 -10.111  25.653  1.00  0.00    -0.394 OA
ATOM     32  H   UNL     1      13.849  -9.728  25.920  1.00  0.00     0.210 HD
ENDBRANCH  30  31
ENDBRANCH  24  30
BRANCH  25  33
ATOM     33  O   UNL     1      15.654  -7.919  24.206  1.00  0.00    -0.388 OA
ATOM     34  H   UNL     1      16.369  -7.954  23.531  1.00  0.00     0.211 HD
ENDBRANCH  25  33
ENDBRANCH  11  20
BRANCH  10  35
ATOM     35  O   UNL     1      18.237  -8.417  30.108  1.00  0.00    -0.507 OA
ATOM     36  H   UNL     1      17.318  -8.865  30.222  1.00  0.00     0.293 HD
ENDBRANCH  10  35
TORSDOF 9
ENDMDL
